# generated using pymatgen
data_V85Zn86O256
_symmetry_space_group_name_H-M   'P 1'
_cell_length_a   16.90423041
_cell_length_b   16.90128434
_cell_length_c   16.90056506
_cell_angle_alpha   89.92352561
_cell_angle_beta   89.98810975
_cell_angle_gamma   90.02986724
_symmetry_Int_Tables_number   1
_chemical_formula_structural   V85Zn86O256
_chemical_formula_sum   'V85 Zn86 O256'
_cell_volume   4828.54053581
_cell_formula_units_Z   1
loop_
 _symmetry_equiv_pos_site_id
 _symmetry_equiv_pos_as_xyz
  1  'x, y, z'
loop_
 _atom_site_type_symbol
 _atom_site_label
 _atom_site_symmetry_multiplicity
 _atom_site_fract_x
 _atom_site_fract_y
 _atom_site_fract_z
 _atom_site_occupancy
  V  V0  1  0.87491925  0.37501201  -0.00099259  1
  V  V1  1  0.23138975  0.50169114  0.24627577  1
  V  V2  1  -0.00233378  0.64576399  0.12928463  1
  V  V3  1  0.87931472  0.50405750  0.87195859  1
  V  V4  1  0.37552291  0.12497220  0.75158767  1
  V  V5  1  -0.00577416  0.24659989  0.75132977  1
  V  V6  1  0.25152788  0.62088456  0.87912643  1
  V  V7  1  0.62347325  0.62437587  0.00210261  1
  V  V8  1  0.49837834  0.12351545  0.12422795  1
  V  V9  1  0.37420690  -0.00504114  0.38578500  1
  V  V10  1  0.37087267  0.87228928  0.00187604  1
  V  V11  1  0.23693416  0.24718260  -0.00373548  1
  V  V12  1  0.37419111  0.62012382  0.75329012  1
  V  V13  1  0.12481909  0.25939253  0.37213534  1
  V  V14  1  0.49879471  0.75101921  0.75231957  1
  V  V15  1  0.87705603  0.64294186  0.25383937  1
  V  V16  1  0.37508331  0.37731722  -0.01302018  1
  V  V17  1  -0.01962761  0.50644940  0.49486789  1
  V  V18  1  0.37086908  0.76307652  0.61939965  1
  V  V19  1  0.24705286  0.12329026  0.37383720  1
  V  V20  1  0.24832203  0.37684279  0.62349524  1
  V  V21  1  0.62383854  0.12564799  -0.00026639  1
  V  V22  1  0.75013930  0.25069314  -0.00189544  1
  V  V23  1  0.74160634  0.12077584  0.38146519  1
  V  V24  1  -0.00027066  0.62785108  0.63728090  1
  V  V25  1  0.88323300  0.88089101  0.50397112  1
  V  V26  1  0.75293209  0.50559085  0.74885213  1
  V  V27  1  0.75394244  0.00707745  0.75021635  1
  V  V28  1  0.49983415  0.86705554  0.38306361  1
  V  V29  1  0.12743576  0.86667363  0.74599356  1
  V  V30  1  0.12400735  0.37119476  0.74910657  1
  V  V31  1  0.75302578  0.74924457  0.00652752  1
  V  V32  1  0.12504911  0.50502886  0.61141350  1
  V  V33  1  0.37418881  0.37690568  0.49816759  1
  V  V34  1  0.24951859  -0.00545779  0.74620854  1
  V  V35  1  0.25045896  -0.01142693  0.24719838  1
  V  V36  1  0.24734763  0.25021418  0.49900024  1
  V  V37  1  0.25037467  0.50015913  0.75013324  1
  V  V38  1  -0.01372183  0.37791774  0.38080796  1
  V  V39  1  0.62570816  -0.00179553  0.12638450  1
  V  V40  1  0.87787680  0.74691143  0.63987530  1
  V  V41  1  0.87389675  0.24744705  0.12424676  1
  V  V42  1  0.00561384  0.37300749  0.87505301  1
  V  V43  1  0.23819008  0.37832278  0.12873123  1
  V  V44  1  -0.00744913  0.12118755  0.62567133  1
  V  V45  1  0.62293429  0.25591049  0.87387725  1
  V  V46  1  0.62408351  0.86494688  0.25390348  1
  V  V47  1  0.12135081  0.74476155  0.87652173  1
  V  V48  1  0.49841978  0.25598841  0.75373965  1
  V  V49  1  0.75328673  0.12753037  0.87223262  1
  V  V50  1  0.37231829  0.25199094  0.12307208  1
  V  V51  1  0.00271239  0.87541796  0.37719570  1
  V  V52  1  0.49991945  0.62558064  0.62323102  1
  V  V53  1  0.23510135  0.12684965  0.87612160  1
  V  V54  1  0.00636431  0.49966300  0.01308578  1
  V  V55  1  0.74822863  0.75122241  0.49362139  1
  V  V56  1  0.76365910  0.49477657  0.25335767  1
  V  V57  1  0.62426257  0.37339513  0.24760109  1
  V  V58  1  0.74446890  0.25632676  0.49900324  1
  V  V59  1  0.62493345  0.87779267  0.75272947  1
  V  V60  1  0.12899118  0.00323211  0.11872123  1
  V  V61  1  0.00438372  0.25385632  0.25099660  1
  V  V62  1  0.37641137  0.50534115  0.35852470  1
  V  V63  1  0.12310402  -0.00570805  0.62008513  1
  V  V64  1  0.24483709  0.76022119  0.50056401  1
  V  V65  1  0.50183371  0.50131232  0.49757475  1
  V  V66  1  0.75629039  0.62736150  0.87531596  1
  V  V67  1  0.87574307  0.12195539  0.25253904  1
  V  V68  1  0.00075251  0.87116130  0.86926611  1
  V  V69  1  0.49592343  0.49757597  -0.01245412  1
  V  V70  1  0.37394830  0.25128059  0.62465996  1
  V  V71  1  0.75328731  0.87388210  0.62729845  1
  V  V72  1  0.11989065  0.86464343  0.24432335  1
  V  V73  1  0.36876216  0.74894981  0.13436868  1
  V  V74  1  0.87773380  0.00574618  0.87293055  1
  V  V75  1  0.24599292  0.62430630  0.38117214  1
  V  V76  1  0.87646760  0.25951607  0.61882776  1
  V  V77  1  0.62528115  0.00835448  0.61893438  1
  V  V78  1  0.37305177  0.12168046  0.24911261  1
  V  V79  1  0.62334049  0.38006107  0.74777485  1
  V  V80  1  0.50011758  0.37257944  0.37293974  1
  V  V81  1  0.11598512  0.12195706  0.49835260  1
  V  V82  1  0.75643160  0.87417966  0.12753210  1
  V  V83  1  0.87912644  0.87360678  0.00246548  1
  V  V84  1  0.49656720  0.62323482  0.13273863  1
  Zn  Zn85  1  0.61707264  0.24053309  0.38093045  1
  Zn  Zn86  1  0.88161129  0.00451576  0.38502260  1
  Zn  Zn87  1  0.50250686  0.00492228  0.49817028  1
  Zn  Zn88  1  0.00992559  0.00595213  -0.00504057  1
  Zn  Zn89  1  0.49846412  -0.00278492  -0.00201150  1
  Zn  Zn90  1  0.74906434  0.62189517  0.37520421  1
  Zn  Zn91  1  0.11531346  0.74187937  0.37740906  1
  Zn  Zn92  1  0.75261518  -0.00068562  0.25368167  1
  Zn  Zn93  1  0.62539552  0.49689991  0.12361442  1
  Zn  Zn94  1  0.61695564  0.63946851  0.48700636  1
  Zn  Zn95  1  0.74764765  0.37523727  0.12308043  1
  Zn  Zn96  1  0.12890217  0.62193373  0.01201010  1
  Zn  Zn97  1  0.37608349  -0.00094239  0.87626181  1
  Zn  Zn98  1  0.75574410  0.38426112  0.61803364  1
  Zn  Zn99  1  0.62813458  0.50433219  0.62107542  1
  Zn  Zn100  1  0.50527956  0.13134275  0.61857176  1
  Zn  Zn101  1  0.50176696  0.74148277  0.25688941  1
  Zn  Zn102  1  0.00679180  0.12657154  0.11902650  1
  Zn  Zn103  1  0.24795166  0.74857980  0.00552126  1
  Zn  Zn104  1  0.49916691  0.87828115  0.87718765  1
  Zn  Zn105  1  0.49983261  0.24772999  0.25016185  1
  Zn  Zn106  1  0.62522659  0.75186878  0.87675580  1
  Zn  Zn107  1  0.18908547  0.18605164  0.18835555  1
  Zn  Zn108  1  0.18333570  0.18635996  0.68729039  1
  Zn  Zn109  1  0.18729111  0.67939940  0.19105947  1
  Zn  Zn110  1  0.18768186  0.68665608  0.68341545  1
  Zn  Zn111  1  0.68862644  0.18753133  0.19115137  1
  Zn  Zn112  1  0.69147941  0.19053321  0.68701611  1
  Zn  Zn113  1  0.69083479  0.68357923  0.18751458  1
  Zn  Zn114  1  0.68680340  0.68823066  0.68538986  1
  Zn  Zn115  1  0.31175981  0.31508198  0.30865400  1
  Zn  Zn116  1  0.30739327  0.30898967  0.81306581  1
  Zn  Zn117  1  0.31301788  0.81129574  0.31568331  1
  Zn  Zn118  1  0.31141441  0.80891667  0.81558586  1
  Zn  Zn119  1  0.81074227  0.30817741  0.31386413  1
  Zn  Zn120  1  0.81537393  0.31669238  0.80845099  1
  Zn  Zn121  1  0.81705705  0.81806160  0.31508763  1
  Zn  Zn122  1  0.81170096  0.81493457  0.81620637  1
  Zn  Zn123  1  0.18562900  0.43909438  0.43309448  1
  Zn  Zn124  1  0.18791824  0.43761046  0.93829942  1
  Zn  Zn125  1  0.18481941  0.93552840  0.43498684  1
  Zn  Zn126  1  0.19392998  0.93412118  0.93372784  1
  Zn  Zn127  1  0.68674591  0.43879294  0.43372764  1
  Zn  Zn128  1  0.68651986  0.43889522  0.93604335  1
  Zn  Zn129  1  0.69045400  0.93344145  0.43640571  1
  Zn  Zn130  1  0.68805068  0.93810381  0.93875698  1
  Zn  Zn131  1  0.30868864  0.05993660  0.06088075  1
  Zn  Zn132  1  0.30877859  0.06425270  0.56438451  1
  Zn  Zn133  1  0.31440029  0.56129720  0.06636778  1
  Zn  Zn134  1  0.31582082  0.56599136  0.56002151  1
  Zn  Zn135  1  0.81519878  0.06157311  0.06115163  1
  Zn  Zn136  1  0.81121521  0.06690692  0.56240818  1
  Zn  Zn137  1  0.81719530  0.56114922  0.06864266  1
  Zn  Zn138  1  0.81406595  0.57064530  0.56468386  1
  Zn  Zn139  1  0.43831545  0.43589688  0.17980058  1
  Zn  Zn140  1  0.43862400  0.43845236  0.68864297  1
  Zn  Zn141  1  0.43840197  0.93222183  0.18882757  1
  Zn  Zn142  1  0.44000684  0.93996539  0.68827558  1
  Zn  Zn143  1  0.93892032  0.43088796  0.19078519  1
  Zn  Zn144  1  0.93849222  0.44186335  0.68653552  1
  Zn  Zn145  1  0.94356288  0.93755366  0.18783724  1
  Zn  Zn146  1  0.94013765  0.93647196  0.68921496  1
  Zn  Zn147  1  0.06136567  0.05924741  0.30980420  1
  Zn  Zn148  1  0.06071025  0.05913653  0.80635371  1
  Zn  Zn149  1  0.05684830  0.56614068  0.31447802  1
  Zn  Zn150  1  0.06715957  0.55793251  0.81250098  1
  Zn  Zn151  1  0.56047108  0.05611501  0.30977123  1
  Zn  Zn152  1  0.56058873  0.06517145  0.81195581  1
  Zn  Zn153  1  0.57269107  0.56030684  0.31364066  1
  Zn  Zn154  1  0.56581832  0.56590999  0.81412126  1
  Zn  Zn155  1  0.43691324  0.18358060  0.43904386  1
  Zn  Zn156  1  0.43443106  0.18793604  0.93646822  1
  Zn  Zn157  1  0.42924767  0.68633743  0.43693863  1
  Zn  Zn158  1  0.43601673  0.68785290  0.93952754  1
  Zn  Zn159  1  0.93360806  0.19007412  0.43845355  1
  Zn  Zn160  1  0.94458827  0.18556183  0.93785129  1
  Zn  Zn161  1  0.93461530  0.69088161  0.44051340  1
  Zn  Zn162  1  0.93934930  0.68806080  0.94127499  1
  Zn  Zn163  1  0.06047354  0.31135009  0.06358500  1
  Zn  Zn164  1  0.05909670  0.31582534  0.55922824  1
  Zn  Zn165  1  0.06670701  0.81661086  0.05905482  1
  Zn  Zn166  1  0.06217469  0.80876186  0.56132467  1
  Zn  Zn167  1  0.55774564  0.31334325  0.06144940  1
  Zn  Zn168  1  0.56540810  0.31388460  0.56465770  1
  Zn  Zn169  1  0.55972863  0.81035269  0.06465078  1
  Zn  Zn170  1  0.56306702  0.81778408  0.56592716  1
  O  O171  1  0.12727919  0.10777272  0.13023508  1
  O  O172  1  0.11590921  0.11932119  0.61713076  1
  O  O173  1  0.10444578  0.62779487  0.12902117  1
  O  O174  1  0.11322006  0.61758229  0.62793728  1
  O  O175  1  0.62096473  0.11826064  0.12215454  1
  O  O176  1  0.62660559  0.11150089  0.63243536  1
  O  O177  1  0.61990509  0.62328165  0.11411032  1
  O  O178  1  0.60968632  0.62636664  0.62207945  1
  O  O179  1  0.38385346  0.38111928  0.37748697  1
  O  O180  1  0.36872612  0.37183218  0.88802603  1
  O  O181  1  0.38881004  0.88239016  0.36965668  1
  O  O182  1  0.37671185  0.87329124  0.88698711  1
  O  O183  1  0.88717579  0.36747428  0.37543696  1
  O  O184  1  0.88531042  0.38313862  0.87874466  1
  O  O185  1  0.88322355  0.87938553  0.38521446  1
  O  O186  1  0.88285683  0.88222745  0.88030731  1
  O  O187  1  0.25548414  0.00260278  0.36773165  1
  O  O188  1  0.25290751  0.01035069  0.86537442  1
  O  O189  1  0.25635088  0.50269331  0.36568710  1
  O  O190  1  0.24250068  0.51198943  0.86623758  1
  O  O191  1  0.75631484  0.00694271  0.37491415  1
  O  O192  1  0.75617910  0.00489598  0.86861672  1
  O  O193  1  0.74868129  0.49948228  0.35816831  1
  O  O194  1  0.75852961  0.50785844  0.87150632  1
  O  O195  1  0.25114183  0.49447826  0.13773210  1
  O  O196  1  0.24379190  0.49793822  0.62825969  1
  O  O197  1  0.24157600  1.00032210  0.13468809  1
  O  O198  1  0.23827335  1.00693149  0.63749799  1
  O  O199  1  0.74840392  0.49554245  0.13667698  1
  O  O200  1  0.74940229  0.50375182  0.63363890  1
  O  O201  1  0.74326842  0.99238025  0.12583199  1
  O  O202  1  0.74413493  0.99703023  0.63346886  1
  O  O203  1  -0.00132312  0.36136847  0.25965153  1
  O  O204  1  0.00557131  0.37201304  0.75576096  1
  O  O205  1  0.01332917  0.87382631  0.25556022  1
  O  O206  1  0.00980273  0.87678320  0.76220758  1
  O  O207  1  0.50580337  0.37398297  0.25537811  1
  O  O208  1  0.50887215  0.36929660  0.74886478  1
  O  O209  1  0.50889516  0.87159943  0.25969825  1
  O  O210  1  0.50705221  0.86809237  0.75210510  1
  O  O211  1  0.49167190  0.12472709  0.24248179  1
  O  O212  1  0.49091932  0.13413427  0.74439767  1
  O  O213  1  0.50709456  0.62120741  0.23647384  1
  O  O214  1  0.49470074  0.63073056  0.74439614  1
  O  O215  1  0.99294236  0.13571503  0.24915194  1
  O  O216  1  1.00629684  0.13608658  0.73993737  1
  O  O217  1  0.98738844  0.62506708  0.24191218  1
  O  O218  1  1.00044158  0.61471855  0.73607685  1
  O  O219  1  0.36745620  0.25895561  0.00431849  1
  O  O220  1  0.36659729  0.25701696  0.50380226  1
  O  O221  1  0.37366425  0.75738511  0.00890478  1
  O  O222  1  0.36895311  0.74951710  0.51407271  1
  O  O223  1  0.87146609  0.25452095  0.00590214  1
  O  O224  1  0.86285659  0.24915051  0.50841751  1
  O  O225  1  0.86812517  0.76461808  -0.00531336  1
  O  O226  1  0.86605422  0.76006630  0.51150169  1
  O  O227  1  0.12842131  0.24287782  0.49370611  1
  O  O228  1  0.13749068  0.25347024  1.00121951  1
  O  O229  1  0.14072218  0.74975937  0.49999498  1
  O  O230  1  0.12891054  0.74605876  0.99183264  1
  O  O231  1  0.63822553  0.24927589  0.50140606  1
  O  O232  1  0.62780095  0.24762398  0.99114722  1
  O  O233  1  0.64313026  0.75511505  0.51140802  1
  O  O234  1  0.63252692  0.74245371  0.99854303  1
  O  O235  1  0.48918181  0.24306193  0.12582937  1
  O  O236  1  0.49374166  0.25252417  0.63557793  1
  O  O237  1  0.49201910  0.73962088  0.12818263  1
  O  O238  1  0.49097724  0.74713909  0.63211297  1
  O  O239  1  0.99348162  0.24888527  0.13355722  1
  O  O240  1  0.99351817  0.24559404  0.62825240  1
  O  O241  1  0.99603452  0.74383933  0.11881499  1
  O  O242  1  0.99550621  0.73524730  0.62276096  1
  O  O243  1  0.00603568  0.25534274  0.37167367  1
  O  O244  1  -0.00579759  0.26096963  0.86493880  1
  O  O245  1  0.00096945  0.76446383  0.38154608  1
  O  O246  1  0.01122510  0.75494079  0.87814873  1
  O  O247  1  0.49803209  0.25837347  0.37229048  1
  O  O248  1  0.50778276  0.24562200  0.86272410  1
  O  O249  1  0.49361173  0.76201694  0.37564286  1
  O  O250  1  0.50209492  0.74827736  0.86173943  1
  O  O251  1  0.23903613  0.13120827  0.49439207  1
  O  O252  1  0.25482273  0.13114812  0.98438697  1
  O  O253  1  0.25511630  0.63316057  0.49027224  1
  O  O254  1  0.24804904  0.62291357  0.99325429  1
  O  O255  1  0.75331249  0.13631866  0.49106482  1
  O  O256  1  0.74385691  0.13096632  0.99327161  1
  O  O257  1  0.75106559  0.64102231  0.49986456  1
  O  O258  1  0.74668444  0.63062378  0.99842310  1
  O  O259  1  0.25752311  0.37049780  0.00502747  1
  O  O260  1  0.25429329  0.37127667  0.50277807  1
  O  O261  1  0.26500174  0.86867638  -0.00240267  1
  O  O262  1  0.25118187  0.85969785  0.49414859  1
  O  O263  1  0.75672413  0.36899448  -0.00133452  1
  O  O264  1  0.74646751  0.36254433  0.49943196  1
  O  O265  1  0.75604524  0.86856447  0.00635522  1
  O  O266  1  0.75744020  0.86777976  0.50871772  1
  O  O267  1  0.13313762  0.49782551  0.25413742  1
  O  O268  1  0.12896337  0.48852759  0.73858137  1
  O  O269  1  0.13257576  0.99038174  0.24291001  1
  O  O270  1  0.13149387  0.98891956  0.74334646  1
  O  O271  1  0.63409124  0.48613017  0.24605273  1
  O  O272  1  0.63161941  0.49494621  0.75021055  1
  O  O273  1  0.62746759  0.99016272  0.23788626  1
  O  O274  1  0.63294275  0.99524997  0.74550955  1
  O  O275  1  0.36685695  0.00153773  0.25404385  1
  O  O276  1  0.36719712  0.00799543  0.74813646  1
  O  O277  1  0.37381219  0.49475173  0.25740932  1
  O  O278  1  0.36941886  0.51257912  0.74450350  1
  O  O279  1  0.87651786  0.01367648  0.24750942  1
  O  O280  1  0.86508942  -0.00647364  0.75934121  1
  O  O281  1  0.86553553  0.49943371  0.24859299  1
  O  O282  1  0.86871280  0.49716209  0.76320958  1
  O  O283  1  0.11721751  0.36248315  0.37966169  1
  O  O284  1  0.11405163  0.38045146  0.86565701  1
  O  O285  1  0.11928154  0.87245773  0.36398700  1
  O  O286  1  0.11986130  0.86731445  0.86922431  1
  O  O287  1  0.61143751  0.37390336  0.36915381  1
  O  O288  1  0.63020899  0.36373029  0.86503135  1
  O  O289  1  0.61276018  0.88157335  0.36636420  1
  O  O290  1  0.62533365  0.87413941  0.86427970  1
  O  O291  1  0.37593444  0.13311276  0.12674795  1
  O  O292  1  0.36942563  0.13414095  0.63711483  1
  O  O293  1  0.38504130  0.63711890  0.11867571  1
  O  O294  1  0.38489972  0.63300657  0.63156622  1
  O  O295  1  0.87373004  0.13491863  0.13151774  1
  O  O296  1  0.88786535  0.13387464  0.62049306  1
  O  O297  1  0.88890443  0.62180113  0.13629000  1
  O  O298  1  0.88783414  0.63318828  0.62695492  1
  O  O299  1  0.25527569  0.25372437  0.11800958  1
  O  O300  1  0.25265969  0.25637405  0.62009282  1
  O  O301  1  0.26489926  0.73988835  0.12607989  1
  O  O302  1  0.26104788  0.74545305  0.61391900  1
  O  O303  1  0.75704785  0.25008635  0.11720990  1
  O  O304  1  0.75770420  0.25163116  0.61559778  1
  O  O305  1  0.74812693  0.75750873  0.11387849  1
  O  O306  1  0.75912694  0.75532986  0.62289876  1
  O  O307  1  0.24271201  0.24621726  0.37726344  1
  O  O308  1  0.24812905  0.23663897  0.88012847  1
  O  O309  1  0.25445977  0.74150333  0.38693858  1
  O  O310  1  0.23944579  0.73719523  0.87548020  1
  O  O311  1  0.74634524  0.24362946  0.38631859  1
  O  O312  1  0.74577705  0.24695055  0.87661390  1
  O  O313  1  0.75454203  0.75657103  0.39182513  1
  O  O314  1  0.74940551  0.74357211  0.88540872  1
  O  O315  1  -0.00136133  0.11811603  0.00527361  1
  O  O316  1  0.00986899  0.12900716  0.50595328  1
  O  O317  1  -0.00291594  0.61650378  0.01496935  1
  O  O318  1  -0.00542855  0.61166739  0.50616145  1
  O  O319  1  0.50576517  0.12505848  0.00632912  1
  O  O320  1  0.49567007  0.11873832  0.50650640  1
  O  O321  1  0.50743180  0.61987660  0.00460194  1
  O  O322  1  0.49794496  0.61955032  0.50564765  1
  O  O323  1  0.49588678  0.38088083  0.49317464  1
  O  O324  1  0.48475202  0.38052287  1.00095064  1
  O  O325  1  0.50572616  0.88117679  0.48713330  1
  O  O326  1  0.48905843  0.87383025  0.99794028  1
  O  O327  1  1.00254888  0.39171483  0.49408046  1
  O  O328  1  0.99657820  0.38168911  0.99346843  1
  O  O329  1  0.99347861  0.87388180  0.49526406  1
  O  O330  1  0.99461575  0.87993852  0.98940658  1
  O  O331  1  0.49354649  0.49457048  0.37831563  1
  O  O332  1  0.50057563  0.50692096  0.88771778  1
  O  O333  1  0.49014751  0.99175897  0.37561050  1
  O  O334  1  0.49539771  0.99920028  0.87771825  1
  O  O335  1  1.00129971  0.49490334  0.38750851  1
  O  O336  1  0.99396976  0.49550386  0.88183727  1
  O  O337  1  0.99866898  0.98542429  0.37168496  1
  O  O338  1  0.99348390  0.99242073  0.87335642  1
  O  O339  1  0.01690596  0.00102718  0.12443374  1
  O  O340  1  0.01031936  0.00996591  0.63291018  1
  O  O341  1  -0.00366401  0.49457368  0.11399679  1
  O  O342  1  0.00389609  0.50774161  0.61442261  1
  O  O343  1  0.50789893  0.00477395  0.12368170  1
  O  O344  1  0.51589676  -0.00020698  0.62595311  1
  O  O345  1  0.50025730  0.50774055  0.11297427  1
  O  O346  1  0.49881870  0.50866227  0.61546410  1
  O  O347  1  0.25310759  0.38905101  0.24257543  1
  O  O348  1  0.24279083  0.37834698  0.74517256  1
  O  O349  1  0.23984146  0.88292210  0.25668948  1
  O  O350  1  0.24289266  0.88428041  0.75647414  1
  O  O351  1  0.74542383  0.38054433  0.24944698  1
  O  O352  1  0.74366472  0.38961050  0.74985855  1
  O  O353  1  0.74587181  0.87700095  0.24322426  1
  O  O354  1  0.74328798  0.88394076  0.74730667  1
  O  O355  1  0.25413808  0.11425806  0.25643087  1
  O  O356  1  0.25322490  0.12156695  0.75840218  1
  O  O357  1  0.25036089  0.60757656  0.25649449  1
  O  O358  1  0.25683393  0.62056429  0.75389579  1
  O  O359  1  0.75913128  0.12510320  0.25983351  1
  O  O360  1  0.74888300  0.11545590  0.75582533  1
  O  O361  1  0.76374950  0.61436606  0.24573287  1
  O  O362  1  0.74304386  0.61519842  0.76037716  1
  O  O363  1  0.36700143  0.11673428  0.36778454  1
  O  O364  1  0.36734563  0.12601630  0.86210900  1
  O  O365  1  0.36457652  0.61441825  0.37477117  1
  O  O366  1  0.36528885  0.63156773  0.86518864  1
  O  O367  1  0.86770154  0.12416098  0.36845305  1
  O  O368  1  0.87095426  0.11254123  0.87782275  1
  O  O369  1  0.87146227  0.63131509  0.35923520  1
  O  O370  1  0.86528532  0.61945067  0.88179180  1
  O  O371  1  0.13886579  0.37132904  0.12237257  1
  O  O372  1  0.12946292  0.38259436  0.62880133  1
  O  O373  1  0.12337690  0.88162212  0.13797094  1
  O  O374  1  0.11821971  0.88273745  0.63247930  1
  O  O375  1  0.62543018  0.37378624  0.13249243  1
  O  O376  1  0.63001808  0.37989626  0.63681619  1
  O  O377  1  0.63434892  0.88086708  0.12823468  1
  O  O378  1  0.63099789  0.88440791  0.63749761  1
  O  O379  1  0.11728118  0.24297942  0.25984394  1
  O  O380  1  0.11338901  0.26406009  0.74088722  1
  O  O381  1  0.13391114  0.76294343  0.25270686  1
  O  O382  1  0.13207884  0.76067695  0.75463060  1
  O  O383  1  0.62441077  0.26149449  0.25448340  1
  O  O384  1  0.61961980  0.25770374  0.75379038  1
  O  O385  1  0.62512357  0.76150638  0.24286602  1
  O  O386  1  0.61677326  0.75863009  0.74940471  1
  O  O387  1  0.37258599  0.24236782  0.23976003  1
  O  O388  1  0.38125139  0.24706231  0.74682293  1
  O  O389  1  0.37868991  0.75353137  0.23765597  1
  O  O390  1  0.37890663  0.74207390  0.74082662  1
  O  O391  1  0.87986457  0.24153513  0.24322405  1
  O  O392  1  0.88679526  0.25318585  0.74089472  1
  O  O393  1  0.86786340  0.74123687  0.24500974  1
  O  O394  1  0.87249434  0.75600647  0.73974542  1
  O  O395  1  0.38470803  0.49474347  0.49186429  1
  O  O396  1  0.37880657  0.48506573  1.00344421  1
  O  O397  1  0.36902159  1.00125490  0.48845701  1
  O  O398  1  0.37494337  0.98542294  1.00241763  1
  O  O399  1  0.88165118  0.50010410  0.50162381  1
  O  O400  1  0.88276145  0.49471170  0.99179574  1
  O  O401  1  0.87097936  0.98564929  0.50672614  1
  O  O402  1  0.87269134  0.98812162  0.99021755  1
  O  O403  1  0.13151355  -0.01165941  0.01545945  1
  O  O404  1  0.13159476  0.00770670  0.51000136  1
  O  O405  1  0.10975146  0.50276286  -0.00460404  1
  O  O406  1  0.12327161  0.49917508  0.50955343  1
  O  O407  1  0.62509085  0.00577722  0.01046864  1
  O  O408  1  0.63115003  -0.00518382  0.51738391  1
  O  O409  1  0.61771934  0.50593889  0.00086620  1
  O  O410  1  0.61138100  0.50070916  0.49977983  1
  O  O411  1  0.36694714  0.36359929  0.11852206  1
  O  O412  1  0.36795353  0.37123711  0.61988685  1
  O  O413  1  0.37993074  0.85976408  0.11661765  1
  O  O414  1  0.37676829  0.86153371  0.63078451  1
  O  O415  1  0.87394675  0.36123829  0.11999293  1
  O  O416  1  0.87449662  0.36448491  0.62875750  1
  O  O417  1  0.86546569  0.88288730  0.11809433  1
  O  O418  1  0.87387144  0.86868594  0.62226758  1
  O  O419  1  0.12722077  0.12968710  0.38185382  1
  O  O420  1  0.13646468  0.12041122  0.86961965  1
  O  O421  1  0.13846948  0.62669061  0.36949062  1
  O  O422  1  0.12964109  0.63110321  0.87579596  1
  O  O423  1  0.63696842  0.12286203  0.36632428  1
  O  O424  1  0.63143588  0.13704122  0.87735740  1
  O  O425  1  0.63387010  0.62805342  0.37556057  1
  O  O426  1  0.63757530  0.62641529  0.88645033  1
