# generated using pymatgen
data_V85Zn86O256
_symmetry_space_group_name_H-M   'P 1'
_cell_length_a   16.94777315
_cell_length_b   16.95083587
_cell_length_c   16.93531564
_cell_angle_alpha   90.04488756
_cell_angle_beta   89.99519065
_cell_angle_gamma   89.94668651
_symmetry_Int_Tables_number   1
_chemical_formula_structural   V85Zn86O256
_chemical_formula_sum   'V85 Zn86 O256'
_cell_volume   4865.15558805
_cell_formula_units_Z   1
loop_
 _symmetry_equiv_pos_site_id
 _symmetry_equiv_pos_as_xyz
  1  'x, y, z'
loop_
 _atom_site_type_symbol
 _atom_site_label
 _atom_site_symmetry_multiplicity
 _atom_site_fract_x
 _atom_site_fract_y
 _atom_site_fract_z
 _atom_site_occupancy
  V  V0  1  0.24934011  0.75241226  -0.00339016  1
  V  V1  1  0.49612616  0.87339456  0.37983014  1
  V  V2  1  0.62629728  0.50281141  0.62091107  1
  V  V3  1  0.25042139  0.00300301  0.24985438  1
  V  V4  1  0.75021079  0.63113019  0.87941003  1
  V  V5  1  0.49609156  0.26398256  0.25764540  1
  V  V6  1  0.75239782  0.74911470  0.49894456  1
  V  V7  1  0.00068339  0.37514410  0.87148119  1
  V  V8  1  0.12451913  0.00415118  0.12287575  1
  V  V9  1  0.24770417  0.12016642  0.88544649  1
  V  V10  1  0.37445071  0.12640014  0.25476578  1
  V  V11  1  0.74850019  0.12726634  0.87688937  1
  V  V12  1  -0.00221748  0.87707755  0.87409978  1
  V  V13  1  0.37591139  0.61698144  0.26320846  1
  V  V14  1  0.37906518  0.73150440  0.12148854  1
  V  V15  1  0.61451295  0.37347197  0.75094015  1
  V  V16  1  -0.00298118  0.75110391  0.24571694  1
  V  V17  1  0.00323226  0.13075017  0.12394247  1
  V  V18  1  0.87672369  0.75074144  0.62315981  1
  V  V19  1  0.87542943  0.12484737  0.75028880  1
  V  V20  1  0.62047236  0.25031125  0.87249717  1
  V  V21  1  0.76378363  0.26602612  0.47633027  1
  V  V22  1  0.87439561  0.00944417  0.37647678  1
  V  V23  1  0.87710179  0.87646148  0.49790132  1
  V  V24  1  0.13382246  0.48490885  0.63920563  1
  V  V25  1  0.50106187  0.49035953  0.49035590  1
  V  V26  1  0.75098849  0.00576809  0.25298415  1
  V  V27  1  0.62691603  0.00004311  0.12626115  1
  V  V28  1  0.00446936  0.75104755  0.74423269  1
  V  V29  1  0.12530380  0.87337682  0.24811914  1
  V  V30  1  0.75266270  0.86370942  0.12177488  1
  V  V31  1  0.12781594  0.37964942  0.26093384  1
  V  V32  1  0.86812980  0.25415731  0.12760423  1
  V  V33  1  0.62535412  0.87461364  0.24849580  1
  V  V34  1  0.62384308  0.25448966  0.37733033  1
  V  V35  1  0.62420492  0.74810802  0.37286088  1
  V  V36  1  0.49824329  0.62785602  0.62434138  1
  V  V37  1  0.37698623  0.76098597  0.61180157  1
  V  V38  1  0.87387374  0.62710725  0.24943249  1
  V  V39  1  0.37867273  0.12831265  0.75208165  1
  V  V40  1  0.62491483  0.88181432  0.74626553  1
  V  V41  1  0.62484003  0.62780892  0.00744498  1
  V  V42  1  0.24623850  -0.00338424  0.74872739  1
  V  V43  1  0.49811384  0.87710371  0.87609919  1
  V  V44  1  0.87575798  0.49944108  0.87336832  1
  V  V45  1  0.49604110  0.50213445  0.00089241  1
  V  V46  1  0.12589538  0.24116423  0.38618540  1
  V  V47  1  -0.00901914  0.47687705  0.49099143  1
  V  V48  1  0.00085639  0.00593218  0.00080873  1
  V  V49  1  0.24866988  0.25492997  0.00330121  1
  V  V50  1  0.00006513  0.87326982  0.37315902  1
  V  V51  1  0.75024389  0.50135422  0.74929395  1
  V  V52  1  0.13917328  0.74076462  0.37722330  1
  V  V53  1  0.51219556  0.12394823  0.63093878  1
  V  V54  1  0.87494851  0.24962780  0.62251410  1
  V  V55  1  0.25664745  0.87729874  0.12523066  1
  V  V56  1  0.49469722  0.37783955  0.88002801  1
  V  V57  1  0.87575513  0.62653041  0.74843974  1
  V  V58  1  0.24869455  0.87775015  0.61051365  1
  V  V59  1  0.12392964  0.75394122  0.87144360  1
  V  V60  1  0.62956809  0.48849965  0.12212406  1
  V  V61  1  0.75517098  0.49504532  0.24498476  1
  V  V62  1  0.87331197  0.00138336  0.87757846  1
  V  V63  1  0.37385578  0.25695893  0.12335693  1
  V  V64  1  0.00170499  0.25743863  0.25586575  1
  V  V65  1  0.87159044  0.86383808  0.00303263  1
  V  V66  1  0.86764418  0.37832155  0.00600627  1
  V  V67  1  0.63488272  0.11696029  0.49444862  1
  V  V68  1  0.12062979  0.62736113  -0.00108600  1
  V  V69  1  0.74813967  0.88390311  0.62363980  1
  V  V70  1  0.24830326  0.38391299  0.12855878  1
  V  V71  1  0.49996727  0.12723244  0.12869619  1
  V  V72  1  0.37589918  -0.00194924  0.38481911  1
  V  V73  1  0.25596421  0.24246797  0.52231632  1
  V  V74  1  0.11895457  0.24166781  0.88901939  1
  V  V75  1  0.36982962  0.62807677  0.74934124  1
  V  V76  1  0.62910504  0.75318618  0.87867803  1
  V  V77  1  0.75559201  0.62238891  0.37431554  1
  V  V78  1  0.75189822  0.37081458  0.63013219  1
  V  V79  1  0.62538040  0.12678928  0.00281588  1
  V  V80  1  0.00611166  0.49793336  0.00089414  1
  V  V81  1  0.00768082  0.25106931  0.74928413  1
  V  V82  1  -0.00622528  0.62836813  0.12361434  1
  V  V83  1  0.01478967  0.00197155  0.50165542  1
  V  V84  1  0.01335252  0.12040653  0.62297113  1
  Zn  Zn85  1  0.12625800  0.61014742  0.49929893  1
  Zn  Zn86  1  0.87288819  0.12881388  0.25246055  1
  Zn  Zn87  1  0.37827214  0.87601591  0.00077775  1
  Zn  Zn88  1  0.12444800  0.88006549  0.74001426  1
  Zn  Zn89  1  0.62699091  0.37806878  0.25245528  1
  Zn  Zn90  1  0.21493332  0.55794115  0.32106696  1
  Zn  Zn91  1  0.12762001  0.50547399  0.13963954  1
  Zn  Zn92  1  0.74753084  0.00479696  0.74531123  1
  Zn  Zn93  1  0.50132470  0.75350759  0.74804671  1
  Zn  Zn94  1  0.38869586  0.25698646  0.63827423  1
  Zn  Zn95  1  0.33207780  0.47127162  0.83513439  1
  Zn  Zn96  1  0.74572630  0.25810639  0.00684091  1
  Zn  Zn97  1  0.24315835  0.11934522  0.38662664  1
  Zn  Zn98  1  0.24361544  0.62355543  0.85981250  1
  Zn  Zn99  1  0.37480600  0.36553807  0.50051910  1
  Zn  Zn100  1  0.49769165  -0.00003316  0.00290787  1
  Zn  Zn101  1  0.62662178  0.62410636  0.49899855  1
  Zn  Zn102  1  0.50057988  0.74561428  0.24271985  1
  Zn  Zn103  1  0.00112391  0.61471040  0.61467383  1
  Zn  Zn104  1  0.37414613  -0.00142265  0.87946295  1
  Zn  Zn105  1  0.50349315  -0.00239804  0.50723437  1
  Zn  Zn106  1  0.37122618  0.47743447  0.36932136  1
  Zn  Zn107  1  0.18602123  0.18996784  0.19072962  1
  Zn  Zn108  1  0.18711727  0.18470509  0.69932037  1
  Zn  Zn109  1  0.19002787  0.68704584  0.18519400  1
  Zn  Zn110  1  0.21517269  0.66146980  0.63570302  1
  Zn  Zn111  1  0.68629811  0.18871983  0.19253718  1
  Zn  Zn112  1  0.68595394  0.18859215  0.68704657  1
  Zn  Zn113  1  0.68751133  0.68603564  0.18722253  1
  Zn  Zn114  1  0.68746683  0.69222840  0.68957255  1
  Zn  Zn115  1  0.30740565  0.31390159  0.32040865  1
  Zn  Zn116  1  0.30420349  0.30575590  0.81049955  1
  Zn  Zn117  1  0.31758157  0.81155582  0.30694357  1
  Zn  Zn118  1  0.31500424  0.81026213  0.80553082  1
  Zn  Zn119  1  0.80683062  0.30576149  0.31045286  1
  Zn  Zn120  1  0.81172704  0.31050203  0.81372038  1
  Zn  Zn121  1  0.81368955  0.81319511  0.30914031  1
  Zn  Zn122  1  0.81231048  0.81424186  0.81097710  1
  Zn  Zn123  1  0.18213773  0.42523900  0.44956997  1
  Zn  Zn124  1  0.19420023  0.42923851  0.91167753  1
  Zn  Zn125  1  0.18909256  0.93279292  0.43214347  1
  Zn  Zn126  1  0.18472555  0.93735110  0.93781491  1
  Zn  Zn127  1  0.71780458  0.42744748  0.42949917  1
  Zn  Zn128  1  0.68574817  0.44087435  0.93520562  1
  Zn  Zn129  1  0.68910216  0.93558846  0.43474513  1
  Zn  Zn130  1  0.68791081  0.93979267  0.93878359  1
  Zn  Zn131  1  0.31600534  0.06520093  0.06240103  1
  Zn  Zn132  1  0.31272794  0.06764997  0.56817465  1
  Zn  Zn133  1  0.29598728  0.54819660  0.02625319  1
  Zn  Zn134  1  0.29081701  0.54229671  0.52193561  1
  Zn  Zn135  1  0.81341315  0.06219313  0.06589073  1
  Zn  Zn136  1  0.81618498  0.06746599  0.55868322  1
  Zn  Zn137  1  0.81302718  0.56523369  0.06165197  1
  Zn  Zn138  1  0.81713859  0.56137121  0.56042697  1
  Zn  Zn139  1  0.43795076  0.44338925  0.18094056  1
  Zn  Zn140  1  0.43409043  0.44157174  0.67777862  1
  Zn  Zn141  1  0.43969560  0.93790654  0.19170950  1
  Zn  Zn142  1  0.43604903  0.94414873  0.68954113  1
  Zn  Zn143  1  0.93917156  0.43904103  0.18925692  1
  Zn  Zn144  1  0.94165460  0.43503390  0.68213239  1
  Zn  Zn145  1  0.93416791  0.93828577  0.18561232  1
  Zn  Zn146  1  0.93730148  0.93950073  0.68512081  1
  Zn  Zn147  1  0.05781159  0.06415275  0.30950123  1
  Zn  Zn148  1  0.06477365  0.06313525  0.81161307  1
  Zn  Zn149  1  0.04718579  0.55962948  0.32114096  1
  Zn  Zn150  1  0.06546239  0.56519141  0.80348098  1
  Zn  Zn151  1  0.56027304  0.06399244  0.31493419  1
  Zn  Zn152  1  0.56203193  0.06022196  0.81251460  1
  Zn  Zn153  1  0.56206607  0.56580753  0.30538083  1
  Zn  Zn154  1  0.56025660  0.56335991  0.81133425  1
  Zn  Zn155  1  0.44132856  0.18414872  0.44234172  1
  Zn  Zn156  1  0.43668886  0.18941943  0.93875453  1
  Zn  Zn157  1  0.44089203  0.68353775  0.43924767  1
  Zn  Zn158  1  0.44083021  0.68820941  0.93473517  1
  Zn  Zn159  1  0.94539695  0.18845004  0.43977944  1
  Zn  Zn160  1  0.93350800  0.18909461  0.94215715  1
  Zn  Zn161  1  0.94336331  0.68252260  0.43598535  1
  Zn  Zn162  1  0.93733216  0.68820470  0.93385101  1
  Zn  Zn163  1  0.06293446  0.31735933  0.06661799  1
  Zn  Zn164  1  0.06368621  0.31795018  0.56373692  1
  Zn  Zn165  1  0.06115107  0.81661054  0.06254321  1
  Zn  Zn166  1  0.06646722  0.81154076  0.55851720  1
  Zn  Zn167  1  0.56062393  0.31412644  0.06353454  1
  Zn  Zn168  1  0.56698764  0.30843751  0.56389264  1
  Zn  Zn169  1  0.56300020  0.81183234  0.06036509  1
  Zn  Zn170  1  0.56535931  0.81269773  0.55993741  1
  O  O171  1  0.11125709  0.12093292  0.13038472  1
  O  O172  1  0.11165462  0.12725181  0.63471575  1
  O  O173  1  0.11319873  0.62379477  0.11940514  1
  O  O174  1  0.11573355  0.60573282  0.63007779  1
  O  O175  1  0.62142921  0.12262759  0.11996530  1
  O  O176  1  0.61999518  0.12493326  0.61708949  1
  O  O177  1  0.62949559  0.62209546  0.11044147  1
  O  O178  1  0.62222021  0.61879766  0.62593377  1
  O  O179  1  0.38087686  0.36570636  0.38450939  1
  O  O180  1  0.39423835  0.37020325  0.87288029  1
  O  O181  1  0.38541204  0.88346476  0.36655713  1
  O  O182  1  0.38581335  0.87316913  0.87547796  1
  O  O183  1  0.80981094  0.34586184  0.41530060  1
  O  O184  1  0.88223425  0.37796733  0.88283530  1
  O  O185  1  0.88262188  0.88048731  0.37826506  1
  O  O186  1  0.87832363  0.88275236  0.88075171  1
  O  O187  1  0.25728483  0.00143303  0.36758033  1
  O  O188  1  0.24964761  0.00538138  0.87242561  1
  O  O189  1  0.25985925  0.49999998  0.40609959  1
  O  O190  1  0.26257705  0.52331836  0.91417622  1
  O  O191  1  0.76192294  -0.00785912  0.36524648  1
  O  O192  1  0.75701806  0.00943657  0.87406670  1
  O  O193  1  0.74559052  0.51580607  0.36384226  1
  O  O194  1  0.75581902  0.50815130  0.86784932  1
  O  O195  1  0.24675416  0.48620553  0.11271796  1
  O  O196  1  0.23301405  0.49398777  0.61432052  1
  O  O197  1  0.24494333  0.99535892  0.12787188  1
  O  O198  1  0.25997914  0.98640098  0.63352308  1
  O  O199  1  0.74254648  0.50886760  0.13302581  1
  O  O200  1  0.74568800  0.49437109  0.63049467  1
  O  O201  1  0.74428960  0.99357696  0.13246238  1
  O  O202  1  0.75963361  0.98705143  0.62390650  1
  O  O203  1  0.00892429  0.36491356  0.24535897  1
  O  O204  1  -0.01178464  0.36159403  0.76101445  1
  O  O205  1  0.00342828  0.86821570  0.25049012  1
  O  O206  1  0.00059893  0.87041086  0.75511735  1
  O  O207  1  0.50257257  0.36565222  0.24545853  1
  O  O208  1  0.51165105  0.38484925  0.75903087  1
  O  O209  1  0.50919569  0.87176071  0.25914617  1
  O  O210  1  0.50884551  0.87638218  0.75581518  1
  O  O211  1  0.49247235  0.13359074  0.24612028  1
  O  O212  1  0.49553115  0.12065404  0.74190456  1
  O  O213  1  0.48313023  0.62869806  0.24777410  1
  O  O214  1  0.50024677  0.63060247  0.73826962  1
  O  O215  1  0.99568775  0.13778914  0.24184004  1
  O  O216  1  0.99237876  0.13006280  0.74617217  1
  O  O217  1  0.99298876  0.63029584  0.24354276  1
  O  O218  1  0.98999212  0.63638911  0.75115525  1
  O  O219  1  0.36493740  0.24509798  0.01349323  1
  O  O220  1  0.36324711  0.23860212  0.50774931  1
  O  O221  1  0.36692482  0.75081900  0.00651413  1
  O  O222  1  0.38280799  0.75065146  0.51309537  1
  O  O223  1  0.87200133  0.26065267  0.00979816  1
  O  O224  1  0.86599033  0.23435774  0.51164431  1
  O  O225  1  0.87919882  0.76460715  -0.00474369  1
  O  O226  1  0.87261766  0.75621657  0.50305216  1
  O  O227  1  0.12596397  0.24885691  0.48924847  1
  O  O228  1  0.12733012  0.24804871  0.99580090  1
  O  O229  1  0.11867027  0.75089344  0.47657843  1
  O  O230  1  0.12773088  0.75037142  0.99120014  1
  O  O231  1  0.63554333  0.24475379  0.48917917  1
  O  O232  1  0.62827797  0.24357554  0.99730827  1
  O  O233  1  0.63452594  0.74746623  0.49000202  1
  O  O234  1  0.62249506  0.74280525  0.98786485  1
  O  O235  1  0.49162435  0.24781320  0.13278493  1
  O  O236  1  0.50518498  0.23118142  0.62313179  1
  O  O237  1  0.48202751  0.75466488  0.12161571  1
  O  O238  1  0.49600444  0.74668879  0.62413093  1
  O  O239  1  0.99278685  0.24584408  0.13108094  1
  O  O240  1  0.99404219  0.24339834  0.63306226  1
  O  O241  1  1.00657042  0.74446757  0.13635460  1
  O  O242  1  0.99478237  0.75224532  0.63087075  1
  O  O243  1  0.01066377  0.24768062  0.36697888  1
  O  O244  1  0.00182488  0.25248560  0.87181293  1
  O  O245  1  0.00625057  0.75413550  0.36002726  1
  O  O246  1  0.00458544  0.75707342  0.86711649  1
  O  O247  1  0.51252851  0.24402007  0.36965427  1
  O  O248  1  0.51416826  0.25869187  0.88433669  1
  O  O249  1  0.50823401  0.75514061  0.37344965  1
  O  O250  1  0.51030000  0.76177301  0.87312661  1
  O  O251  1  0.24521309  0.13607817  0.50277830  1
  O  O252  1  0.25166452  0.13220987  0.99159588  1
  O  O253  1  0.23529540  0.63818800  0.52367149  1
  O  O254  1  0.23595143  0.64549011  1.00907939  1
  O  O255  1  0.73750354  0.13514894  0.50623097  1
  O  O256  1  0.73940060  0.12662347  0.99750457  1
  O  O257  1  0.75106974  0.63020023  0.49074240  1
  O  O258  1  0.74371619  0.62103416  0.98607487  1
  O  O259  1  0.24145081  0.35936251  0.00796252  1
  O  O260  1  0.24884801  0.34359239  0.49770455  1
  O  O261  1  0.24977567  0.86608917  0.00667470  1
  O  O262  1  0.25375031  0.88140441  0.51161646  1
  O  O263  1  0.76378233  0.37882894  -0.00479122  1
  O  O264  1  0.72778871  0.36662602  0.52747096  1
  O  O265  1  0.75955693  0.88187301  0.00913734  1
  O  O266  1  0.75566626  0.86887305  0.50543564  1
  O  O267  1  0.12755321  0.49489610  0.25937896  1
  O  O268  1  0.12517195  0.49513852  0.74174699  1
  O  O269  1  0.12886347  0.99424432  0.24342660  1
  O  O270  1  0.14000764  0.99895178  0.75316286  1
  O  O271  1  0.63286097  0.50100626  0.23941062  1
  O  O272  1  0.63164243  0.49523602  0.74144242  1
  O  O273  1  0.63237884  0.99576877  0.24778726  1
  O  O274  1  0.63064431  0.98642953  0.75505807  1
  O  O275  1  0.37070391  0.00953000  0.25543109  1
  O  O276  1  0.36502505  0.01048414  0.75697524  1
  O  O277  1  0.37972325  0.51070676  0.25480192  1
  O  O278  1  0.38674761  0.52123294  0.74810773  1
  O  O279  1  0.86889577  0.00106735  0.25808241  1
  O  O280  1  0.87518631  0.01198144  0.75647943  1
  O  O281  1  0.86966451  0.51581240  0.24188410  1
  O  O282  1  0.87051505  0.50555517  0.75407695  1
  O  O283  1  0.13022608  0.35968142  0.36510959  1
  O  O284  1  0.10382936  0.36142512  0.88734377  1
  O  O285  1  0.11826031  0.86799146  0.36498262  1
  O  O286  1  0.11708958  0.86564712  0.87356250  1
  O  O287  1  0.63451440  0.35826884  0.37312122  1
  O  O288  1  0.62305833  0.36796396  0.86911161  1
  O  O289  1  0.62335732  0.86421002  0.36776164  1
  O  O290  1  0.62279657  0.86944639  0.87101046  1
  O  O291  1  0.37888314  0.13469373  0.13617361  1
  O  O292  1  0.38635398  0.12888294  0.63705614  1
  O  O293  1  0.37172379  0.63356078  0.11936862  1
  O  O294  1  0.38689726  0.63954527  0.63285347  1
  O  O295  1  0.88521309  0.13450098  0.12634687  1
  O  O296  1  0.88029651  0.13191254  0.63512932  1
  O  O297  1  0.88755158  0.62742446  0.12702636  1
  O  O298  1  0.87732752  0.63507515  0.63097904  1
  O  O299  1  0.25487161  0.25499374  0.12075643  1
  O  O300  1  0.25042643  0.24343869  0.62403823  1
  O  O301  1  0.25895362  0.75967414  0.11868730  1
  O  O302  1  0.26845463  0.76729430  0.62875065  1
  O  O303  1  0.76382260  0.24696655  0.12848711  1
  O  O304  1  0.75944595  0.25545413  0.62546769  1
  O  O305  1  0.74632414  0.76435348  0.12776012  1
  O  O306  1  0.75824757  0.75737634  0.61948068  1
  O  O307  1  0.23348759  0.23901180  0.37289249  1
  O  O308  1  0.23802034  0.23998077  0.88632078  1
  O  O309  1  0.23670762  0.75691866  0.36727994  1
  O  O310  1  0.24099231  0.75058207  0.88014891  1
  O  O311  1  0.73130728  0.23044311  0.37054002  1
  O  O312  1  0.73973592  0.24424002  0.88006509  1
  O  O313  1  0.74429269  0.74370746  0.37669750  1
  O  O314  1  0.74390745  0.74225387  0.87089108  1
  O  O315  1  -0.00515480  0.11682885  0.00880789  1
  O  O316  1  -0.00253832  0.11449626  0.51123801  1
  O  O317  1  0.00159172  0.62059311  0.00509428  1
  O  O318  1  0.00842759  0.61735726  0.49741386  1
  O  O319  1  0.51121211  0.12634637  0.00806128  1
  O  O320  1  0.51533386  0.12173009  0.51025872  1
  O  O321  1  0.51245920  0.61361419  -0.01021450  1
  O  O322  1  0.50600123  0.61770793  0.51059756  1
  O  O323  1  0.51183976  0.38984350  0.50316788  1
  O  O324  1  0.51094539  0.38922384  0.99219941  1
  O  O325  1  0.51084133  0.88046494  0.48444099  1
  O  O326  1  0.50006914  0.87771321  0.99084465  1
  O  O327  1  0.99154439  0.37536430  0.49849947  1
  O  O328  1  0.99013528  0.38325107  0.99684815  1
  O  O329  1  0.99500045  0.88141346  0.49453052  1
  O  O330  1  0.99116882  0.88300268  0.99532639  1
  O  O331  1  0.50747490  0.50640521  0.38952580  1
  O  O332  1  0.51076021  0.49178212  0.88771741  1
  O  O333  1  0.49203360  0.99184033  0.37471374  1
  O  O334  1  0.50134940  0.98755588  0.87790742  1
  O  O335  1  0.99393962  0.49043333  0.38887050  1
  O  O336  1  0.99463295  0.49310315  0.87854963  1
  O  O337  1  0.99326996  0.99305673  0.37870043  1
  O  O338  1  0.99504782  0.99756691  0.88209537  1
  O  O339  1  0.00198670  0.00907724  0.11963175  1
  O  O340  1  -0.00341656  0.00770901  0.61455504  1
  O  O341  1  0.00321755  0.50906420  0.11702877  1
  O  O342  1  0.00725098  0.49549651  0.61731399  1
  O  O343  1  0.50926634  0.00830703  0.12854363  1
  O  O344  1  0.49690517  0.01631840  0.62297542  1
  O  O345  1  0.51418358  0.49721070  0.11152093  1
  O  O346  1  0.51064662  0.51059161  0.61869586  1
  O  O347  1  0.23989171  0.36958212  0.24109549  1
  O  O348  1  0.24800276  0.39831959  0.81255993  1
  O  O349  1  0.24672174  0.88245899  0.24144940  1
  O  O350  1  0.24934138  0.88375088  0.74459184  1
  O  O351  1  0.75381217  0.39214958  0.25279175  1
  O  O352  1  0.74261996  0.37959316  0.74541294  1
  O  O353  1  0.74531541  0.88311999  0.24204082  1
  O  O354  1  0.74533739  0.87734273  0.74003859  1
  O  O355  1  0.25880472  0.11819944  0.24887040  1
  O  O356  1  0.25663224  0.11763281  0.76383046  1
  O  O357  1  0.26754077  0.62323175  0.24246974  1
  O  O358  1  0.26599926  0.63137904  0.74245131  1
  O  O359  1  0.75318577  0.10998395  0.24472409  1
  O  O360  1  0.75749025  0.12501957  0.75620170  1
  O  O361  1  0.75752428  0.62172376  0.25431298  1
  O  O362  1  0.75636145  0.62284168  0.75825899  1
  O  O363  1  0.37549585  0.11885748  0.36579636  1
  O  O364  1  0.36771215  0.12334240  0.87275014  1
  O  O365  1  0.37378960  0.62641643  0.36423181  1
  O  O366  1  0.37506830  0.63884883  0.85413428  1
  O  O367  1  0.88103143  0.11260412  0.37399671  1
  O  O368  1  0.86912352  0.12289178  0.87001349  1
  O  O369  1  0.86575520  0.63267544  0.36329572  1
  O  O370  1  0.86830855  0.62085212  0.86955989  1
  O  O371  1  0.13090796  0.37913252  0.13845707  1
  O  O372  1  0.12137542  0.38211718  0.63356025  1
  O  O373  1  0.13613974  0.88030285  0.12918830  1
  O  O374  1  0.14381428  0.86828548  0.62305610  1
  O  O375  1  0.62993856  0.38499559  0.12666760  1
  O  O376  1  0.62705437  0.38186943  0.63731420  1
  O  O377  1  0.63050105  0.88054407  0.12899734  1
  O  O378  1  0.63600099  0.86909358  0.63339200  1
  O  O379  1  0.11677893  0.25640610  0.25659675  1
  O  O380  1  0.11172098  0.24511814  0.76586996  1
  O  O381  1  0.11966644  0.75441206  0.25453862  1
  O  O382  1  0.11139864  0.75423237  0.75624876  1
  O  O383  1  0.61553317  0.25067040  0.25935917  1
  O  O384  1  0.62878229  0.26031278  0.76027192  1
  O  O385  1  0.62229080  0.75458951  0.25521791  1
  O  O386  1  0.62558172  0.76189317  0.76134594  1
  O  O387  1  0.38006248  0.24296755  0.24694763  1
  O  O388  1  0.36977748  0.23415630  0.75523201  1
  O  O389  1  0.37491971  0.73928710  0.23539544  1
  O  O390  1  0.38268571  0.74404993  0.73834426  1
  O  O391  1  0.88236680  0.25192832  0.24567235  1
  O  O392  1  0.88218263  0.23904425  0.74769871  1
  O  O393  1  0.88356728  0.74025205  0.24900169  1
  O  O394  1  0.88426006  0.74836888  0.74407953  1
  O  O395  1  0.39527375  0.49641183  0.49992271  1
  O  O396  1  0.39767356  0.50137676  1.00746549  1
  O  O397  1  0.37722138  1.00925975  0.48657916  1
  O  O398  1  0.37914995  0.99579702  0.99899181  1
  O  O399  1  0.89069845  0.49763917  0.50797947  1
  O  O400  1  0.88449741  0.49681793  0.99455647  1
  O  O401  1  0.87969719  0.99430880  0.49160374  1
  O  O402  1  0.88452236  0.99564052  0.99630399  1
  O  O403  1  0.10947903  -0.00660695  0.00753614  1
  O  O404  1  0.11335819  -0.00392185  0.49127083  1
  O  O405  1  0.11125985  0.50495397  -0.00458688  1
  O  O406  1  0.10790639  0.49029566  0.50641343  1
  O  O407  1  0.62362186  0.01013152  0.00798166  1
  O  O408  1  0.62915846  0.01323643  0.49493034  1
  O  O409  1  0.62474923  0.50839730  0.00642954  1
  O  O410  1  0.62353357  0.50194112  0.51228270  1
  O  O411  1  0.36564420  0.36436439  0.13287775  1
  O  O412  1  0.38449550  0.36644566  0.61635070  1
  O  O413  1  0.36410755  0.87349807  0.12690182  1
  O  O414  1  0.37389784  0.86692579  0.62747640  1
  O  O415  1  0.88098478  0.36755748  0.11748873  1
  O  O416  1  0.86585785  0.35880854  0.63407963  1
  O  O417  1  0.86566736  0.87918362  0.11506701  1
  O  O418  1  0.86941482  0.86807112  0.61924429  1
  O  O419  1  0.12280991  0.13688730  0.36992131  1
  O  O420  1  0.13203530  0.13146104  0.87626693  1
  O  O421  1  0.12972568  0.63248085  0.36684804  1
  O  O422  1  0.12303182  0.63864504  0.87813460  1
  O  O423  1  0.61910514  0.13042218  0.39018858  1
  O  O424  1  0.62700949  0.13146676  0.88207981  1
  O  O425  1  0.63260881  0.63679941  0.37151539  1
  O  O426  1  0.63287757  0.63378235  0.87812726  1
