# generated using pymatgen
data_V85Zn86O256
_symmetry_space_group_name_H-M   'P 1'
_cell_length_a   16.93201916
_cell_length_b   16.93347099
_cell_length_c   16.93848083
_cell_angle_alpha   89.98507152
_cell_angle_beta   89.99577682
_cell_angle_gamma   90.03138020
_symmetry_Int_Tables_number   1
_chemical_formula_structural   V85Zn86O256
_chemical_formula_sum   'V85 Zn86 O256'
_cell_volume   4856.56398706
_cell_formula_units_Z   1
loop_
 _symmetry_equiv_pos_site_id
 _symmetry_equiv_pos_as_xyz
  1  'x, y, z'
loop_
 _atom_site_type_symbol
 _atom_site_label
 _atom_site_symmetry_multiplicity
 _atom_site_fract_x
 _atom_site_fract_y
 _atom_site_fract_z
 _atom_site_occupancy
  V  V0  1  0.12246787  0.37542730  0.75145256  1
  V  V1  1  0.62037936  0.36874168  0.75550829  1
  V  V2  1  0.36384385  0.02034671  0.36672021  1
  V  V3  1  0.38302841  0.74734605  0.62239128  1
  V  V4  1  -0.00946219  0.38900514  0.88032089  1
  V  V5  1  0.75207611  0.74861964  0.49370511  1
  V  V6  1  0.49293365  -0.00086660  0.00127032  1
  V  V7  1  0.49205752  0.74784839  0.24414074  1
  V  V8  1  0.75474119  0.00290090  0.74910058  1
  V  V9  1  0.00164223  0.36914479  0.37648161  1
  V  V10  1  -0.00293194  0.12425781  0.62990785  1
  V  V11  1  0.37319155  0.62003924  0.24678766  1
  V  V12  1  0.12072427  0.86617927  0.75158886  1
  V  V13  1  0.11821214  0.37570305  0.24789227  1
  V  V14  1  0.12713323  0.00144464  0.62416688  1
  V  V15  1  0.38514495  0.62350048  0.74436757  1
  V  V16  1  0.12601042  0.74989979  0.37268093  1
  V  V17  1  0.48488176  0.13447347  0.12325743  1
  V  V18  1  0.00075380  0.00092730  0.49887895  1
  V  V19  1  0.87585644  0.24699769  0.62891834  1
  V  V20  1  0.25176556  0.50030471  0.75064651  1
  V  V21  1  0.75045369  0.24912259  0.50300078  1
  V  V22  1  0.88027223  0.75215360  0.62595350  1
  V  V23  1  0.37596213  0.87654242  0.49708799  1
  V  V24  1  0.50113391  0.37673531  0.37821451  1
  V  V25  1  0.63863936  0.50155433  0.12772077  1
  V  V26  1  0.62149404  0.87607683  0.23734164  1
  V  V27  1  0.12536969  0.62524777  0.49943611  1
  V  V28  1  -0.00176348  0.87745069  0.37096173  1
  V  V29  1  0.75061746  0.12220665  0.87938119  1
  V  V30  1  0.15522255  0.23419082  0.35323272  1
  V  V31  1  -0.00326700  0.63276372  0.12672817  1
  V  V32  1  0.87577049  0.00721948  0.36873054  1
  V  V33  1  0.88365089  0.00108427  0.87292353  1
  V  V34  1  0.38070603  0.49859836  0.87605168  1
  V  V35  1  0.24839822  0.37577613  0.12433016  1
  V  V36  1  0.74943170  0.63392200  0.89044347  1
  V  V37  1  0.12210569  0.25004731  0.87654303  1
  V  V38  1  0.11925944  0.62437923  -0.00051948  1
  V  V39  1  0.62518671  0.24982856  0.37444409  1
  V  V40  1  0.87643586  0.37616921  0.50488236  1
  V  V41  1  -0.01872406  0.12081229  0.12679585  1
  V  V42  1  0.49688086  0.87808654  0.37205573  1
  V  V43  1  0.13400964  0.87862975  0.24659943  1
  V  V44  1  0.63749918  0.38029526  0.24721960  1
  V  V45  1  -0.00697752  0.24591669  0.75572464  1
  V  V46  1  0.62282259  0.62454291  0.49553451  1
  V  V47  1  0.86306680  0.62617925  0.25209403  1
  V  V48  1  0.25459171  0.37690327  0.62269525  1
  V  V49  1  0.87390612  0.86037801  0.00446288  1
  V  V50  1  0.49346969  0.87260804  0.87999573  1
  V  V51  1  0.50766542  0.49443453  0.00708316  1
  V  V52  1  0.24891749  0.24954350  0.00260882  1
  V  V53  1  0.62599403  0.74706451  0.37148565  1
  V  V54  1  0.50189460  0.12927706  0.63373469  1
  V  V55  1  0.25232410  0.62592682  0.87766925  1
  V  V56  1  0.62469089  0.01043811  0.11741066  1
  V  V57  1  0.75292653  0.50563581  0.75590278  1
  V  V58  1  0.25492394  0.24692484  0.50260291  1
  V  V59  1  0.13132806  0.00123000  0.12440771  1
  V  V60  1  0.62305245  0.50762248  0.62811687  1
  V  V61  1  0.74965457  0.37561597  0.63073934  1
  V  V62  1  0.86188646  0.50337369  0.37431810  1
  V  V63  1  0.49525638  0.50262286  0.50416264  1
  V  V64  1  0.25351546  0.87524150  0.62506934  1
  V  V65  1  0.12419641  0.49950832  0.62468321  1
  V  V66  1  0.11506945  0.49995138  0.12040241  1
  V  V67  1  0.37273867  0.49286182  0.37770774  1
  V  V68  1  0.75668672  0.25268765  0.00343435  1
  V  V69  1  -0.00005359  0.50194792  0.50144742  1
  V  V70  1  0.25233073  0.74971947  0.49895314  1
  V  V71  1  0.37565355  0.36988848  -0.00002669  1
  V  V72  1  0.26293970  0.87146303  0.11676317  1
  V  V73  1  0.62692308  -0.00132521  0.62471811  1
  V  V74  1  0.87625915  0.63121483  0.75313137  1
  V  V75  1  0.25161888  0.12449738  0.87588614  1
  V  V76  1  0.62700972  0.12605581  0.49832504  1
  V  V77  1  0.49726840  0.62345795  0.11751802  1
  V  V78  1  0.50052753  0.00311269  0.49771957  1
  V  V79  1  0.75105014  0.00402725  0.24768631  1
  V  V80  1  0.51048039  0.74748943  0.74566400  1
  V  V81  1  0.62648698  0.75116998  0.90049984  1
  V  V82  1  0.38182424  0.25539375  0.63119985  1
  V  V83  1  0.61847139  0.24434222  0.87918318  1
  V  V84  1  0.25469329  0.00037383  0.74975119  1
  Zn  Zn85  1  0.38015351  0.12856883  0.75387469  1
  Zn  Zn86  1  0.87257289  0.87518455  0.49804163  1
  Zn  Zn87  1  0.62715324  0.87492828  0.75288648  1
  Zn  Zn88  1  0.00133878  0.63069981  0.62960992  1
  Zn  Zn89  1  0.74324114  0.86145398  0.10755987  1
  Zn  Zn90  1  0.87960330  0.39776680  0.01047890  1
  Zn  Zn91  1  0.76010654  0.13195545  0.36720749  1
  Zn  Zn92  1  0.86266503  0.26072806  0.13811812  1
  Zn  Zn93  1  0.75135207  0.87513898  0.62360931  1
  Zn  Zn94  1  0.12897140  0.12570047  0.49524733  1
  Zn  Zn95  1  -0.00248210  0.75112778  0.24642723  1
  Zn  Zn96  1  0.24950411  0.62153119  0.37294063  1
  Zn  Zn97  1  0.37310609  -0.00503307  0.87906979  1
  Zn  Zn98  1  0.00219210  -0.00654469  -0.00034034  1
  Zn  Zn99  1  0.12188418  0.12177322  0.00084058  1
  Zn  Zn100  1  -0.00701840  0.85634856  0.87088138  1
  Zn  Zn101  1  0.24770981  0.49815344  0.25191341  1
  Zn  Zn102  1  0.49583355  0.24423024  0.24925324  1
  Zn  Zn103  1  0.12273880  0.74572229  0.87457420  1
  Zn  Zn104  1  0.50167725  0.37024453  0.87496840  1
  Zn  Zn105  1  -0.01324140  0.23820296  0.25452901  1
  Zn  Zn106  1  0.26344942  0.74599108  0.00443227  1
  Zn  Zn107  1  0.18086643  0.19096329  0.18352517  1
  Zn  Zn108  1  0.18526528  0.18759835  0.68834847  1
  Zn  Zn109  1  0.18849837  0.68913796  0.18676592  1
  Zn  Zn110  1  0.19386983  0.68493550  0.68466640  1
  Zn  Zn111  1  0.68364329  0.18818961  0.18806937  1
  Zn  Zn112  1  0.68897777  0.18398899  0.69320591  1
  Zn  Zn113  1  0.68100666  0.68562713  0.17894336  1
  Zn  Zn114  1  0.69370338  0.68748866  0.68114771  1
  Zn  Zn115  1  0.31048530  0.28212132  0.29500542  1
  Zn  Zn116  1  0.31330908  0.31190149  0.81261000  1
  Zn  Zn117  1  0.31245953  0.81406102  0.30923847  1
  Zn  Zn118  1  0.31409511  0.80788419  0.81140269  1
  Zn  Zn119  1  0.81609341  0.31383944  0.31461349  1
  Zn  Zn120  1  0.80991946  0.31239036  0.81673677  1
  Zn  Zn121  1  0.79065406  0.79457795  0.27288991  1
  Zn  Zn122  1  0.80998181  0.81541761  0.81259234  1
  Zn  Zn123  1  0.18771902  0.43033861  0.43582343  1
  Zn  Zn124  1  0.18352312  0.43969011  0.93656250  1
  Zn  Zn125  1  0.18874980  0.93916314  0.43538634  1
  Zn  Zn126  1  0.18830502  0.93514279  0.93848344  1
  Zn  Zn127  1  0.68619484  0.43460914  0.44250972  1
  Zn  Zn128  1  0.72254905  0.46033394  0.95969666  1
  Zn  Zn129  1  0.68861582  0.93529703  0.43068306  1
  Zn  Zn130  1  0.68731463  0.93384662  0.93754991  1
  Zn  Zn131  1  0.31136078  0.05951699  0.06426943  1
  Zn  Zn132  1  0.31779629  0.06543480  0.56065335  1
  Zn  Zn133  1  0.31197979  0.55658782  0.06309650  1
  Zn  Zn134  1  0.31272656  0.56373437  0.56235122  1
  Zn  Zn135  1  0.80789970  0.05354524  0.05439914  1
  Zn  Zn136  1  0.81485640  0.06271590  0.55920001  1
  Zn  Zn137  1  0.81902803  0.56958530  0.06327753  1
  Zn  Zn138  1  0.80942143  0.56751083  0.56337920  1
  Zn  Zn139  1  0.42519721  0.40928331  0.20392545  1
  Zn  Zn140  1  0.44129736  0.43707622  0.68756224  1
  Zn  Zn141  1  0.43577672  0.94854136  0.19223789  1
  Zn  Zn142  1  0.44093594  0.93585665  0.68918754  1
  Zn  Zn143  1  0.93239561  0.44076571  0.19003816  1
  Zn  Zn144  1  0.93593553  0.43965082  0.69316226  1
  Zn  Zn145  1  0.93919843  0.93681772  0.18494425  1
  Zn  Zn146  1  0.93633006  0.93541170  0.68666741  1
  Zn  Zn147  1  0.06576007  0.06086034  0.30599118  1
  Zn  Zn148  1  0.06701312  0.06103933  0.81038537  1
  Zn  Zn149  1  0.05829649  0.56095947  0.31172476  1
  Zn  Zn150  1  0.06121855  0.56694363  0.81205655  1
  Zn  Zn151  1  0.55836379  0.06507824  0.30705825  1
  Zn  Zn152  1  0.56548432  0.06000704  0.81456943  1
  Zn  Zn153  1  0.56290393  0.56095404  0.30992317  1
  Zn  Zn154  1  0.57002091  0.56343048  0.82016476  1
  Zn  Zn155  1  0.43858184  0.19329837  0.44568529  1
  Zn  Zn156  1  0.43746773  0.18307278  0.94386548  1
  Zn  Zn157  1  0.44002620  0.68363149  0.43288428  1
  Zn  Zn158  1  0.44255865  0.68229269  0.93305537  1
  Zn  Zn159  1  0.93954747  0.18621796  0.44161534  1
  Zn  Zn160  1  0.93645859  0.18058648  0.94104259  1
  Zn  Zn161  1  0.93817954  0.68751481  0.43401327  1
  Zn  Zn162  1  0.94147649  0.68449828  0.93559836  1
  Zn  Zn163  1  0.05262378  0.30811315  0.06186439  1
  Zn  Zn164  1  0.06842597  0.30891398  0.56061407  1
  Zn  Zn165  1  0.06357463  0.81113356  0.05711826  1
  Zn  Zn166  1  0.06349826  0.81481486  0.56176440  1
  Zn  Zn167  1  0.57168417  0.31262992  0.05984774  1
  Zn  Zn168  1  0.56288406  0.31684412  0.56385807  1
  Zn  Zn169  1  0.43963516  0.81099162  0.06085716  1
  Zn  Zn170  1  0.56377729  0.81344103  0.56010586  1
  O  O171  1  0.13156561  0.11010229  0.12329928  1
  O  O172  1  0.11498862  0.11894095  0.62370817  1
  O  O173  1  0.11994071  0.61860930  0.12007508  1
  O  O174  1  0.12322270  0.61844541  0.61978065  1
  O  O175  1  0.61967812  0.11166861  0.12459759  1
  O  O176  1  0.62151724  0.11698960  0.62078774  1
  O  O177  1  0.61253583  0.60916408  0.13270519  1
  O  O178  1  0.62893490  0.61306722  0.61695343  1
  O  O179  1  0.38664770  0.38983270  0.37844708  1
  O  O180  1  0.37912626  0.38053622  0.88011446  1
  O  O181  1  0.38433084  0.87851108  0.37815875  1
  O  O182  1  0.38913319  0.87448273  0.86706250  1
  O  O183  1  0.88226713  0.38676875  0.38394423  1
  O  O184  1  0.88939376  0.37225917  0.87367614  1
  O  O185  1  0.89293736  0.88505611  0.37611212  1
  O  O186  1  0.87642695  0.88342153  0.87935001  1
  O  O187  1  0.26497819  0.00431372  0.38294981  1
  O  O188  1  0.25155719  0.00661353  0.86817403  1
  O  O189  1  0.25834846  0.49908839  0.37612068  1
  O  O190  1  0.25706258  0.50738161  0.86944008  1
  O  O191  1  0.76028432  0.00462476  0.36984388  1
  O  O192  1  0.75481148  0.00399914  0.86827944  1
  O  O193  1  0.76401123  0.49825530  0.38522590  1
  O  O194  1  0.72817824  0.52573879  0.86304095  1
  O  O195  1  0.23518687  0.49095731  0.12636192  1
  O  O196  1  0.24709984  0.49420976  0.63084742  1
  O  O197  1  0.24463045  0.98496719  0.12174250  1
  O  O198  1  0.24833142  0.99692380  0.63004705  1
  O  O199  1  0.73648314  0.50866986  0.12668977  1
  O  O200  1  0.74237327  0.49575413  0.63213537  1
  O  O201  1  0.73721500  0.99483531  0.12846283  1
  O  O202  1  0.74471937  1.00193401  0.63006847  1
  O  O203  1  0.00481146  0.38107812  0.26339032  1
  O  O204  1  0.00414899  0.36756837  0.75814361  1
  O  O205  1  0.01043738  0.87256539  0.25578011  1
  O  O206  1  0.01817144  0.88041995  0.74903030  1
  O  O207  1  0.52023971  0.38739879  0.27092270  1
  O  O208  1  0.51608859  0.37982137  0.75366143  1
  O  O209  1  0.50112868  0.86914412  0.25396971  1
  O  O210  1  0.50514824  0.86559124  0.75657245  1
  O  O211  1  0.50186835  0.12833997  0.23048624  1
  O  O212  1  0.50093150  0.11909111  0.73732768  1
  O  O213  1  0.49337149  0.62984433  0.24244999  1
  O  O214  1  0.49476694  0.63168679  0.75632360  1
  O  O215  1  1.00284019  0.12079766  0.23092780  1
  O  O216  1  1.00558603  0.13334083  0.74207138  1
  O  O217  1  0.99425753  0.62626875  0.24323415  1
  O  O218  1  0.98072980  0.61586623  0.74748808  1
  O  O219  1  0.36598566  0.26274313  -0.00693163  1
  O  O220  1  0.36481198  0.25146697  0.51572377  1
  O  O221  1  0.37695146  0.74477329  -0.00349288  1
  O  O222  1  0.37335841  0.75362702  0.50236983  1
  O  O223  1  0.86078531  0.24397220  0.00012868  1
  O  O224  1  0.87089603  0.25586167  0.50823971  1
  O  O225  1  0.87728210  0.76152408  -0.00309193  1
  O  O226  1  0.86628180  0.74998122  0.50000357  1
  O  O227  1  0.14016954  0.24800158  0.49229560  1
  O  O228  1  0.13101840  0.24790092  0.99203990  1
  O  O229  1  0.13171439  0.74654202  0.49432463  1
  O  O230  1  0.13362998  0.73456535  0.99923834  1
  O  O231  1  0.63048011  0.24690103  0.49467483  1
  O  O232  1  0.63614719  0.24995014  0.98501571  1
  O  O233  1  0.62762710  0.74350526  0.49203876  1
  O  O234  1  0.62226175  0.75423181  0.99538913  1
  O  O235  1  0.50746150  0.23519485  0.11726827  1
  O  O236  1  0.49382054  0.24388957  0.62082045  1
  O  O237  1  0.49795842  0.73810680  0.13373504  1
  O  O238  1  0.49299846  0.75485796  0.63100316  1
  O  O239  1  0.99611967  0.22870448  0.12264669  1
  O  O240  1  0.99801981  0.24284116  0.63179421  1
  O  O241  1  1.00605896  0.73704485  0.12749032  1
  O  O242  1  0.98564356  0.74946019  0.61536990  1
  O  O243  1  -0.00328805  0.26355658  0.37913017  1
  O  O244  1  0.00386234  0.24847763  0.86911659  1
  O  O245  1  0.01322698  0.76086324  0.38052346  1
  O  O246  1  0.00922502  0.74393136  0.86923542  1
  O  O247  1  0.50727353  0.25976223  0.37801108  1
  O  O248  1  0.51454037  0.24589908  0.88026769  1
  O  O249  1  0.50585212  0.75850864  0.36931174  1
  O  O250  1  0.51284302  0.75399347  0.86799163  1
  O  O251  1  0.24936643  0.14221122  0.50625243  1
  O  O252  1  0.25015277  0.13305903  0.99312663  1
  O  O253  1  0.24419969  0.63232644  0.49712179  1
  O  O254  1  0.24681045  0.62234211  0.99161001  1
  O  O255  1  0.74384090  0.13190707  0.49669540  1
  O  O256  1  0.74962065  0.12774868  0.98543662  1
  O  O257  1  0.73769087  0.63743584  0.50013418  1
  O  O258  1  0.74926443  0.63504182  0.98875247  1
  O  O259  1  0.25333200  0.36897240  0.00136207  1
  O  O260  1  0.24404643  0.37112397  0.51892793  1
  O  O261  1  0.25053218  0.87035501  0.01274380  1
  O  O262  1  0.25594276  0.86953877  0.50530591  1
  O  O263  1  0.75274321  0.35330563  -0.00696832  1
  O  O264  1  0.75637190  0.36905884  0.51034709  1
  O  O265  1  0.76588079  0.87563814  -0.00398639  1
  O  O266  1  0.74914699  0.86195432  0.49757487  1
  O  O267  1  0.12604089  0.48954528  0.24567866  1
  O  O268  1  0.13017892  0.49692465  0.74316142  1
  O  O269  1  0.12693338  0.98987112  0.24055508  1
  O  O270  1  0.13770164  0.99138804  0.74416815  1
  O  O271  1  0.62621104  0.49162039  0.24118583  1
  O  O272  1  0.63082786  0.49623431  0.74296605  1
  O  O273  1  0.62393496  0.99443027  0.23893583  1
  O  O274  1  0.63217604  0.99853118  0.73998774  1
  O  O275  1  0.37457483  0.00525822  0.26754490  1
  O  O276  1  0.36405567  0.00161240  0.74985359  1
  O  O277  1  0.37190536  0.50184921  0.25952225  1
  O  O278  1  0.37469756  0.50603448  0.75510992  1
  O  O279  1  0.86402613  -0.00847026  0.25677812  1
  O  O280  1  0.86854123  -0.00714680  0.76131034  1
  O  O281  1  0.87791619  0.50836328  0.26759509  1
  O  O282  1  0.85881222  0.50734460  0.74703219  1
  O  O283  1  0.12154517  0.36282440  0.36517606  1
  O  O284  1  0.11639048  0.36970092  0.86943495  1
  O  O285  1  0.12031204  0.87162052  0.36733189  1
  O  O286  1  0.12983710  0.87192780  0.85953917  1
  O  O287  1  0.62375663  0.36621654  0.37290137  1
  O  O288  1  0.62553981  0.35918052  0.86838848  1
  O  O289  1  0.60997108  0.87128411  0.36827641  1
  O  O290  1  0.61741906  0.86326081  0.87419784  1
  O  O291  1  0.38493694  0.12711807  0.12230940  1
  O  O292  1  0.38644340  0.13338853  0.62696169  1
  O  O293  1  0.38201295  0.61263950  0.13843497  1
  O  O294  1  0.37271405  0.63006349  0.63720494  1
  O  O295  1  0.88130549  0.11487771  0.12182582  1
  O  O296  1  0.88899271  0.12964868  0.62094329  1
  O  O297  1  0.88273341  0.61891702  0.14207165  1
  O  O298  1  0.87497141  0.63409795  0.63191599  1
  O  O299  1  0.24148686  0.26000518  0.10947762  1
  O  O300  1  0.25414196  0.25752323  0.62004061  1
  O  O301  1  0.24808019  0.76678259  0.12514001  1
  O  O302  1  0.26217566  0.75518397  0.61923377  1
  O  O303  1  0.74699100  0.23957518  0.10817179  1
  O  O304  1  0.75602274  0.25328122  0.62446523  1
  O  O305  1  0.75145541  0.76739541  0.16604749  1
  O  O306  1  0.75932475  0.75312392  0.61132878  1
  O  O307  1  0.25564447  0.27565849  0.40004144  1
  O  O308  1  0.24374564  0.24473153  0.88166340  1
  O  O309  1  0.23999465  0.75117876  0.37995347  1
  O  O310  1  0.24804843  0.73438056  0.87195996  1
  O  O311  1  0.74243237  0.24933379  0.38387792  1
  O  O312  1  0.74575207  0.23899787  0.87960655  1
  O  O313  1  0.73197870  0.75662844  0.37533538  1
  O  O314  1  0.73449955  0.74507963  0.87063169  1
  O  O315  1  0.00262930  0.11645954  0.01155457  1
  O  O316  1  0.00418409  0.11454081  0.50760002  1
  O  O317  1  0.00687470  0.62291648  0.01061715  1
  O  O318  1  0.00674078  0.61647008  0.50151953  1
  O  O319  1  0.49978295  0.11419899  0.01130935  1
  O  O320  1  0.50825893  0.12202149  0.51097779  1
  O  O321  1  0.49729045  0.61357555  0.01168657  1
  O  O322  1  0.51270641  0.61817215  0.49859049  1
  O  O323  1  0.51016838  0.38858361  0.48922308  1
  O  O324  1  0.49191365  0.37744768  1.00104056  1
  O  O325  1  0.49600614  0.88158916  0.49059088  1
  O  O326  1  0.49898190  0.88307719  0.99120648  1
  O  O327  1  0.99652062  0.38042923  0.49762082  1
  O  O328  1  0.99929965  0.37399498  0.98400047  1
  O  O329  1  1.00430076  0.88889547  0.49247795  1
  O  O330  1  0.99075650  0.87485273  0.99270602  1
  O  O331  1  0.49632033  0.49781168  0.38514788  1
  O  O332  1  0.50140081  0.49854667  0.89024347  1
  O  O333  1  0.49470926  0.99506855  0.37900410  1
  O  O334  1  0.50158620  0.99131438  0.88283182  1
  O  O335  1  0.99972775  0.48949688  0.38857796  1
  O  O336  1  1.00124038  0.48720973  0.87016173  1
  O  O337  1  0.99893033  0.99691456  0.37987832  1
  O  O338  1  0.98988831  0.99887322  0.87112071  1
  O  O339  1  0.00962512  0.00734553  0.12307696  1
  O  O340  1  0.00380748  0.00526179  0.61860966  1
  O  O341  1  0.01118092  0.51007287  0.13144107  1
  O  O342  1  0.00305664  0.49879695  0.61450688  1
  O  O343  1  0.50676878  0.00617998  0.11947928  1
  O  O344  1  0.50737861  0.00674282  0.61879954  1
  O  O345  1  0.50350965  0.50176473  0.11594240  1
  O  O346  1  0.50995635  0.49501360  0.61536184  1
  O  O347  1  0.23603297  0.37155785  0.23696730  1
  O  O348  1  0.24340029  0.38076548  0.74434438  1
  O  O349  1  0.24017341  0.87055573  0.23982623  1
  O  O350  1  0.24695025  0.88103054  0.74390353  1
  O  O351  1  0.73595805  0.37749883  0.26056582  1
  O  O352  1  0.74251733  0.38536704  0.75048498  1
  O  O353  1  0.73074378  0.89294128  0.26383730  1
  O  O354  1  0.74526111  0.88763783  0.74601382  1
  O  O355  1  0.23367264  0.19498151  0.28292927  1
  O  O356  1  0.24992904  0.11698056  0.75669326  1
  O  O357  1  0.25874490  0.62207030  0.25143973  1
  O  O358  1  0.25954864  0.61811049  0.75580445  1
  O  O359  1  0.73896588  0.10942063  0.25244604  1
  O  O360  1  0.74966310  0.11090179  0.75924795  1
  O  O361  1  0.76455039  0.62505997  0.25094017  1
  O  O362  1  0.75734135  0.62107245  0.75101597  1
  O  O363  1  0.38018318  0.11931546  0.38095095  1
  O  O364  1  0.36347388  0.12436403  0.87295702  1
  O  O365  1  0.37627803  0.61322512  0.36408035  1
  O  O366  1  0.37095075  0.61754319  0.86419011  1
  O  O367  1  0.87911570  0.11160408  0.37820541  1
  O  O368  1  0.86856748  0.10904583  0.87490463  1
  O  O369  1  0.88124419  0.60918418  0.37057964  1
  O  O370  1  0.85623039  0.63630203  0.86763132  1
  O  O371  1  0.12323122  0.38042947  0.12791813  1
  O  O372  1  0.13052446  0.37991847  0.63302131  1
  O  O373  1  0.12945581  0.88173779  0.12977701  1
  O  O374  1  0.13257455  0.88090212  0.63261415  1
  O  O375  1  0.62272024  0.38347111  0.14006017  1
  O  O376  1  0.63254890  0.38259613  0.63289590  1
  O  O377  1  0.62234808  0.88402557  0.13526366  1
  O  O378  1  0.62610343  0.89014310  0.62137207  1
  O  O379  1  0.10531885  0.26201525  0.25093055  1
  O  O380  1  0.11521860  0.25578344  0.75572246  1
  O  O381  1  0.12300601  0.75599665  0.25945398  1
  O  O382  1  0.13387313  0.76442992  0.74361102  1
  O  O383  1  0.62080472  0.26184580  0.25700106  1
  O  O384  1  0.63331924  0.25797858  0.76203056  1
  O  O385  1  0.60901721  0.75632123  0.25579434  1
  O  O386  1  0.61559089  0.75076023  0.73898957  1
  O  O387  1  0.39917329  0.29930006  0.23702095  1
  O  O388  1  0.36991138  0.24676706  0.73694034  1
  O  O389  1  0.38512231  0.73850787  0.25854963  1
  O  O390  1  0.38732376  0.74180070  0.74425621  1
  O  O391  1  0.87416852  0.24573612  0.25090403  1
  O  O392  1  0.88638412  0.25348195  0.74593213  1
  O  O393  1  0.88387934  0.72915429  0.27317444  1
  O  O394  1  0.86636349  0.74439642  0.73790717  1
  O  O395  1  0.38787434  0.50875355  0.49541291  1
  O  O396  1  0.38291864  0.49022457  0.99344334  1
  O  O397  1  0.38328911  0.99520799  0.49346046  1
  O  O398  1  0.38720129  1.00053912  0.99806701  1
  O  O399  1  0.88156051  0.49866331  0.49515772  1
  O  O400  1  0.83209343  0.49535110  0.98265796  1
  O  O401  1  0.88408083  0.99690600  0.49160023  1
  O  O402  1  0.87737098  0.99203718  0.98361165  1
  O  O403  1  0.12330417  -0.00149468  0.00850912  1
  O  O404  1  0.11979346  0.00329951  0.50563328  1
  O  O405  1  0.12890052  0.51195610  0.00826543  1
  O  O406  1  0.11904079  0.50275193  0.50467867  1
  O  O407  1  0.61693582  -0.00823317  0.01365698  1
  O  O408  1  0.62180743  0.00668133  0.50312473  1
  O  O409  1  0.62186615  0.48727599  0.01784691  1
  O  O410  1  0.62077883  0.50754458  0.50625761  1
  O  O411  1  0.35545977  0.38788539  0.11093849  1
  O  O412  1  0.36704013  0.36933525  0.63174401  1
  O  O413  1  0.36688944  0.87755024  0.12981591  1
  O  O414  1  0.37237785  0.87001337  0.61751247  1
  O  O415  1  0.88889404  0.37015932  0.11870565  1
  O  O416  1  0.86997599  0.36966169  0.62306106  1
  O  O417  1  0.87482023  0.88072658  0.10722265  1
  O  O418  1  0.87287761  0.86812836  0.61890523  1
  O  O419  1  0.11588132  0.14013037  0.37552529  1
  O  O420  1  0.13639753  0.12958829  0.87602433  1
  O  O421  1  0.12513134  0.63357036  0.37978093  1
  O  O422  1  0.13512177  0.62016054  0.88175929  1
  O  O423  1  0.62049572  0.13883766  0.37764729  1
  O  O424  1  0.63372910  0.13632179  0.86759569  1
  O  O425  1  0.61839555  0.63475945  0.38101069  1
  O  O426  1  0.63193331  0.64423933  0.87518126  1
