# generated using pymatgen
data_V85Zn86O256
_symmetry_space_group_name_H-M   'P 1'
_cell_length_a   16.94892676
_cell_length_b   16.95893398
_cell_length_c   16.95206147
_cell_angle_alpha   90.01801067
_cell_angle_beta   90.05198424
_cell_angle_gamma   89.97835914
_symmetry_Int_Tables_number   1
_chemical_formula_structural   V85Zn86O256
_chemical_formula_sum   'V85 Zn86 O256'
_cell_volume   4872.62556588
_cell_formula_units_Z   1
loop_
 _symmetry_equiv_pos_site_id
 _symmetry_equiv_pos_as_xyz
  1  'x, y, z'
loop_
 _atom_site_type_symbol
 _atom_site_label
 _atom_site_symmetry_multiplicity
 _atom_site_fract_x
 _atom_site_fract_y
 _atom_site_fract_z
 _atom_site_occupancy
  V  V0  1  0.00110218  0.49687534  0.49874017  1
  V  V1  1  -0.00258722  0.50357441  -0.00950303  1
  V  V2  1  0.74974770  0.37386448  0.12347771  1
  V  V3  1  0.74177149  -0.00825967  0.25396246  1
  V  V4  1  0.12937134  0.12503360  0.48374275  1
  V  V5  1  0.62302394  0.24774534  0.87158986  1
  V  V6  1  0.87897277  -0.00077096  0.87471977  1
  V  V7  1  0.62130284  0.49846516  0.12267599  1
  V  V8  1  0.49509000  0.24549408  0.25323600  1
  V  V9  1  0.62731314  0.37205185  0.24941093  1
  V  V10  1  -0.00055179  0.12484311  0.12702827  1
  V  V11  1  0.88099056  0.37148173  0.49119038  1
  V  V12  1  0.75914695  0.62147577  0.87563998  1
  V  V13  1  0.13357746  0.63003892  0.00211693  1
  V  V14  1  0.61949393  0.62005927  -0.00429595  1
  V  V15  1  0.75383996  0.62400858  0.37630504  1
  V  V16  1  0.49474528  0.38073259  0.37241378  1
  V  V17  1  0.37398982  0.24672095  0.12743253  1
  V  V18  1  0.87354958  0.87475051  0.00139130  1
  V  V19  1  0.50211285  0.38258651  0.88060360  1
  V  V20  1  0.00001118  0.88335710  0.37851647  1
  V  V21  1  0.75023742  0.86689527  0.62824067  1
  V  V22  1  0.37877346  0.38430708  0.00577372  1
  V  V23  1  0.87441077  0.24919670  0.12483453  1
  V  V24  1  0.48214686  0.24525082  0.74533731  1
  V  V25  1  0.74397125  0.87237952  0.12926047  1
  V  V26  1  0.24696071  0.37601493  0.13442413  1
  V  V27  1  0.61929979  0.11901724  0.00024335  1
  V  V28  1  0.12511826  -0.00377880  0.60448742  1
  V  V29  1  0.00004811  0.26212850  0.25889739  1
  V  V30  1  0.74956328  0.24979850  -0.00081893  1
  V  V31  1  0.13185130  0.75267350  0.87707620  1
  V  V32  1  0.87264185  0.12168246  0.25226638  1
  V  V33  1  0.87448833  0.75082384  0.12578338  1
  V  V34  1  0.50350721  0.75516055  0.24744080  1
  V  V35  1  0.37108332  0.85688756  0.50128730  1
  V  V36  1  0.75099575  0.49971003  0.24982898  1
  V  V37  1  0.00247227  0.75377601  0.25317507  1
  V  V38  1  0.88213472  0.87570567  0.51189329  1
  V  V39  1  0.75966200  0.49912898  0.75277426  1
  V  V40  1  0.00553951  0.36595702  0.86821396  1
  V  V41  1  0.49503091  0.00100922  0.50807360  1
  V  V42  1  0.75092548  0.37137434  0.62149785  1
  V  V43  1  0.49777885  0.62017474  0.12058575  1
  V  V44  1  0.62931073  0.75505702  0.37331543  1
  V  V45  1  0.61906595  -0.00692020  0.12450784  1
  V  V46  1  0.50153796  0.88447502  0.88073303  1
  V  V47  1  0.62509427  0.37252467  0.74889879  1
  V  V48  1  0.49442552  0.12054664  0.12773892  1
  V  V49  1  0.37565400  0.62574488  0.25252067  1
  V  V50  1  0.25598654  0.85821142  0.62938136  1
  V  V51  1  0.50022809  0.87577826  0.37755464  1
  V  V52  1  0.87564071  0.62637044  0.25163660  1
  V  V53  1  0.62756729  0.62588475  0.50142826  1
  V  V54  1  0.13718155  0.26016051  0.36934782  1
  V  V55  1  0.29135921  0.36355529  0.57545897  1
  V  V56  1  0.12652828  0.62656980  0.50676574  1
  V  V57  1  0.25588553  0.62957250  0.38328953  1
  V  V58  1  0.49361033  0.49769877  0.49340930  1
  V  V59  1  0.12629769  0.12988997  -0.01045842  1
  V  V60  1  0.13038072  -0.00001619  0.12602705  1
  V  V61  1  -0.00239992  -0.00035117  0.00275356  1
  V  V62  1  0.25003048  0.86664279  0.12269953  1
  V  V63  1  0.74602624  0.12092203  0.37755776  1
  V  V64  1  0.49347630  0.75145351  0.74988507  1
  V  V65  1  0.61893760  0.12305058  0.50909759  1
  V  V66  1  0.62206054  0.24922904  0.38105537  1
  V  V67  1  0.74862457  0.74759914  -0.00055012  1
  V  V68  1  0.75183066  0.12426620  0.87384035  1
  V  V69  1  0.62467425  0.49562552  0.62394380  1
  V  V70  1  0.00057702  0.62677114  0.12432280  1
  V  V71  1  0.12943080  0.88018097  0.74856377  1
  V  V72  1  0.88796293  0.24786323  0.62845583  1
  V  V73  1  0.24946619  0.50374994  0.25294377  1
  V  V74  1  0.36125162  0.01365757  0.86653634  1
  V  V75  1  0.12231153  0.49775528  0.13035842  1
  V  V76  1  0.36774220  0.87768873  -0.00466287  1
  V  V77  1  0.13406618  0.37606815  0.74245589  1
  V  V78  1  0.24741940  0.25009051  -0.00153910  1
  V  V79  1  -0.00402939  0.74901781  0.74569192  1
  V  V80  1  0.87474909  0.37991128  -0.00760643  1
  V  V81  1  0.24973941  0.61653993  0.86772449  1
  V  V82  1  0.13008427  0.75153174  0.38145398  1
  V  V83  1  0.75118194  0.00066999  0.74788949  1
  V  V84  1  0.49169941  0.62971592  0.62404452  1
  Zn  Zn85  1  0.26803297  0.00714462  0.24751640  1
  Zn  Zn86  1  0.87669273  0.00021626  0.38110006  1
  Zn  Zn87  1  0.13384925  0.87853148  0.25503336  1
  Zn  Zn88  1  0.75210277  0.24672210  0.50045755  1
  Zn  Zn89  1  0.37036561  0.01652907  0.37571070  1
  Zn  Zn90  1  0.14083060  0.49398287  0.62573807  1
  Zn  Zn91  1  0.62257440  0.74899890  0.87358465  1
  Zn  Zn92  1  0.00277728  0.87326892  0.87557062  1
  Zn  Zn93  1  0.89426066  0.13110982  0.75613623  1
  Zn  Zn94  1  0.36855656  0.62163709  0.74201448  1
  Zn  Zn95  1  0.31743379  0.16314225  0.30689161  1
  Zn  Zn96  1  -0.01308030  0.62748840  0.62087688  1
  Zn  Zn97  1  0.87150354  0.63021870  0.74196296  1
  Zn  Zn98  1  0.62281155  0.87433646  0.75029970  1
  Zn  Zn99  1  0.88496080  0.49342844  0.37087456  1
  Zn  Zn100  1  0.00333213  0.11766804  0.61880806  1
  Zn  Zn101  1  0.37728032  0.50397954  0.87687068  1
  Zn  Zn102  1  0.46386418  0.12107371  0.63411713  1
  Zn  Zn103  1  0.76128757  0.74233608  0.51332529  1
  Zn  Zn104  1  0.61943895  0.00011344  0.63130958  1
  Zn  Zn105  1  0.37255673  0.74917408  0.11774376  1
  Zn  Zn106  1  0.17298968  0.21921865  0.82710645  1
  Zn  Zn107  1  0.18113622  0.19017582  0.18410099  1
  Zn  Zn108  1  0.26601717  0.17957806  0.66706311  1
  Zn  Zn109  1  0.18705988  0.68979138  0.19028572  1
  Zn  Zn110  1  0.18461039  0.69023966  0.69009449  1
  Zn  Zn111  1  0.68396765  0.18358161  0.18930150  1
  Zn  Zn112  1  0.69295938  0.18750528  0.68924070  1
  Zn  Zn113  1  0.68461177  0.68672605  0.18779521  1
  Zn  Zn114  1  0.68098687  0.68714636  0.69232933  1
  Zn  Zn115  1  0.31548622  0.32698562  0.40283567  1
  Zn  Zn116  1  0.31609826  0.32427539  0.81515882  1
  Zn  Zn117  1  0.31511051  0.81580359  0.30978456  1
  Zn  Zn118  1  0.31448834  0.80772312  0.81460318  1
  Zn  Zn119  1  0.81134624  0.30707008  0.31292152  1
  Zn  Zn120  1  0.81588229  0.31273859  0.81062537  1
  Zn  Zn121  1  0.81495443  0.81368326  0.31765397  1
  Zn  Zn122  1  0.81096894  0.81296850  0.81485787  1
  Zn  Zn123  1  0.17136810  0.44533428  0.42481446  1
  Zn  Zn124  1  0.18464100  0.43697775  0.94368256  1
  Zn  Zn125  1  0.19743038  0.93545966  0.43281933  1
  Zn  Zn126  1  0.18793874  0.94157128  0.93715677  1
  Zn  Zn127  1  0.68726118  0.43674849  0.43829495  1
  Zn  Zn128  1  0.68653427  0.43950420  0.93598678  1
  Zn  Zn129  1  0.68795946  0.93574607  0.44679817  1
  Zn  Zn130  1  0.68759344  0.93725736  0.93792808  1
  Zn  Zn131  1  0.31215683  0.05889233  0.05489542  1
  Zn  Zn132  1  0.30198791  0.04046308  0.55797995  1
  Zn  Zn133  1  0.31175259  0.56366769  0.06312359  1
  Zn  Zn134  1  0.31263607  0.55081917  0.56029020  1
  Zn  Zn135  1  0.80688739  0.06116628  0.06438522  1
  Zn  Zn136  1  0.81370148  0.05880797  0.56302853  1
  Zn  Zn137  1  0.81177530  0.56206159  0.06275247  1
  Zn  Zn138  1  0.81800222  0.55828974  0.56456284  1
  Zn  Zn139  1  0.43406760  0.43737118  0.19491173  1
  Zn  Zn140  1  0.43785724  0.44484632  0.69543091  1
  Zn  Zn141  1  0.43446753  0.93692865  0.18911368  1
  Zn  Zn142  1  0.43028270  0.93620827  0.69229999  1
  Zn  Zn143  1  0.93512648  0.43915458  0.18255314  1
  Zn  Zn144  1  0.94153941  0.43939277  0.68037851  1
  Zn  Zn145  1  0.93462509  0.93797986  0.19098316  1
  Zn  Zn146  1  0.94486593  0.94163458  0.69099605  1
  Zn  Zn147  1  0.06686339  0.06338788  0.30835744  1
  Zn  Zn148  1  0.10782140  0.09351726  0.76461019  1
  Zn  Zn149  1  0.06401297  0.56565299  0.31656827  1
  Zn  Zn150  1  0.06474052  0.56130865  0.80866106  1
  Zn  Zn151  1  0.55667705  0.05924164  0.31363653  1
  Zn  Zn152  1  0.55861964  0.06274492  0.81041851  1
  Zn  Zn153  1  0.56587403  0.56607559  0.30956130  1
  Zn  Zn154  1  0.56388116  0.56345665  0.80847468  1
  Zn  Zn155  1  0.34428296  0.17565268  0.49167374  1
  Zn  Zn156  1  0.43703354  0.19176181  0.94048094  1
  Zn  Zn157  1  0.44167935  0.68501734  0.43561500  1
  Zn  Zn158  1  0.43529551  0.69353911  0.93679475  1
  Zn  Zn159  1  0.94088311  0.18256271  0.44166621  1
  Zn  Zn160  1  0.93885320  0.18746280  0.93862620  1
  Zn  Zn161  1  0.93947239  0.69131841  0.44129954  1
  Zn  Zn162  1  0.94131933  0.68971935  0.93364893  1
  Zn  Zn163  1  0.06126190  0.31426314  0.06312573  1
  Zn  Zn164  1  0.07048671  0.31034539  0.55667540  1
  Zn  Zn165  1  0.06360883  0.81339000  0.06208584  1
  Zn  Zn166  1  0.06331205  0.81183360  0.56277763  1
  Zn  Zn167  1  0.56138206  0.30816655  0.06207214  1
  Zn  Zn168  1  0.46173148  0.31125517  0.55669594  1
  Zn  Zn169  1  0.55917463  0.80971425  0.05786303  1
  Zn  Zn170  1  0.56616304  0.81135690  0.56458263  1
  O  O171  1  0.11318558  0.11781079  0.11775043  1
  O  O172  1  0.12804327  0.10190862  0.61012900  1
  O  O173  1  0.11935856  0.62334879  0.11885212  1
  O  O174  1  0.13337050  0.62056724  0.61265299  1
  O  O175  1  0.61896853  0.11743084  0.11772636  1
  O  O176  1  0.63598484  0.12318232  0.61203058  1
  O  O177  1  0.61784937  0.61868025  0.11840035  1
  O  O178  1  0.62240218  0.61644440  0.61715343  1
  O  O179  1  0.39673505  0.38600705  0.35194343  1
  O  O180  1  0.38575542  0.37979635  0.88712836  1
  O  O181  1  0.38618616  0.86590528  0.38861624  1
  O  O182  1  0.38053189  0.88018489  0.88127993  1
  O  O183  1  0.86684001  0.37379398  0.38733664  1
  O  O184  1  0.87891795  0.37347919  0.88826107  1
  O  O185  1  0.88435861  0.87789807  0.38324693  1
  O  O186  1  0.87371739  0.88191991  0.88584912  1
  O  O187  1  0.25765157  -0.00678319  0.36248739  1
  O  O188  1  0.26128752  0.00315935  0.87797360  1
  O  O189  1  0.24038940  0.51334414  0.35836159  1
  O  O190  1  0.24728473  0.51483254  0.88353423  1
  O  O191  1  0.74582788  0.00325955  0.36910963  1
  O  O192  1  0.75967559  0.00377954  0.87102654  1
  O  O193  1  0.74893651  0.51184047  0.36875236  1
  O  O194  1  0.74520089  0.50774866  0.86466510  1
  O  O195  1  0.24064115  0.49941466  0.13142271  1
  O  O196  1  0.25719375  0.46313397  0.60740985  1
  O  O197  1  0.24255683  0.98896150  0.12029338  1
  O  O198  1  0.23387241  0.97638302  0.61933596  1
  O  O199  1  0.74404405  0.49344912  0.13058504  1
  O  O200  1  0.74415532  0.48879857  0.62921694  1
  O  O201  1  0.73918564  0.99431920  0.13353949  1
  O  O202  1  0.75182946  0.99133962  0.63646529  1
  O  O203  1  -0.00954627  0.36012037  0.24570727  1
  O  O204  1  -0.01117980  0.38475023  0.76972360  1
  O  O205  1  -0.00030409  0.86457231  0.25597310  1
  O  O206  1  0.00922004  0.86510922  0.75379446  1
  O  O207  1  0.51190451  0.36756306  0.24951064  1
  O  O208  1  0.50780232  0.36213465  0.75823125  1
  O  O209  1  0.49672707  0.86134436  0.25968957  1
  O  O210  1  0.49816435  0.86874702  0.76060304  1
  O  O211  1  0.51105486  0.13446147  0.23941258  1
  O  O212  1  0.50111652  0.14053513  0.74876268  1
  O  O213  1  0.49414294  0.63281231  0.24520003  1
  O  O214  1  0.50372327  0.63245672  0.73881464  1
  O  O215  1  0.99271383  0.12728013  0.23911637  1
  O  O216  1  1.00185613  0.10924899  0.73248401  1
  O  O217  1  0.99631745  0.63663316  0.24722189  1
  O  O218  1  0.99897039  0.63796462  0.75105288  1
  O  O219  1  0.36846834  0.26001286  0.00985081  1
  O  O220  1  0.36281672  0.28700038  0.50223482  1
  O  O221  1  0.38015955  0.77013622  0.00180241  1
  O  O222  1  0.38531224  0.75910243  0.50377084  1
  O  O223  1  0.86833440  0.25646072  0.00655287  1
  O  O224  1  0.87287726  0.25531231  0.50720492  1
  O  O225  1  0.87060738  0.75408857  0.00590904  1
  O  O226  1  0.87288095  0.76831708  0.49501101  1
  O  O227  1  0.12337813  0.24217372  0.47783873  1
  O  O228  1  0.13342586  0.24255536  1.00940410  1
  O  O229  1  0.12124084  0.74234765  0.48912724  1
  O  O230  1  0.11674607  0.74037469  0.99114944  1
  O  O231  1  0.62769464  0.23913219  0.48671052  1
  O  O232  1  0.63092455  0.24426327  0.98927871  1
  O  O233  1  0.63065206  0.73767686  0.49506540  1
  O  O234  1  0.63111337  0.73600119  1.00023403  1
  O  O235  1  0.49778389  0.24103848  0.13332300  1
  O  O236  1  0.49866751  0.24355580  0.64159727  1
  O  O237  1  0.50270223  0.73957080  0.13328885  1
  O  O238  1  0.50653769  0.73965396  0.63291238  1
  O  O239  1  0.99494050  0.24261463  0.13275749  1
  O  O240  1  0.98836510  0.25012906  0.61875154  1
  O  O241  1  0.99597948  0.74669235  0.13358567  1
  O  O242  1  1.00932339  0.74675620  0.64209589  1
  O  O243  1  -0.00099384  0.24538229  0.36017708  1
  O  O244  1  -0.00352389  0.26727447  0.88238364  1
  O  O245  1  0.00738795  0.75760722  0.36826546  1
  O  O246  1  0.01315904  0.75138472  0.86724243  1
  O  O247  1  0.51042983  0.26262727  0.36531776  1
  O  O248  1  0.50688279  0.25619303  0.86770877  1
  O  O249  1  0.50955035  0.75599619  0.36963676  1
  O  O250  1  0.50122722  0.76073749  0.86873091  1
  O  O251  1  0.23273227  0.12359798  0.49935733  1
  O  O252  1  0.23886740  0.13755906  1.00935142  1
  O  O253  1  0.24676291  0.61669997  0.48811475  1
  O  O254  1  0.23687494  0.62470927  0.99732413  1
  O  O255  1  0.74327457  0.12038367  0.48881721  1
  O  O256  1  0.74073369  0.13059874  0.99508709  1
  O  O257  1  0.74544810  0.62454468  0.49234435  1
  O  O258  1  0.74406778  0.62738435  0.99394483  1
  O  O259  1  0.25663747  0.37351207  0.01327034  1
  O  O260  1  0.24931101  0.38237213  0.47852847  1
  O  O261  1  0.26020773  0.87644903  0.00416670  1
  O  O262  1  0.26577610  0.86852032  0.50506993  1
  O  O263  1  0.75612301  0.37133073  0.00312294  1
  O  O264  1  0.75701673  0.37348721  0.50796833  1
  O  O265  1  0.75458547  0.86762497  0.00706213  1
  O  O266  1  0.75945010  0.87081595  0.51190791  1
  O  O267  1  0.13072925  0.51168951  0.23766767  1
  O  O268  1  0.11632402  0.48632781  0.74340594  1
  O  O269  1  0.12270636  0.99680743  0.23282874  1
  O  O270  1  0.12668388  0.98108708  0.73827945  1
  O  O271  1  0.63236108  0.49418067  0.24191375  1
  O  O272  1  0.63185781  0.49432597  0.73952413  1
  O  O273  1  0.63478361  1.00276117  0.24206512  1
  O  O274  1  0.63769253  0.99946626  0.75191392  1
  O  O275  1  0.38555616  0.00437884  0.26066935  1
  O  O276  1  0.37555611  0.00263506  0.76633103  1
  O  O277  1  0.36499663  0.51732034  0.24256339  1
  O  O278  1  0.38460744  0.51130423  0.76364136  1
  O  O279  1  0.86066986  0.00577440  0.25164684  1
  O  O280  1  0.86781555  -0.00166756  0.75999999  1
  O  O281  1  0.87010067  0.50683108  0.25159362  1
  O  O282  1  0.86144137  0.50094072  0.74381099  1
  O  O283  1  0.12025036  0.35816671  0.36801419  1
  O  O284  1  0.10984395  0.38427309  0.87451817  1
  O  O285  1  0.11846386  0.86681005  0.37557324  1
  O  O286  1  0.12738250  0.86925061  0.86856545  1
  O  O287  1  0.62705372  0.36531288  0.36706755  1
  O  O288  1  0.62146941  0.36492293  0.87261409  1
  O  O289  1  0.62021715  0.86066656  0.38538941  1
  O  O290  1  0.61244024  0.87457814  0.87691211  1
  O  O291  1  0.39088330  0.12737789  0.11142997  1
  O  O292  1  0.35200142  0.13365162  0.60525236  1
  O  O293  1  0.38244847  0.62911846  0.12808987  1
  O  O294  1  0.38868116  0.61697067  0.62063444  1
  O  O295  1  0.87879034  0.12930105  0.12936963  1
  O  O296  1  0.87350152  0.13992207  0.62029398  1
  O  O297  1  0.88045754  0.63144760  0.13113511  1
  O  O298  1  0.87186361  0.63100104  0.62736116  1
  O  O299  1  0.25392138  0.26134233  0.12078291  1
  O  O300  1  0.24648078  0.28453309  0.61653603  1
  O  O301  1  0.24943076  0.76211020  0.12563783  1
  O  O302  1  0.24740517  0.75893571  0.62162213  1
  O  O303  1  0.75289050  0.25366870  0.12028701  1
  O  O304  1  0.75407847  0.26180721  0.62290606  1
  O  O305  1  0.75396155  0.75236806  0.12043218  1
  O  O306  1  0.74551192  0.76261959  0.63133250  1
  O  O307  1  0.23955483  0.25233272  0.35515192  1
  O  O308  1  0.25339579  0.26365717  0.89448466  1
  O  O309  1  0.24088746  0.74222259  0.36763992  1
  O  O310  1  0.23781017  0.73960185  0.87372395  1
  O  O311  1  0.74129668  0.23744317  0.37487422  1
  O  O312  1  0.74412177  0.24456197  0.87861866  1
  O  O313  1  0.74449420  0.73872574  0.37376037  1
  O  O314  1  0.74577913  0.74185317  0.88213406  1
  O  O315  1  0.00238609  0.12138626  0.01171308  1
  O  O316  1  0.01934823  0.12561192  0.50275444  1
  O  O317  1  0.00505302  0.61979278  0.00505673  1
  O  O318  1  0.01055125  0.62222924  0.50127302  1
  O  O319  1  0.51455966  0.13385493  0.00917115  1
  O  O320  1  0.50713408  0.11235070  0.51142793  1
  O  O321  1  0.50686970  0.62929306  0.00807614  1
  O  O322  1  0.51122670  0.62045355  0.50427480  1
  O  O323  1  0.51096802  0.38504723  0.48420077  1
  O  O324  1  0.49169125  0.36733902  0.99302743  1
  O  O325  1  0.49444608  0.87763666  0.49717257  1
  O  O326  1  0.49266544  0.87399450  0.98629937  1
  O  O327  1  0.99182726  0.38202881  0.50194403  1
  O  O328  1  0.99322580  0.38363027  0.99502997  1
  O  O329  1  0.99034030  0.87020884  0.49344341  1
  O  O330  1  0.99142297  0.88181783  1.00065770  1
  O  O331  1  0.51866429  0.49219714  0.38203316  1
  O  O332  1  0.51044442  0.48470594  0.87505596  1
  O  O333  1  0.50510713  0.98398141  0.38446999  1
  O  O334  1  0.49597392  0.98649362  0.87179512  1
  O  O335  1  1.00047692  0.50555319  0.38916121  1
  O  O336  1  1.00027333  0.49952800  0.88868234  1
  O  O337  1  1.00037982  0.98568144  0.36440861  1
  O  O338  1  0.98439431  0.99617615  0.88519908  1
  O  O339  1  0.00279322  0.00618869  0.12146114  1
  O  O340  1  0.02206267  -0.01525779  0.61874769  1
  O  O341  1  0.00590772  0.50730669  0.12012942  1
  O  O342  1  -0.00049814  0.50770347  0.60979824  1
  O  O343  1  0.51221457  0.00516434  0.12979384  1
  O  O344  1  0.49684973  0.00416346  0.62293788  1
  O  O345  1  0.50499721  0.51295793  0.13353240  1
  O  O346  1  0.51226267  0.50499896  0.61590035  1
  O  O347  1  0.25429533  0.39062453  0.23631720  1
  O  O348  1  0.23393022  0.37487931  0.75807776  1
  O  O349  1  0.25163269  0.87782741  0.23629843  1
  O  O350  1  0.24667572  0.86378603  0.73742057  1
  O  O351  1  0.74659510  0.37793009  0.24381388  1
  O  O352  1  0.74517443  0.38096928  0.74494258  1
  O  O353  1  0.75330911  0.88170212  0.24474222  1
  O  O354  1  0.74926381  0.88237044  0.74599526  1
  O  O355  1  0.25511464  0.12107535  0.22725061  1
  O  O356  1  0.21086716  0.14253199  0.75363924  1
  O  O357  1  0.25810034  0.62381376  0.25552630  1
  O  O358  1  0.24808386  0.62601706  0.76397756  1
  O  O359  1  0.75142813  0.11711379  0.26066124  1
  O  O360  1  0.75579102  0.11668925  0.75803316  1
  O  O361  1  0.75516813  0.62042455  0.25604886  1
  O  O362  1  0.74725117  0.61719023  0.75935965  1
  O  O363  1  0.37736866  0.13221553  0.39364635  1
  O  O364  1  0.38083759  0.11082934  0.88634789  1
  O  O365  1  0.36762472  0.63168735  0.36592124  1
  O  O366  1  0.35611189  0.62621280  0.88573668  1
  O  O367  1  0.86534665  0.12074897  0.37218247  1
  O  O368  1  0.87068914  0.11788866  0.87552794  1
  O  O369  1  0.86801506  0.62558770  0.37038645  1
  O  O370  1  0.86185625  0.62813254  0.87355187  1
  O  O371  1  0.13161782  0.38759118  0.12124616  1
  O  O372  1  0.11289856  0.37828896  0.63753066  1
  O  O373  1  0.13326866  0.88222419  0.12272617  1
  O  O374  1  0.13626910  0.87199687  0.62805947  1
  O  O375  1  0.63035916  0.37767721  0.12798196  1
  O  O376  1  0.63433191  0.38414212  0.63056919  1
  O  O377  1  0.62929367  0.88237101  0.11744115  1
  O  O378  1  0.63526017  0.88067084  0.62759652  1
  O  O379  1  0.10846122  0.24457034  0.25727753  1
  O  O380  1  0.10503039  0.27949675  0.75937082  1
  O  O381  1  0.11679962  0.75247158  0.26005088  1
  O  O382  1  0.11800388  0.75793919  0.75842088  1
  O  O383  1  0.62022520  0.25293385  0.25841057  1
  O  O384  1  0.62652232  0.25280966  0.76126066  1
  O  O385  1  0.61642518  0.74309637  0.26133466  1
  O  O386  1  0.61162217  0.75379301  0.75503130  1
  O  O387  1  0.38994538  0.24657536  0.24360319  1
  O  O388  1  0.38258086  0.25100817  0.75503706  1
  O  O389  1  0.38405878  0.74127251  0.24459215  1
  O  O390  1  0.38787746  0.73998734  0.75507827  1
  O  O391  1  0.88169353  0.24173249  0.24494286  1
  O  O392  1  0.87236660  0.24861804  0.73349850  1
  O  O393  1  0.88213451  0.74590305  0.24592638  1
  O  O394  1  0.89313946  0.75299800  0.76007179  1
  O  O395  1  0.39466148  0.50507585  0.49145388  1
  O  O396  1  0.37367984  0.48795155  1.00130492  1
  O  O397  1  0.38645312  0.98525485  0.49692352  1
  O  O398  1  0.37638804  0.98513823  0.99040318  1
  O  O399  1  0.88108983  0.48846354  0.49589753  1
  O  O400  1  0.88473232  0.49098802  1.00904757  1
  O  O401  1  0.87118175  0.98234762  0.49758159  1
  O  O402  1  0.87543949  0.99480831  0.99694696  1
  O  O403  1  0.11794488  0.00757760  0.00779574  1
  O  O404  1  0.12703854  0.00244442  0.49794123  1
  O  O405  1  0.11632681  0.50969099  0.01162350  1
  O  O406  1  0.11794193  0.50895081  0.50251177  1
  O  O407  1  0.63194093  0.00972546  0.00988785  1
  O  O408  1  0.61326917  0.00493982  0.50412187  1
  O  O409  1  0.62937127  0.51147753  0.00812057  1
  O  O410  1  0.62520690  0.50978965  0.50723227  1
  O  O411  1  0.37030126  0.36927452  0.12274663  1
  O  O412  1  0.38742421  0.37782889  0.62003847  1
  O  O413  1  0.36911450  0.87569380  0.11289170  1
  O  O414  1  0.36393508  0.87471736  0.61689788  1
  O  O415  1  0.86858538  0.36874786  0.11523871  1
  O  O416  1  0.87013665  0.36507493  0.61682178  1
  O  O417  1  0.86728471  0.86948701  0.12045898  1
  O  O418  1  0.87163580  0.87855579  0.61746002  1
  O  O419  1  0.12252324  0.13371075  0.37750679  1
  O  O420  1  0.11503009  0.12967440  0.88865659  1
  O  O421  1  0.13324602  0.63338596  0.38467439  1
  O  O422  1  0.13346757  0.62933621  0.88180205  1
  O  O423  1  0.62768457  0.12846905  0.38273463  1
  O  O424  1  0.62817430  0.12947213  0.88212264  1
  O  O425  1  0.63272137  0.63306512  0.38205936  1
  O  O426  1  0.63182117  0.62420302  0.88352767  1
