# generated using pymatgen
data_V85Zn86O256
_symmetry_space_group_name_H-M   'P 1'
_cell_length_a   16.92410525
_cell_length_b   16.93587319
_cell_length_c   16.94695903
_cell_angle_alpha   90.05354348
_cell_angle_beta   90.01256276
_cell_angle_gamma   89.97128588
_symmetry_Int_Tables_number   1
_chemical_formula_structural   V85Zn86O256
_chemical_formula_sum   'V85 Zn86 O256'
_cell_volume   4857.41081691
_cell_formula_units_Z   1
loop_
 _symmetry_equiv_pos_site_id
 _symmetry_equiv_pos_as_xyz
  1  'x, y, z'
loop_
 _atom_site_type_symbol
 _atom_site_label
 _atom_site_symmetry_multiplicity
 _atom_site_fract_x
 _atom_site_fract_y
 _atom_site_fract_z
 _atom_site_occupancy
  V  V0  1  0.24714857  0.62662458  0.37771099  1
  V  V1  1  0.24957573  0.36660585  0.12557185  1
  V  V2  1  0.62204966  0.75819903  0.87524807  1
  V  V3  1  0.62405341  0.50249674  0.62501781  1
  V  V4  1  0.25332882  0.25002569  0.49713846  1
  V  V5  1  0.14028718  -0.00639556  0.62375344  1
  V  V6  1  0.87626996  0.74917391  0.62307201  1
  V  V7  1  0.49635813  0.50075635  0.00127350  1
  V  V8  1  0.24517415  0.62358431  0.87766007  1
  V  V9  1  0.87274987  0.87724687  0.50404806  1
  V  V10  1  0.51024883  0.86469411  0.38153064  1
  V  V11  1  0.50624907  0.12462342  0.62940770  1
  V  V12  1  -0.00101803  -0.00049708  0.49788185  1
  V  V13  1  0.88460986  -0.00154804  0.87305020  1
  V  V14  1  -0.00413910  0.36438066  0.37375720  1
  V  V15  1  0.51324302  0.75433409  0.25656548  1
  V  V16  1  0.37254178  0.37663589  0.49996513  1
  V  V17  1  0.11421206  0.50368873  0.62787513  1
  V  V18  1  0.62311759  0.50366857  0.12550184  1
  V  V19  1  0.49207731  0.63308934  0.12574401  1
  V  V20  1  0.87490941  0.24798002  0.13489168  1
  V  V21  1  0.12860370  -0.00076815  0.12106133  1
  V  V22  1  0.26341928  0.87139459  0.12504652  1
  V  V23  1  0.74202782  0.75361923  0.50409599  1
  V  V24  1  0.00001744  0.12582565  0.13216485  1
  V  V25  1  0.62415707  0.36801336  0.75363951  1
  V  V26  1  0.88045961  0.74424537  0.12339889  1
  V  V27  1  0.88319083  0.87540794  -0.00459758  1
  V  V28  1  0.12061943  0.36440669  0.74868427  1
  V  V29  1  0.11998804  0.49956000  0.12695880  1
  V  V30  1  0.24735313  0.37402565  0.62432424  1
  V  V31  1  0.12400316  0.75273837  0.37555253  1
  V  V32  1  0.74525827  0.24974825  -0.00426358  1
  V  V33  1  0.62343390  0.87713685  0.74769690  1
  V  V34  1  0.74820187  0.87851996  0.13800016  1
  V  V35  1  0.37254720  0.49638144  0.87701851  1
  V  V36  1  0.25334596  0.74709704  0.00490280  1
  V  V37  1  0.50211882  -0.00354480  0.00038111  1
  V  V38  1  0.49765772  0.75465911  0.75296280  1
  V  V39  1  0.75361913  -0.00355622  0.74817986  1
  V  V40  1  0.74904434  0.50152711  0.74979934  1
  V  V41  1  0.00326946  0.74376033  0.24604891  1
  V  V42  1  0.13265670  0.24905364  0.88295891  1
  V  V43  1  0.25394843  0.11931496  0.88421566  1
  V  V44  1  0.12856914  0.87926468  0.24854021  1
  V  V45  1  -0.00184741  0.76786140  0.75213223  1
  V  V46  1  0.50225539  0.36799199  0.87716103  1
  V  V47  1  0.74287551  0.23536867  0.48641429  1
  V  V48  1  0.87572724  0.50162194  0.37679024  1
  V  V49  1  0.38117969  0.86976175  -0.00687535  1
  V  V50  1  0.87542666  0.49950579  0.87548479  1
  V  V51  1  0.74467767  0.63186620  0.37614742  1
  V  V52  1  0.61667179  0.12913774  0.00127299  1
  V  V53  1  0.74827191  0.50316989  0.24999526  1
  V  V54  1  0.11411184  0.62714455  0.50506234  1
  V  V55  1  0.11986784  0.36827188  0.25078156  1
  V  V56  1  0.74997211  0.62648231  0.87286794  1
  V  V57  1  0.49939189  0.50149508  0.49922941  1
  V  V58  1  0.88752615  0.62498253  0.74554605  1
  V  V59  1  0.87264508  0.37186319  0.00121423  1
  V  V60  1  0.62264768  0.62745959  -0.00146396  1
  V  V61  1  0.12677264  0.12482606  0.49444920  1
  V  V62  1  0.36991693  0.36330348  0.00269357  1
  V  V63  1  0.26056922  0.12575413  0.36590774  1
  V  V64  1  0.14260756  0.87881627  0.75248183  1
  V  V65  1  0.62486579  0.00015379  0.62681169  1
  V  V66  1  0.74606478  0.12496188  0.87481640  1
  V  V67  1  0.37292367  0.87898111  0.50526514  1
  V  V68  1  0.37384786  0.50230515  0.37506056  1
  V  V69  1  0.37364463  0.62404686  0.74833612  1
  V  V70  1  -0.00230578  0.50044446  0.00195585  1
  V  V71  1  0.74918699  0.37025966  0.62085538  1
  V  V72  1  0.00177243  0.13017852  0.63118520  1
  V  V73  1  0.54936161  0.05407229  0.45583207  1
  V  V74  1  0.38041454  -0.00001657  0.37126833  1
  V  V75  1  0.38624686  0.23722919  0.13853252  1
  V  V76  1  0.24656378  0.49823978  0.75059672  1
  V  V77  1  0.61755343  0.37018728  0.25295907  1
  V  V78  1  0.75057927  0.75398457  -0.00061493  1
  V  V79  1  0.36518628  0.12026738  0.74617014  1
  V  V80  1  0.11750863  0.62548771  0.00401910  1
  V  V81  1  -0.00406294  0.36111404  0.87247139  1
  V  V82  1  0.37182329  0.63475771  0.24873433  1
  V  V83  1  0.50034669  0.36275408  0.37444101  1
  V  V84  1  0.24749813  0.75511866  0.51134967  1
  Zn  Zn85  1  0.88158859  0.13268597  0.75543350  1
  Zn  Zn86  1  0.62033921  0.63015178  0.49660094  1
  Zn  Zn87  1  0.37020142  0.75830484  0.63075178  1
  Zn  Zn88  1  0.87325816  0.37353003  0.50018603  1
  Zn  Zn89  1  0.87891675  0.25299888  0.62853865  1
  Zn  Zn90  1  0.63532638  0.00252954  0.12995046  1
  Zn  Zn91  1  0.37853660  0.25123188  0.62646980  1
  Zn  Zn92  1  0.37906512  -0.00823990  0.86816415  1
  Zn  Zn93  1  0.11741788  0.76014692  0.88057094  1
  Zn  Zn94  1  0.87906927  0.62420748  0.24616636  1
  Zn  Zn95  1  0.12721811  0.12891404  0.00224522  1
  Zn  Zn96  1  0.84007110  -0.00030236  0.36384333  1
  Zn  Zn97  1  0.74678684  0.37431375  0.12527967  1
  Zn  Zn98  1  -0.00549833  0.87688237  0.37133281  1
  Zn  Zn99  1  0.50003140  0.24732801  0.75312289  1
  Zn  Zn100  1  0.24879533  0.50087848  0.24973255  1
  Zn  Zn101  1  0.00474356  0.00025914  -0.00323446  1
  Zn  Zn102  1  0.49743572  0.62702422  0.62487452  1
  Zn  Zn103  1  0.12072335  0.24349955  0.36959311  1
  Zn  Zn104  1  -0.00557727  0.50131012  0.50388896  1
  Zn  Zn105  1  0.26561204  0.00302824  0.24366510  1
  Zn  Zn106  1  0.83984481  0.11849821  0.25737804  1
  Zn  Zn107  1  0.18789698  0.18695229  0.18609419  1
  Zn  Zn108  1  0.18661786  0.18629218  0.68589215  1
  Zn  Zn109  1  0.18619630  0.68720701  0.18546695  1
  Zn  Zn110  1  0.18173415  0.68850069  0.69018417  1
  Zn  Zn111  1  0.67523528  0.19138205  0.18122488  1
  Zn  Zn112  1  0.68990297  0.18591111  0.68903690  1
  Zn  Zn113  1  0.68989769  0.68981796  0.18538150  1
  Zn  Zn114  1  0.69045354  0.68864953  0.68582723  1
  Zn  Zn115  1  0.31187476  0.31337521  0.31001809  1
  Zn  Zn116  1  0.31230882  0.30665923  0.81096547  1
  Zn  Zn117  1  0.31579306  0.81406308  0.31623361  1
  Zn  Zn118  1  0.30817159  0.80698067  0.81836384  1
  Zn  Zn119  1  0.80535576  0.31486278  0.31323085  1
  Zn  Zn120  1  0.81187845  0.30760190  0.80830947  1
  Zn  Zn121  1  0.81579976  0.81187321  0.31692181  1
  Zn  Zn122  1  0.81192207  0.81587325  0.81182452  1
  Zn  Zn123  1  0.18133574  0.43969875  0.43711933  1
  Zn  Zn124  1  0.18646911  0.43410062  0.94024183  1
  Zn  Zn125  1  0.19100632  0.94038216  0.43367437  1
  Zn  Zn126  1  0.19332484  0.93799545  0.93640858  1
  Zn  Zn127  1  0.68600984  0.43641383  0.43669396  1
  Zn  Zn128  1  0.68607293  0.43779071  0.93753317  1
  Zn  Zn129  1  0.69011080  0.93176243  0.43980218  1
  Zn  Zn130  1  0.69076408  0.93929894  0.93898049  1
  Zn  Zn131  1  0.32040281  0.05742597  0.06173503  1
  Zn  Zn132  1  0.32041614  0.06522164  0.55677775  1
  Zn  Zn133  1  0.30898706  0.55758174  0.06550732  1
  Zn  Zn134  1  0.30566619  0.56334619  0.56393537  1
  Zn  Zn135  1  0.81443403  0.06269761  0.06320338  1
  Zn  Zn136  1  0.81276421  0.06245122  0.56348599  1
  Zn  Zn137  1  0.81095524  0.56413123  0.06248731  1
  Zn  Zn138  1  0.81128086  0.56454665  0.56269838  1
  Zn  Zn139  1  0.43442667  0.44147700  0.18854807  1
  Zn  Zn140  1  0.43716783  0.43689780  0.68754174  1
  Zn  Zn141  1  0.49244310  1.01729530  0.21944192  1
  Zn  Zn142  1  0.43899338  0.93861732  0.68870500  1
  Zn  Zn143  1  0.93629901  0.43449221  0.18882412  1
  Zn  Zn144  1  0.93575086  0.43366466  0.69049079  1
  Zn  Zn145  1  0.93840036  0.93416321  0.18427194  1
  Zn  Zn146  1  0.93961571  0.94232894  0.68132373  1
  Zn  Zn147  1  -0.01381532  0.06457452  0.31288630  1
  Zn  Zn148  1  0.07082839  0.05904514  0.81035540  1
  Zn  Zn149  1  0.06136923  0.56037986  0.31280510  1
  Zn  Zn150  1  0.06070353  0.55922580  0.81658762  1
  Zn  Zn151  1  0.64965135  0.06004891  0.29969847  1
  Zn  Zn152  1  0.55861112  0.06096937  0.81721993  1
  Zn  Zn153  1  0.56134683  0.56354051  0.31379926  1
  Zn  Zn154  1  0.56005577  0.56158485  0.81305125  1
  Zn  Zn155  1  0.45685336  0.17718273  0.30621031  1
  Zn  Zn156  1  0.43468144  0.18651076  0.93864434  1
  Zn  Zn157  1  0.43396937  0.68993076  0.44084676  1
  Zn  Zn158  1  0.43525517  0.68814977  0.93427402  1
  Zn  Zn159  1  0.92437536  0.18682719  0.44224859  1
  Zn  Zn160  1  0.93678967  0.18231221  0.94435149  1
  Zn  Zn161  1  0.93472416  0.68984538  0.43308604  1
  Zn  Zn162  1  0.93929176  0.68897875  0.93356376  1
  Zn  Zn163  1  0.05834796  0.31121648  0.06269801  1
  Zn  Zn164  1  0.06257662  0.31269614  0.55569445  1
  Zn  Zn165  1  0.06402476  0.81397603  0.06500977  1
  Zn  Zn166  1  0.05820376  0.81412114  0.56804470  1
  Zn  Zn167  1  0.56142803  0.31233505  0.06429840  1
  Zn  Zn168  1  0.56318177  0.30902313  0.56072451  1
  Zn  Zn169  1  0.55925283  0.81472948  0.06799683  1
  Zn  Zn170  1  0.55889477  0.81473171  0.56887793  1
  O  O171  1  0.12720946  0.11571679  0.11990730  1
  O  O172  1  0.12084166  0.11638535  0.61743437  1
  O  O173  1  0.12921065  0.61422976  0.11354727  1
  O  O174  1  0.12824902  0.61575421  0.61797367  1
  O  O175  1  0.62722299  0.11987100  0.10382841  1
  O  O176  1  0.61462902  0.11845353  0.63335319  1
  O  O177  1  0.61701322  0.62266687  0.11764435  1
  O  O178  1  0.62386497  0.61138733  0.62732607  1
  O  O179  1  0.37903233  0.38435113  0.37968409  1
  O  O180  1  0.37731305  0.37735823  0.88364588  1
  O  O181  1  0.38240313  0.87903532  0.38491515  1
  O  O182  1  0.36810775  0.87387515  0.88760411  1
  O  O183  1  0.88013038  0.38296018  0.37367576  1
  O  O184  1  0.88063965  0.37836945  0.87916947  1
  O  O185  1  0.87588539  0.88060192  0.38845103  1
  O  O186  1  0.87229864  0.88505967  0.88209225  1
  O  O187  1  0.26199086  0.00757035  0.36967246  1
  O  O188  1  0.25352227  0.01555407  0.87311783  1
  O  O189  1  0.25135048  0.51324763  0.37615988  1
  O  O190  1  0.25344626  0.50276773  0.87116349  1
  O  O191  1  0.72916646  0.00472985  0.36914806  1
  O  O192  1  0.75975225  0.00646753  0.86886007  1
  O  O193  1  0.75856996  0.50475550  0.36821835  1
  O  O194  1  0.75623061  0.50526753  0.87015448  1
  O  O195  1  0.23658102  0.48898851  0.12638862  1
  O  O196  1  0.23779213  0.49267420  0.63049521  1
  O  O197  1  0.24870164  0.99089727  0.12642825  1
  O  O198  1  0.23817334  1.00657196  0.61921296  1
  O  O199  1  0.74258003  0.50073896  0.13279512  1
  O  O200  1  0.74174103  0.49324221  0.62976861  1
  O  O201  1  0.75430595  0.98250721  0.11988671  1
  O  O202  1  0.73710763  1.00774773  0.63526884  1
  O  O203  1  0.00766439  0.37850873  0.25991565  1
  O  O204  1  0.00917754  0.37980888  0.76152333  1
  O  O205  1  0.01215213  0.86425439  0.24944124  1
  O  O206  1  0.00707027  0.87056343  0.74468540  1
  O  O207  1  0.50970899  0.38884591  0.25969319  1
  O  O208  1  0.50576503  0.37597836  0.75896498  1
  O  O209  1  0.49492644  0.85620543  0.26824684  1
  O  O210  1  0.50765394  0.86606211  0.75180184  1
  O  O211  1  0.53358897  0.11660325  0.25806192  1
  O  O212  1  0.49149270  0.12787831  0.74609363  1
  O  O213  1  0.49286128  0.63193231  0.24584083  1
  O  O214  1  0.48865670  0.62890834  0.74966193  1
  O  O215  1  1.02110054  0.13292927  0.23099338  1
  O  O216  1  1.00672588  0.11946742  0.73380071  1
  O  O217  1  1.00119275  0.63861402  0.25318108  1
  O  O218  1  0.99011637  0.62849640  0.75447152  1
  O  O219  1  0.37700714  0.26056305  0.00944660  1
  O  O220  1  0.35955874  0.26086032  0.50565985  1
  O  O221  1  0.36534812  0.75406602  -0.00408566  1
  O  O222  1  0.36258837  0.75440747  0.50502174  1
  O  O223  1  0.86659441  0.25648937  0.00492824  1
  O  O224  1  0.86013614  0.25390197  0.51006255  1
  O  O225  1  0.87227633  0.75463685  0.00386048  1
  O  O226  1  0.87212258  0.75540830  0.50746204  1
  O  O227  1  0.13611200  0.24269046  0.49682882  1
  O  O228  1  0.12473335  0.25237869  0.98677531  1
  O  O229  1  0.12818686  0.74594122  0.49818925  1
  O  O230  1  0.12769588  0.74063575  0.99946340  1
  O  O231  1  0.64469869  0.25953477  0.50216307  1
  O  O232  1  0.63111522  0.24330811  1.00157006  1
  O  O233  1  0.63827810  0.74772326  0.51526424  1
  O  O234  1  0.62716222  0.74687871  0.99144731  1
  O  O235  1  0.48424243  0.25361941  0.12490883  1
  O  O236  1  0.49915558  0.24061363  0.62738960  1
  O  O237  1  0.50156920  0.74061391  0.13814975  1
  O  O238  1  0.49576036  0.74567349  0.64022585  1
  O  O239  1  0.98557798  0.24232360  0.11726689  1
  O  O240  1  1.00520005  0.23342996  0.61789037  1
  O  O241  1  0.99277690  0.75305459  0.13225300  1
  O  O242  1  0.98841412  0.74975865  0.63699513  1
  O  O243  1  -0.00003540  0.26157977  0.38181146  1
  O  O244  1  0.00546945  0.25791360  0.87983593  1
  O  O245  1  0.00702725  0.75499247  0.36741480  1
  O  O246  1  0.00270741  0.74780171  0.85878631  1
  O  O247  1  0.49059258  0.26466491  0.37807991  1
  O  O248  1  0.49501225  0.26468669  0.87571057  1
  O  O249  1  0.49891067  0.75110439  0.36750821  1
  O  O250  1  0.50947638  0.74259123  0.86330592  1
  O  O251  1  0.24823968  0.13364839  0.49333098  1
  O  O252  1  0.25213905  0.12301756  0.98681666  1
  O  O253  1  0.23943867  0.63217593  0.49408491  1
  O  O254  1  0.24379637  0.62867191  0.99759200  1
  O  O255  1  0.74944619  0.13678469  0.50665199  1
  O  O256  1  0.74490135  0.13120380  0.99340593  1
  O  O257  1  0.74838930  0.63402483  0.49328519  1
  O  O258  1  0.74338168  0.63286200  0.99331755  1
  O  O259  1  0.25872337  0.37851439  0.01083821  1
  O  O260  1  0.24974997  0.37095766  0.50373476  1
  O  O261  1  0.25424837  0.86452500  0.00423437  1
  O  O262  1  0.25748262  0.86425181  0.49311157  1
  O  O263  1  0.75351814  0.36821986  0.00001182  1
  O  O264  1  0.75152725  0.37767037  0.50979507  1
  O  O265  1  0.76274438  0.86678842  -0.00078495  1
  O  O266  1  0.75858271  0.86416125  0.50181884  1
  O  O267  1  0.12494827  0.49271483  0.24197721  1
  O  O268  1  0.12876083  0.49232299  0.74574473  1
  O  O269  1  0.13211929  0.98423283  0.23688503  1
  O  O270  1  0.12688467  0.98794580  0.73757430  1
  O  O271  1  0.63323830  0.50045986  0.24480969  1
  O  O272  1  0.62823012  0.49430845  0.74386669  1
  O  O273  1  0.59986074  0.97867600  0.23409826  1
  O  O274  1  0.63109403  0.99291463  0.74959260  1
  O  O275  1  0.38552958  -0.00669463  0.26602466  1
  O  O276  1  0.37899403  0.01492259  0.75188935  1
  O  O277  1  0.37221148  0.51281768  0.25863273  1
  O  O278  1  0.36722922  0.50480244  0.75594047  1
  O  O279  1  0.89601397  0.00644372  0.25884207  1
  O  O280  1  0.86930753  0.00222040  0.75459783  1
  O  O281  1  0.86290054  0.50143547  0.25297237  1
  O  O282  1  0.87049407  0.50798226  0.75516419  1
  O  O283  1  0.11490845  0.37617157  0.36691933  1
  O  O284  1  0.11927079  0.36789413  0.86890598  1
  O  O285  1  0.13023733  0.86802157  0.36406889  1
  O  O286  1  0.13069171  0.87849539  0.85786473  1
  O  O287  1  0.61517375  0.38348510  0.36207379  1
  O  O288  1  0.61340689  0.38476672  0.86596574  1
  O  O289  1  0.60832933  0.86560513  0.38784519  1
  O  O290  1  0.63135334  0.86329217  0.86709317  1
  O  O291  1  0.37129159  0.13911206  0.12399041  1
  O  O292  1  0.38150997  0.12453153  0.63530742  1
  O  O293  1  0.38147515  0.61941254  0.13439149  1
  O  O294  1  0.37056930  0.62381265  0.63993952  1
  O  O295  1  0.88261490  0.13081721  0.12855587  1
  O  O296  1  0.89452250  0.12070276  0.62573944  1
  O  O297  1  0.87132799  0.63932694  0.12521673  1
  O  O298  1  0.87252182  0.63181536  0.63567717  1
  O  O299  1  0.26080934  0.26181379  0.13200481  1
  O  O300  1  0.24768150  0.25862875  0.61763984  1
  O  O301  1  0.24511214  0.75461532  0.11226892  1
  O  O302  1  0.24883694  0.74602827  0.61453953  1
  O  O303  1  0.75550509  0.25247108  0.11089036  1
  O  O304  1  0.74637708  0.26465325  0.62657356  1
  O  O305  1  0.75893302  0.75571258  0.11740942  1
  O  O306  1  0.76509376  0.74581011  0.61847857  1
  O  O307  1  0.25012494  0.24345615  0.38098834  1
  O  O308  1  0.24273211  0.23740810  0.87174314  1
  O  O309  1  0.24429679  0.74003680  0.38251463  1
  O  O310  1  0.24075167  0.74084014  0.88700828  1
  O  O311  1  0.75408174  0.24727409  0.38678541  1
  O  O312  1  0.75384616  0.24155316  0.88683714  1
  O  O313  1  0.75617377  0.74201539  0.38796226  1
  O  O314  1  0.74297507  0.74516944  0.87855152  1
  O  O315  1  0.00695377  0.12059629  0.01102358  1
  O  O316  1  0.01008024  0.11853386  0.50685370  1
  O  O317  1  0.00787404  0.61630269  -0.00523811  1
  O  O318  1  0.01116543  0.62499631  0.49487598  1
  O  O319  1  0.50864804  0.11649307  -0.01062265  1
  O  O320  1  0.49177561  0.11274967  0.51703735  1
  O  O321  1  0.50047731  0.62332252  0.00820513  1
  O  O322  1  0.50037199  0.61784563  0.50444357  1
  O  O323  1  0.49413492  0.38232591  0.49439632  1
  O  O324  1  0.49325249  0.38150863  0.99489518  1
  O  O325  1  0.48781987  0.85712959  0.48904543  1
  O  O326  1  0.49270499  0.88007243  1.00176075  1
  O  O327  1  0.99722943  0.38111275  0.48971461  1
  O  O328  1  0.99282090  0.38041626  0.99143024  1
  O  O329  1  0.99282694  0.88175259  0.50060612  1
  O  O330  1  0.98790810  0.87593592  1.00285984  1
  O  O331  1  0.49465411  0.49906941  0.38736408  1
  O  O332  1  0.49082196  0.49254813  0.88094195  1
  O  O333  1  0.49722806  0.98424053  0.39011297  1
  O  O334  1  0.49590945  0.99955034  0.88959075  1
  O  O335  1  0.98584194  0.49608150  0.37354420  1
  O  O336  1  0.99264373  0.48937626  0.88202599  1
  O  O337  1  1.01841221  0.99237825  0.39421406  1
  O  O338  1  0.98871000  1.00811860  0.87397642  1
  O  O339  1  0.01182743  0.00552477  0.12203296  1
  O  O340  1  0.01211652  0.00795767  0.61455951  1
  O  O341  1  0.01144075  0.49215778  0.11849878  1
  O  O342  1  0.01075423  0.49612191  0.62618030  1
  O  O343  1  0.49251731  0.00440979  0.10216129  1
  O  O344  1  0.51512642  0.00797476  0.63564798  1
  O  O345  1  0.50331557  0.51270146  0.12149424  1
  O  O346  1  0.50515898  0.50004439  0.61527214  1
  O  O347  1  0.24258173  0.38073885  0.24365590  1
  O  O348  1  0.24173336  0.37907683  0.74552801  1
  O  O349  1  0.24806774  0.87143520  0.24059101  1
  O  O350  1  0.24094175  0.86774070  0.74536109  1
  O  O351  1  0.73632179  0.38618903  0.24911967  1
  O  O352  1  0.74126940  0.38343984  0.74653615  1
  O  O353  1  0.75591184  0.86764495  0.23641213  1
  O  O354  1  0.74241328  0.88851349  0.75350402  1
  O  O355  1  0.24534259  0.12301462  0.26349172  1
  O  O356  1  0.26144821  0.12753477  0.75446120  1
  O  O357  1  0.25430437  0.62551559  0.25803463  1
  O  O358  1  0.25201839  0.62013283  0.75758363  1
  O  O359  1  0.73054586  0.11885885  0.24229331  1
  O  O360  1  0.75089925  0.11480972  0.75880180  1
  O  O361  1  0.75206202  0.61987839  0.25635151  1
  O  O362  1  0.75701953  0.62007000  0.75562753  1
  O  O363  1  0.37225461  0.11554725  0.37441854  1
  O  O364  1  0.36459075  0.12746670  0.86548996  1
  O  O365  1  0.36515532  0.62197308  0.37146053  1
  O  O366  1  0.36664204  0.61835994  0.86604151  1
  O  O367  1  0.89195404  0.11360094  0.36484645  1
  O  O368  1  0.86552939  0.11686356  0.87616033  1
  O  O369  1  0.86577548  0.61826273  0.37070273  1
  O  O370  1  0.86920847  0.61971112  0.86784648  1
  O  O371  1  0.12948482  0.37747289  0.13036931  1
  O  O372  1  0.12661118  0.37945212  0.63246122  1
  O  O373  1  0.13635039  0.87927611  0.12878285  1
  O  O374  1  0.12575102  0.88741214  0.63076415  1
  O  O375  1  0.62138292  0.38736704  0.13401660  1
  O  O376  1  0.62769713  0.38594055  0.63340871  1
  O  O377  1  0.64752215  0.86870908  0.11577203  1
  O  O378  1  0.62203230  0.88225424  0.63985518  1
  O  O379  1  0.13045420  0.26451732  0.25163319  1
  O  O380  1  0.12798974  0.26028986  0.75837988  1
  O  O381  1  0.12157800  0.75670452  0.25268475  1
  O  O382  1  0.11728494  0.76513204  0.74770796  1
  O  O383  1  0.62136697  0.27244286  0.24209162  1
  O  O384  1  0.62403556  0.26493523  0.74928032  1
  O  O385  1  0.61194785  0.74450938  0.25095065  1
  O  O386  1  0.62004641  0.75626004  0.75459264  1
  O  O387  1  0.38046117  0.24758290  0.24436992  1
  O  O388  1  0.37774516  0.23736865  0.74591495  1
  O  O389  1  0.38205596  0.73759264  0.25600137  1
  O  O390  1  0.38008293  0.74266273  0.75253202  1
  O  O391  1  0.86308729  0.24944718  0.23653132  1
  O  O392  1  0.87487784  0.24541751  0.74244131  1
  O  O393  1  0.88579873  0.75042028  0.24178716  1
  O  O394  1  0.88063367  0.74652440  0.74493482  1
  O  O395  1  0.37911628  0.49750401  0.49670008  1
  O  O396  1  0.37922951  0.49172046  0.99674947  1
  O  O397  1  0.36997308  0.98882834  0.48853743  1
  O  O398  1  0.38220487  0.98864854  0.99321662  1
  O  O399  1  0.87520776  0.50037834  0.49036542  1
  O  O400  1  0.87696545  0.49274446  0.99656967  1
  O  O401  1  0.88333978  0.99286121  0.50252776  1
  O  O402  1  0.87707437  0.99203787  0.99062120  1
  O  O403  1  0.12676641  -0.00332449  0.01063190  1
  O  O404  1  0.12466141  0.00439503  0.50976899  1
  O  O405  1  0.11862349  0.50405156  0.00682470  1
  O  O406  1  0.12214880  0.50982301  0.51003035  1
  O  O407  1  0.61655425  0.00306869  0.00134602  1
  O  O408  1  0.61748559  -0.00596396  0.51222549  1
  O  O409  1  0.61698175  0.50747646  0.00474453  1
  O  O410  1  0.61584482  0.50117470  0.50806487  1
  O  O411  1  0.36759491  0.37254885  0.12119646  1
  O  O412  1  0.36547766  0.37689117  0.61884233  1
  O  O413  1  0.36331295  0.87244387  0.11027956  1
  O  O414  1  0.38058215  0.87639848  0.61147430  1
  O  O415  1  0.87170558  0.36733981  0.11855333  1
  O  O416  1  0.86320976  0.37774494  0.62389237  1
  O  O417  1  0.86802493  0.86513587  0.11632112  1
  O  O418  1  0.87898681  0.86744637  0.61374771  1
  O  O419  1  0.13627140  0.12400566  0.38998819  1
  O  O420  1  0.13716247  0.13069804  0.87455221  1
  O  O421  1  0.13015881  0.62978364  0.38255649  1
  O  O422  1  0.13005311  0.62112994  0.88772171  1
  O  O423  1  0.60261257  0.11469225  0.40191937  1
  O  O424  1  0.63922017  0.11873992  0.88317489  1
  O  O425  1  0.64007064  0.61809062  0.37835703  1
  O  O426  1  0.62904724  0.63331517  0.87873424  1
