# generated using pymatgen
data_V85Zn86O256
_symmetry_space_group_name_H-M   'P 1'
_cell_length_a   16.91609509
_cell_length_b   16.91100524
_cell_length_c   16.91442525
_cell_angle_alpha   90.01302427
_cell_angle_beta   89.93702723
_cell_angle_gamma   89.94110067
_symmetry_Int_Tables_number   1
_chemical_formula_structural   V85Zn86O256
_chemical_formula_sum   'V85 Zn86 O256'
_cell_volume   4838.67311873
_cell_formula_units_Z   1
loop_
 _symmetry_equiv_pos_site_id
 _symmetry_equiv_pos_as_xyz
  1  'x, y, z'
loop_
 _atom_site_type_symbol
 _atom_site_label
 _atom_site_symmetry_multiplicity
 _atom_site_fract_x
 _atom_site_fract_y
 _atom_site_fract_z
 _atom_site_occupancy
  V  V0  1  0.87741780  0.25349811  0.12010669  1
  V  V1  1  0.37534609  0.37367762  -0.00077515  1
  V  V2  1  0.62615546  0.50399687  0.61922286  1
  V  V3  1  0.50030755  0.62724231  0.63421033  1
  V  V4  1  0.88060457  0.37295812  0.49510926  1
  V  V5  1  0.87460158  -0.00285042  0.38345415  1
  V  V6  1  0.13076204  0.75124311  0.37811435  1
  V  V7  1  0.62475334  0.37331946  0.74982194  1
  V  V8  1  0.37580253  0.86859055  0.00131016  1
  V  V9  1  0.24594327  0.62475635  0.87977668  1
  V  V10  1  0.12281704  0.12553037  0.51341875  1
  V  V11  1  0.85689653  0.75298866  0.60596421  1
  V  V12  1  0.12707718  0.87760962  0.74658172  1
  V  V13  1  0.74909702  -0.01202830  0.74543246  1
  V  V14  1  0.74635090  0.12232174  0.87112297  1
  V  V15  1  0.75392398  0.25162878  -0.00582543  1
  V  V16  1  0.63271541  0.63720330  0.00294666  1
  V  V17  1  0.74947281  -0.00039813  0.25268016  1
  V  V18  1  0.24998337  0.37363438  0.62041428  1
  V  V19  1  0.24950552  0.13040550  0.38022005  1
  V  V20  1  0.00064438  0.25850454  0.25587213  1
  V  V21  1  0.12787058  0.50286328  0.12192783  1
  V  V22  1  0.74644392  0.87330719  0.12412609  1
  V  V23  1  0.87380289  0.62736648  0.25379016  1
  V  V24  1  0.00105329  0.50064906  0.49890423  1
  V  V25  1  -0.00761101  0.37249289  0.87982077  1
  V  V26  1  0.00557973  0.62780977  0.12058139  1
  V  V27  1  0.00300750  -0.00031090  0.00564959  1
  V  V28  1  0.36965176  -0.00021938  0.87508975  1
  V  V29  1  -0.00010528  0.00261146  0.51584587  1
  V  V30  1  0.24986991  0.50258408  0.75054706  1
  V  V31  1  -0.00180472  0.87623549  0.38089306  1
  V  V32  1  0.49453489  -0.00196697  0.50078708  1
  V  V33  1  0.12345506  0.37574483  0.75165115  1
  V  V34  1  0.11919339  0.50616519  0.62669605  1
  V  V35  1  0.13080411  0.24643846  0.87665376  1
  V  V36  1  0.00616775  0.12291316  0.12768530  1
  V  V37  1  0.74874777  0.13308347  0.37531133  1
  V  V38  1  0.25799728  0.49925655  0.25363812  1
  V  V39  1  0.50360808  0.50043119  -0.00199928  1
  V  V40  1  0.62521262  0.87074032  0.25697053  1
  V  V41  1  0.12399446  0.25348978  0.37980856  1
  V  V42  1  0.62859426  -0.00700547  0.62258297  1
  V  V43  1  0.87450704  0.00077605  0.87559469  1
  V  V44  1  0.75367819  0.50403422  0.74972642  1
  V  V45  1  0.24638133  0.00226520  0.74671899  1
  V  V46  1  0.87180524  0.74996595  0.12188314  1
  V  V47  1  0.50015953  0.00515409  0.00413524  1
  V  V48  1  0.38817060  0.24328637  0.12705402  1
  V  V49  1  0.87598532  0.12629913  0.25146207  1
  V  V50  1  0.49018471  0.75107245  0.24656741  1
  V  V51  1  0.49868099  0.12560436  0.62532843  1
  V  V52  1  0.37108561  0.12763045  0.75628147  1
  V  V53  1  0.73462151  0.74789085  0.48216549  1
  V  V54  1  0.62399315  0.13057070  0.49668438  1
  V  V55  1  0.12459686  0.74841253  0.88079036  1
  V  V56  1  0.13135091  0.12138646  -0.00033070  1
  V  V57  1  0.49813454  0.87045261  0.38059560  1
  V  V58  1  0.25076888  0.87196161  0.61305794  1
  V  V59  1  0.12406540  0.87791064  0.24612105  1
  V  V60  1  -0.00438306  0.49633085  0.00247519  1
  V  V61  1  0.50613986  0.37221482  0.37616249  1
  V  V62  1  0.00046737  0.87320584  0.87667228  1
  V  V63  1  0.12630500  0.62999937  0.50344697  1
  V  V64  1  0.24523878  0.00395705  0.24743356  1
  V  V65  1  -0.00148465  0.74355827  0.74062415  1
  V  V66  1  0.74820005  0.50487504  0.25175524  1
  V  V67  1  0.24908906  0.36915139  0.12594690  1
  V  V68  1  0.24959454  0.74532280  0.00764172  1
  V  V69  1  0.87164558  0.87333817  0.00250603  1
  V  V70  1  0.49358840  0.50916082  0.49471755  1
  V  V71  1  0.37962018  0.75652257  0.61926900  1
  V  V72  1  0.62585944  0.74996692  0.86022214  1
  V  V73  1  0.25713413  0.62429221  0.37868105  1
  V  V74  1  0.88286388  0.50031203  0.37350235  1
  V  V75  1  0.62736719  0.37057558  0.25399521  1
  V  V76  1  0.74507436  0.25906046  0.50001136  1
  V  V77  1  0.37206699  -0.00403589  0.37826193  1
  V  V78  1  -0.00219191  0.24308684  0.74342096  1
  V  V79  1  0.37378471  0.50048502  0.87372226  1
  V  V80  1  0.75198414  0.37555014  0.11845588  1
  V  V81  1  0.25153550  0.87708054  0.12555275  1
  V  V82  1  0.48942247  0.63054475  0.12052578  1
  V  V83  1  0.37249703  0.37700309  0.49188223  1
  V  V84  1  0.37248403  0.24938684  0.61859471  1
  Zn  Zn85  1  0.75281750  0.37614173  0.62407082  1
  Zn  Zn86  1  0.38370149  0.12090859  0.24796504  1
  Zn  Zn87  1  0.51079820  0.24003658  0.25503027  1
  Zn  Zn88  1  0.37134053  0.62759295  0.24775003  1
  Zn  Zn89  1  0.88103501  0.11560056  0.73736141  1
  Zn  Zn90  1  0.49721705  0.86771661  0.86886462  1
  Zn  Zn91  1  0.50009934  0.37202824  0.87296462  1
  Zn  Zn92  1  0.62258127  0.24693876  0.87209446  1
  Zn  Zn93  1  0.62191371  0.70980002  0.37252441  1
  Zn  Zn94  1  0.00042801  0.75078056  0.25145444  1
  Zn  Zn95  1  0.87791679  0.24391805  0.61861726  1
  Zn  Zn96  1  0.12325230  0.37840209  0.25671127  1
  Zn  Zn97  1  0.61058769  0.00734053  0.13545179  1
  Zn  Zn98  1  0.50074935  0.25002830  0.75109704  1
  Zn  Zn99  1  0.88143841  0.62303894  0.74831165  1
  Zn  Zn100  1  0.75721184  0.62857640  0.87968378  1
  Zn  Zn101  1  0.62584615  0.50060003  0.12146748  1
  Zn  Zn102  1  0.62177630  0.12710876  0.00301346  1
  Zn  Zn103  1  0.25387202  0.24346652  -0.00286301  1
  Zn  Zn104  1  0.87442911  0.50057657  0.87744806  1
  Zn  Zn105  1  0.61769130  0.86820582  0.73980565  1
  Zn  Zn106  1  0.37648374  0.63581775  0.75307183  1
  Zn  Zn107  1  0.18749462  0.18771803  0.19002982  1
  Zn  Zn108  1  0.18958550  0.19061437  0.69044502  1
  Zn  Zn109  1  0.18673683  0.68810917  0.19093075  1
  Zn  Zn110  1  0.19054519  0.69147002  0.68897910  1
  Zn  Zn111  1  0.68557941  0.18678402  0.18391625  1
  Zn  Zn112  1  0.69127387  0.18452635  0.68425924  1
  Zn  Zn113  1  0.68351649  0.68870695  0.18788885  1
  Zn  Zn114  1  0.69150508  0.68305425  0.67946105  1
  Zn  Zn115  1  0.31260486  0.31017221  0.31069557  1
  Zn  Zn116  1  0.31206984  0.31334782  0.81048128  1
  Zn  Zn117  1  0.31093173  0.81407726  0.31710598  1
  Zn  Zn118  1  0.31432175  0.81202989  0.80967454  1
  Zn  Zn119  1  0.81300363  0.31649253  0.31326536  1
  Zn  Zn120  1  0.81284860  0.31541423  0.80944570  1
  Zn  Zn121  1  0.81225448  0.81010860  0.31773591  1
  Zn  Zn122  1  0.81000926  0.80900951  0.81591580  1
  Zn  Zn123  1  0.18860240  0.43954631  0.43797502  1
  Zn  Zn124  1  0.18375549  0.43506747  0.94101770  1
  Zn  Zn125  1  0.18080837  0.94442193  0.43662758  1
  Zn  Zn126  1  0.18833504  0.93776628  0.93564765  1
  Zn  Zn127  1  0.66606601  0.49921642  0.41429225  1
  Zn  Zn128  1  0.68873731  0.43909181  0.93480653  1
  Zn  Zn129  1  0.68889710  0.93309593  0.44166559  1
  Zn  Zn130  1  0.68565275  0.93238320  0.93686527  1
  Zn  Zn131  1  0.31377321  0.05925450  0.06490356  1
  Zn  Zn132  1  0.30797387  0.06145398  0.56419819  1
  Zn  Zn133  1  0.31189995  0.56014681  0.06139873  1
  Zn  Zn134  1  0.31243326  0.56572283  0.56432714  1
  Zn  Zn135  1  0.80762970  0.06370131  0.06437494  1
  Zn  Zn136  1  0.81284270  0.06553578  0.56375912  1
  Zn  Zn137  1  0.81547616  0.56276612  0.06512561  1
  Zn  Zn138  1  0.81465625  0.57194852  0.56395926  1
  Zn  Zn139  1  0.43898050  0.43498709  0.18545856  1
  Zn  Zn140  1  0.43832277  0.43905758  0.68606086  1
  Zn  Zn141  1  0.43197301  0.93529244  0.18895316  1
  Zn  Zn142  1  0.43577434  0.93441952  0.68815574  1
  Zn  Zn143  1  0.93727462  0.43727447  0.18581211  1
  Zn  Zn144  1  0.93746174  0.43312924  0.68489131  1
  Zn  Zn145  1  0.93627262  0.93845932  0.19174264  1
  Zn  Zn146  1  0.93414953  0.92769838  0.68993429  1
  Zn  Zn147  1  0.06271803  0.06487762  0.31787737  1
  Zn  Zn148  1  0.06450870  0.06205702  0.81478919  1
  Zn  Zn149  1  0.06502250  0.56416872  0.30958686  1
  Zn  Zn150  1  0.06318717  0.56339588  0.81780675  1
  Zn  Zn151  1  0.56243271  0.06180224  0.31446713  1
  Zn  Zn152  1  0.55867399  0.05595333  0.81275434  1
  Zn  Zn153  1  0.54851532  0.55427340  0.30423371  1
  Zn  Zn154  1  0.56727393  0.56271112  0.81323621  1
  Zn  Zn155  1  0.43681070  0.18884400  0.43497428  1
  Zn  Zn156  1  0.43817622  0.18738349  0.93572933  1
  Zn  Zn157  1  0.43446488  0.69182852  0.44288403  1
  Zn  Zn158  1  0.43865723  0.68813180  0.93486069  1
  Zn  Zn159  1  0.93994191  0.18491040  0.43984745  1
  Zn  Zn160  1  0.93857073  0.18538470  0.93548483  1
  Zn  Zn161  1  0.94169459  0.68606997  0.43868844  1
  Zn  Zn162  1  0.93740314  0.68388632  0.93876804  1
  Zn  Zn163  1  0.06504323  0.31192842  0.06312214  1
  Zn  Zn164  1  0.06468892  0.31593239  0.55987607  1
  Zn  Zn165  1  0.06384324  0.81260997  0.06445519  1
  Zn  Zn166  1  0.06518473  0.81645167  0.56243706  1
  Zn  Zn167  1  0.56838195  0.31407586  0.05938777  1
  Zn  Zn168  1  0.56131689  0.31583703  0.56405138  1
  Zn  Zn169  1  0.56037954  0.81623524  0.06400475  1
  Zn  Zn170  1  0.56429584  0.80840004  0.55847889  1
  O  O171  1  0.11222319  0.13036312  0.11927440  1
  O  O172  1  0.13017446  0.13040462  0.61235710  1
  O  O173  1  0.11802147  0.61669595  0.13061243  1
  O  O174  1  0.13395266  0.61747515  0.61721960  1
  O  O175  1  0.64263367  0.11318369  0.11403255  1
  O  O176  1  0.62063471  0.11644915  0.61348163  1
  O  O177  1  0.61555945  0.62399642  0.11481890  1
  O  O178  1  0.61445076  0.61615811  0.62563840  1
  O  O179  1  0.37650974  0.36949242  0.38818987  1
  O  O180  1  0.37423296  0.38147804  0.88227144  1
  O  O181  1  0.38101260  0.88693030  0.37439895  1
  O  O182  1  0.37292951  0.88132130  0.88392782  1
  O  O183  1  0.87524286  0.38425009  0.38520252  1
  O  O184  1  0.88895820  0.37744259  0.87303471  1
  O  O185  1  0.88667199  0.88426833  0.36792514  1
  O  O186  1  0.87758437  0.88288959  0.88205226  1
  O  O187  1  0.25577127  0.00669496  0.37081670  1
  O  O188  1  0.26141943  -0.00366327  0.86637926  1
  O  O189  1  0.24227366  0.51009839  0.36436297  1
  O  O190  1  0.25098508  0.50707253  0.87361945  1
  O  O191  1  0.75666714  0.00800064  0.37362565  1
  O  O192  1  0.75532528  0.00368198  0.87018448  1
  O  O193  1  0.76722891  0.49636520  0.35819222  1
  O  O194  1  0.75370307  0.50314382  0.86539088  1
  O  O195  1  0.24480478  0.49127276  0.12866577  1
  O  O196  1  0.24221636  0.49334236  0.63134625  1
  O  O197  1  0.25071680  0.99154388  0.13529259  1
  O  O198  1  0.25736200  0.98643858  0.63772145  1
  O  O199  1  0.75490581  0.48994955  0.13270164  1
  O  O200  1  0.74233494  0.50088213  0.62719831  1
  O  O201  1  0.75840199  0.98654472  0.13724526  1
  O  O202  1  0.74121170  1.00376255  0.63255512  1
  O  O203  1  0.00211798  0.36234310  0.24613128  1
  O  O204  1  0.00661771  0.36754184  0.75829350  1
  O  O205  1  0.00914693  0.87769267  0.25950655  1
  O  O206  1  0.00936777  0.86700030  0.75832755  1
  O  O207  1  0.50950025  0.37724444  0.25764035  1
  O  O208  1  0.50959559  0.37501089  0.75047025  1
  O  O209  1  0.50388605  0.86961635  0.25731325  1
  O  O210  1  0.50662909  0.88605940  0.75680999  1
  O  O211  1  0.49763320  0.12747576  0.25433538  1
  O  O212  1  0.48884549  0.12271100  0.74214662  1
  O  O213  1  0.49318244  0.63119034  0.23894563  1
  O  O214  1  0.49673604  0.61812179  0.73815470  1
  O  O215  1  0.99652080  0.13107506  0.24361813  1
  O  O216  1  1.00110265  0.13952007  0.75627954  1
  O  O217  1  0.99322261  0.62569315  0.23833536  1
  O  O218  1  1.00546434  0.64021612  0.75424408  1
  O  O219  1  0.37329417  0.25355769  0.00926690  1
  O  O220  1  0.37740299  0.25672380  0.51217414  1
  O  O221  1  0.36523382  0.76059124  -0.00601221  1
  O  O222  1  0.36816486  0.74772984  0.51840210  1
  O  O223  1  0.86615824  0.24498260  0.00682174  1
  O  O224  1  0.87076542  0.25843630  0.49577483  1
  O  O225  1  0.87928914  0.75486114  0.01421116  1
  O  O226  1  0.87619870  0.75253964  0.50448997  1
  O  O227  1  0.11665927  0.23741330  0.49361798  1
  O  O228  1  0.12652390  0.24033118  0.99391907  1
  O  O229  1  0.11995377  0.74106676  0.49266903  1
  O  O230  1  0.13345187  0.75774444  0.98850659  1
  O  O231  1  0.63181108  0.24293322  0.50430625  1
  O  O232  1  0.64043176  0.24868625  0.99598334  1
  O  O233  1  0.62885373  0.74511028  0.48853421  1
  O  O234  1  0.62398921  0.73876656  1.00106411  1
  O  O235  1  0.49003746  0.25527393  0.12400892  1
  O  O236  1  0.49069272  0.24355758  0.62736474  1
  O  O237  1  0.50319486  0.74323558  0.13354532  1
  O  O238  1  0.48982423  0.74326526  0.61916581  1
  O  O239  1  0.99418065  0.24388813  0.13027139  1
  O  O240  1  1.00353697  0.25804626  0.64154392  1
  O  O241  1  0.99451240  0.74371707  0.12768071  1
  O  O242  1  1.00656402  0.75217215  0.64043814  1
  O  O243  1  0.00889276  0.24335778  0.36572507  1
  O  O244  1  0.00761747  0.25596773  0.87000708  1
  O  O245  1  0.00979376  0.75920985  0.37381633  1
  O  O246  1  0.00930169  0.75514521  0.87476155  1
  O  O247  1  0.49811564  0.26629263  0.37497517  1
  O  O248  1  0.50357611  0.25286215  0.87057113  1
  O  O249  1  0.50109247  0.75588652  0.37074857  1
  O  O250  1  0.51873110  0.74787395  0.87931594  1
  O  O251  1  0.23604747  0.11799638  0.49248921  1
  O  O252  1  0.23508748  0.12157340  1.00680010  1
  O  O253  1  0.23670933  0.61600133  0.49135034  1
  O  O254  1  0.25352630  0.63440089  0.99443842  1
  O  O255  1  0.74322571  0.13484370  0.49325119  1
  O  O256  1  0.75484390  0.13073404  0.98492790  1
  O  O257  1  0.75868318  0.64742472  0.50004280  1
  O  O258  1  0.73535510  0.61967085  1.00376970  1
  O  O259  1  0.25674140  0.37251747  0.00904585  1
  O  O260  1  0.25814007  0.38193447  0.51014344  1
  O  O261  1  0.25342576  0.87070533  0.00819995  1
  O  O262  1  0.24045913  0.88409309  0.51513263  1
  O  O263  1  0.74854031  0.36885132  0.00910039  1
  O  O264  1  0.75666432  0.36258943  0.49569049  1
  O  O265  1  0.75810340  0.88291165  0.01241958  1
  O  O266  1  0.74990560  0.85191632  0.48975365  1
  O  O267  1  0.13339180  0.49740505  0.23986689  1
  O  O268  1  0.12832526  0.49710282  0.74385057  1
  O  O269  1  0.13636641  0.99339699  0.25896335  1
  O  O270  1  0.13406321  0.99164801  0.75677798  1
  O  O271  1  0.63453680  0.49104607  0.24104817  1
  O  O272  1  0.63177986  0.49461959  0.74069254  1
  O  O273  1  0.63218789  0.99017442  0.25172484  1
  O  O274  1  0.63343617  1.00334930  0.73895177  1
  O  O275  1  0.36292994  -0.00007574  0.25869043  1
  O  O276  1  0.36738932  0.00696146  0.75691199  1
  O  O277  1  0.36180244  0.50196639  0.24274487  1
  O  O278  1  0.36683301  0.49988238  0.75833449  1
  O  O279  1  0.87014050  0.00707019  0.26147263  1
  O  O280  1  0.86853121  -0.00381655  0.75806536  1
  O  O281  1  0.87319305  0.50644668  0.25447526  1
  O  O282  1  0.86823900  0.50077677  0.74745023  1
  O  O283  1  0.13302481  0.35856194  0.37689400  1
  O  O284  1  0.11723059  0.36780070  0.87041492  1
  O  O285  1  0.12203826  0.86997918  0.36679555  1
  O  O286  1  0.12274621  0.86783368  0.86664171  1
  O  O287  1  0.61779447  0.39081871  0.36531566  1
  O  O288  1  0.62535753  0.37546160  0.86048931  1
  O  O289  1  0.61402341  0.88030179  0.36455056  1
  O  O290  1  0.62428665  0.85797852  0.87504834  1
  O  O291  1  0.36958916  0.14052966  0.12549425  1
  O  O292  1  0.37644320  0.13281098  0.62978303  1
  O  O293  1  0.38557028  0.62558737  0.12163267  1
  O  O294  1  0.38024357  0.63519804  0.62856273  1
  O  O295  1  0.88210010  0.13490043  0.13036121  1
  O  O296  1  0.87787930  0.13012261  0.62570905  1
  O  O297  1  0.88200298  0.63278742  0.13195117  1
  O  O298  1  0.87458677  0.64774250  0.63144713  1
  O  O299  1  0.25551497  0.25960923  0.12526040  1
  O  O300  1  0.25615280  0.26509858  0.63020155  1
  O  O301  1  0.24299620  0.75599498  0.11378560  1
  O  O302  1  0.25522563  0.76537206  0.62592708  1
  O  O303  1  0.75918155  0.25614146  0.11693676  1
  O  O304  1  0.75302888  0.25345330  0.61390357  1
  O  O305  1  0.75677480  0.76351753  0.13194258  1
  O  O306  1  0.75207318  0.75466946  0.61335994  1
  O  O307  1  0.24473557  0.23693250  0.37080609  1
  O  O308  1  0.23577958  0.25405921  0.87591241  1
  O  O309  1  0.23823264  0.74346849  0.37227020  1
  O  O310  1  0.24429518  0.74410139  0.88308898  1
  O  O311  1  0.75436746  0.23850068  0.37880242  1
  O  O312  1  0.75261718  0.24253756  0.87895983  1
  O  O313  1  0.74088230  0.74406235  0.37587759  1
  O  O314  1  0.73441331  0.74547341  0.87561612  1
  O  O315  1  0.00597147  0.11833579  0.00792595  1
  O  O316  1  0.01182197  0.11635085  0.49865833  1
  O  O317  1  0.00038668  0.61755008  0.01382112  1
  O  O318  1  0.01243564  0.61231617  0.49618858  1
  O  O319  1  0.49803807  0.10893489  -0.00134642  1
  O  O320  1  0.50663847  0.11953773  0.50207412  1
  O  O321  1  0.50766465  0.62050636  0.00403527  1
  O  O322  1  0.49113962  0.61313675  0.50795521  1
  O  O323  1  0.49223233  0.38197820  0.49558174  1
  O  O324  1  0.49578644  0.38424536  0.99823549  1
  O  O325  1  0.50390212  0.88247349  0.48826188  1
  O  O326  1  0.48880165  0.87977658  0.99660132  1
  O  O327  1  0.99516964  0.38886635  0.50050332  1
  O  O328  1  1.00615359  0.38191659  0.99252890  1
  O  O329  1  1.01071012  0.88607729  0.48770179  1
  O  O330  1  0.99473205  0.88224695  0.99798817  1
  O  O331  1  0.49144659  0.48840295  0.38589417  1
  O  O332  1  0.49436167  0.50180067  0.88457050  1
  O  O333  1  0.49140790  0.99220077  0.38143287  1
  O  O334  1  0.48565279  0.99791287  0.88589866  1
  O  O335  1  0.99136306  0.50229334  0.37925025  1
  O  O336  1  1.00400448  0.49141210  0.88575251  1
  O  O337  1  0.99275860  0.99521935  0.38122780  1
  O  O338  1  0.99221903  0.99350355  0.88115006  1
  O  O339  1  -0.00686018  0.00984330  0.11783603  1
  O  O340  1  -0.00611226  -0.00983975  0.61459064  1
  O  O341  1  0.00776036  0.50471105  0.12187330  1
  O  O342  1  0.01264446  0.49692680  0.61900877  1
  O  O343  1  0.49455075  -0.00805997  0.10965294  1
  O  O344  1  0.50312385  0.00643410  0.61585551  1
  O  O345  1  0.49995051  0.50738501  0.11275236  1
  O  O346  1  0.50445459  0.50824886  0.61843994  1
  O  O347  1  0.24883839  0.38138969  0.24314155  1
  O  O348  1  0.24299489  0.38310131  0.74404620  1
  O  O349  1  0.24442161  0.88032780  0.24415652  1
  O  O350  1  0.24308160  0.88232056  0.74578063  1
  O  O351  1  0.74658445  0.38121415  0.24145767  1
  O  O352  1  0.74497167  0.38565582  0.74618004  1
  O  O353  1  0.74124318  0.87771620  0.24916347  1
  O  O354  1  0.74338343  0.88550938  0.75437586  1
  O  O355  1  0.25170152  0.11754545  0.25812049  1
  O  O356  1  0.25804317  0.11522195  0.74374405  1
  O  O357  1  0.25158720  0.61855764  0.25737494  1
  O  O358  1  0.24999952  0.61848171  0.75979537  1
  O  O359  1  0.75470757  0.12150792  0.25868334  1
  O  O360  1  0.75373697  0.11708081  0.76050033  1
  O  O361  1  0.76021442  0.61560802  0.23738857  1
  O  O362  1  0.75058244  0.61258722  0.75011529  1
  O  O363  1  0.36632480  0.11536023  0.37677920  1
  O  O364  1  0.37452470  0.11914106  0.86393965  1
  O  O365  1  0.36020039  0.63097318  0.37562496  1
  O  O366  1  0.36409510  0.62024386  0.87404722  1
  O  O367  1  0.86805109  0.11828316  0.37138139  1
  O  O368  1  0.87208165  0.11073677  0.87164972  1
  O  O369  1  0.88311084  0.62032201  0.36024007  1
  O  O370  1  0.87437948  0.62002696  0.87052479  1
  O  O371  1  0.13465178  0.37994790  0.12855457  1
  O  O372  1  0.13300451  0.38286655  0.62935946  1
  O  O373  1  0.13238375  0.87236839  0.13832833  1
  O  O374  1  0.13631366  0.87023996  0.63797760  1
  O  O375  1  0.63632693  0.37783908  0.12995325  1
  O  O376  1  0.62650220  0.38370429  0.63460200  1
  O  O377  1  0.63111066  0.87802606  0.13673426  1
  O  O378  1  0.62011963  0.88886262  0.62038381  1
  O  O379  1  0.11681105  0.25048488  0.25864298  1
  O  O380  1  0.11659520  0.25367326  0.75770670  1
  O  O381  1  0.12277607  0.75960248  0.25867397  1
  O  O382  1  0.11918960  0.75630937  0.76073131  1
  O  O383  1  0.62833219  0.26517845  0.24664975  1
  O  O384  1  0.62665988  0.25889952  0.74792878  1
  O  O385  1  0.61312331  0.75467639  0.25572627  1
  O  O386  1  0.62801776  0.74732802  0.75674556  1
  O  O387  1  0.37889446  0.25107488  0.23545844  1
  O  O388  1  0.37344179  0.24268561  0.74054121  1
  O  O389  1  0.38593534  0.75164164  0.25363758  1
  O  O390  1  0.36857370  0.74980083  0.73200770  1
  O  O391  1  0.88189548  0.24498182  0.24516282  1
  O  O392  1  0.89072290  0.25084967  0.75053545  1
  O  O393  1  0.87743246  0.74410783  0.24140695  1
  O  O394  1  0.89279321  0.75095272  0.75670220  1
  O  O395  1  0.38349289  0.48951654  0.50949615  1
  O  O396  1  0.38188349  0.49447352  0.99336683  1
  O  O397  1  0.38665102  1.00549335  0.49485346  1
  O  O398  1  0.37863318  0.99192526  0.99464200  1
  O  O399  1  0.88171767  0.49890557  0.49321805  1
  O  O400  1  0.89099724  0.50117757  1.00311224  1
  O  O401  1  0.88195107  1.00464491  0.48924471  1
  O  O402  1  0.88420657  0.99688121  0.99472147  1
  O  O403  1  0.11163396  0.00484009  -0.00585216  1
  O  O404  1  0.11383677  0.01490536  0.49814227  1
  O  O405  1  0.11723800  0.49666720  0.01484166  1
  O  O406  1  0.11857798  0.50459967  0.50697632  1
  O  O407  1  0.60582277  -0.00625357  -0.00254122  1
  O  O408  1  0.61642846  0.00602834  0.50369335  1
  O  O409  1  0.61730671  0.50895506  -0.00067923  1
  O  O410  1  0.61010194  0.49138449  0.51379665  1
  O  O411  1  0.36912234  0.36613265  0.11870167  1
  O  O412  1  0.36890171  0.36861555  0.61902597  1
  O  O413  1  0.36020933  0.87528090  0.11787374  1
  O  O414  1  0.36429571  0.86768230  0.62405466  1
  O  O415  1  0.86909292  0.36121932  0.12952210  1
  O  O416  1  0.87344433  0.37225429  0.60859812  1
  O  O417  1  0.87003281  0.86739418  0.12445653  1
  O  O418  1  0.87873698  0.84808287  0.63221029  1
  O  O419  1  0.13217601  0.13347500  0.38206936  1
  O  O420  1  0.11870516  0.13385767  0.88724885  1
  O  O421  1  0.13069065  0.63385699  0.38002845  1
  O  O422  1  0.13726839  0.63297279  0.87561891  1
  O  O423  1  0.63401458  0.11914058  0.38879815  1
  O  O424  1  0.63344741  0.12304626  0.87840927  1
  O  O425  1  0.62541116  0.59743059  0.37199617  1
  O  O426  1  0.62714136  0.63358302  0.88647777  1
