# generated using pymatgen
data_V85Zn86O256
_symmetry_space_group_name_H-M   'P 1'
_cell_length_a   16.91607849
_cell_length_b   16.92302659
_cell_length_c   16.92813605
_cell_angle_alpha   90.02301295
_cell_angle_beta   89.98389705
_cell_angle_gamma   90.03749737
_symmetry_Int_Tables_number   1
_chemical_formula_structural   V85Zn86O256
_chemical_formula_sum   'V85 Zn86 O256'
_cell_volume   4846.03698133
_cell_formula_units_Z   1
loop_
 _symmetry_equiv_pos_site_id
 _symmetry_equiv_pos_as_xyz
  1  'x, y, z'
loop_
 _atom_site_type_symbol
 _atom_site_label
 _atom_site_symmetry_multiplicity
 _atom_site_fract_x
 _atom_site_fract_y
 _atom_site_fract_z
 _atom_site_occupancy
  V  V0  1  0.74536058  0.49279230  0.25049558  1
  V  V1  1  0.63145944  0.49532604  0.62369675  1
  V  V2  1  0.35528186  0.25026284  0.62361492  1
  V  V3  1  0.37563396  0.12329952  0.25749739  1
  V  V4  1  0.62289737  0.36726081  0.74675203  1
  V  V5  1  0.50370108  0.14201295  0.62523723  1
  V  V6  1  0.62620858  0.74731599  0.87421439  1
  V  V7  1  0.00054784  0.00197501  -0.00167765  1
  V  V8  1  0.74728286  0.75621873  0.50036349  1
  V  V9  1  0.25143370  0.75801748  0.49561187  1
  V  V10  1  0.87247065  0.25166859  0.12523967  1
  V  V11  1  0.50038495  -0.00135652  -0.00027213  1
  V  V12  1  0.87345569  0.00539652  0.87060714  1
  V  V13  1  0.13069143  0.24824783  0.39388238  1
  V  V14  1  0.00618866  0.51318840  0.00584788  1
  V  V15  1  0.10950635  0.75342128  0.37338533  1
  V  V16  1  0.00779936  0.49988953  0.50063724  1
  V  V17  1  0.87368594  0.49842254  0.37452656  1
  V  V18  1  0.12717032  0.00533084  0.62213798  1
  V  V19  1  0.49935138  0.12422329  0.12622983  1
  V  V20  1  0.37530654  0.49758617  0.37610865  1
  V  V21  1  0.00767481  0.62308519  0.62493612  1
  V  V22  1  0.62143645  0.49393750  0.12784926  1
  V  V23  1  0.37607373  0.25794746  0.12465626  1
  V  V24  1  0.75055410  0.63187184  0.36996580  1
  V  V25  1  0.63562248  0.87180182  0.74496483  1
  V  V26  1  0.43844626  0.93578782  0.43401067  1
  V  V27  1  0.37475946  0.87471529  0.00083690  1
  V  V28  1  0.24660025  -0.00289825  0.75093845  1
  V  V29  1  0.24151880  0.39889150  0.62317428  1
  V  V30  1  0.49986691  0.62378314  0.62427323  1
  V  V31  1  0.75537456  0.00608137  0.73913559  1
  V  V32  1  0.74970087  0.62244162  0.87344544  1
  V  V33  1  0.50080803  0.74893418  0.74830246  1
  V  V34  1  0.24007222  0.49204668  0.25455713  1
  V  V35  1  0.00334130  0.37234935  0.37331099  1
  V  V36  1  0.24700514  0.61997876  0.87804647  1
  V  V37  1  0.88140053  0.87320524  0.49619793  1
  V  V38  1  -0.00774311  0.12381860  0.62647032  1
  V  V39  1  0.12782908  0.00154864  0.12630693  1
  V  V40  1  0.50849525  0.25306339  0.25056020  1
  V  V41  1  0.61597213  -0.00659857  0.61807823  1
  V  V42  1  0.12821961  0.13339503  -0.00194289  1
  V  V43  1  0.12551373  0.74852093  0.87383869  1
  V  V44  1  0.24932150  0.13186334  0.87239486  1
  V  V45  1  0.37394619  0.62591548  0.24753762  1
  V  V46  1  0.87782053  0.12488718  0.24954010  1
  V  V47  1  0.00599059  0.00287482  0.49665019  1
  V  V48  1  0.25532390  0.25876787  -0.00393590  1
  V  V49  1  0.24101610  0.37535658  0.13067365  1
  V  V50  1  0.88082527  -0.00547001  0.37336105  1
  V  V51  1  0.37473844  -0.00011420  0.87195908  1
  V  V52  1  0.50131677  0.49885064  0.49948073  1
  V  V53  1  0.36953692  0.61887146  0.74898598  1
  V  V54  1  0.50831852  0.37447558  0.37198162  1
  V  V55  1  0.24975104  0.12675278  0.38836881  1
  V  V56  1  0.25289708  -0.00084373  0.25686088  1
  V  V57  1  0.01122808  0.37157274  0.87934604  1
  V  V58  1  0.87419261  0.26045830  0.63563039  1
  V  V59  1  0.24391375  0.87428330  0.62824944  1
  V  V60  1  0.62722078  0.62832721  0.49481597  1
  V  V61  1  0.87479770  0.62662180  0.74963497  1
  V  V62  1  0.62382473  0.86843249  0.26101914  1
  V  V63  1  0.50195247  0.87383201  0.87281420  1
  V  V64  1  0.24693368  0.75266833  0.00067174  1
  V  V65  1  0.01208215  0.25186498  0.24971122  1
  V  V66  1  0.49795370  0.36648441  0.87165435  1
  V  V67  1  0.74964291  0.86787079  0.12266554  1
  V  V68  1  0.48713002  0.49630258  -0.00130489  1
  V  V69  1  0.00480686  0.75633483  0.74701563  1
  V  V70  1  0.87113257  0.75578117  0.62557334  1
  V  V71  1  0.37120835  0.49270754  0.87176262  1
  V  V72  1  0.87567951  0.49548421  0.87907961  1
  V  V73  1  0.75559508  0.49079073  0.74450720  1
  V  V74  1  0.75335705  0.25575434  0.50350811  1
  V  V75  1  0.62320445  0.62147183  -0.00023583  1
  V  V76  1  0.24839863  0.62837465  0.37343919  1
  V  V77  1  0.00625983  0.87822231  0.86999740  1
  V  V78  1  0.50110028  0.75097422  0.26032131  1
  V  V79  1  0.00925199  0.24376066  0.75976399  1
  V  V80  1  0.75172614  0.12569849  0.37722886  1
  V  V81  1  0.62565976  -0.00395695  0.12396513  1
  V  V82  1  0.37511202  0.75587663  0.62131857  1
  V  V83  1  0.89223076  0.74440617  0.12831696  1
  V  V84  1  0.11308372  0.87158969  0.25359684  1
  Zn  Zn85  1  0.87438388  0.37826619  0.50709724  1
  Zn  Zn86  1  0.89006887  0.62668923  0.24735114  1
  Zn  Zn87  1  0.13062987  0.39072513  0.74932459  1
  Zn  Zn88  1  0.75376935  0.74746908  -0.00016157  1
  Zn  Zn89  1  0.74581135  0.25026278  -0.00294823  1
  Zn  Zn90  1  0.74488679  0.37184501  0.12515800  1
  Zn  Zn91  1  0.62647986  0.24602252  0.87372132  1
  Zn  Zn92  1  0.75175749  -0.00303518  0.24958040  1
  Zn  Zn93  1  0.87369502  0.37599844  0.00501236  1
  Zn  Zn94  1  0.37073287  0.36572995  0.49758375  1
  Zn  Zn95  1  0.38124991  0.13054477  0.75082668  1
  Zn  Zn96  1  0.37708617  0.75297873  0.12670294  1
  Zn  Zn97  1  0.12835949  0.62525676  0.50342676  1
  Zn  Zn98  1  0.63030122  0.25197882  0.37375240  1
  Zn  Zn99  1  0.25075692  0.87408399  0.12789857  1
  Zn  Zn100  1  0.49753993  0.62513829  0.12437959  1
  Zn  Zn101  1  0.62704795  0.12627190  -0.00430421  1
  Zn  Zn102  1  0.62219506  0.12158824  0.49637364  1
  Zn  Zn103  1  0.87435913  0.87387504  -0.00124884  1
  Zn  Zn104  1  0.11131315  0.50413695  0.13455531  1
  Zn  Zn105  1  0.00089151  0.12751575  0.12387393  1
  Zn  Zn106  1  0.74857590  0.12742703  0.87451328  1
  Zn  Zn107  1  0.19067962  0.18576301  0.18846811  1
  Zn  Zn108  1  0.18329283  0.18368819  0.68735891  1
  Zn  Zn109  1  0.07540025  0.67998289  0.18232867  1
  Zn  Zn110  1  0.18809890  0.68684241  0.69164103  1
  Zn  Zn111  1  0.68884467  0.18298121  0.18660276  1
  Zn  Zn112  1  0.68992539  0.18414501  0.68465164  1
  Zn  Zn113  1  0.68756862  0.68462076  0.18660411  1
  Zn  Zn114  1  0.68949296  0.68331866  0.68377110  1
  Zn  Zn115  1  0.31545858  0.30933017  0.31444895  1
  Zn  Zn116  1  0.30968646  0.31355716  0.80179223  1
  Zn  Zn117  1  0.31121021  0.81513245  0.31174607  1
  Zn  Zn118  1  0.31227119  0.81150017  0.81001371  1
  Zn  Zn119  1  0.81613690  0.31216985  0.31183567  1
  Zn  Zn120  1  0.81496705  0.31130029  0.81313504  1
  Zn  Zn121  1  0.81497119  0.81181018  0.30926100  1
  Zn  Zn122  1  0.81477577  0.81599652  0.81509006  1
  Zn  Zn123  1  0.18753986  0.43199154  0.44050537  1
  Zn  Zn124  1  0.18744832  0.43889690  0.94143242  1
  Zn  Zn125  1  0.19140183  0.93724156  0.43657997  1
  Zn  Zn126  1  0.18593630  0.93880214  0.93539743  1
  Zn  Zn127  1  0.69018227  0.43687702  0.43782309  1
  Zn  Zn128  1  0.68608577  0.43153424  0.93866271  1
  Zn  Zn129  1  0.69358274  0.93793312  0.43762899  1
  Zn  Zn130  1  0.68970790  0.93798855  0.93613525  1
  Zn  Zn131  1  0.31360760  0.06569245  0.06483850  1
  Zn  Zn132  1  0.32386505  0.05906822  0.56278384  1
  Zn  Zn133  1  0.25360749  0.60009043  0.09682482  1
  Zn  Zn134  1  0.31309851  0.56614372  0.55816236  1
  Zn  Zn135  1  0.81093379  0.06265742  0.06124707  1
  Zn  Zn136  1  0.81391423  0.06397480  0.56167341  1
  Zn  Zn137  1  0.81126589  0.56232055  0.06336017  1
  Zn  Zn138  1  0.81688735  0.56608513  0.56157314  1
  Zn  Zn139  1  0.43453612  0.43731307  0.18803202  1
  Zn  Zn140  1  0.43547476  0.43198958  0.68567700  1
  Zn  Zn141  1  0.43804303  0.93557597  0.19304839  1
  Zn  Zn142  1  0.43683615  0.93744035  0.68632314  1
  Zn  Zn143  1  0.93537645  0.43679624  0.19113223  1
  Zn  Zn144  1  0.96756047  0.44809963  0.70149983  1
  Zn  Zn145  1  0.93675218  0.93708101  0.18297024  1
  Zn  Zn146  1  0.93691186  0.93568404  0.68342794  1
  Zn  Zn147  1  0.06535016  0.06562788  0.31477520  1
  Zn  Zn148  1  0.06723472  0.06463764  0.81041060  1
  Zn  Zn149  1  0.06316292  0.56260410  0.31789396  1
  Zn  Zn150  1  0.06367750  0.56391231  0.81644319  1
  Zn  Zn151  1  0.56380742  0.05746477  0.31213019  1
  Zn  Zn152  1  0.56483774  0.06312157  0.80637041  1
  Zn  Zn153  1  0.56227832  0.56514994  0.31195018  1
  Zn  Zn154  1  0.56114421  0.55655516  0.81047976  1
  Zn  Zn155  1  0.43953313  0.18325962  0.44230385  1
  Zn  Zn156  1  0.43726901  0.18614874  0.93939067  1
  Zn  Zn157  1  0.43699158  0.69076299  0.43789424  1
  Zn  Zn158  1  0.43562593  0.68438504  0.93635092  1
  Zn  Zn159  1  0.93773430  0.18657621  0.44196081  1
  Zn  Zn160  1  0.93431611  0.18563353  0.93808668  1
  Zn  Zn161  1  0.93520598  0.68368333  0.43733158  1
  Zn  Zn162  1  0.93657019  0.68858701  0.93910081  1
  Zn  Zn163  1  0.06168653  0.31486640  0.06293730  1
  Zn  Zn164  1  0.06107951  0.31413714  0.56659573  1
  Zn  Zn165  1  0.06666857  0.81880411  0.05807541  1
  Zn  Zn166  1  0.06471316  0.81580749  0.56025120  1
  Zn  Zn167  1  0.56107777  0.31370781  0.05730769  1
  Zn  Zn168  1  0.56626050  0.31353523  0.55615081  1
  Zn  Zn169  1  0.56029925  0.80714898  0.06682877  1
  Zn  Zn170  1  0.56092975  0.81516180  0.55750690  1
  O  O171  1  0.12404231  0.11796222  0.11829708  1
  O  O172  1  0.11451009  0.11185394  0.62702760  1
  O  O173  1  0.14609663  0.61321157  0.12858723  1
  O  O174  1  0.11186366  0.63177582  0.62468516  1
  O  O175  1  0.61794497  0.11122417  0.12789608  1
  O  O176  1  0.61628141  0.11423805  0.62533906  1
  O  O177  1  0.62367728  0.61542474  0.11466681  1
  O  O178  1  0.62117408  0.61474761  0.61613875  1
  O  O179  1  0.38313327  0.38219548  0.37823377  1
  O  O180  1  0.37956994  0.38686211  0.86229211  1
  O  O181  1  0.37777765  0.88517244  0.36828493  1
  O  O182  1  0.38116056  0.88001456  0.87939798  1
  O  O183  1  0.88335640  0.38180822  0.37846920  1
  O  O184  1  0.88240703  0.38699412  0.87493211  1
  O  O185  1  0.87374278  0.88354815  0.38075039  1
  O  O186  1  0.88811456  0.88352790  0.87685756  1
  O  O187  1  0.24183091  0.01048470  0.36317644  1
  O  O188  1  0.25449571  0.00562150  0.86773383  1
  O  O189  1  0.25700608  0.50377844  0.37455469  1
  O  O190  1  0.25794255  0.50698776  0.88028965  1
  O  O191  1  0.76411632  0.00698413  0.37335246  1
  O  O192  1  0.75811810  -0.00328222  0.86240321  1
  O  O193  1  0.75577985  0.50734412  0.37088295  1
  O  O194  1  0.75775253  0.50310915  0.86774803  1
  O  O195  1  0.25686893  0.48825872  0.14085850  1
  O  O196  1  0.24942644  0.49860258  0.62538128  1
  O  O197  1  0.23946306  1.00251363  0.13239418  1
  O  O198  1  0.24602688  0.99529889  0.62964324  1
  O  O199  1  0.74143862  0.50030805  0.13435425  1
  O  O200  1  0.74464266  0.50662639  0.63201111  1
  O  O201  1  0.74399689  0.98748433  0.12666071  1
  O  O202  1  0.74467756  1.00191965  0.63508978  1
  O  O203  1  -0.00395110  0.36664101  0.26468462  1
  O  O204  1  -0.00522071  0.35478463  0.76339293  1
  O  O205  1  0.01478046  0.88428100  0.24952999  1
  O  O206  1  -0.00343203  0.86445181  0.75418091  1
  O  O207  1  0.49323045  0.36502290  0.25880414  1
  O  O208  1  0.51123964  0.38393085  0.75786670  1
  O  O209  1  0.51462901  0.86692715  0.24598035  1
  O  O210  1  0.50963985  0.86831826  0.75336649  1
  O  O211  1  0.49337580  0.12953427  0.24633757  1
  O  O212  1  0.49686259  0.11517445  0.72979475  1
  O  O213  1  0.49056203  0.62964143  0.24769994  1
  O  O214  1  0.49495300  0.63006799  0.74309763  1
  O  O215  1  0.99133208  0.13215800  0.25107878  1
  O  O216  1  1.00249631  0.13528262  0.74554708  1
  O  O217  1  1.00315891  0.62415428  0.24897584  1
  O  O218  1  0.99218528  0.63952275  0.74494083  1
  O  O219  1  0.36574346  0.24322244  0.01207452  1
  O  O220  1  0.38331497  0.25118289  0.51952998  1
  O  O221  1  0.37031700  0.76291036  -0.00541884  1
  O  O222  1  0.36505137  0.74332202  0.51039271  1
  O  O223  1  0.87796006  0.24696100  0.01693775  1
  O  O224  1  0.87271103  0.25182993  0.51353535  1
  O  O225  1  0.87533748  0.75332710  0.01185171  1
  O  O226  1  0.87166096  0.75584036  0.50546989  1
  O  O227  1  0.11975623  0.24569206  0.49171167  1
  O  O228  1  0.13333542  0.23836177  1.00650489  1
  O  O229  1  0.13329036  0.75104656  0.49132361  1
  O  O230  1  0.13290580  0.75834214  0.98495758  1
  O  O231  1  0.63741607  0.24472443  0.49715322  1
  O  O232  1  0.62449832  0.24534056  0.99581410  1
  O  O233  1  0.63593097  0.74049774  0.50824998  1
  O  O234  1  0.62311139  0.73607313  0.99440293  1
  O  O235  1  0.49379790  0.24708668  0.13133396  1
  O  O236  1  0.50537966  0.24274206  0.62764928  1
  O  O237  1  0.49461106  0.74330685  0.13554438  1
  O  O238  1  0.49230820  0.74462273  0.62737311  1
  O  O239  1  0.99531696  0.24940225  0.13463361  1
  O  O240  1  0.99310101  0.24294701  0.63338569  1
  O  O241  1  0.99641402  0.75144406  0.12093864  1
  O  O242  1  0.99612981  0.74756559  0.63096456  1
  O  O243  1  0.00848695  0.25354364  0.37249290  1
  O  O244  1  -0.00348962  0.25255537  0.86693537  1
  O  O245  1  0.01021898  0.75051633  0.38266235  1
  O  O246  1  0.00512217  0.75683119  0.86908461  1
  O  O247  1  0.50141228  0.25663280  0.36853908  1
  O  O248  1  0.49507165  0.26337689  0.87633241  1
  O  O249  1  0.50183839  0.74185154  0.36048289  1
  O  O250  1  0.50627965  0.75314941  0.86805811  1
  O  O251  1  0.25769559  0.11593406  0.48702308  1
  O  O252  1  0.24637181  0.13382346  0.99413815  1
  O  O253  1  0.24886410  0.63463882  0.48961602  1
  O  O254  1  0.25855908  0.63831162  0.98475455  1
  O  O255  1  0.75299106  0.13444426  0.49221966  1
  O  O256  1  0.74691588  0.12644411  0.99568752  1
  O  O257  1  0.74589709  0.63356652  0.49271507  1
  O  O258  1  0.74053507  0.62373430  0.99139916  1
  O  O259  1  0.24708742  0.36342115  0.00759008  1
  O  O260  1  0.25556816  0.38162686  0.51585199  1
  O  O261  1  0.25817754  0.87164579  -0.00245807  1
  O  O262  1  0.24843545  0.86436716  0.50786436  1
  O  O263  1  0.75527584  0.37189802  0.00518729  1
  O  O264  1  0.75462348  0.36120639  0.49666166  1
  O  O265  1  0.75169827  0.87094675  0.00754662  1
  O  O266  1  0.76146796  0.86235240  0.49479839  1
  O  O267  1  0.13738443  0.49388400  0.25820220  1
  O  O268  1  0.07371827  0.48914894  0.73727650  1
  O  O269  1  0.13008603  0.99553183  0.24394222  1
  O  O270  1  0.13862811  1.00230558  0.74190585  1
  O  O271  1  0.63152154  0.50741169  0.23996810  1
  O  O272  1  0.63551479  0.49572091  0.74134333  1
  O  O273  1  0.62612734  0.98741394  0.23958933  1
  O  O274  1  0.63558689  0.99068768  0.73901151  1
  O  O275  1  0.36456345  0.01095007  0.24193244  1
  O  O276  1  0.36413896  0.00174509  0.75330851  1
  O  O277  1  0.37156313  0.50595167  0.26227132  1
  O  O278  1  0.38057819  0.51264226  0.75424652  1
  O  O279  1  0.87716141  0.00614766  0.25613662  1
  O  O280  1  0.86173669  -0.00996736  0.75278751  1
  O  O281  1  0.86762647  0.50345883  0.26049134  1
  O  O282  1  0.87235294  0.50508929  0.75680419  1
  O  O283  1  0.11852664  0.35924325  0.37963574  1
  O  O284  1  0.11484694  0.37897235  0.87150684  1
  O  O285  1  0.13020408  0.86845971  0.36203968  1
  O  O286  1  0.11294159  0.87111630  0.87381454  1
  O  O287  1  0.61269087  0.37480968  0.37790909  1
  O  O288  1  0.61522525  0.37549787  0.86358490  1
  O  O289  1  0.63333407  0.87894616  0.35910051  1
  O  O290  1  0.62124741  0.86777672  0.86636089  1
  O  O291  1  0.37972849  0.13367308  0.13511256  1
  O  O292  1  0.38535620  0.13572609  0.62530158  1
  O  O293  1  0.36428120  0.62566303  0.14139941  1
  O  O294  1  0.37729171  0.63349490  0.63159669  1
  O  O295  1  0.87860286  0.12787066  0.13498226  1
  O  O296  1  0.88769591  0.13022641  0.62459581  1
  O  O297  1  0.86988732  0.64226051  0.12525493  1
  O  O298  1  0.88430130  0.63781400  0.62886229  1
  O  O299  1  0.25637659  0.25613173  0.12121043  1
  O  O300  1  0.25523124  0.24384577  0.61995882  1
  O  O301  1  0.25482206  0.75262677  0.10474259  1
  O  O302  1  0.25296819  0.75626473  0.61966745  1
  O  O303  1  0.75902055  0.25161607  0.12892168  1
  O  O304  1  0.76669608  0.24366107  0.62049439  1
  O  O305  1  0.75155375  0.75896998  0.12252609  1
  O  O306  1  0.76036593  0.74314263  0.61440641  1
  O  O307  1  0.23788351  0.24546116  0.37519231  1
  O  O308  1  0.25882282  0.24375026  0.88249585  1
  O  O309  1  0.24655338  0.74445125  0.38028856  1
  O  O310  1  0.24276549  0.74674602  0.87847673  1
  O  O311  1  0.75319349  0.24267493  0.38141990  1
  O  O312  1  0.74922077  0.24628685  0.87540163  1
  O  O313  1  0.75735294  0.73921773  0.38234727  1
  O  O314  1  0.74445746  0.74249112  0.87526553  1
  O  O315  1  0.01017092  0.11648418  -0.00208546  1
  O  O316  1  -0.00369466  0.11110719  0.50917529  1
  O  O317  1  0.00007880  0.61198805  -0.00253153  1
  O  O318  1  0.00187033  0.61938283  0.50750040  1
  O  O319  1  0.49813030  0.11421574  0.00882092  1
  O  O320  1  0.50507904  0.12555458  0.51793887  1
  O  O321  1  0.50526653  0.61625871  -0.00001269  1
  O  O322  1  0.50927112  0.62105551  0.50362297  1
  O  O323  1  0.49668586  0.38313638  0.49231651  1
  O  O324  1  0.50241713  0.38629190  0.98667376  1
  O  O325  1  0.49751669  0.86883648  0.48479605  1
  O  O326  1  0.49393102  0.87787402  0.99450543  1
  O  O327  1  0.99767711  0.38200947  0.49247845  1
  O  O328  1  0.99469187  0.37531547  0.99105579  1
  O  O329  1  0.98928434  0.88586866  0.50434928  1
  O  O330  1  1.00242733  0.88923987  0.99095704  1
  O  O331  1  0.49451615  0.49408857  0.37745660  1
  O  O332  1  0.49150497  0.49372207  0.87912547  1
  O  O333  1  0.49593166  1.00414298  0.38267873  1
  O  O334  1  0.49517933  0.99286033  0.87837110  1
  O  O335  1  0.99321242  0.49125649  0.38074921  1
  O  O336  1  0.99281550  0.49282024  0.88827960  1
  O  O337  1  0.99089321  1.00713444  0.38290122  1
  O  O338  1  0.99788861  0.99521123  0.87639721  1
  O  O339  1  0.01022470  0.00189987  0.11534755  1
  O  O340  1  0.00689065  0.00456528  0.62131468  1
  O  O341  1  -0.00414532  0.49296825  0.11099375  1
  O  O342  1  -0.01821941  0.51355522  0.60827285  1
  O  O343  1  0.50721479  0.00133416  0.12084064  1
  O  O344  1  0.51402564  -0.00183087  0.62514508  1
  O  O345  1  0.50173022  0.50211122  0.11660554  1
  O  O346  1  0.50601889  0.50583698  0.61890336  1
  O  O347  1  0.25705389  0.38067049  0.24434990  1
  O  O348  1  0.24515787  0.37596822  0.73114662  1
  O  O349  1  0.24215156  0.88521411  0.24726066  1
  O  O350  1  0.25267069  0.88286469  0.74097139  1
  O  O351  1  0.75070390  0.38905923  0.25317427  1
  O  O352  1  0.74501809  0.38732116  0.75213984  1
  O  O353  1  0.74024490  0.87390724  0.24185580  1
  O  O354  1  0.73965970  0.88030916  0.75181028  1
  O  O355  1  0.25769021  0.11958868  0.25702087  1
  O  O356  1  0.25205352  0.11926074  0.75793469  1
  O  O357  1  0.25786556  0.61318803  0.26625289  1
  O  O358  1  0.25896464  0.62996055  0.76284658  1
  O  O359  1  0.76276708  0.12218803  0.25710812  1
  O  O360  1  0.74853129  0.10809720  0.75081084  1
  O  O361  1  0.75057001  0.61743155  0.25924465  1
  O  O362  1  0.75596500  0.61551108  0.75429260  1
  O  O363  1  0.36682948  0.13605985  0.36409268  1
  O  O364  1  0.36641016  0.11812094  0.87347272  1
  O  O365  1  0.36959884  0.61887006  0.36883600  1
  O  O366  1  0.36964092  0.61611759  0.86660207  1
  O  O367  1  0.86947482  0.11966903  0.36946602  1
  O  O368  1  0.87681531  0.10841163  0.87429333  1
  O  O369  1  0.86690652  0.61728402  0.37197972  1
  O  O370  1  0.87183500  0.61590723  0.86953135  1
  O  O371  1  0.13735561  0.37879923  0.12531315  1
  O  O372  1  0.13860786  0.37636938  0.62263836  1
  O  O373  1  0.12829708  0.88310794  0.13484789  1
  O  O374  1  0.13647936  0.88477969  0.62347446  1
  O  O375  1  0.62267784  0.39014489  0.12144066  1
  O  O376  1  0.62044345  0.38874071  0.62907295  1
  O  O377  1  0.63187766  0.87853408  0.12901439  1
  O  O378  1  0.62294686  0.88338690  0.63068054  1
  O  O379  1  0.11396811  0.24525347  0.25359805  1
  O  O380  1  0.11031978  0.25294845  0.74638129  1
  O  O381  1  0.12358065  0.76488997  0.25564979  1
  O  O382  1  0.11716997  0.74998500  0.76108021  1
  O  O383  1  0.61236566  0.24427980  0.25134270  1
  O  O384  1  0.63266187  0.26497887  0.74478232  1
  O  O385  1  0.61930484  0.76076388  0.24561059  1
  O  O386  1  0.62233556  0.75442486  0.75074697  1
  O  O387  1  0.38381086  0.24208907  0.24349722  1
  O  O388  1  0.37315872  0.24784458  0.72980991  1
  O  O389  1  0.38037233  0.74299636  0.25049969  1
  O  O390  1  0.38066984  0.73978541  0.74415183  1
  O  O391  1  0.88387083  0.24232946  0.24389330  1
  O  O392  1  0.88335607  0.24800842  0.73939890  1
  O  O393  1  0.87534655  0.75009598  0.23245085  1
  O  O394  1  0.87980701  0.74872266  0.74283819  1
  O  O395  1  0.38261050  0.50454768  0.48749632  1
  O  O396  1  0.38602689  0.50325818  0.98696409  1
  O  O397  1  0.38002890  0.98453645  0.50228872  1
  O  O398  1  0.37757195  0.99081335  0.99497482  1
  O  O399  1  0.87870533  0.50021974  0.48706969  1
  O  O400  1  0.88187298  0.50064552  0.99338300  1
  O  O401  1  0.88025782  0.99168115  0.49376860  1
  O  O402  1  0.88555848  0.99781440  0.99256099  1
  O  O403  1  0.12238149  0.00851798  0.00708639  1
  O  O404  1  0.11666132  -0.00678621  0.50725507  1
  O  O405  1  0.10885379  0.49660056  0.00258554  1
  O  O406  1  0.11174322  0.50458976  0.49256493  1
  O  O407  1  0.61905513  -0.00355852  0.01045576  1
  O  O408  1  0.63824701  0.00083233  0.51606151  1
  O  O409  1  0.61629488  0.50847077  0.00266006  1
  O  O410  1  0.62409832  0.50645851  0.50633651  1
  O  O411  1  0.36765559  0.36231155  0.12825851  1
  O  O412  1  0.36212023  0.36616648  0.62421364  1
  O  O413  1  0.37228776  0.87528450  0.11488800  1
  O  O414  1  0.36579711  0.86117834  0.63267890  1
  O  O415  1  0.87102970  0.36433007  0.12851230  1
  O  O416  1  0.88504750  0.36126179  0.62826314  1
  O  O417  1  0.86889967  0.86461129  0.12314236  1
  O  O418  1  0.87724422  0.86307737  0.61539874  1
  O  O419  1  0.13402314  0.13940251  0.37222560  1
  O  O420  1  0.14029615  0.12008962  0.88405682  1
  O  O421  1  0.13400505  0.63615912  0.37736983  1
  O  O422  1  0.13393930  0.63395003  0.87168927  1
  O  O423  1  0.64133040  0.12207852  0.37376897  1
  O  O424  1  0.62533681  0.12623905  0.87498591  1
  O  O425  1  0.63385903  0.61974109  0.38749081  1
  O  O426  1  0.62826942  0.62697551  0.87917639  1
