# generated using pymatgen
data_V85Zn86O256
_symmetry_space_group_name_H-M   'P 1'
_cell_length_a   16.97043092
_cell_length_b   16.95723942
_cell_length_c   16.95697776
_cell_angle_alpha   89.97786508
_cell_angle_beta   89.99270965
_cell_angle_gamma   90.08303750
_symmetry_Int_Tables_number   1
_chemical_formula_structural   V85Zn86O256
_chemical_formula_sum   'V85 Zn86 O256'
_cell_volume   4879.73211122
_cell_formula_units_Z   1
loop_
 _symmetry_equiv_pos_site_id
 _symmetry_equiv_pos_as_xyz
  1  'x, y, z'
loop_
 _atom_site_type_symbol
 _atom_site_label
 _atom_site_symmetry_multiplicity
 _atom_site_fract_x
 _atom_site_fract_y
 _atom_site_fract_z
 _atom_site_occupancy
  V  V0  1  0.00254640  0.75206311  0.25008823  1
  V  V1  1  0.12674402  0.36361825  0.25658448  1
  V  V2  1  0.00142564  0.62156134  0.62779002  1
  V  V3  1  0.00129340  0.49688861  0.50267257  1
  V  V4  1  0.74673638  0.50233107  0.24219322  1
  V  V5  1  0.87625018  0.62111435  0.25174429  1
  V  V6  1  0.75729466  0.00370811  0.75060943  1
  V  V7  1  0.12533681  0.14456588  0.49897755  1
  V  V8  1  0.74692479  0.36827523  0.61839998  1
  V  V9  1  0.24678442  0.11861909  0.87415650  1
  V  V10  1  0.63386034  0.13009770  0.50216283  1
  V  V11  1  0.75159176  0.87386462  0.62449857  1
  V  V12  1  0.00667866  0.87679395  0.37220132  1
  V  V13  1  0.62509798  0.49717904  0.62214074  1
  V  V14  1  0.37688211  0.50415500  0.36777001  1
  V  V15  1  0.50011001  0.25140859  0.24968766  1
  V  V16  1  0.25544784  0.62577997  0.37584851  1
  V  V17  1  0.62369782  0.76129699  0.37860374  1
  V  V18  1  0.87447588  0.61795533  0.75475821  1
  V  V19  1  0.23571784  -0.00518165  0.24875366  1
  V  V20  1  0.87491680  0.74636849  0.62569281  1
  V  V21  1  0.12424756  0.11867619  0.00652310  1
  V  V22  1  0.00147224  0.12317459  0.12883265  1
  V  V23  1  0.00359466  0.75407871  0.75047153  1
  V  V24  1  0.37467596  0.12222577  0.25006607  1
  V  V25  1  0.87621759  0.01215008  0.87532325  1
  V  V26  1  0.37361758  0.49852422  0.87230589  1
  V  V27  1  0.50146598  0.00046820  0.50305658  1
  V  V28  1  0.87026852  0.24484991  0.61796556  1
  V  V29  1  0.36964147  0.12293300  0.75042980  1
  V  V30  1  0.87832912  0.75496647  0.11942881  1
  V  V31  1  0.50128555  0.50366839  0.49801923  1
  V  V32  1  0.13287902  0.75570439  0.87771867  1
  V  V33  1  0.73962652  0.62052761  0.37855175  1
  V  V34  1  -0.00276189  0.12446256  0.63237558  1
  V  V35  1  0.24496037  0.49903203  0.24667677  1
  V  V36  1  0.86539124  -0.00107908  0.36949416  1
  V  V37  1  0.25420310  0.75248247  0.50110631  1
  V  V38  1  0.87639957  0.49594037  0.37645779  1
  V  V39  1  0.62849321  0.62499094  0.01234032  1
  V  V40  1  -0.00239017  -0.00326389  0.00405157  1
  V  V41  1  0.62683164  0.00231422  0.62489018  1
  V  V42  1  0.13153137  0.61957382  0.00118991  1
  V  V43  1  0.62824953  0.87203265  0.75224898  1
  V  V44  1  0.50363166  0.62724440  0.13014882  1
  V  V45  1  0.37277512  0.00161108  0.37869422  1
  V  V46  1  0.24577276  0.37816211  0.12123343  1
  V  V47  1  0.24784119  0.24746962  -0.00056488  1
  V  V48  1  0.75646587  0.75782549  0.00053736  1
  V  V49  1  0.74526437  0.74368445  0.50289388  1
  V  V50  1  0.63532062  0.25322292  0.37804669  1
  V  V51  1  -0.00519166  0.49276161  -0.00002196  1
  V  V52  1  0.50471405  0.62455623  0.62353607  1
  V  V53  1  -0.00976924  0.87336640  0.87650502  1
  V  V54  1  0.50282090  0.74718291  0.75497565  1
  V  V55  1  0.37696621  0.24970441  0.12436186  1
  V  V56  1  0.37834995  0.75988299  0.62839442  1
  V  V57  1  0.36746754  0.25028007  0.62223556  1
  V  V58  1  0.50499140  0.49943377  0.00153200  1
  V  V59  1  0.76041801  0.37522814  0.11835491  1
  V  V60  1  0.87508981  0.87328944  0.50012102  1
  V  V61  1  0.32931106  0.67628544  0.19821736  1
  V  V62  1  0.36732665  0.62136998  0.74990552  1
  V  V63  1  0.25037264  0.38163009  0.63181062  1
  V  V64  1  0.12493163  0.38002389  0.75510534  1
  V  V65  1  0.49857269  0.12918363  0.62499186  1
  V  V66  1  0.12743569  0.62250721  0.50228092  1
  V  V67  1  0.49916342  0.25292149  0.76249591  1
  V  V68  1  0.62648562  0.74578152  0.87870475  1
  V  V69  1  0.00488923  0.00088179  0.50001064  1
  V  V70  1  0.36853898  0.85921929  0.00760311  1
  V  V71  1  0.62507236  0.37805686  0.23946702  1
  V  V72  1  0.62134123  0.37083300  0.76042721  1
  V  V73  1  0.12590146  0.75044799  0.37541353  1
  V  V74  1  -0.00822679  0.25044048  0.75321439  1
  V  V75  1  0.74435846  0.25085416  -0.00486850  1
  V  V76  1  0.00406591  0.61774891  0.12511909  1
  V  V77  1  0.50495286  0.11569170  0.11274392  1
  V  V78  1  0.50278409  0.75313535  0.24739591  1
  V  V79  1  0.73031878  0.13004898  0.87611658  1
  V  V80  1  0.36776494  0.37214284  0.49872760  1
  V  V81  1  0.38171152  0.37344608  -0.00737401  1
  V  V82  1  0.86298190  0.12331438  0.24513878  1
  V  V83  1  0.24596794  0.13766082  0.38067914  1
  V  V84  1  0.50080071  0.37560257  0.37401835  1
  Zn  Zn85  1  0.37583050  0.88030527  0.50482626  1
  Zn  Zn86  1  0.86544346  0.48853460  0.88513676  1
  Zn  Zn87  1  0.12332994  -0.00645455  0.63222276  1
  Zn  Zn88  1  0.24111787  -0.01854592  0.74936860  1
  Zn  Zn89  1  0.74822534  0.12319591  0.37425428  1
  Zn  Zn90  1  0.38038298  -0.00253439  0.88792159  1
  Zn  Zn91  1  0.23130083  0.86976791  0.63440366  1
  Zn  Zn92  1  0.87808201  0.25175678  0.11938077  1
  Zn  Zn93  1  0.00864982  0.36706054  0.38282387  1
  Zn  Zn94  1  0.50419371  0.88352311  0.36643064  1
  Zn  Zn95  1  -0.00123540  0.24508541  0.25688996  1
  Zn  Zn96  1  0.13257688  0.50377714  0.63303098  1
  Zn  Zn97  1  0.87049072  0.36941112  0.49720701  1
  Zn  Zn98  1  0.12053562  0.25029680  0.87620222  1
  Zn  Zn99  1  0.75110792  0.62100139  0.87701932  1
  Zn  Zn100  1  0.76397538  0.89587739  0.12932008  1
  Zn  Zn101  1  0.74852977  0.49682900  0.75231689  1
  Zn  Zn102  1  -0.00626200  0.36944198  0.88139390  1
  Zn  Zn103  1  0.24116574  0.88507351  0.11636278  1
  Zn  Zn104  1  0.63057797  0.99400366  0.12679381  1
  Zn  Zn105  1  0.50879718  0.89393755  0.90067182  1
  Zn  Zn106  1  0.25048941  0.62294170  0.87473798  1
  Zn  Zn107  1  0.19108338  0.18285141  0.18602394  1
  Zn  Zn108  1  0.18116025  0.18740489  0.68856044  1
  Zn  Zn109  1  0.15650589  0.73545911  0.15784275  1
  Zn  Zn110  1  0.18778252  0.69379017  0.69000402  1
  Zn  Zn111  1  0.68544324  0.18797432  0.18296551  1
  Zn  Zn112  1  0.68824707  0.18869473  0.69317230  1
  Zn  Zn113  1  0.68942946  0.76969258  0.19371318  1
  Zn  Zn114  1  0.68752428  0.68171311  0.68833795  1
  Zn  Zn115  1  0.31323215  0.31385402  0.31190866  1
  Zn  Zn116  1  0.31069299  0.30993458  0.81296997  1
  Zn  Zn117  1  0.31397763  0.82096406  0.31711739  1
  Zn  Zn118  1  0.31734986  0.81540435  0.82128499  1
  Zn  Zn119  1  0.81614174  0.31196392  0.30677855  1
  Zn  Zn120  1  0.81170264  0.31172283  0.81021200  1
  Zn  Zn121  1  0.82290167  0.80429973  0.32003322  1
  Zn  Zn122  1  0.81439499  0.81000231  0.81375260  1
  Zn  Zn123  1  0.19010085  0.43719284  0.43859863  1
  Zn  Zn124  1  0.18635591  0.43924701  0.93554836  1
  Zn  Zn125  1  0.18865762  0.93970391  0.44082196  1
  Zn  Zn126  1  0.18675553  0.93535895  0.93817360  1
  Zn  Zn127  1  0.68587644  0.43698641  0.43751877  1
  Zn  Zn128  1  0.68756687  0.43887846  0.93913106  1
  Zn  Zn129  1  0.69144069  0.93563477  0.29355549  1
  Zn  Zn130  1  0.69077855  0.94089495  0.94399976  1
  Zn  Zn131  1  0.31785421  0.05406417  0.06380068  1
  Zn  Zn132  1  0.30574617  0.06090297  0.56694750  1
  Zn  Zn133  1  0.31242088  0.55732191  0.05701745  1
  Zn  Zn134  1  0.31788338  0.56309408  0.56261187  1
  Zn  Zn135  1  0.81226884  0.06653496  0.05709220  1
  Zn  Zn136  1  0.81559212  0.06140832  0.56017819  1
  Zn  Zn137  1  0.81327332  0.56843794  0.06515093  1
  Zn  Zn138  1  0.81255040  0.55895163  0.56485201  1
  Zn  Zn139  1  0.43633826  0.44017590  0.18159117  1
  Zn  Zn140  1  0.43894231  0.43625808  0.68877635  1
  Zn  Zn141  1  0.43057348  0.93432520  0.18101260  1
  Zn  Zn142  1  0.44661466  0.94564457  0.71412385  1
  Zn  Zn143  1  0.94188689  0.43830228  0.18803773  1
  Zn  Zn144  1  0.93612949  0.43229205  0.68857648  1
  Zn  Zn145  1  0.94156811  0.93884631  0.18888343  1
  Zn  Zn146  1  0.94100011  0.93592979  0.68817534  1
  Zn  Zn147  1  0.05960848  0.06798970  0.31780748  1
  Zn  Zn148  1  0.06363335  0.06336806  0.81595160  1
  Zn  Zn149  1  0.06620191  0.56029845  0.31398940  1
  Zn  Zn150  1  0.06120554  0.56203185  0.81736948  1
  Zn  Zn151  1  0.56131727  0.06617848  0.31214961  1
  Zn  Zn152  1  0.56086724  0.06139370  0.80775368  1
  Zn  Zn153  1  0.56533336  0.56693991  0.30732577  1
  Zn  Zn154  1  0.56009527  0.55944805  0.81611295  1
  Zn  Zn155  1  0.43971739  0.18815284  0.43763569  1
  Zn  Zn156  1  0.43462904  0.18437932  0.93678814  1
  Zn  Zn157  1  0.43995719  0.68820284  0.43782463  1
  Zn  Zn158  1  0.43746425  0.69140122  0.94178258  1
  Zn  Zn159  1  0.93777949  0.18735816  0.43496477  1
  Zn  Zn160  1  0.93134809  0.19003660  0.94090580  1
  Zn  Zn161  1  0.93652209  0.68293940  0.43833515  1
  Zn  Zn162  1  0.94047146  0.68163969  0.93725966  1
  Zn  Zn163  1  0.06595967  0.30943185  0.06906931  1
  Zn  Zn164  1  0.06074498  0.31551631  0.57052181  1
  Zn  Zn165  1  0.06106634  0.81635601  0.05318313  1
  Zn  Zn166  1  0.06166547  0.81042157  0.56008057  1
  Zn  Zn167  1  0.56413922  0.30836721  0.05997475  1
  Zn  Zn168  1  0.55693813  0.31282095  0.56385169  1
  Zn  Zn169  1  0.57678586  0.84807043  0.05489252  1
  Zn  Zn170  1  0.56480276  0.81529090  0.56207628  1
  O  O171  1  0.11983340  0.12680976  0.11425054  1
  O  O172  1  0.11503705  0.12802405  0.61141334  1
  O  O173  1  0.11758014  0.63524981  0.11000205  1
  O  O174  1  0.12026718  0.62386956  0.62136094  1
  O  O175  1  0.60642923  0.12657356  0.12797602  1
  O  O176  1  0.61993333  0.12472265  0.62039234  1
  O  O177  1  0.61795742  0.62594594  0.11364342  1
  O  O178  1  0.61228366  0.61462708  0.62947325  1
  O  O179  1  0.38057597  0.38058951  0.38195082  1
  O  O180  1  0.37117918  0.37912864  0.88627638  1
  O  O181  1  0.37891681  0.89133821  0.38201187  1
  O  O182  1  0.38115566  0.87620673  0.88944082  1
  O  O183  1  0.87314441  0.38689895  0.37661249  1
  O  O184  1  0.88181824  0.37895035  0.86277178  1
  O  O185  1  0.88663057  0.87961003  0.38159020  1
  O  O186  1  0.88589475  0.88321691  0.86978823  1
  O  O187  1  0.25663243  0.00950428  0.37226654  1
  O  O188  1  0.24920944  0.01238362  0.87358506  1
  O  O189  1  0.25844697  0.50557103  0.36896468  1
  O  O190  1  0.26720841  0.50276582  0.88163462  1
  O  O191  1  0.76332297  -0.00519700  0.37356419  1
  O  O192  1  0.75505030  0.00744211  0.87160847  1
  O  O193  1  0.75654208  0.50429462  0.37216591  1
  O  O194  1  0.75060744  0.50341518  0.86998049  1
  O  O195  1  0.25934114  0.48974355  0.13462144  1
  O  O196  1  0.25379366  0.48675411  0.62228756  1
  O  O197  1  0.24816222  1.00517455  0.14502894  1
  O  O198  1  0.24280402  0.98888369  0.62252540  1
  O  O199  1  0.75516526  0.49527272  0.13665928  1
  O  O200  1  0.73925837  0.49318333  0.62803526  1
  O  O201  1  0.74730893  1.00634212  0.12201938  1
  O  O202  1  0.74832868  0.99659330  0.63221841  1
  O  O203  1  0.02075084  0.37738916  0.24624793  1
  O  O204  1  0.00861688  0.36529707  0.74744397  1
  O  O205  1  -0.00315134  0.86402957  0.26021797  1
  O  O206  1  -0.00476553  0.86016653  0.75654679  1
  O  O207  1  0.50685377  0.37321930  0.25159957  1
  O  O208  1  0.51134330  0.36629864  0.74419073  1
  O  O209  1  0.48810598  0.85753215  0.25009357  1
  O  O210  1  0.51294717  0.85369500  0.73748007  1
  O  O211  1  0.48517254  0.13407678  0.25087245  1
  O  O212  1  0.49048803  0.13425919  0.74304679  1
  O  O213  1  0.49681180  0.62862779  0.24137713  1
  O  O214  1  0.49677449  0.63207810  0.74288223  1
  O  O215  1  0.99445853  0.12373263  0.24209929  1
  O  O216  1  1.00339736  0.13306985  0.73768104  1
  O  O217  1  0.99750777  0.62509568  0.24363933  1
  O  O218  1  0.99361346  0.63115531  0.74726677  1
  O  O219  1  0.36911212  0.25632102  0.00402844  1
  O  O220  1  0.38306343  0.26081428  0.50902653  1
  O  O221  1  0.36287258  0.75750376  -0.00504898  1
  O  O222  1  0.37021866  0.75151549  0.50922001  1
  O  O223  1  0.85720299  0.24602279  0.00429289  1
  O  O224  1  0.87780688  0.25159341  0.51323152  1
  O  O225  1  0.87109897  0.73955416  0.00922846  1
  O  O226  1  0.87158809  0.75209748  0.50675238  1
  O  O227  1  0.12020472  0.24269117  0.50167114  1
  O  O228  1  0.13404452  0.24296634  1.00060343  1
  O  O229  1  0.13283363  0.74139490  0.49457773  1
  O  O230  1  0.11368423  0.73490854  0.98310635  1
  O  O231  1  0.61354148  0.24227810  0.49049799  1
  O  O232  1  0.64206166  0.25281666  1.00092347  1
  O  O233  1  0.63463726  0.75090930  0.49422736  1
  O  O234  1  0.63545994  0.74415427  0.99305706  1
  O  O235  1  0.49392428  0.24341576  0.13142686  1
  O  O236  1  0.48764651  0.24571968  0.63146708  1
  O  O237  1  0.50278329  0.73489758  0.13721763  1
  O  O238  1  0.49749133  0.73993620  0.62669958  1
  O  O239  1  0.99952220  0.23640542  0.12847954  1
  O  O240  1  0.99186162  0.24298572  0.63024430  1
  O  O241  1  0.99567102  0.73972974  0.13230064  1
  O  O242  1  0.99552975  0.74083261  0.63268530  1
  O  O243  1  -0.00490993  0.25654618  0.37008052  1
  O  O244  1  -0.00067194  0.24726854  0.86680385  1
  O  O245  1  0.00221913  0.75589908  0.37068736  1
  O  O246  1  0.00177267  0.75601922  0.86863566  1
  O  O247  1  0.50491344  0.25837052  0.36756864  1
  O  O248  1  0.49251316  0.24796168  0.86187949  1
  O  O249  1  0.50899142  0.75217609  0.37357722  1
  O  O250  1  0.50972876  0.74636241  0.86616632  1
  O  O251  1  0.23282662  0.12410677  0.49587124  1
  O  O252  1  0.24454891  0.12869454  0.99738632  1
  O  O253  1  0.24878206  0.63463037  0.49796843  1
  O  O254  1  0.23479532  0.62064258  1.00088399  1
  O  O255  1  0.73664680  0.12097728  0.49827041  1
  O  O256  1  0.75017317  0.13100784  0.98158465  1
  O  O257  1  0.75801979  0.63471684  0.49411913  1
  O  O258  1  0.74184244  0.62973366  0.99866188  1
  O  O259  1  0.25411343  0.36797290  0.00553303  1
  O  O260  1  0.26286206  0.37770402  0.50621478  1
  O  O261  1  0.25777466  0.87556746  0.00021642  1
  O  O262  1  0.25303527  0.86113212  0.50035847  1
  O  O263  1  0.74620729  0.37092759  0.01013529  1
  O  O264  1  0.74863512  0.37817597  0.51395510  1
  O  O265  1  0.75835144  0.85952696  0.00031044  1
  O  O266  1  0.76118176  0.85777205  0.50857973  1
  O  O267  1  0.14128205  0.49347945  0.25368486  1
  O  O268  1  0.11813312  0.48573532  0.75107021  1
  O  O269  1  0.13801426  1.00572211  0.26028033  1
  O  O270  1  0.13450925  1.02132543  0.74397221  1
  O  O271  1  0.63640777  0.49092075  0.25733367  1
  O  O272  1  0.61853901  0.48848024  0.73898515  1
  O  O273  1  0.61758933  1.00024178  0.24516341  1
  O  O274  1  0.63830128  0.99373501  0.74375337  1
  O  O275  1  0.37098188  0.00856079  0.26030657  1
  O  O276  1  0.36089493  0.01918282  0.74019322  1
  O  O277  1  0.36661680  0.48872470  0.26274879  1
  O  O278  1  0.38589101  0.50854669  0.75963287  1
  O  O279  1  0.88237557  0.00900427  0.25959759  1
  O  O280  1  0.86255531  -0.00640792  0.75547669  1
  O  O281  1  0.87039889  0.50219567  0.25824322  1
  O  O282  1  0.87489884  0.51164634  0.74437652  1
  O  O283  1  0.12948155  0.37797412  0.36048323  1
  O  O284  1  0.12059809  0.37051319  0.86922044  1
  O  O285  1  0.11311419  0.86851887  0.38324096  1
  O  O286  1  0.11389319  0.86014131  0.88021333  1
  O  O287  1  0.61839663  0.37011187  0.36895028  1
  O  O288  1  0.62531537  0.37941267  0.85839335  1
  O  O289  1  0.62506371  0.86325032  0.37269725  1
  O  O290  1  0.62405402  0.86136264  0.86897889  1
  O  O291  1  0.37887461  0.13072588  0.13445493  1
  O  O292  1  0.37547878  0.13473003  0.62902097  1
  O  O293  1  0.38204743  0.62149974  0.12766643  1
  O  O294  1  0.38680965  0.63005268  0.63176731  1
  O  O295  1  0.88422759  0.12486091  0.13226782  1
  O  O296  1  0.88510169  0.13111935  0.61995437  1
  O  O297  1  0.88631843  0.63030458  0.13365983  1
  O  O298  1  0.88206022  0.62906200  0.63083552  1
  O  O299  1  0.25696874  0.25364932  0.11522192  1
  O  O300  1  0.26194609  0.26048437  0.62873906  1
  O  O301  1  0.27040580  0.73339959  0.14417189  1
  O  O302  1  0.26128146  0.74906190  0.61755134  1
  O  O303  1  0.75066612  0.25934135  0.11748498  1
  O  O304  1  0.75804135  0.25506747  0.63029615  1
  O  O305  1  0.76679045  0.73786059  0.11473786  1
  O  O306  1  0.75406695  0.74990977  0.61993120  1
  O  O307  1  0.25735185  0.23655376  0.37471715  1
  O  O308  1  0.25153382  0.24146124  0.88921601  1
  O  O309  1  0.24832022  0.74577562  0.38141397  1
  O  O310  1  0.23410763  0.74497283  0.87120988  1
  O  O311  1  0.73761057  0.25286369  0.37332630  1
  O  O312  1  0.74978252  0.23593460  0.87486871  1
  O  O313  1  0.74473749  0.74032853  0.38439304  1
  O  O314  1  0.74512640  0.74561198  0.88209766  1
  O  O315  1  0.00703083  0.11995753  0.00663486  1
  O  O316  1  0.00848231  0.11885605  0.50489822  1
  O  O317  1  0.00776431  0.61511300  0.00741480  1
  O  O318  1  0.00558691  0.61474814  0.50540162  1
  O  O319  1  0.49270005  0.12637882  0.01422739  1
  O  O320  1  0.50475641  0.11833288  0.50714201  1
  O  O321  1  0.50616327  0.62140702  0.00841573  1
  O  O322  1  0.49468272  0.61139031  0.50786811  1
  O  O323  1  0.49022665  0.38682484  0.49637036  1
  O  O324  1  0.49133737  0.38332234  1.00914831  1
  O  O325  1  0.50122441  0.89175034  0.50106271  1
  O  O326  1  0.47975492  0.85549457  1.00347447  1
  O  O327  1  0.99927212  0.38737081  0.50265883  1
  O  O328  1  1.00993875  0.39020485  1.00686664  1
  O  O329  1  0.99255901  0.88068068  0.49312747  1
  O  O330  1  0.99811337  0.88465360  0.99016625  1
  O  O331  1  0.49558407  0.49742787  0.37957026  1
  O  O332  1  0.48802599  0.50541258  0.89032037  1
  O  O333  1  0.49159351  1.00394061  0.38645812  1
  O  O334  1  0.48566375  0.98280877  0.83180579  1
  O  O335  1  0.99375423  0.49629009  0.38344409  1
  O  O336  1  0.99792144  0.49859880  0.89260172  1
  O  O337  1  0.99421438  0.99247755  0.38125073  1
  O  O338  1  0.99244446  0.99352024  0.87715137  1
  O  O339  1  -0.00263025  0.00961162  0.11609559  1
  O  O340  1  -0.00400795  0.00894420  0.61708304  1
  O  O341  1  0.00076709  0.51076773  0.11825598  1
  O  O342  1  0.00168873  0.50560800  0.61832249  1
  O  O343  1  0.49505369  0.01573603  0.13244526  1
  O  O344  1  0.50565969  0.00909072  0.62521317  1
  O  O345  1  0.49508657  0.51191171  0.11359397  1
  O  O346  1  0.50359886  0.50464717  0.61677787  1
  O  O347  1  0.24367932  0.37929959  0.24394189  1
  O  O348  1  0.24004109  0.36958784  0.74366346  1
  O  O349  1  0.25145000  0.89288865  0.25503331  1
  O  O350  1  0.25766893  0.86839345  0.74580582  1
  O  O351  1  0.74306511  0.38292799  0.24436205  1
  O  O352  1  0.73441616  0.37386544  0.73851592  1
  O  O353  1  0.75617243  0.85535617  0.24744744  1
  O  O354  1  0.74640654  0.87891774  0.74478273  1
  O  O355  1  0.25877874  0.12001997  0.25870647  1
  O  O356  1  0.25733548  0.14192621  0.76332173  1
  O  O357  1  0.26112421  0.61592567  0.25384654  1
  O  O358  1  0.26475240  0.62655232  0.74722732  1
  O  O359  1  0.75993920  0.13001772  0.25216899  1
  O  O360  1  0.74597448  0.11571930  0.76329905  1
  O  O361  1  0.75865095  0.61374223  0.26296583  1
  O  O362  1  0.76106804  0.62176461  0.75101940  1
  O  O363  1  0.36902885  0.11879094  0.37165014  1
  O  O364  1  0.36668345  0.12009730  0.86752025  1
  O  O365  1  0.36923923  0.61400111  0.38211038  1
  O  O366  1  0.37402203  0.61902005  0.86669496  1
  O  O367  1  0.87034435  0.11485839  0.36918113  1
  O  O368  1  0.87269535  0.11334116  0.87051781  1
  O  O369  1  0.86970480  0.61253124  0.37217696  1
  O  O370  1  0.87502701  0.61928499  0.86552596  1
  O  O371  1  0.14054277  0.37211922  0.13502181  1
  O  O372  1  0.13540749  0.37757669  0.63302053  1
  O  O373  1  0.13659631  0.84290955  0.12836197  1
  O  O374  1  0.11657434  0.87748496  0.62618891  1
  O  O375  1  0.63146645  0.37197778  0.13698537  1
  O  O376  1  0.62789760  0.37977118  0.62858611  1
  O  O377  1  0.64675460  0.86056834  0.13842827  1
  O  O378  1  0.63466090  0.88114753  0.62966776  1
  O  O379  1  0.12977815  0.26169413  0.24755071  1
  O  O380  1  0.11191524  0.25896871  0.75056001  1
  O  O381  1  0.10872171  0.73680568  0.26345027  1
  O  O382  1  0.11333961  0.73906623  0.76610984  1
  O  O383  1  0.61963845  0.25835284  0.25779752  1
  O  O384  1  0.61424591  0.26233910  0.74568658  1
  O  O385  1  0.61217832  0.73632450  0.26744032  1
  O  O386  1  0.62208417  0.74908654  0.75776311  1
  O  O387  1  0.37848187  0.24481530  0.24393697  1
  O  O388  1  0.38062123  0.24486615  0.74322989  1
  O  O389  1  0.38079609  0.74105241  0.26143711  1
  O  O390  1  0.38594542  0.74052999  0.74542340  1
  O  O391  1  0.87714778  0.23869405  0.24357264  1
  O  O392  1  0.88674775  0.25264935  0.73681152  1
  O  O393  1  0.88856461  0.73828082  0.24786055  1
  O  O394  1  0.88206774  0.73934961  0.74500310  1
  O  O395  1  0.38123302  0.49298315  0.49000163  1
  O  O396  1  0.38253456  0.49074833  0.99467488  1
  O  O397  1  0.38206909  1.00421058  0.49573656  1
  O  O398  1  0.37488522  0.98363059  1.00091229  1
  O  O399  1  0.88357366  0.49825575  0.49376466  1
  O  O400  1  0.89100145  0.50532741  1.00381437  1
  O  O401  1  0.88459203  0.99451481  0.49161590  1
  O  O402  1  0.88867637  1.00628660  0.98932566  1
  O  O403  1  0.11095463  0.00776614  -0.00726288  1
  O  O404  1  0.11043299  0.00374236  0.49917450  1
  O  O405  1  0.11641525  0.51344514  -0.00268535  1
  O  O406  1  0.11916628  0.50510398  0.50278136  1
  O  O407  1  0.60791899  -0.04155495  0.01385599  1
  O  O408  1  0.61462272  0.01416075  0.51109114  1
  O  O409  1  0.61487236  0.51092981  -0.00551265  1
  O  O410  1  0.61521871  0.49443499  0.51192785  1
  O  O411  1  0.36590777  0.36874451  0.11625730  1
  O  O412  1  0.37036186  0.37056866  0.61952015  1
  O  O413  1  0.36077326  0.87338496  0.11550484  1
  O  O414  1  0.38610196  0.86194990  0.62725200  1
  O  O415  1  0.86342374  0.37404860  0.13367627  1
  O  O416  1  0.86358087  0.36655744  0.62353537  1
  O  O417  1  0.88001151  0.85885412  0.12966831  1
  O  O418  1  0.87171598  0.86676719  0.62079725  1
  O  O419  1  0.13054474  0.12528113  0.39018002  1
  O  O420  1  0.13162781  0.13037482  0.88895014  1
  O  O421  1  0.13510315  0.62796415  0.38293523  1
  O  O422  1  0.12700329  0.63011729  0.88450365  1
  O  O423  1  0.62554843  0.13582491  0.38376372  1
  O  O424  1  0.63177960  0.12038316  0.87471039  1
  O  O425  1  0.63746452  0.62628862  0.37865917  1
  O  O426  1  0.62441016  0.63492211  0.88168825  1
