# generated using pymatgen
data_V85Zn86O256
_symmetry_space_group_name_H-M   'P 1'
_cell_length_a   16.93897410
_cell_length_b   16.93356909
_cell_length_c   16.93082302
_cell_angle_alpha   90.07652936
_cell_angle_beta   90.03242280
_cell_angle_gamma   90.12287518
_symmetry_Int_Tables_number   1
_chemical_formula_structural   V85Zn86O256
_chemical_formula_sum   'V85 Zn86 O256'
_cell_volume   4856.37507786
_cell_formula_units_Z   1
loop_
 _symmetry_equiv_pos_site_id
 _symmetry_equiv_pos_as_xyz
  1  'x, y, z'
loop_
 _atom_site_type_symbol
 _atom_site_label
 _atom_site_symmetry_multiplicity
 _atom_site_fract_x
 _atom_site_fract_y
 _atom_site_fract_z
 _atom_site_occupancy
  V  V0  1  0.36713338  0.86657463  0.49381680  1
  V  V1  1  0.62471154  0.00394849  0.12917765  1
  V  V2  1  0.75656780  0.25102390  0.00814036  1
  V  V3  1  0.49743156  -0.00972530  0.49164403  1
  V  V4  1  0.12276689  0.25005879  0.88338122  1
  V  V5  1  0.00488476  0.62989821  0.12734880  1
  V  V6  1  0.49865304  0.13174159  0.11719295  1
  V  V7  1  0.49984491  0.62371127  0.12218834  1
  V  V8  1  0.62298061  0.62549465  0.00211589  1
  V  V9  1  0.88108703  0.75543480  0.13236622  1
  V  V10  1  0.25209667  0.11315091  0.37283914  1
  V  V11  1  0.10895493  0.62321048  0.50458595  1
  V  V12  1  0.24928254  0.62637803  0.38764990  1
  V  V13  1  0.12736251  0.49771984  0.12322709  1
  V  V14  1  0.37719550  0.61326937  0.74455522  1
  V  V15  1  0.37413183  0.62646634  0.25336670  1
  V  V16  1  0.62420897  0.49925078  0.11937845  1
  V  V17  1  0.62038010  0.50709784  0.62972732  1
  V  V18  1  0.74867046  0.49976367  0.75828489  1
  V  V19  1  0.50651143  0.00461816  -0.00390226  1
  V  V20  1  0.74554629  0.24785519  0.50396520  1
  V  V21  1  0.49579432  0.12507715  0.62390211  1
  V  V22  1  0.12811802  0.74986838  0.87399248  1
  V  V23  1  0.87573373  -0.00092770  0.87796368  1
  V  V24  1  0.12661101  0.24719662  0.36900563  1
  V  V25  1  0.25261956  0.38121653  0.62467793  1
  V  V26  1  0.62398984  0.24767109  0.88201993  1
  V  V27  1  0.37476624  0.87523882  -0.00294310  1
  V  V28  1  0.62652630  0.37870450  0.25310580  1
  V  V29  1  0.62501224  0.75520972  0.87084748  1
  V  V30  1  0.75175631  0.50600653  0.24884859  1
  V  V31  1  0.10963203  0.49641752  0.61944700  1
  V  V32  1  0.88371176  0.62937269  0.25629968  1
  V  V33  1  0.12948379  0.36965843  0.24542804  1
  V  V34  1  0.75353393  0.75614216  0.50251325  1
  V  V35  1  0.88216795  0.73702062  0.63097576  1
  V  V36  1  0.13888528  0.01505331  0.12477790  1
  V  V37  1  0.50305797  0.37641461  0.37679946  1
  V  V38  1  0.62105948  0.75993298  0.37716594  1
  V  V39  1  0.37427514  0.75136912  0.12461413  1
  V  V40  1  0.26745283  0.25268548  0.00014226  1
  V  V41  1  0.87227666  0.24752733  0.62478937  1
  V  V42  1  0.11759930  0.74844620  0.37506546  1
  V  V43  1  0.11090277  0.12073474  0.49494284  1
  V  V44  1  0.37703053  0.36848508  0.50442321  1
  V  V45  1  0.74885364  0.88030611  0.13601235  1
  V  V46  1  0.62394651  0.37379167  0.75201627  1
  V  V47  1  0.62170160  0.12102987  0.49965070  1
  V  V48  1  0.74986440  0.75456079  0.00314314  1
  V  V49  1  0.26643888  0.37354794  0.11983033  1
  V  V50  1  0.75310880  0.11795026  0.35895514  1
  V  V51  1  0.12304806  -0.00542238  0.62140219  1
  V  V52  1  0.88709917  0.00356497  0.36891398  1
  V  V53  1  0.00040661  0.87353143  0.87347957  1
  V  V54  1  0.87249792  0.12329930  0.75156066  1
  V  V55  1  0.62419331  0.25089041  0.37500034  1
  V  V56  1  0.49203115  0.25277095  0.24591036  1
  V  V57  1  0.49869372  0.76031251  0.25470076  1
  V  V58  1  0.12505758  0.86849307  0.24261312  1
  V  V59  1  0.37419380  0.11760071  0.24673260  1
  V  V60  1  0.37534074  0.49964927  0.37798066  1
  V  V61  1  0.50222215  0.74512502  0.74122110  1
  V  V62  1  0.49380339  0.25137149  0.74582115  1
  V  V63  1  0.62247356  -0.00689461  0.63191637  1
  V  V64  1  0.36894970  0.12679230  0.74128945  1
  V  V65  1  0.25212106  0.24524609  0.50559216  1
  V  V66  1  0.49664218  0.37863988  0.88722485  1
  V  V67  1  0.36518857  0.74572883  0.62556149  1
  V  V68  1  0.24345292  0.12475328  0.87709369  1
  V  V69  1  0.50349192  0.50089343  0.50274340  1
  V  V70  1  0.12957762  0.37368568  0.75045878  1
  V  V71  1  0.25426469  0.62150620  0.87317379  1
  V  V72  1  0.75208912  0.62784275  0.37523195  1
  V  V73  1  0.75069213  0.87415635  0.63527895  1
  V  V74  1  -0.00377923  0.11692738  0.62109903  1
  V  V75  1  0.74855383  0.62532912  0.87439968  1
  V  V76  1  -0.01199845  0.24326052  0.24039905  1
  V  V77  1  0.92400365  0.55892972  0.81919895  1
  V  V78  1  0.37626966  0.49617968  0.89059079  1
  V  V79  1  0.62033816  0.62910100  0.50492683  1
  V  V80  1  0.87769788  0.38358220  0.00676196  1
  V  V81  1  0.50290791  0.87550363  0.86372280  1
  V  V82  1  0.37294527  0.00010678  0.87078250  1
  V  V83  1  0.74570669  0.12525271  0.88079728  1
  V  V84  1  -0.01820359  0.12365915  0.11823793  1
  Zn  Zn85  1  0.24563987  -0.00425350  0.74841308  1
  Zn  Zn86  1  0.25558106  0.88341470  0.13188461  1
  Zn  Zn87  1  -0.00213901  0.50039567  0.00242855  1
  Zn  Zn88  1  0.00166839  0.24851432  0.75145897  1
  Zn  Zn89  1  0.76034936  0.37113452  0.13275714  1
  Zn  Zn90  1  0.37558191  -0.01145088  0.36817506  1
  Zn  Zn91  1  -0.00589468  0.37307886  0.87469454  1
  Zn  Zn92  1  0.62334736  0.88388804  0.25846587  1
  Zn  Zn93  1  0.12841154  0.62394280  0.00125891  1
  Zn  Zn94  1  0.00272192  0.87556618  0.37527160  1
  Zn  Zn95  1  0.89436415  0.39877269  0.50151454  1
  Zn  Zn96  1  0.87779329  0.87925773  0.00572914  1
  Zn  Zn97  1  0.12412323  0.87001264  0.74596403  1
  Zn  Zn98  1  0.00894434  0.00379769  -0.00170762  1
  Zn  Zn99  1  -0.00328783  0.73935897  0.75108887  1
  Zn  Zn100  1  0.00035469  0.38711025  0.38374365  1
  Zn  Zn101  1  0.74286044  -0.00476582  0.75573734  1
  Zn  Zn102  1  0.24576201  0.87071791  0.62488773  1
  Zn  Zn103  1  0.75202634  0.37694582  0.62604249  1
  Zn  Zn104  1  0.24972666  0.75047901  0.00077715  1
  Zn  Zn105  1  0.25307222  0.49879531  0.25060086  1
  Zn  Zn106  1  0.88821668  0.88843481  0.50642535  1
  Zn  Zn107  1  0.19724899  0.18785030  0.18312017  1
  Zn  Zn108  1  0.18409639  0.18770882  0.68629251  1
  Zn  Zn109  1  0.19114224  0.68790915  0.19269545  1
  Zn  Zn110  1  0.18704432  0.67993169  0.68958827  1
  Zn  Zn111  1  0.67867177  0.18865473  0.18472151  1
  Zn  Zn112  1  0.68451713  0.18391780  0.69107700  1
  Zn  Zn113  1  0.68682638  0.69302799  0.18993268  1
  Zn  Zn114  1  0.69037708  0.68821024  0.69022485  1
  Zn  Zn115  1  0.31202044  0.30953237  0.31509710  1
  Zn  Zn116  1  0.31173627  0.31363035  0.81215796  1
  Zn  Zn117  1  0.30216982  0.80977855  0.31351078  1
  Zn  Zn118  1  0.31103062  0.81074912  0.80699823  1
  Zn  Zn119  1  0.81295857  0.31744948  0.31901478  1
  Zn  Zn120  1  0.81450122  0.31423811  0.81809784  1
  Zn  Zn121  1  0.81546325  0.81791462  0.31482175  1
  Zn  Zn122  1  0.81545534  0.81121621  0.81125510  1
  Zn  Zn123  1  0.18556822  0.43568102  0.43839450  1
  Zn  Zn124  1  0.19126638  0.43538151  0.93914197  1
  Zn  Zn125  1  0.18382050  0.93428239  0.43977847  1
  Zn  Zn126  1  0.18701217  0.93707486  0.94047677  1
  Zn  Zn127  1  0.71579795  0.45054032  0.45117807  1
  Zn  Zn128  1  0.68935974  0.43518490  0.94058057  1
  Zn  Zn129  1  0.69363582  0.94019139  0.44261209  1
  Zn  Zn130  1  0.68671676  0.93675992  0.94096168  1
  Zn  Zn131  1  0.31690686  0.06730322  0.05788365  1
  Zn  Zn132  1  0.30861465  0.05653016  0.55871552  1
  Zn  Zn133  1  0.31159078  0.56362502  0.06188814  1
  Zn  Zn134  1  0.31300930  0.55962972  0.56386425  1
  Zn  Zn135  1  0.80888133  0.06181391  0.06039782  1
  Zn  Zn136  1  0.80956947  0.06016974  0.55835935  1
  Zn  Zn137  1  0.81479762  0.56460992  0.06556393  1
  Zn  Zn138  1  0.80895212  0.56317053  0.56519830  1
  Zn  Zn139  1  0.44066724  0.44208697  0.18899156  1
  Zn  Zn140  1  0.43780238  0.43515853  0.68767679  1
  Zn  Zn141  1  0.44030390  0.93977662  0.18369565  1
  Zn  Zn142  1  0.43273038  0.93625809  0.68215393  1
  Zn  Zn143  1  0.95070914  0.44835534  0.21283555  1
  Zn  Zn144  1  0.94049230  0.42608988  0.68501405  1
  Zn  Zn145  1  0.94068149  0.94455101  0.19574837  1
  Zn  Zn146  1  0.93582275  0.93504210  0.69033228  1
  Zn  Zn147  1  0.06486295  0.06195512  0.30083920  1
  Zn  Zn148  1  0.06128731  0.06244181  0.80911170  1
  Zn  Zn149  1  0.06339214  0.55745951  0.31365373  1
  Zn  Zn150  1  0.08720033  0.55594363  0.80865914  1
  Zn  Zn151  1  0.56011373  0.06564324  0.31121164  1
  Zn  Zn152  1  0.56076135  0.06584441  0.81155225  1
  Zn  Zn153  1  0.56434436  0.56864797  0.31274744  1
  Zn  Zn154  1  0.55880578  0.56404764  0.81672456  1
  Zn  Zn155  1  0.43602930  0.18555581  0.43452642  1
  Zn  Zn156  1  0.43695653  0.18528943  0.92973732  1
  Zn  Zn157  1  0.43905673  0.68941860  0.43963612  1
  Zn  Zn158  1  0.43862740  0.68766762  0.93578979  1
  Zn  Zn159  1  0.92181458  0.21687163  0.42060785  1
  Zn  Zn160  1  0.93559985  0.19090994  0.94112405  1
  Zn  Zn161  1  0.93697809  0.69209601  0.44129415  1
  Zn  Zn162  1  0.94273605  0.69521592  0.95015672  1
  Zn  Zn163  1  0.06285405  0.31134544  0.06259256  1
  Zn  Zn164  1  0.06037859  0.30698510  0.56022556  1
  Zn  Zn165  1  0.06348540  0.81495901  0.05848029  1
  Zn  Zn166  1  0.05869426  0.80788161  0.55822238  1
  Zn  Zn167  1  0.56600733  0.31376934  0.06438970  1
  Zn  Zn168  1  0.56465094  0.31306506  0.56609756  1
  Zn  Zn169  1  0.56137066  0.81623818  0.06152270  1
  Zn  Zn170  1  0.55917241  0.81512921  0.56396661  1
  O  O171  1  0.12686268  0.11568704  0.12548462  1
  O  O172  1  0.11433769  0.11990466  0.61644889  1
  O  O173  1  0.12146115  0.61912580  0.12734529  1
  O  O174  1  0.12802878  0.61128190  0.61419267  1
  O  O175  1  0.60997944  0.11824744  0.12388913  1
  O  O176  1  0.61722729  0.11749813  0.61793272  1
  O  O177  1  0.61878641  0.62237394  0.12223464  1
  O  O178  1  0.62983383  0.61899011  0.61798135  1
  O  O179  1  0.38182418  0.37989347  0.38258688  1
  O  O180  1  0.38105258  0.38920024  0.86868109  1
  O  O181  1  0.36959545  0.86968227  0.38824361  1
  O  O182  1  0.38153833  0.87939602  0.87895445  1
  O  O183  1  0.89051890  0.33300748  0.39812714  1
  O  O184  1  0.87809061  0.37022102  0.89337615  1
  O  O185  1  0.87821050  0.89045709  0.37495013  1
  O  O186  1  0.88054030  0.88278509  0.87599799  1
  O  O187  1  0.25183563  0.01060183  0.37965661  1
  O  O188  1  0.25266986  0.00883826  0.87440053  1
  O  O189  1  0.25628369  0.50695634  0.37470822  1
  O  O190  1  0.26484982  0.50525736  0.87824981  1
  O  O191  1  0.74269426  0.01610531  0.37205025  1
  O  O192  1  0.75408103  0.00709373  0.87638358  1
  O  O193  1  0.73637284  0.52133352  0.36173468  1
  O  O194  1  0.74305369  0.50802536  0.86713651  1
  O  O195  1  0.24642136  0.49215149  0.12529286  1
  O  O196  1  0.24343632  0.48396625  0.61806361  1
  O  O197  1  0.24336358  1.00309016  0.12112741  1
  O  O198  1  0.23666577  0.99808815  0.62620051  1
  O  O199  1  0.73988339  0.50299643  0.13261508  1
  O  O200  1  0.73835037  0.50083177  0.64397148  1
  O  O201  1  0.73749931  0.99227640  0.11597274  1
  O  O202  1  0.74075087  0.99164268  0.62663306  1
  O  O203  1  0.01950273  0.35217229  0.23366581  1
  O  O204  1  0.01342941  0.36998362  0.75319587  1
  O  O205  1  0.01916174  0.88167794  0.25648549  1
  O  O206  1  0.00175104  0.87163151  0.76279752  1
  O  O207  1  0.50465938  0.37024032  0.25582957  1
  O  O208  1  0.50523705  0.36747590  0.75659392  1
  O  O209  1  0.50089667  0.86395706  0.24712382  1
  O  O210  1  0.49321750  0.86882385  0.75944246  1
  O  O211  1  0.49404569  0.13476176  0.24232996  1
  O  O212  1  0.49034738  0.13232283  0.74552099  1
  O  O213  1  0.49518232  0.63633052  0.24145214  1
  O  O214  1  0.49064182  0.63465125  0.75587605  1
  O  O215  1  1.00362230  0.13576998  0.23454347  1
  O  O216  1  0.98606787  0.12593705  0.74290930  1
  O  O217  1  0.98995235  0.62640105  0.24127918  1
  O  O218  1  0.98807464  0.61408024  0.76317929  1
  O  O219  1  0.36611489  0.25267797  -0.00931641  1
  O  O220  1  0.36512459  0.25556863  0.49410759  1
  O  O221  1  0.37836738  0.75851743  0.00729179  1
  O  O222  1  0.38077072  0.75893558  0.50937279  1
  O  O223  1  0.86417625  0.25959584  0.00083285  1
  O  O224  1  0.85900180  0.23062602  0.51823680  1
  O  O225  1  0.86618869  0.75394015  0.01423046  1
  O  O226  1  0.86661937  0.75080250  0.51216864  1
  O  O227  1  0.13102745  0.23967097  0.48945757  1
  O  O228  1  0.13518932  0.25649878  0.98631636  1
  O  O229  1  0.12397914  0.72981859  0.49546260  1
  O  O230  1  0.12790757  0.74712907  0.98721947  1
  O  O231  1  0.62272981  0.23780418  0.49635409  1
  O  O232  1  0.63350251  0.25831075  0.98612839  1
  O  O233  1  0.62862250  0.74617290  0.49726926  1
  O  O234  1  0.63205813  0.74678515  0.99516743  1
  O  O235  1  0.50563949  0.24417223  0.13271584  1
  O  O236  1  0.50564957  0.24341231  0.63858894  1
  O  O237  1  0.49125320  0.74688551  0.13139996  1
  O  O238  1  0.49240449  0.75459484  0.63767637  1
  O  O239  1  1.00657621  0.23461759  0.13048067  1
  O  O240  1  0.99045910  0.23597214  0.62715499  1
  O  O241  1  0.99204107  0.74479735  0.12041114  1
  O  O242  1  0.98653409  0.74648630  0.62922203  1
  O  O243  1  0.01692815  0.23975052  0.35457369  1
  O  O244  1  0.00948292  0.24852486  0.87332629  1
  O  O245  1  0.01432666  0.74386113  0.37312121  1
  O  O246  1  0.00601465  0.75546385  0.87424365  1
  O  O247  1  0.50604450  0.25492830  0.36820408  1
  O  O248  1  0.50650910  0.25498744  0.86592476  1
  O  O249  1  0.50877570  0.74575291  0.36674362  1
  O  O250  1  0.50341571  0.75811236  0.86643872  1
  O  O251  1  0.24381488  0.13004006  0.49238188  1
  O  O252  1  0.25629095  0.13866074  0.98921371  1
  O  O253  1  0.24379933  0.61824649  0.49004178  1
  O  O254  1  0.25255430  0.62930741  0.98793888  1
  O  O255  1  0.73298298  0.12949958  0.49824688  1
  O  O256  1  0.75433074  0.13470843  0.98803459  1
  O  O257  1  0.73984546  0.63873241  0.49414901  1
  O  O258  1  0.74667162  0.63539554  0.99382151  1
  O  O259  1  0.25303804  0.36332942  0.00548826  1
  O  O260  1  0.25554179  0.36559664  0.50409641  1
  O  O261  1  0.26560588  0.87321373  0.00015224  1
  O  O262  1  0.26357465  0.87542000  0.50366932  1
  O  O263  1  0.75965600  0.36936516  0.00372507  1
  O  O264  1  0.72978337  0.35075205  0.50771688  1
  O  O265  1  0.75192679  0.86499914  0.00752102  1
  O  O266  1  0.75128981  0.86450031  0.50939577  1
  O  O267  1  0.13282809  0.48857739  0.23811495  1
  O  O268  1  0.13065672  0.48923612  0.73108433  1
  O  O269  1  0.12633521  0.99141777  0.23126919  1
  O  O270  1  0.12259632  1.00025350  0.73373896  1
  O  O271  1  0.63211546  0.50059898  0.24172212  1
  O  O272  1  0.62836388  0.49544319  0.74909619  1
  O  O273  1  0.61433351  0.99904447  0.23476810  1
  O  O274  1  0.62359324  1.00556010  0.73633907  1
  O  O275  1  0.38381323  0.01166440  0.25250465  1
  O  O276  1  0.37298244  0.00776980  0.75446547  1
  O  O277  1  0.37721330  0.50833437  0.26161415  1
  O  O278  1  0.38104169  0.51066574  0.75416603  1
  O  O279  1  0.87075525  0.00214058  0.26792521  1
  O  O280  1  0.87054512  0.00651739  0.76163354  1
  O  O281  1  0.85712876  0.51669869  0.23824373  1
  O  O282  1  0.86998562  0.49436373  0.75622651  1
  O  O283  1  0.12664667  0.36467984  0.36410799  1
  O  O284  1  0.12499677  0.37062525  0.86649568  1
  O  O285  1  0.12870021  0.86393705  0.36775501  1
  O  O286  1  0.11908315  0.86657601  0.87360683  1
  O  O287  1  0.62049127  0.37164453  0.37053656  1
  O  O288  1  0.61803394  0.37177311  0.86702082  1
  O  O289  1  0.63151468  0.86429225  0.37755638  1
  O  O290  1  0.61445783  0.86911501  0.87926166  1
  O  O291  1  0.38822409  0.12266882  0.13177594  1
  O  O292  1  0.37744081  0.11902797  0.63404215  1
  O  O293  1  0.38220486  0.63123826  0.12960554  1
  O  O294  1  0.37274342  0.62948530  0.63286344  1
  O  O295  1  0.88298365  0.12221942  0.12462787  1
  O  O296  1  0.87650348  0.12356572  0.63350346  1
  O  O297  1  0.88323669  0.63533620  0.13236653  1
  O  O298  1  0.86737457  0.63811873  0.62529236  1
  O  O299  1  0.25188004  0.25618907  0.10755356  1
  O  O300  1  0.24065343  0.25696736  0.61017021  1
  O  O301  1  0.26536133  0.74936980  0.12386674  1
  O  O302  1  0.26156644  0.74669820  0.62984860  1
  O  O303  1  0.73843587  0.25268596  0.11140644  1
  O  O304  1  0.75303961  0.24717674  0.62263074  1
  O  O305  1  0.75499471  0.75781745  0.11914322  1
  O  O306  1  0.75521215  0.75626118  0.62050487  1
  O  O307  1  0.24151961  0.24169180  0.38309834  1
  O  O308  1  0.24634162  0.24553377  0.88286120  1
  O  O309  1  0.23749492  0.73260799  0.37256903  1
  O  O310  1  0.24440531  0.74256529  0.87570932  1
  O  O311  1  0.74208597  0.23891925  0.38411858  1
  O  O312  1  0.74226168  0.24338731  0.88083180  1
  O  O313  1  0.74531617  0.74663083  0.38301610  1
  O  O314  1  0.74706682  0.74570222  0.88239103  1
  O  O315  1  -0.00277186  0.12431558  0.01351912  1
  O  O316  1  0.00832190  0.13259553  0.50390651  1
  O  O317  1  0.00358800  0.62104367  0.01466659  1
  O  O318  1  0.01039413  0.61804496  0.49547934  1
  O  O319  1  0.49364468  0.11730757  0.00353359  1
  O  O320  1  0.50541400  0.11886059  0.50445366  1
  O  O321  1  0.50589702  0.63336417  0.01412630  1
  O  O322  1  0.51391420  0.61968223  0.49637067  1
  O  O323  1  0.49739071  0.37919669  0.49687835  1
  O  O324  1  0.50405432  0.37036804  0.98623160  1
  O  O325  1  0.48641106  0.88140718  0.50378009  1
  O  O326  1  0.49102007  0.88158569  0.99032832  1
  O  O327  1  1.00574909  0.38022209  0.49778807  1
  O  O328  1  0.99130298  0.37882597  0.99929577  1
  O  O329  1  0.99806848  0.86867673  0.48850564  1
  O  O330  1  0.99642882  0.87798982  0.98712805  1
  O  O331  1  0.49775001  0.49703880  0.38179506  1
  O  O332  1  0.48819487  0.49209557  0.87359705  1
  O  O333  1  0.49873054  1.00382353  0.38834135  1
  O  O334  1  0.49647271  0.99428197  0.87753211  1
  O  O335  1  0.98554116  0.47973920  0.32263480  1
  O  O336  1  0.99531783  0.50411602  0.87346211  1
  O  O337  1  0.98957980  1.00982474  0.37190616  1
  O  O338  1  0.99359626  0.99481779  0.87650718  1
  O  O339  1  0.00550099  0.01448192  0.12466063  1
  O  O340  1  0.00049495  0.01098912  0.62648529  1
  O  O341  1  0.01131092  0.50952115  0.12877407  1
  O  O342  1  0.01088522  0.49730280  0.62680858  1
  O  O343  1  0.50498663  0.00725137  0.11347999  1
  O  O344  1  0.50471955  0.00392083  0.61602909  1
  O  O345  1  0.51023793  0.51270143  0.13114061  1
  O  O346  1  0.51359551  0.49566963  0.62093755  1
  O  O347  1  0.24431713  0.37150874  0.24146585  1
  O  O348  1  0.23980950  0.36539609  0.73844128  1
  O  O349  1  0.23454705  0.87573550  0.24891054  1
  O  O350  1  0.24343384  0.87705239  0.74545120  1
  O  O351  1  0.74791637  0.38642836  0.25330739  1
  O  O352  1  0.74142049  0.38207459  0.75363648  1
  O  O353  1  0.74405396  0.87049745  0.23855125  1
  O  O354  1  0.74992074  0.87550631  0.73986325  1
  O  O355  1  0.26424638  0.13244627  0.25845655  1
  O  O356  1  0.25569188  0.12537656  0.75517421  1
  O  O357  1  0.25863859  0.62099356  0.26064410  1
  O  O358  1  0.26182424  0.62675134  0.76356784  1
  O  O359  1  0.74261758  0.13233749  0.26153166  1
  O  O360  1  0.75822482  0.12291367  0.76078710  1
  O  O361  1  0.75579853  0.62586838  0.25698470  1
  O  O362  1  0.74861511  0.61945804  0.76644538  1
  O  O363  1  0.36809896  0.12044154  0.36702280  1
  O  O364  1  0.36530419  0.11939284  0.86281514  1
  O  O365  1  0.36608581  0.62161383  0.37655957  1
  O  O366  1  0.37389237  0.61391332  0.87075494  1
  O  O367  1  0.85892482  0.12170164  0.37661198  1
  O  O368  1  0.86908356  0.12018927  0.86909551  1
  O  O369  1  0.86603902  0.63496799  0.36672997  1
  O  O370  1  0.87117671  0.62239218  0.88263015  1
  O  O371  1  0.13610443  0.38007394  0.12745880  1
  O  O372  1  0.12946860  0.38060976  0.62778206  1
  O  O373  1  0.13022104  0.87358068  0.13314496  1
  O  O374  1  0.12329955  0.88094701  0.62341794  1
  O  O375  1  0.62765962  0.38554362  0.13395143  1
  O  O376  1  0.62610560  0.38195850  0.64000670  1
  O  O377  1  0.63117037  0.88354090  0.12589521  1
  O  O378  1  0.63357500  0.88324951  0.62044636  1
  O  O379  1  0.13196655  0.25299635  0.25438207  1
  O  O380  1  0.12492116  0.25565704  0.76003732  1
  O  O381  1  0.12642433  0.75954975  0.25615623  1
  O  O382  1  0.11841336  0.74308927  0.76122624  1
  O  O383  1  0.61501074  0.25833169  0.25564810  1
  O  O384  1  0.61914588  0.25715602  0.75907838  1
  O  O385  1  0.61594559  0.75265837  0.25985254  1
  O  O386  1  0.61557588  0.74359522  0.75858094  1
  O  O387  1  0.38793323  0.24294293  0.25628628  1
  O  O388  1  0.38340621  0.24126396  0.75470842  1
  O  O389  1  0.38011736  0.74689731  0.24523837  1
  O  O390  1  0.38224397  0.74023795  0.74322680  1
  O  O391  1  0.89061900  0.25501948  0.24840494  1
  O  O392  1  0.87253294  0.24240218  0.74096427  1
  O  O393  1  0.86916034  0.74433282  0.23986912  1
  O  O394  1  0.87551417  0.74895283  0.73630854  1
  O  O395  1  0.38398595  0.49309868  0.49597782  1
  O  O396  1  0.37922748  0.50209272  0.98916597  1
  O  O397  1  0.38100328  0.98550850  0.49846462  1
  O  O398  1  0.38487806  0.99431782  0.99173397  1
  O  O399  1  0.82145136  0.48221697  0.49273412  1
  O  O400  1  0.87569595  0.49000359  1.00228450  1
  O  O401  1  0.86085214  0.99984921  0.47853780  1
  O  O402  1  0.87599401  0.99960813  0.98729998  1
  O  O403  1  0.12373402  -0.00931194  0.02055336  1
  O  O404  1  0.12675863  0.00895006  0.50945666  1
  O  O405  1  0.12403298  0.50031401  0.01140227  1
  O  O406  1  0.12765420  0.50729198  0.51053333  1
  O  O407  1  0.61147350  -0.00341309  0.00640709  1
  O  O408  1  0.61674851  0.00377537  0.50773924  1
  O  O409  1  0.62984448  0.50647525  0.01201862  1
  O  O410  1  0.62625602  0.50910646  0.51121770  1
  O  O411  1  0.36552219  0.37995617  0.13069345  1
  O  O412  1  0.36764078  0.37668939  0.61644487  1
  O  O413  1  0.37600805  0.86917888  0.11658262  1
  O  O414  1  0.37106613  0.86407557  0.61610935  1
  O  O415  1  0.87643799  0.37979538  0.11217057  1
  O  O416  1  0.87070673  0.36220064  0.62027475  1
  O  O417  1  0.86960519  0.87292693  0.12850005  1
  O  O418  1  0.86636019  0.86887472  0.62364721  1
  O  O419  1  0.13210830  0.12649906  0.37762363  1
  O  O420  1  0.13624443  0.13213411  0.86871166  1
  O  O421  1  0.13019912  0.62223549  0.38369120  1
  O  O422  1  0.13723888  0.62862746  0.87822589  1
  O  O423  1  0.62827161  0.13009734  0.38195860  1
  O  O424  1  0.63310824  0.13497356  0.86969561  1
  O  O425  1  0.63190855  0.63873451  0.38219846  1
  O  O426  1  0.63077378  0.63201679  0.88352193  1
