# generated using pymatgen
data_V85Zn86O256
_symmetry_space_group_name_H-M   'P 1'
_cell_length_a   16.91915133
_cell_length_b   16.92281095
_cell_length_c   16.92115175
_cell_angle_alpha   90.01265485
_cell_angle_beta   89.95849477
_cell_angle_gamma   89.99196976
_symmetry_Int_Tables_number   1
_chemical_formula_structural   V85Zn86O256
_chemical_formula_sum   'V85 Zn86 O256'
_cell_volume   4844.85595442
_cell_formula_units_Z   1
loop_
 _symmetry_equiv_pos_site_id
 _symmetry_equiv_pos_as_xyz
  1  'x, y, z'
loop_
 _atom_site_type_symbol
 _atom_site_label
 _atom_site_symmetry_multiplicity
 _atom_site_fract_x
 _atom_site_fract_y
 _atom_site_fract_z
 _atom_site_occupancy
  V  V0  1  0.87713540  0.87909245  0.00128266  1
  V  V1  1  0.51588200  0.00686875  0.00429254  1
  V  V2  1  0.25221281  0.74901920  0.50449553  1
  V  V3  1  0.74591980  0.37474712  0.62465052  1
  V  V4  1  0.61518634  0.37610469  0.75969389  1
  V  V5  1  0.24989390  0.12539732  0.87313008  1
  V  V6  1  0.37998352  0.24145707  0.61520629  1
  V  V7  1  0.49711650  0.87512537  0.37619153  1
  V  V8  1  0.12681495  0.50457905  0.62078031  1
  V  V9  1  0.38022848  0.37416892  -0.00837203  1
  V  V10  1  0.74331847  -0.01510031  0.74608082  1
  V  V11  1  0.62019357  0.50071993  0.62336297  1
  V  V12  1  0.50712284  0.87415418  0.87176145  1
  V  V13  1  0.91718782  0.55553666  0.81837312  1
  V  V14  1  0.36748128  0.11421804  0.24738194  1
  V  V15  1  0.11564126  0.74957236  0.38097274  1
  V  V16  1  0.25066743  0.37573119  0.12491426  1
  V  V17  1  0.49565897  0.63466902  0.62294659  1
  V  V18  1  0.37973418  0.86978959  0.51193695  1
  V  V19  1  0.87260977  0.49747556  0.37514120  1
  V  V20  1  0.87191190  0.24795272  0.62176692  1
  V  V21  1  0.12239018  0.62628066  0.00739696  1
  V  V22  1  0.13123695  0.88087218  0.25898107  1
  V  V23  1  0.49356780  0.50032282  0.49424123  1
  V  V24  1  0.13376356  0.24707121  0.38150300  1
  V  V25  1  0.88265046  0.74852598  0.12601058  1
  V  V26  1  0.74764025  0.25257118  -0.00288350  1
  V  V27  1  0.12361253  0.86995459  0.74725496  1
  V  V28  1  0.61870009  0.62686686  0.00855434  1
  V  V29  1  0.00232525  -0.00666650  0.49730723  1
  V  V30  1  0.87619370  0.25908595  0.11894361  1
  V  V31  1  0.00162829  0.12018336  0.62430581  1
  V  V32  1  0.12469087  0.25067975  0.87662084  1
  V  V33  1  0.14305709  -0.00457131  0.12706903  1
  V  V34  1  0.25105491  0.36812195  0.61815952  1
  V  V35  1  0.25192105  0.50235130  0.25555765  1
  V  V36  1  0.74357977  0.49997981  0.24880192  1
  V  V37  1  -0.00383230  0.37221802  0.37756922  1
  V  V38  1  -0.00013959  0.87496802  0.86999861  1
  V  V39  1  0.74566027  0.87910046  0.12324968  1
  V  V40  1  0.62516043  0.87597536  0.24658458  1
  V  V41  1  -0.00413869  0.24918922  0.25134810  1
  V  V42  1  0.37613951  0.00074149  0.87656510  1
  V  V43  1  0.50503614  0.37456993  0.36236851  1
  V  V44  1  0.74528862  -0.00012879  0.24721307  1
  V  V45  1  0.12002889  0.50509818  0.12684209  1
  V  V46  1  0.12815366  0.37212051  0.75004424  1
  V  V47  1  0.37704890  0.62387372  0.25277549  1
  V  V48  1  0.00142491  0.50913974  0.49995299  1
  V  V49  1  0.37438151  0.74754982  0.12574529  1
  V  V50  1  0.74775613  0.74949061  0.00046303  1
  V  V51  1  -0.01362683  0.37495004  0.87792946  1
  V  V52  1  0.73464428  0.24317929  0.50250354  1
  V  V53  1  0.88280435  0.74545061  0.63816521  1
  V  V54  1  0.73952113  0.37746910  0.12244636  1
  V  V55  1  0.87066207  0.87316254  0.50500105  1
  V  V56  1  0.88434163  0.62465178  0.24716326  1
  V  V57  1  0.51375995  0.12689413  0.12999685  1
  V  V58  1  0.87424755  0.12295795  0.25012812  1
  V  V59  1  0.12406071  0.74934458  0.87427412  1
  V  V60  1  0.50215465  0.01664542  0.49990430  1
  V  V61  1  0.25095595  0.25074609  0.00091666  1
  V  V62  1  0.50208189  0.74693036  0.24285241  1
  V  V63  1  0.73750390  0.12574840  0.87678635  1
  V  V64  1  0.38027521  0.25058383  0.13280853  1
  V  V65  1  0.24878842  0.62562908  0.38161606  1
  V  V66  1  0.86968764  0.12162240  0.75253317  1
  V  V67  1  -0.00105682  0.11898832  0.12411059  1
  V  V68  1  0.12443391  0.37494329  0.25056956  1
  V  V69  1  0.74774052  0.50367647  0.75064383  1
  V  V70  1  -0.00955089  0.49971387  0.00357067  1
  V  V71  1  -0.00125416  0.24849092  0.75028252  1
  V  V72  1  0.87702524  -0.00744390  0.37552752  1
  V  V73  1  0.61986343  0.00032915  0.62511261  1
  V  V74  1  0.74173614  0.12185238  0.38242648  1
  V  V75  1  0.49815484  0.24505764  0.75357415  1
  V  V76  1  0.74705445  0.61923665  0.87694735  1
  V  V77  1  0.24847083  0.75412583  0.00758550  1
  V  V78  1  0.25055690  -0.00197228  0.74769552  1
  V  V79  1  0.37256875  0.87949795  0.00594965  1
  V  V80  1  0.37393469  0.63419972  0.74845009  1
  V  V81  1  0.75015654  0.74991987  0.51057673  1
  V  V82  1  0.37156769  0.37653095  0.49117354  1
  V  V83  1  0.50051351  0.50023813  -0.00129563  1
  V  V84  1  0.62855082  0.74892179  0.37565611  1
  Zn  Zn85  1  0.50334388  0.75940797  0.74071844  1
  Zn  Zn86  1  0.36869620  -0.00555766  0.37272495  1
  Zn  Zn87  1  0.61507366  0.50258693  0.13268230  1
  Zn  Zn88  1  0.62675619  0.75131842  0.86707106  1
  Zn  Zn89  1  0.37859032  0.12164744  0.74390175  1
  Zn  Zn90  1  0.61537752  0.24750328  0.36304143  1
  Zn  Zn91  1  0.86985160  0.37348866  0.49798865  1
  Zn  Zn92  1  0.25682827  0.86642889  0.63038024  1
  Zn  Zn93  1  0.00162470  0.75443551  0.24978296  1
  Zn  Zn94  1  0.13176259  0.12416394  0.50363128  1
  Zn  Zn95  1  0.37762251  0.49834436  0.87052940  1
  Zn  Zn96  1  0.25700814  0.49738435  0.75077969  1
  Zn  Zn97  1  0.24848931  0.11338765  0.37735834  1
  Zn  Zn98  1  0.00324155  0.00137713  -0.00118775  1
  Zn  Zn99  1  0.61407363  0.25226445  0.88536722  1
  Zn  Zn100  1  0.12738308  -0.00369667  0.62371670  1
  Zn  Zn101  1  0.12520798  0.12410721  0.00155382  1
  Zn  Zn102  1  -0.00228888  0.62303224  0.63989364  1
  Zn  Zn103  1  0.62514827  0.62428278  0.49927230  1
  Zn  Zn104  1  0.87430238  -0.00003299  0.87424921  1
  Zn  Zn105  1  0.25445705  0.62155710  0.87906697  1
  Zn  Zn106  1  0.75132742  0.62580244  0.37548065  1
  Zn  Zn107  1  0.18597261  0.18753494  0.18852477  1
  Zn  Zn108  1  0.19126283  0.18684476  0.68394929  1
  Zn  Zn109  1  0.18730047  0.69196280  0.19163787  1
  Zn  Zn110  1  0.18733314  0.68586550  0.68912889  1
  Zn  Zn111  1  0.68945939  0.19098620  0.18947256  1
  Zn  Zn112  1  0.68008445  0.18193089  0.68749281  1
  Zn  Zn113  1  0.69478518  0.68698018  0.18828621  1
  Zn  Zn114  1  0.68400803  0.68928223  0.68972278  1
  Zn  Zn115  1  0.31585496  0.31279541  0.31053940  1
  Zn  Zn116  1  0.31433489  0.31041552  0.80874396  1
  Zn  Zn117  1  0.30849614  0.81456588  0.31447234  1
  Zn  Zn118  1  0.31412226  0.81115874  0.81872553  1
  Zn  Zn119  1  0.78199080  0.29995591  0.29952297  1
  Zn  Zn120  1  0.80631866  0.31221268  0.80911716  1
  Zn  Zn121  1  0.81384503  0.81275640  0.31405404  1
  Zn  Zn122  1  0.81264774  0.80754100  0.81679051  1
  Zn  Zn123  1  0.18631026  0.43645281  0.43762788  1
  Zn  Zn124  1  0.18874203  0.43872361  0.93714197  1
  Zn  Zn125  1  0.19206879  0.93724492  0.43862788  1
  Zn  Zn126  1  0.18784408  0.93783043  0.93921268  1
  Zn  Zn127  1  0.68548703  0.43537408  0.43840082  1
  Zn  Zn128  1  0.68914764  0.43820672  0.94065765  1
  Zn  Zn129  1  0.68495817  0.93565331  0.44170073  1
  Zn  Zn130  1  0.68981286  0.94074519  0.93560676  1
  Zn  Zn131  1  0.31700395  0.06719328  0.06064570  1
  Zn  Zn132  1  0.31009199  0.05903864  0.55473578  1
  Zn  Zn133  1  0.31259320  0.56354342  0.06503084  1
  Zn  Zn134  1  0.31328245  0.56065206  0.56532886  1
  Zn  Zn135  1  0.81024208  0.06542475  0.06163220  1
  Zn  Zn136  1  0.80824795  0.05912093  0.56631217  1
  Zn  Zn137  1  0.80981776  0.56467957  0.06496869  1
  Zn  Zn138  1  0.81251141  0.56627391  0.56274723  1
  Zn  Zn139  1  0.43533119  0.44318560  0.18087887  1
  Zn  Zn140  1  0.43563991  0.43798939  0.68517388  1
  Zn  Zn141  1  0.44052190  0.93745626  0.18230027  1
  Zn  Zn142  1  0.44023978  0.94248609  0.68604569  1
  Zn  Zn143  1  0.93509775  0.43772779  0.18896346  1
  Zn  Zn144  1  0.93953336  0.43050867  0.68182010  1
  Zn  Zn145  1  0.94192753  0.93385570  0.19174097  1
  Zn  Zn146  1  0.93338802  0.93377290  0.68634704  1
  Zn  Zn147  1  0.06301141  0.05949334  0.31166510  1
  Zn  Zn148  1  0.06345220  0.05968923  0.81236552  1
  Zn  Zn149  1  0.06321939  0.56587331  0.31541582  1
  Zn  Zn150  1  0.08319634  0.55724995  0.81715734  1
  Zn  Zn151  1  0.56019959  0.06185625  0.31050228  1
  Zn  Zn152  1  0.56204449  0.06241196  0.80960349  1
  Zn  Zn153  1  0.55923648  0.56334986  0.31488743  1
  Zn  Zn154  1  0.55831315  0.56630917  0.81553592  1
  Zn  Zn155  1  0.43389792  0.19323631  0.42911498  1
  Zn  Zn156  1  0.43701538  0.18579618  0.93843802  1
  Zn  Zn157  1  0.43645206  0.68829923  0.43431375  1
  Zn  Zn158  1  0.43754279  0.68652880  0.93707654  1
  Zn  Zn159  1  0.93426460  0.18132272  0.43806112  1
  Zn  Zn160  1  0.93486108  0.18713240  0.93899974  1
  Zn  Zn161  1  0.93412605  0.68499385  0.44006187  1
  Zn  Zn162  1  0.94284868  0.69245488  0.94522502  1
  Zn  Zn163  1  0.06149103  0.31456028  0.06159038  1
  Zn  Zn164  1  0.05953600  0.31422988  0.56086595  1
  Zn  Zn165  1  0.06355885  0.81929772  0.06537412  1
  Zn  Zn166  1  0.05841384  0.81043983  0.56212250  1
  Zn  Zn167  1  0.56246479  0.31299993  0.06311493  1
  Zn  Zn168  1  0.55705691  0.31409158  0.56159504  1
  Zn  Zn169  1  0.56187798  0.81429279  0.05904535  1
  Zn  Zn170  1  0.56932375  0.81875292  0.56384863  1
  O  O171  1  0.11766598  0.11361145  0.12830088  1
  O  O172  1  0.11169659  0.12425154  0.62669850  1
  O  O173  1  0.12832128  0.61692211  0.12148493  1
  O  O174  1  0.11923448  0.60784979  0.63660130  1
  O  O175  1  0.61316389  0.12950924  0.13119691  1
  O  O176  1  0.63830068  0.10302897  0.61898600  1
  O  O177  1  0.63284276  0.62560511  0.11211835  1
  O  O178  1  0.61638518  0.61301964  0.62394651  1
  O  O179  1  0.38055098  0.37082491  0.38566175  1
  O  O180  1  0.36990435  0.37329604  0.88877049  1
  O  O181  1  0.38750569  0.87230279  0.37834739  1
  O  O182  1  0.38359961  0.88086194  0.88742847  1
  O  O183  1  0.88033368  0.38599075  0.37272362  1
  O  O184  1  0.88718541  0.36964147  0.86793740  1
  O  O185  1  0.87282598  0.88604272  0.38210698  1
  O  O186  1  0.88345329  0.87278157  0.88324413  1
  O  O187  1  0.25540120  -0.00201716  0.37100685  1
  O  O188  1  0.25370974  0.00403793  0.86619708  1
  O  O189  1  0.23983533  0.50868280  0.36381634  1
  O  O190  1  0.25361105  0.50317958  0.87057871  1
  O  O191  1  0.75483346  0.00365262  0.37089941  1
  O  O192  1  0.75046210  0.00880302  0.86522207  1
  O  O193  1  0.75691467  0.49860888  0.36832281  1
  O  O194  1  0.75107848  0.51002187  0.86957405  1
  O  O195  1  0.23975642  0.49667376  0.13384001  1
  O  O196  1  0.24220694  0.48811143  0.62581165  1
  O  O197  1  0.24098094  1.00554299  0.12426458  1
  O  O198  1  0.25079053  0.99436302  0.63749590  1
  O  O199  1  0.74699235  0.49392048  0.13036843  1
  O  O200  1  0.74132409  0.49789694  0.63087873  1
  O  O201  1  0.75618614  0.99236551  0.13504455  1
  O  O202  1  0.74812627  0.99653708  0.64116986  1
  O  O203  1  0.00304230  0.37161348  0.26122707  1
  O  O204  1  0.00756586  0.36750150  0.75507276  1
  O  O205  1  0.01967745  0.87083729  0.24550521  1
  O  O206  1  0.00652239  0.87882721  0.76176114  1
  O  O207  1  0.49117507  0.38780769  0.26450006  1
  O  O208  1  0.50596015  0.36414967  0.74392145  1
  O  O209  1  0.50613050  0.87050611  0.25474665  1
  O  O210  1  0.49278703  0.87903484  0.76820551  1
  O  O211  1  0.49276086  0.12092013  0.23525401  1
  O  O212  1  0.49932957  0.13939255  0.74759951  1
  O  O213  1  0.49045427  0.63440979  0.25419454  1
  O  O214  1  0.49009970  0.62602086  0.74092691  1
  O  O215  1  0.99375021  0.12889279  0.24336963  1
  O  O216  1  0.99194225  0.12816278  0.74476764  1
  O  O217  1  0.98862381  0.62848243  0.25245202  1
  O  O218  1  0.99080954  0.60510043  0.76155179  1
  O  O219  1  0.37094940  0.25605528  0.00793817  1
  O  O220  1  0.38055919  0.25805101  0.50965582  1
  O  O221  1  0.36947031  0.75439098  0.00744705  1
  O  O222  1  0.36624426  0.75839290  0.49349243  1
  O  O223  1  0.86463949  0.24620984  0.00859883  1
  O  O224  1  0.87198120  0.24722452  0.51372022  1
  O  O225  1  0.86949236  0.76061558  0.00668998  1
  O  O226  1  0.86870112  0.75637530  0.50290603  1
  O  O227  1  0.11637127  0.24874906  0.48427050  1
  O  O228  1  0.13285630  0.24960505  0.99504200  1
  O  O229  1  0.13187661  0.75853840  0.48720118  1
  O  O230  1  0.13069161  0.74606066  1.00062166  1
  O  O231  1  0.63275313  0.25245421  0.49573549  1
  O  O232  1  0.63964055  0.25444195  0.99962203  1
  O  O233  1  0.63352069  0.75060854  0.49279960  1
  O  O234  1  0.63026202  0.74373262  0.99653126  1
  O  O235  1  0.49366840  0.23630742  0.11752045  1
  O  O236  1  0.48638465  0.25299991  0.63137872  1
  O  O237  1  0.49441141  0.75478344  0.13604561  1
  O  O238  1  0.50596235  0.73774132  0.61913040  1
  O  O239  1  0.99508038  0.24215693  0.12903664  1
  O  O240  1  0.99155176  0.24360984  0.63001005  1
  O  O241  1  0.98644637  0.75496957  0.12283150  1
  O  O242  1  0.98866014  0.74311608  0.62501309  1
  O  O243  1  -0.00026931  0.25592245  0.37067548  1
  O  O244  1  0.00473869  0.25534473  0.87039512  1
  O  O245  1  0.01294856  0.74507016  0.37865077  1
  O  O246  1  0.01541434  0.75898576  0.88324460  1
  O  O247  1  0.50068764  0.26744330  0.37263130  1
  O  O248  1  0.49775208  0.24848326  0.86035521  1
  O  O249  1  0.50713958  0.75647238  0.36450087  1
  O  O250  1  0.49909537  0.76857941  0.88157201  1
  O  O251  1  0.24470132  0.12339998  0.49293524  1
  O  O252  1  0.24943457  0.13315411  0.99211819  1
  O  O253  1  0.25772230  0.62873302  0.48829358  1
  O  O254  1  0.24041116  0.63263682  1.00192094  1
  O  O255  1  0.75363961  0.12890676  0.49352929  1
  O  O256  1  0.75553064  0.13300547  0.98659960  1
  O  O257  1  0.74682055  0.63424443  0.49513404  1
  O  O258  1  0.74318255  0.62792376  0.99349124  1
  O  O259  1  0.25584798  0.37023023  0.00715031  1
  O  O260  1  0.25726766  0.37710992  0.50607667  1
  O  O261  1  0.26024097  0.86764540  -0.00337595  1
  O  O262  1  0.26135442  0.86682447  0.50470308  1
  O  O263  1  0.75252818  0.36976036  0.00911075  1
  O  O264  1  0.75014268  0.36448637  0.50691079  1
  O  O265  1  0.75614728  0.87238858  0.00481227  1
  O  O266  1  0.76181047  0.86716401  0.49618727  1
  O  O267  1  0.12862459  0.49620141  0.24455075  1
  O  O268  1  0.12842188  0.48391501  0.74198515  1
  O  O269  1  0.12453880  0.99077094  0.24163204  1
  O  O270  1  0.13361986  0.98976563  0.74909303  1
  O  O271  1  0.63838506  0.51028542  0.24976367  1
  O  O272  1  0.62619611  0.49412619  0.74478817  1
  O  O273  1  0.63731970  0.99219909  0.25530523  1
  O  O274  1  0.63423902  1.00061830  0.74293508  1
  O  O275  1  0.37880468  0.01146401  0.24593439  1
  O  O276  1  0.36841573  0.00147964  0.75645879  1
  O  O277  1  0.36230122  0.51099947  0.24206780  1
  O  O278  1  0.37627454  0.51052973  0.75088581  1
  O  O279  1  0.86761819  -0.00025611  0.25785815  1
  O  O280  1  0.86337580  0.00539294  0.75068204  1
  O  O281  1  0.87138506  0.50814069  0.25592327  1
  O  O282  1  0.86489035  0.49411952  0.74810416  1
  O  O283  1  0.11653854  0.36520228  0.37087457  1
  O  O284  1  0.11892703  0.37013706  0.86624047  1
  O  O285  1  0.12735438  0.86476698  0.36693377  1
  O  O286  1  0.11971802  0.87007219  0.86843904  1
  O  O287  1  0.60782911  0.37769919  0.37669979  1
  O  O288  1  0.62996003  0.37293473  0.86226507  1
  O  O289  1  0.61634243  0.86556142  0.37070154  1
  O  O290  1  0.61022391  0.87588819  0.88231965  1
  O  O291  1  0.38205273  0.13147651  0.13279960  1
  O  O292  1  0.36900821  0.13933674  0.62380696  1
  O  O293  1  0.36925022  0.63892247  0.13601240  1
  O  O294  1  0.38248844  0.62262790  0.63626500  1
  O  O295  1  0.88195184  0.13169845  0.12993386  1
  O  O296  1  0.88184642  0.12749127  0.63461877  1
  O  O297  1  0.86944123  0.63659220  0.13391678  1
  O  O298  1  0.87843841  0.63895569  0.62288495  1
  O  O299  1  0.25662017  0.25482121  0.12019775  1
  O  O300  1  0.26314900  0.26012067  0.62881619  1
  O  O301  1  0.25685338  0.74930176  0.11554308  1
  O  O302  1  0.24242690  0.74660429  0.60903397  1
  O  O303  1  0.75852628  0.25710170  0.11648293  1
  O  O304  1  0.75343483  0.25098108  0.62050799  1
  O  O305  1  0.76038520  0.75919826  0.11983540  1
  O  O306  1  0.75783112  0.74358500  0.61471653  1
  O  O307  1  0.23441133  0.25185510  0.36883784  1
  O  O308  1  0.24525702  0.24527790  0.87865866  1
  O  O309  1  0.24174455  0.74372690  0.38386272  1
  O  O310  1  0.24080858  0.74971464  0.88908620  1
  O  O311  1  0.76550016  0.23486301  0.39410003  1
  O  O312  1  0.74842963  0.24365764  0.88069744  1
  O  O313  1  0.74270184  0.75037270  0.38218705  1
  O  O314  1  0.74971179  0.73739411  0.88246485  1
  O  O315  1  0.00260250  0.12359683  0.00932821  1
  O  O316  1  0.00014292  0.11354763  0.50936343  1
  O  O317  1  0.01467769  0.61740610  -0.00251178  1
  O  O318  1  -0.00141901  0.61102410  0.50192730  1
  O  O319  1  0.49627825  0.11389539  0.00983716  1
  O  O320  1  0.49437050  0.11441233  0.49129694  1
  O  O321  1  0.50655306  0.61650658  -0.00167889  1
  O  O322  1  0.49805218  0.61827446  0.50460947  1
  O  O323  1  0.49097421  0.38300529  0.49357866  1
  O  O324  1  0.49228405  0.38466648  1.00319684  1
  O  O325  1  0.49482803  0.87459720  0.49088372  1
  O  O326  1  0.49501344  0.88914515  0.99614036  1
  O  O327  1  0.99395532  0.38018331  0.48896746  1
  O  O328  1  1.00753032  0.38684519  0.98824600  1
  O  O329  1  0.98846003  0.88567039  0.50422975  1
  O  O330  1  0.99299510  0.87785124  0.99218333  1
  O  O331  1  0.50099636  0.49416963  0.38711544  1
  O  O332  1  0.49667254  0.50153551  0.89107427  1
  O  O333  1  0.49747881  0.99232687  0.38327682  1
  O  O334  1  0.49745941  0.99637669  0.88499248  1
  O  O335  1  0.99583953  0.49274926  0.38060840  1
  O  O336  1  0.99351770  0.49548740  0.87862290  1
  O  O337  1  0.99043454  1.00558699  0.38505787  1
  O  O338  1  0.99727962  0.99088258  0.87840795  1
  O  O339  1  0.00106227  0.01114088  0.12470269  1
  O  O340  1  -0.00076504  0.00617731  0.61993068  1
  O  O341  1  0.01256906  0.49171970  0.11949407  1
  O  O342  1  0.00625425  0.49730669  0.61649043  1
  O  O343  1  0.49986633  0.01147248  0.11299434  1
  O  O344  1  0.50598702  0.00265755  0.61232860  1
  O  O345  1  0.50082133  0.50164829  0.10919014  1
  O  O346  1  0.50500862  0.50576675  0.61459111  1
  O  O347  1  0.24671854  0.38440961  0.24656267  1
  O  O348  1  0.24308930  0.37338811  0.74094800  1
  O  O349  1  0.23119374  0.86524164  0.24641649  1
  O  O350  1  0.24425912  0.87908103  0.75148642  1
  O  O351  1  0.76616936  0.39362264  0.23471821  1
  O  O352  1  0.73975935  0.38453599  0.74392494  1
  O  O353  1  0.74642481  0.87992593  0.24263548  1
  O  O354  1  0.75092111  0.88759979  0.76099135  1
  O  O355  1  0.26502155  0.12839155  0.24913788  1
  O  O356  1  0.25097540  0.11592589  0.75540349  1
  O  O357  1  0.25458927  0.62079263  0.25881638  1
  O  O358  1  0.26361549  0.62411761  0.75017632  1
  O  O359  1  0.75741660  0.11388853  0.25518860  1
  O  O360  1  0.75549066  0.12087981  0.75748472  1
  O  O361  1  0.76294001  0.61786870  0.25374838  1
  O  O362  1  0.74537398  0.61123703  0.75738686  1
  O  O363  1  0.37803284  0.12635889  0.35491565  1
  O  O364  1  0.36731273  0.11825162  0.87234497  1
  O  O365  1  0.36486809  0.63153596  0.36087457  1
  O  O366  1  0.37502137  0.62475513  0.86252139  1
  O  O367  1  0.86717627  0.11148218  0.37019206  1
  O  O368  1  0.87073268  0.12509641  0.86218009  1
  O  O369  1  0.87508411  0.61252276  0.36905846  1
  O  O370  1  0.86932665  0.62651068  0.88032383  1
  O  O371  1  0.13100117  0.38087706  0.13210694  1
  O  O372  1  0.13127925  0.37575373  0.63012400  1
  O  O373  1  0.12587047  0.89044618  0.13144980  1
  O  O374  1  0.12400491  0.87165781  0.63904049  1
  O  O375  1  0.63619286  0.37791038  0.12617474  1
  O  O376  1  0.62652021  0.38515776  0.63046975  1
  O  O377  1  0.63862681  0.87058332  0.12755791  1
  O  O378  1  0.63042269  0.89653189  0.61660051  1
  O  O379  1  0.11571456  0.25631262  0.25686356  1
  O  O380  1  0.12058095  0.25727356  0.75275367  1
  O  O381  1  0.12216938  0.75649730  0.26198396  1
  O  O382  1  0.13080777  0.75626867  0.76225549  1
  O  O383  1  0.67329299  0.26587305  0.26804546  1
  O  O384  1  0.61174340  0.25749589  0.74635764  1
  O  O385  1  0.62069582  0.75382985  0.25431758  1
  O  O386  1  0.61605882  0.74731285  0.75425716  1
  O  O387  1  0.37413122  0.24392278  0.23669477  1
  O  O388  1  0.38513774  0.24951883  0.73961288  1
  O  O389  1  0.38128294  0.74788260  0.24367146  1
  O  O390  1  0.38103426  0.73945472  0.75298635  1
  O  O391  1  0.87729873  0.24268852  0.24186139  1
  O  O392  1  0.87575113  0.24213803  0.73948184  1
  O  O393  1  0.87741880  0.74473495  0.24435177  1
  O  O394  1  0.87155955  0.75178571  0.73653083  1
  O  O395  1  0.38243439  0.49019354  0.50434069  1
  O  O396  1  0.38221864  0.49297125  1.00132787  1
  O  O397  1  0.38873578  0.98943574  0.49952726  1
  O  O398  1  0.38035907  0.99400956  0.99621124  1
  O  O399  1  0.87960843  0.49717157  0.49212520  1
  O  O400  1  0.89121689  0.50681987  1.00840908  1
  O  O401  1  0.87761437  0.99200091  0.49634238  1
  O  O402  1  0.87402085  0.98842134  0.99793270  1
  O  O403  1  0.12499521  0.00121269  0.01444252  1
  O  O404  1  0.11518218  -0.00278216  0.50457110  1
  O  O405  1  0.12063674  0.50792627  0.00834545  1
  O  O406  1  0.11512473  0.49182342  0.50979321  1
  O  O407  1  0.61440692  0.00211433  0.00015835  1
  O  O408  1  0.60816235  -0.00111993  0.50124330  1
  O  O409  1  0.61463117  0.50600025  0.00180835  1
  O  O410  1  0.61741993  0.50148862  0.50806471  1
  O  O411  1  0.37023965  0.36734140  0.11758973  1
  O  O412  1  0.36793566  0.36788675  0.61499870  1
  O  O413  1  0.38067753  0.86526614  0.11397147  1
  O  O414  1  0.37937207  0.87236134  0.61598754  1
  O  O415  1  0.87488463  0.36216920  0.12559786  1
  O  O416  1  0.86533271  0.36364306  0.62418543  1
  O  O417  1  0.86747275  0.87150863  0.11942986  1
  O  O418  1  0.87720745  0.85969786  0.61710648  1
  O  O419  1  0.12270620  0.13928528  0.37081761  1
  O  O420  1  0.13122975  0.13182766  0.87568150  1
  O  O421  1  0.13372150  0.63946839  0.37179041  1
  O  O422  1  0.13070671  0.63403890  0.88565333  1
  O  O423  1  0.63782084  0.12667586  0.36893275  1
  O  O424  1  0.63410340  0.13080152  0.86974948  1
  O  O425  1  0.62459606  0.63899176  0.37625282  1
  O  O426  1  0.63233592  0.62509947  0.88654783  1
