# generated using pymatgen
data_V85Zn86O256
_symmetry_space_group_name_H-M   'P 1'
_cell_length_a   16.95978937
_cell_length_b   16.96990892
_cell_length_c   16.97147689
_cell_angle_alpha   90.04082580
_cell_angle_beta   90.05027726
_cell_angle_gamma   89.93174800
_symmetry_Int_Tables_number   1
_chemical_formula_structural   V85Zn86O256
_chemical_formula_sum   'V85 Zn86 O256'
_cell_volume   4884.48766666
_cell_formula_units_Z   1
loop_
 _symmetry_equiv_pos_site_id
 _symmetry_equiv_pos_as_xyz
  1  'x, y, z'
loop_
 _atom_site_type_symbol
 _atom_site_label
 _atom_site_symmetry_multiplicity
 _atom_site_fract_x
 _atom_site_fract_y
 _atom_site_fract_z
 _atom_site_occupancy
  V  V0  1  0.00353446  0.74781082  0.24987584  1
  V  V1  1  0.87738940  0.61917346  0.25720316  1
  V  V2  1  -0.00032574  0.50197988  0.48858953  1
  V  V3  1  0.37964280  0.24981119  0.12779056  1
  V  V4  1  0.49895145  -0.00359109  0.50600496  1
  V  V5  1  0.74234665  0.24778503  0.49124752  1
  V  V6  1  0.12305962  0.50413305  0.62172067  1
  V  V7  1  0.75202068  0.37457380  0.12253779  1
  V  V8  1  0.37450355  0.37820933  0.49585200  1
  V  V9  1  0.00128871  0.37527790  0.87508856  1
  V  V10  1  -0.00073708  0.62590932  0.62910366  1
  V  V11  1  0.62258069  0.25712077  0.87871414  1
  V  V12  1  0.50600546  0.12678031  0.62349065  1
  V  V13  1  0.62934950  0.87805493  0.25468573  1
  V  V14  1  0.24839506  0.38197714  0.12478795  1
  V  V15  1  0.74067398  0.37995052  0.62522105  1
  V  V16  1  0.12468583  0.74328702  0.86934307  1
  V  V17  1  0.12668094  0.74808539  0.38824138  1
  V  V18  1  0.01723009  0.50175322  0.00192612  1
  V  V19  1  -0.00006139  0.12923432  0.62190973  1
  V  V20  1  0.37944090  0.87124579  0.00612611  1
  V  V21  1  0.87073189  0.87518776  0.51332150  1
  V  V22  1  -0.00280824  0.00193813  0.49816670  1
  V  V23  1  0.00046794  0.24925830  0.25613189  1
  V  V24  1  0.49888540  0.87079633  0.37930097  1
  V  V25  1  0.38095154  -0.00242090  0.87991535  1
  V  V26  1  0.87216480  0.12466825  0.74908968  1
  V  V27  1  0.74965899  0.74956001  0.00160352  1
  V  V28  1  0.87422087  0.50150430  0.87498508  1
  V  V29  1  0.24953630  0.11670134  0.87082395  1
  V  V30  1  0.87646360  0.75172870  0.63452656  1
  V  V31  1  0.50462192  0.76120683  0.74697815  1
  V  V32  1  0.24820447  0.61559200  0.87470345  1
  V  V33  1  0.87179795  0.25643689  0.62303820  1
  V  V34  1  0.37215608  0.62102071  0.74881828  1
  V  V35  1  0.38540868  0.49155888  0.87162574  1
  V  V36  1  0.87766582  0.37571825  -0.00011138  1
  V  V37  1  0.62262958  0.36771786  0.25277122  1
  V  V38  1  0.12298597  0.11897029  0.01224656  1
  V  V39  1  0.74785230  0.74641673  0.50700202  1
  V  V40  1  0.87744492  0.00054775  0.87545392  1
  V  V41  1  0.25107814  0.24754162  0.00093449  1
  V  V42  1  0.35995961  0.75136780  0.62392529  1
  V  V43  1  0.37495723  0.25266767  0.62431978  1
  V  V44  1  0.75079315  -0.01284057  0.74297888  1
  V  V45  1  0.23876274  -0.00065416  0.24362180  1
  V  V46  1  0.35822225  0.87220141  0.50544979  1
  V  V47  1  -0.00096829  0.25256179  0.74881312  1
  V  V48  1  0.37229647  -0.00262541  0.37642756  1
  V  V49  1  0.12970109  0.37919394  0.74886274  1
  V  V50  1  0.51078300  0.62331758  0.62281471  1
  V  V51  1  0.00527503  -0.00014862  0.01106833  1
  V  V52  1  0.12639877  0.24705506  0.87338960  1
  V  V53  1  0.37513315  0.50359927  0.37050292  1
  V  V54  1  0.12299059  0.12756386  0.49890761  1
  V  V55  1  0.87791452  0.87437955  0.00321839  1
  V  V56  1  0.87381322  0.11992311  0.24436545  1
  V  V57  1  0.49572913  0.74761620  0.24415396  1
  V  V58  1  0.24707165  0.12732376  0.37294939  1
  V  V59  1  0.49868487  0.11223700  0.12038488  1
  V  V60  1  0.88429270  0.24534655  0.12198848  1
  V  V61  1  0.87787903  0.37935244  0.48488086  1
  V  V62  1  0.62566283  0.73885636  0.38037391  1
  V  V63  1  0.75175784  0.88292171  0.13087972  1
  V  V64  1  0.12208928  0.38280783  0.25213326  1
  V  V65  1  0.24710062  0.62933098  0.38492073  1
  V  V66  1  0.00151924  0.86675735  0.86940804  1
  V  V67  1  0.87677440  0.74574914  0.12686514  1
  V  V68  1  0.37257886  0.11631382  0.74633577  1
  V  V69  1  0.75408128  0.50052110  0.25689768  1
  V  V70  1  0.62275783  0.62714750  -0.00210645  1
  V  V71  1  0.24296600  0.87628174  0.12000831  1
  V  V72  1  0.01499809  0.61985584  0.12236317  1
  V  V73  1  0.37443269  0.12113437  0.24874265  1
  V  V74  1  0.25000213  0.38196170  0.62492236  1
  V  V75  1  0.62739110  -0.01498672  0.62723762  1
  V  V76  1  0.62485049  0.50273406  0.12507939  1
  V  V77  1  0.74183861  0.50308875  0.74873472  1
  V  V78  1  0.51338609  0.50368119  0.50054791  1
  V  V79  1  0.24979605  0.73868576  0.00601305  1
  V  V80  1  0.86100519  -0.00081759  0.37132081  1
  V  V81  1  -0.00233990  0.87444624  0.37527718  1
  V  V82  1  0.49980499  0.25662457  0.75445255  1
  V  V83  1  0.62322945  0.11555814  -0.00381637  1
  V  V84  1  0.50760736  0.87647916  0.87724674  1
  Zn  Zn85  1  0.12135810  0.87733471  0.24537206  1
  Zn  Zn86  1  0.12005098  0.25564101  0.37578093  1
  Zn  Zn87  1  0.49403008  0.62754485  0.12000200  1
  Zn  Zn88  1  0.24827319  0.25335335  0.49732407  1
  Zn  Zn89  1  0.75365425  0.62059366  0.38332505  1
  Zn  Zn90  1  0.14324090  -0.00475907  0.63224480  1
  Zn  Zn91  1  0.36748529  0.63411113  0.24314391  1
  Zn  Zn92  1  0.75083599  0.62715510  0.87408977  1
  Zn  Zn93  1  0.50754530  0.48764577  -0.00615905  1
  Zn  Zn94  1  0.62924704  0.75374994  0.86952833  1
  Zn  Zn95  1  0.14032756  0.87322496  0.74371068  1
  Zn  Zn96  1  0.75171735  0.24646348  -0.00277541  1
  Zn  Zn97  1  0.62456225  -0.00162035  0.12586134  1
  Zn  Zn98  1  0.61995901  0.12623844  0.48926479  1
  Zn  Zn99  1  0.50587879  0.37030595  0.37833020  1
  Zn  Zn100  1  0.87725847  0.62744224  0.75357144  1
  Zn  Zn101  1  0.38278278  0.37055209  -0.00377353  1
  Zn  Zn102  1  0.73847442  0.12636798  0.36044419  1
  Zn  Zn103  1  0.24765679  0.50686761  0.24332400  1
  Zn  Zn104  1  0.61854465  0.38078592  0.75249415  1
  Zn  Zn105  1  0.74724426  0.12507460  0.87337092  1
  Zn  Zn106  1  0.51420166  0.23502819  0.25861362  1
  Zn  Zn107  1  0.18732596  0.19258978  0.18766409  1
  Zn  Zn108  1  0.18928142  0.18806511  0.68362284  1
  Zn  Zn109  1  0.19055816  0.68982509  0.19129794  1
  Zn  Zn110  1  0.18582954  0.68207932  0.69236976  1
  Zn  Zn111  1  0.69255154  0.18579293  0.17863184  1
  Zn  Zn112  1  0.68649833  0.18819613  0.68694111  1
  Zn  Zn113  1  0.68660514  0.68909162  0.18938509  1
  Zn  Zn114  1  0.69071171  0.69040276  0.68768546  1
  Zn  Zn115  1  0.31302441  0.31242729  0.30990955  1
  Zn  Zn116  1  0.31097958  0.30892223  0.80888046  1
  Zn  Zn117  1  0.30975589  0.81363913  0.31365579  1
  Zn  Zn118  1  0.31658585  0.80483626  0.81985771  1
  Zn  Zn119  1  0.81217728  0.31021869  0.30721229  1
  Zn  Zn120  1  0.80782259  0.31423114  0.81249667  1
  Zn  Zn121  1  0.81291895  0.80833242  0.31642067  1
  Zn  Zn122  1  0.81524178  0.81408982  0.81549243  1
  Zn  Zn123  1  0.18755886  0.44207723  0.43489294  1
  Zn  Zn124  1  0.19576500  0.43373687  0.93508271  1
  Zn  Zn125  1  0.18041918  0.94177744  0.43540122  1
  Zn  Zn126  1  0.18834458  0.93299945  0.93065129  1
  Zn  Zn127  1  0.69154303  0.43505686  0.43489835  1
  Zn  Zn128  1  0.68800980  0.43756326  0.93722423  1
  Zn  Zn129  1  0.68568513  0.93199907  0.44323315  1
  Zn  Zn130  1  0.69211601  0.93845887  0.93691717  1
  Zn  Zn131  1  0.31157210  0.05889754  0.05993446  1
  Zn  Zn132  1  0.31391083  0.06643002  0.55887615  1
  Zn  Zn133  1  0.32166084  0.56105453  0.05999030  1
  Zn  Zn134  1  0.31569439  0.56246488  0.56145712  1
  Zn  Zn135  1  0.81254015  0.06419869  0.06047774  1
  Zn  Zn136  1  0.81095323  0.06378905  0.56277455  1
  Zn  Zn137  1  0.81553999  0.56331527  0.06490273  1
  Zn  Zn138  1  0.81443201  0.56333317  0.56468558  1
  Zn  Zn139  1  0.43920324  0.43933159  0.18303199  1
  Zn  Zn140  1  0.43780377  0.44171386  0.68581496  1
  Zn  Zn141  1  0.43403286  0.93342584  0.18973130  1
  Zn  Zn142  1  0.30988608  0.93549755  0.69277365  1
  Zn  Zn143  1  0.94175884  0.43827686  0.18635690  1
  Zn  Zn144  1  0.93577476  0.43962717  0.68660270  1
  Zn  Zn145  1  0.93685916  0.93673292  0.18899584  1
  Zn  Zn146  1  0.97588082  0.94687597  0.69626984  1
  Zn  Zn147  1  0.05678758  0.06560621  0.31085353  1
  Zn  Zn148  1  0.06136025  0.06126542  0.81622797  1
  Zn  Zn149  1  0.06802484  0.56448519  0.31189787  1
  Zn  Zn150  1  0.06322228  0.56095627  0.81064512  1
  Zn  Zn151  1  0.56184315  0.05835753  0.31491137  1
  Zn  Zn152  1  0.56277490  0.06160165  0.80888219  1
  Zn  Zn153  1  0.56282299  0.56007038  0.31251258  1
  Zn  Zn154  1  0.56219122  0.57063059  0.81134958  1
  Zn  Zn155  1  0.43843453  0.19006161  0.43501899  1
  Zn  Zn156  1  0.43996052  0.18618624  0.93811737  1
  Zn  Zn157  1  0.43416911  0.68690833  0.44028814  1
  Zn  Zn158  1  0.43674752  0.68830218  0.93559324  1
  Zn  Zn159  1  0.93016170  0.18815637  0.43161725  1
  Zn  Zn160  1  0.94093003  0.18538135  0.93806113  1
  Zn  Zn161  1  0.93748126  0.68709915  0.44278899  1
  Zn  Zn162  1  0.93959815  0.68345591  0.94086185  1
  Zn  Zn163  1  0.06536765  0.31237199  0.06432569  1
  Zn  Zn164  1  0.06078985  0.31628542  0.55879681  1
  Zn  Zn165  1  0.06645936  0.80815038  0.05771393  1
  Zn  Zn166  1  0.06181801  0.81259717  0.56791531  1
  Zn  Zn167  1  0.56082838  0.30673001  0.06404167  1
  Zn  Zn168  1  0.56087906  0.31562230  0.56268857  1
  Zn  Zn169  1  0.56554820  0.81512906  0.06315406  1
  Zn  Zn170  1  0.55828954  0.80919635  0.56282062  1
  O  O171  1  0.13066748  0.12763760  0.11092744  1
  O  O172  1  0.11663378  0.12620211  0.61581598  1
  O  O173  1  0.11384245  0.62876534  0.13015669  1
  O  O174  1  0.11970270  0.61066367  0.62981073  1
  O  O175  1  0.61752181  0.12085325  0.11821132  1
  O  O176  1  0.61316433  0.12514944  0.61995864  1
  O  O177  1  0.62503047  0.61814494  0.11835528  1
  O  O178  1  0.60900259  0.62918647  0.62861525  1
  O  O179  1  0.36928354  0.38309281  0.38560707  1
  O  O180  1  0.36736423  0.38951673  0.86990446  1
  O  O181  1  0.37850259  0.87870943  0.38383852  1
  O  O182  1  0.38571971  0.88099899  0.88413298  1
  O  O183  1  0.87051988  0.37404377  0.38685958  1
  O  O184  1  0.88032458  0.37972200  0.88112143  1
  O  O185  1  0.88384002  0.87963936  0.37997263  1
  O  O186  1  0.87916645  0.88110687  0.88648782  1
  O  O187  1  0.25118265  0.01016463  0.36839315  1
  O  O188  1  0.25697929  0.01278843  0.87842118  1
  O  O189  1  0.25579143  0.51248289  0.37260635  1
  O  O190  1  0.26055577  0.51096762  0.88003142  1
  O  O191  1  0.75929286  -0.00303139  0.37828275  1
  O  O192  1  0.76343848  0.00166703  0.86739675  1
  O  O193  1  0.74899906  0.50246950  0.36136025  1
  O  O194  1  0.75887406  0.50002172  0.86879227  1
  O  O195  1  0.25669910  0.48483084  0.12206261  1
  O  O196  1  0.24080189  0.49007800  0.61700983  1
  O  O197  1  0.25324133  0.99085532  0.13288514  1
  O  O198  1  0.25415202  1.01406834  0.63490486  1
  O  O199  1  0.74321607  0.49398830  0.13101876  1
  O  O200  1  0.75846442  0.49153180  0.63569232  1
  O  O201  1  0.75261837  0.98543476  0.12350812  1
  O  O202  1  0.74066602  1.00395525  0.63031688  1
  O  O203  1  0.01518409  0.36893648  0.24300681  1
  O  O204  1  0.00564511  0.36999835  0.75507083  1
  O  O205  1  -0.00042979  0.86630744  0.25744378  1
  O  O206  1  -0.01545520  0.86108886  0.77070943  1
  O  O207  1  0.51865714  0.37633523  0.24525090  1
  O  O208  1  0.50053016  0.36111648  0.74003282  1
  O  O209  1  0.50491256  0.86513482  0.25806670  1
  O  O210  1  0.49530215  0.86012902  0.75777307  1
  O  O211  1  0.49022642  0.11947219  0.24276437  1
  O  O212  1  0.49256139  0.13270258  0.74086789  1
  O  O213  1  0.50292613  0.64124121  0.25265681  1
  O  O214  1  0.49117503  0.63158783  0.74005576  1
  O  O215  1  0.98763011  0.13483062  0.25056276  1
  O  O216  1  0.98832400  0.13371516  0.74483206  1
  O  O217  1  0.99606893  0.62909368  0.24463688  1
  O  O218  1  0.99592756  0.61600162  0.73485148  1
  O  O219  1  0.36783118  0.24596288  0.01035324  1
  O  O220  1  0.37354284  0.26157780  0.50705678  1
  O  O221  1  0.36063555  0.75851982  -0.00782241  1
  O  O222  1  0.37807959  0.75760119  0.51576458  1
  O  O223  1  0.87732082  0.25610198  0.00492926  1
  O  O224  1  0.86912326  0.26107357  0.50506554  1
  O  O225  1  0.86928285  0.75278325  0.00784016  1
  O  O226  1  0.86985264  0.75845006  0.50829844  1
  O  O227  1  0.12366433  0.24121660  0.49592104  1
  O  O228  1  0.13138927  0.24219727  0.99292812  1
  O  O229  1  0.11606783  0.75200643  0.48660991  1
  O  O230  1  0.14385532  0.75300079  0.98919873  1
  O  O231  1  0.63990968  0.25337627  0.50269911  1
  O  O232  1  0.62676581  0.23927317  0.99304385  1
  O  O233  1  0.63458185  0.75676448  0.49301851  1
  O  O234  1  0.63463885  0.74429211  1.00062020  1
  O  O235  1  0.49251126  0.23633481  0.13298772  1
  O  O236  1  0.49463190  0.24407336  0.62852654  1
  O  O237  1  0.50762633  0.75108441  0.14201999  1
  O  O238  1  0.49244175  0.74236683  0.63338325  1
  O  O239  1  0.98907051  0.25588241  0.13207109  1
  O  O240  1  0.99134298  0.24864349  0.62776588  1
  O  O241  1  0.99765373  0.74399838  0.13148725  1
  O  O242  1  0.99057708  0.73565067  0.61588419  1
  O  O243  1  -0.00296911  0.25087273  0.36055133  1
  O  O244  1  0.00656379  0.25617430  0.86919112  1
  O  O245  1  0.00248721  0.75598658  0.36954406  1
  O  O246  1  0.01291129  0.75455814  0.88936853  1
  O  O247  1  0.48890987  0.25900928  0.36539757  1
  O  O248  1  0.50704747  0.24447777  0.86422582  1
  O  O249  1  0.50735232  0.75374786  0.37377035  1
  O  O250  1  0.49972001  0.75571214  0.86206472  1
  O  O251  1  0.24029321  0.12745671  0.48990506  1
  O  O252  1  0.24403083  0.13041016  0.99206311  1
  O  O253  1  0.25476809  0.62342304  0.48428005  1
  O  O254  1  0.25576858  0.63424313  0.99494236  1
  O  O255  1  0.75093288  0.14264176  0.50071917  1
  O  O256  1  0.74037148  0.12707328  0.99690105  1
  O  O257  1  0.75867792  0.63917895  0.49905209  1
  O  O258  1  0.74258312  0.63330079  1.00187637  1
  O  O259  1  0.25565340  0.36258257  0.00561676  1
  O  O260  1  0.25628510  0.37511581  0.50516041  1
  O  O261  1  0.25648685  0.86797317  0.00396130  1
  O  O262  1  0.25960067  0.88303100  0.49427467  1
  O  O263  1  0.75646115  0.37468611  0.01029655  1
  O  O264  1  0.75940037  0.36979482  0.50536162  1
  O  O265  1  0.75707145  0.86854878  0.00860196  1
  O  O266  1  0.76249343  0.86349558  0.49702042  1
  O  O267  1  0.12606799  0.48658722  0.24857535  1
  O  O268  1  0.11961759  0.48516361  0.74037642  1
  O  O269  1  0.13511270  0.99904608  0.25500561  1
  O  O270  1  0.08557998  0.98748540  0.73713743  1
  O  O271  1  0.63421075  0.49344111  0.24251104  1
  O  O272  1  0.63755075  0.49901721  0.75827425  1
  O  O273  1  0.61923416  0.98136314  0.24855985  1
  O  O274  1  0.63856631  1.00878885  0.73883209  1
  O  O275  1  0.36382615  0.00236439  0.25732436  1
  O  O276  1  0.37687656  0.01343193  0.76055897  1
  O  O277  1  0.37614449  0.49516792  0.26417618  1
  O  O278  1  0.37860600  0.50803231  0.75934081  1
  O  O279  1  0.88122651  0.00781323  0.25883376  1
  O  O280  1  0.87541288  0.00856760  0.75453154  1
  O  O281  1  0.86756087  0.50725216  0.24301392  1
  O  O282  1  0.86883106  0.49704669  0.76374921  1
  O  O283  1  0.13406531  0.37211293  0.35694745  1
  O  O284  1  0.12468571  0.36829613  0.86570118  1
  O  O285  1  0.11175996  0.87046833  0.37287349  1
  O  O286  1  0.11561841  0.86522592  0.87262407  1
  O  O287  1  0.62830144  0.37727358  0.35588156  1
  O  O288  1  0.62807103  0.36124289  0.87387809  1
  O  O289  1  0.61888346  0.86666084  0.37103276  1
  O  O290  1  0.61225075  0.87438419  0.88307512  1
  O  O291  1  0.38045626  0.12760566  0.12688987  1
  O  O292  1  0.38500087  0.13166800  0.63084900  1
  O  O293  1  0.38262086  0.61730119  0.13263879  1
  O  O294  1  0.37914113  0.63287852  0.63102099  1
  O  O295  1  0.87380502  0.13435639  0.12897482  1
  O  O296  1  0.87809756  0.13864707  0.62861961  1
  O  O297  1  0.88304158  0.63070284  0.13482545  1
  O  O298  1  0.88256826  0.63345874  0.62851700  1
  O  O299  1  0.25780809  0.25396838  0.11590171  1
  O  O300  1  0.25647603  0.26207703  0.62076175  1
  O  O301  1  0.24782190  0.75542976  0.11213866  1
  O  O302  1  0.26151310  0.74186414  0.62842523  1
  O  O303  1  0.76332766  0.26014082  0.12100481  1
  O  O304  1  0.75609980  0.25763494  0.61684807  1
  O  O305  1  0.75505305  0.75609942  0.11711266  1
  O  O306  1  0.76011417  0.74934866  0.61826915  1
  O  O307  1  0.24978996  0.23638523  0.37403744  1
  O  O308  1  0.24798364  0.24162229  0.88417753  1
  O  O309  1  0.24107626  0.74026243  0.37121671  1
  O  O310  1  0.24617999  0.73524206  0.88448562  1
  O  O311  1  0.75546523  0.25080010  0.38900441  1
  O  O312  1  0.73996970  0.24602630  0.87570336  1
  O  O313  1  0.74203603  0.74717246  0.38404036  1
  O  O314  1  0.75092762  0.75177065  0.88939126  1
  O  O315  1  0.01189695  0.11330481  -0.00726281  1
  O  O316  1  0.00361336  0.12232275  0.49798720  1
  O  O317  1  -0.00116410  0.61334614  0.01041052  1
  O  O318  1  -0.00914924  0.60760506  0.51015873  1
  O  O319  1  0.50925042  0.12719845  0.00906194  1
  O  O320  1  0.49662314  0.11739156  0.50715034  1
  O  O321  1  0.51362734  0.62770689  -0.00010127  1
  O  O322  1  0.49553792  0.61980050  0.51397162  1
  O  O323  1  0.49130339  0.38473488  0.50099783  1
  O  O324  1  0.49572857  0.37471179  1.00596189  1
  O  O325  1  0.49014495  0.88167475  0.49841959  1
  O  O326  1  0.49044135  0.86504747  0.99225204  1
  O  O327  1  0.98530364  0.38343793  0.50144004  1
  O  O328  1  0.99714952  0.38034009  0.99446440  1
  O  O329  1  0.99236896  0.88469082  0.49176174  1
  O  O330  1  0.99530344  0.87952837  0.99513326  1
  O  O331  1  0.49367622  0.49732655  0.38195643  1
  O  O332  1  0.48914873  0.50260021  0.87234131  1
  O  O333  1  0.49303542  0.99146809  0.38685737  1
  O  O334  1  0.49222852  0.99026023  0.86844986  1
  O  O335  1  1.00462955  0.50612217  0.38981604  1
  O  O336  1  0.99388143  0.49399489  0.88069570  1
  O  O337  1  0.99201614  0.99438972  0.38269701  1
  O  O338  1  0.98856868  0.99027604  0.88185809  1
  O  O339  1  -0.00294408  -0.00657371  0.11028080  1
  O  O340  1  -0.01533865  0.01489665  0.60474703  1
  O  O341  1  -0.00159560  0.50744738  0.11347278  1
  O  O342  1  0.00543928  0.50274951  0.61725873  1
  O  O343  1  0.49869563  0.00856830  0.12785976  1
  O  O344  1  0.50754092  0.00964875  0.61389959  1
  O  O345  1  0.51678144  0.50220128  0.12459139  1
  O  O346  1  0.49591307  0.51517693  0.61779998  1
  O  O347  1  0.24122411  0.37591536  0.24072420  1
  O  O348  1  0.24069362  0.37008742  0.73881287  1
  O  O349  1  0.24844823  0.88187215  0.24055605  1
  O  O350  1  0.25180851  0.87894403  0.76908801  1
  O  O351  1  0.74624750  0.38090737  0.24011238  1
  O  O352  1  0.74788830  0.38286025  0.74084382  1
  O  O353  1  0.74236282  0.86460571  0.24261616  1
  O  O354  1  0.75575589  0.88839550  0.75172011  1
  O  O355  1  0.25282366  0.11795509  0.25376899  1
  O  O356  1  0.26091318  0.13722088  0.76026351  1
  O  O357  1  0.25151256  0.62330655  0.26003188  1
  O  O358  1  0.26391763  0.62719154  0.75962815  1
  O  O359  1  0.76656484  0.13134071  0.24678378  1
  O  O360  1  0.76336658  0.12209639  0.74817080  1
  O  O361  1  0.75931780  0.61683635  0.24828352  1
  O  O362  1  0.75429710  0.61709412  0.75235742  1
  O  O363  1  0.36551724  0.11657447  0.37105016  1
  O  O364  1  0.37047523  0.11791767  0.87015954  1
  O  O365  1  0.36614908  0.62072995  0.37124667  1
  O  O366  1  0.37147518  0.61642560  0.86686890  1
  O  O367  1  0.86799629  0.11459818  0.36625590  1
  O  O368  1  0.87606806  0.11774293  0.86625748  1
  O  O369  1  0.87552955  0.63107390  0.36047135  1
  O  O370  1  0.87370787  0.61547213  0.87448513  1
  O  O371  1  0.13774164  0.36601099  0.13647482  1
  O  O372  1  0.13075386  0.38088012  0.62919353  1
  O  O373  1  0.13831290  0.87089372  0.12497697  1
  O  O374  1  0.11347624  0.88342279  0.63136052  1
  O  O375  1  0.63604497  0.38126825  0.13030820  1
  O  O376  1  0.63772432  0.37291730  0.62778284  1
  O  O377  1  0.63488645  0.87569524  0.13348018  1
  O  O378  1  0.61797693  0.88635930  0.62488977  1
  O  O379  1  0.11622815  0.25589802  0.25168004  1
  O  O380  1  0.11901104  0.25843708  0.75213245  1
  O  O381  1  0.11241008  0.75214590  0.25761156  1
  O  O382  1  0.12887319  0.75032505  0.76530832  1
  O  O383  1  0.62970252  0.26467122  0.23957598  1
  O  O384  1  0.61623398  0.24928179  0.75835199  1
  O  O385  1  0.61769887  0.75793820  0.25983673  1
  O  O386  1  0.60964340  0.74676375  0.75050878  1
  O  O387  1  0.36872567  0.23897915  0.23704738  1
  O  O388  1  0.38243167  0.24227458  0.74451178  1
  O  O389  1  0.39247603  0.75378285  0.25704556  1
  O  O390  1  0.38382979  0.74273358  0.74091820  1
  O  O391  1  0.88258008  0.24657542  0.24107202  1
  O  O392  1  0.87744936  0.24635770  0.74231539  1
  O  O393  1  0.88651796  0.74377915  0.24642382  1
  O  O394  1  0.86912974  0.74925888  0.73774935  1
  O  O395  1  0.38220664  0.49518009  0.48972434  1
  O  O396  1  0.38145714  0.49739618  0.98251966  1
  O  O397  1  0.38175738  0.99312367  0.49675930  1
  O  O398  1  0.37196161  0.99092257  0.98688099  1
  O  O399  1  0.88313737  0.48650402  0.50288719  1
  O  O400  1  0.87869221  0.49394011  0.99005549  1
  O  O401  1  0.87666254  0.99397147  0.49167971  1
  O  O402  1  0.88135338  0.99685859  0.99215586  1
  O  O403  1  0.11739082  0.00742211  -0.00876027  1
  O  O404  1  0.11378640  0.01278530  0.50037692  1
  O  O405  1  0.11578028  0.49236016  -0.00679361  1
  O  O406  1  0.10829525  0.48875085  0.50804294  1
  O  O407  1  0.62972000  0.01151392  0.00193790  1
  O  O408  1  0.61714479  0.00046707  0.50786346  1
  O  O409  1  0.62715351  0.50926074  0.00602533  1
  O  O410  1  0.61270470  0.49372697  0.49378284  1
  O  O411  1  0.36829233  0.36402996  0.12735427  1
  O  O412  1  0.36704940  0.37666207  0.61607193  1
  O  O413  1  0.36664975  0.87917601  0.11155608  1
  O  O414  1  0.36974922  0.86029927  0.62095306  1
  O  O415  1  0.86991420  0.37062514  0.11899328  1
  O  O416  1  0.86807512  0.36582778  0.62105937  1
  O  O417  1  0.86973478  0.86601382  0.12320813  1
  O  O418  1  0.88932907  0.86951311  0.61513010  1
  O  O419  1  0.12993639  0.12722931  0.38127578  1
  O  O420  1  0.13314343  0.12980032  0.87515707  1
  O  O421  1  0.13740484  0.63316508  0.37350980  1
  O  O422  1  0.13551940  0.62756034  0.86935018  1
  O  O423  1  0.62760637  0.12244882  0.37620642  1
  O  O424  1  0.62419177  0.13115026  0.88146405  1
  O  O425  1  0.62902765  0.63631300  0.37131058  1
  O  O426  1  0.63003094  0.63110609  0.88393288  1
