# generated using pymatgen
data_V85Zn86O256
_symmetry_space_group_name_H-M   'P 1'
_cell_length_a   16.98822026
_cell_length_b   16.99243883
_cell_length_c   17.00114016
_cell_angle_alpha   90.03824606
_cell_angle_beta   90.01837281
_cell_angle_gamma   89.81664159
_symmetry_Int_Tables_number   1
_chemical_formula_structural   V85Zn86O256
_chemical_formula_sum   'V85 Zn86 O256'
_cell_volume   4907.71464943
_cell_formula_units_Z   1
loop_
 _symmetry_equiv_pos_site_id
 _symmetry_equiv_pos_as_xyz
  1  'x, y, z'
loop_
 _atom_site_type_symbol
 _atom_site_label
 _atom_site_symmetry_multiplicity
 _atom_site_fract_x
 _atom_site_fract_y
 _atom_site_fract_z
 _atom_site_occupancy
  V  V0  1  0.49986232  0.50011802  0.50195175  1
  V  V1  1  0.13582267  0.87975509  0.73463974  1
  V  V2  1  0.00372089  0.00560458  0.51898928  1
  V  V3  1  0.62387396  0.24771517  0.87295973  1
  V  V4  1  0.75224255  0.00402958  0.74395088  1
  V  V5  1  0.37401642  0.24499897  0.62469693  1
  V  V6  1  0.37456463  0.37408766  0.49971879  1
  V  V7  1  -0.00770307  0.23656936  0.75178854  1
  V  V8  1  0.87883217  0.73624868  0.62557385  1
  V  V9  1  0.11069077  0.50161326  0.62242765  1
  V  V10  1  0.25094176  0.62700129  0.88301886  1
  V  V11  1  0.50563151  0.12205585  0.63059428  1
  V  V12  1  0.12642569  0.87478878  0.25025386  1
  V  V13  1  0.12697315  0.75142975  0.37688950  1
  V  V14  1  0.00291169  0.87138303  0.87205916  1
  V  V15  1  0.49847697  0.62391797  0.62700159  1
  V  V16  1  0.62948115  0.37419300  0.74436438  1
  V  V17  1  0.36950619  0.87525236  -0.00417304  1
  V  V18  1  0.38044977  0.12505162  0.23271055  1
  V  V19  1  0.87815873  0.87410423  0.50367416  1
  V  V20  1  0.86972903  0.24160743  0.62588207  1
  V  V21  1  0.12596551  0.12859362  -0.00215977  1
  V  V22  1  0.36709104  0.87794127  0.50581876  1
  V  V23  1  0.63026982  0.12311415  0.50281249  1
  V  V24  1  -0.00412492  -0.00495212  -0.00184665  1
  V  V25  1  0.62773945  0.62573666  0.50860875  1
  V  V26  1  0.62071073  0.00360656  0.12800706  1
  V  V27  1  0.11831309  0.37358122  0.75005671  1
  V  V28  1  0.12519241  0.25197295  0.87623428  1
  V  V29  1  0.49698596  0.00656838  0.00252596  1
  V  V30  1  0.75346609  0.87721749  0.11646212  1
  V  V31  1  0.48860506  0.37537362  0.87427064  1
  V  V32  1  0.25486716  0.62435067  0.37866169  1
  V  V33  1  0.87224178  0.24991104  0.12514937  1
  V  V34  1  0.37628374  0.37175442  0.00387164  1
  V  V35  1  0.13099871  0.74933948  0.88675376  1
  V  V36  1  0.50037719  0.75233743  0.75224150  1
  V  V37  1  0.74456507  0.87509542  0.62504985  1
  V  V38  1  0.62027710  0.51272097  0.12257882  1
  V  V39  1  0.25121783  0.49650898  0.75337716  1
  V  V40  1  0.50732851  -0.00122782  0.50539447  1
  V  V41  1  0.50090791  0.74867481  0.24759826  1
  V  V42  1  0.49997630  0.87603322  0.37750548  1
  V  V43  1  0.00520786  0.62542598  0.11379692  1
  V  V44  1  0.62741591  0.24903868  0.37521198  1
  V  V45  1  -0.00299464  0.12367581  0.12768497  1
  V  V46  1  0.88058187  0.38914894  -0.00269331  1
  V  V47  1  0.75208084  0.74882618  0.50321025  1
  V  V48  1  0.87266154  0.75414649  0.11119088  1
  V  V49  1  0.25024642  0.24940755  0.00364980  1
  V  V50  1  0.49693093  0.50799863  -0.00275761  1
  V  V51  1  0.37970937  0.62696730  0.24666753  1
  V  V52  1  0.75165174  0.25183611  -0.00115423  1
  V  V53  1  0.12993326  0.50886074  0.10844419  1
  V  V54  1  0.25067400  0.37771417  0.12959243  1
  V  V55  1  0.24984597  0.37498428  0.62681943  1
  V  V56  1  0.37540067  0.00453255  0.37447824  1
  V  V57  1  0.62427896  0.12417024  0.00149139  1
  V  V58  1  0.49247453  0.24470610  0.75257279  1
  V  V59  1  0.75238886  0.00092842  0.25179949  1
  V  V60  1  0.36725240  0.75412651  0.62703485  1
  V  V61  1  0.11520238  0.62131412  0.50351416  1
  V  V62  1  0.87658759  0.62240678  0.76759353  1
  V  V63  1  -0.00678553  0.75242294  0.25144779  1
  V  V64  1  0.62651825  0.74989611  0.37707299  1
  V  V65  1  0.88089866  0.00350824  0.37680809  1
  V  V66  1  0.37944048  0.50293247  0.37274564  1
  V  V67  1  0.37855772  0.74838006  0.11994663  1
  V  V68  1  0.50083945  0.37178961  0.37400647  1
  V  V69  1  0.11795510  0.25815988  0.36468816  1
  V  V70  1  0.62603409  0.88008623  0.75234758  1
  V  V71  1  0.87798320  -0.00077837  0.87251787  1
  V  V72  1  0.36467467  0.01325229  0.86772421  1
  V  V73  1  0.25101323  0.00062638  0.24943881  1
  V  V74  1  0.00748647  0.74316246  0.74648207  1
  V  V75  1  0.50205669  0.87542740  0.87526330  1
  V  V76  1  0.24723181  0.24990027  0.49181707  1
  V  V77  1  0.75713070  0.49915581  0.75100454  1
  V  V78  1  0.24938789  0.86877974  0.12136462  1
  V  V79  1  0.75851284  0.12460996  0.87199519  1
  V  V80  1  0.88221393  0.38663437  0.50401637  1
  V  V81  1  0.37402479  0.61948109  0.75349598  1
  V  V82  1  0.12414801  -0.00120226  0.12338696  1
  V  V83  1  0.49885722  0.24359935  0.23455234  1
  V  V84  1  0.62628557  0.37364123  0.24452419  1
  Zn  Zn85  1  0.62624316  0.87515549  0.25086135  1
  Zn  Zn86  1  0.87500422  0.61996996  0.25221732  1
  Zn  Zn87  1  -0.09383869  0.49189605  0.36622914  1
  Zn  Zn88  1  -0.00159626  0.38787071  0.87735011  1
  Zn  Zn89  1  0.74361402  0.75368854  0.98341028  1
  Zn  Zn90  1  0.87409423  0.12902397  0.25339204  1
  Zn  Zn91  1  0.75988100  0.61964431  0.37536215  1
  Zn  Zn92  1  -0.00604392  0.25865775  0.25306228  1
  Zn  Zn93  1  0.74764827  0.26445887  0.50944613  1
  Zn  Zn94  1  0.75316981  0.12740002  0.37839490  1
  Zn  Zn95  1  0.24687146  0.75293459  0.50517712  1
  Zn  Zn96  1  0.61892221  0.64527099  -0.00898402  1
  Zn  Zn97  1  0.12151243  0.12002173  0.49916104  1
  Zn  Zn98  1  0.00317055  0.87716541  0.37826622  1
  Zn  Zn99  1  0.24818726  0.01122966  0.73910626  1
  Zn  Zn100  1  0.75408356  0.60173596  0.89679794  1
  Zn  Zn101  1  0.25074647  0.50185774  0.24686037  1
  Zn  Zn102  1  0.24796529  0.12951778  0.36874644  1
  Zn  Zn103  1  0.74585498  0.37757444  0.12268373  1
  Zn  Zn104  1  0.75408923  0.50243133  0.25189007  1
  Zn  Zn105  1  0.63031691  0.49354814  0.62441312  1
  Zn  Zn106  1  0.08108953  0.41781246  0.27341867  1
  Zn  Zn107  1  0.18985817  0.18730028  0.18417052  1
  Zn  Zn108  1  0.18495634  0.14196217  0.66356387  1
  Zn  Zn109  1  0.18911611  0.68809294  0.18727086  1
  Zn  Zn110  1  0.18745592  0.68434870  0.68929475  1
  Zn  Zn111  1  0.68802532  0.18444782  0.18775387  1
  Zn  Zn112  1  0.68774207  0.18804897  0.68850235  1
  Zn  Zn113  1  0.69005019  0.68746355  0.18781354  1
  Zn  Zn114  1  0.68154688  0.69866022  0.80073649  1
  Zn  Zn115  1  0.31642719  0.31095919  0.30948022  1
  Zn  Zn116  1  0.30192852  0.19218481  0.80899161  1
  Zn  Zn117  1  0.31313656  0.81369178  0.31380649  1
  Zn  Zn118  1  0.31039186  0.81490411  0.81146875  1
  Zn  Zn119  1  0.81350006  0.31885640  0.31895390  1
  Zn  Zn120  1  0.81284437  0.31687360  0.81345036  1
  Zn  Zn121  1  0.81024678  0.81640825  0.31573340  1
  Zn  Zn122  1  0.82232692  0.81521959  0.81184752  1
  Zn  Zn123  1  0.06253326  0.42905812  0.44726239  1
  Zn  Zn124  1  0.18889160  0.43759273  0.93472182  1
  Zn  Zn125  1  0.18717530  0.94102268  0.43962618  1
  Zn  Zn126  1  0.18577784  0.93662477  0.93520439  1
  Zn  Zn127  1  0.69588272  0.43724061  0.43905091  1
  Zn  Zn128  1  0.68097435  0.43396455  0.93459815  1
  Zn  Zn129  1  0.69039910  0.93761933  0.43701324  1
  Zn  Zn130  1  0.68660507  0.93696946  0.93677765  1
  Zn  Zn131  1  0.30828854  0.06000081  0.05921989  1
  Zn  Zn132  1  0.31686363  0.06531008  0.56091818  1
  Zn  Zn133  1  0.32014502  0.56135051  0.06176958  1
  Zn  Zn134  1  0.30774412  0.56156664  0.56338363  1
  Zn  Zn135  1  0.81346568  0.06198728  0.05994745  1
  Zn  Zn136  1  0.81780076  0.06366717  0.56512424  1
  Zn  Zn137  1  0.80414095  0.57108569  0.07538460  1
  Zn  Zn138  1  0.81188717  0.55622654  0.56706411  1
  Zn  Zn139  1  0.44166171  0.43694383  0.18428132  1
  Zn  Zn140  1  0.43738001  0.43596103  0.68948782  1
  Zn  Zn141  1  0.43879696  0.93510025  0.18741193  1
  Zn  Zn142  1  0.43494643  0.94108121  0.68868844  1
  Zn  Zn143  1  0.93335725  0.44134906  0.17738285  1
  Zn  Zn144  1  0.93300642  0.43180192  0.68408400  1
  Zn  Zn145  1  0.93694263  0.93576789  0.18973847  1
  Zn  Zn146  1  0.93716920  0.93333276  0.69132803  1
  Zn  Zn147  1  0.06401839  0.06911063  0.31528779  1
  Zn  Zn148  1  0.07101194  0.06341044  0.81197454  1
  Zn  Zn149  1  0.06948299  0.57620404  0.30401866  1
  Zn  Zn150  1  0.06745687  0.56407532  0.81246595  1
  Zn  Zn151  1  0.56238145  0.06461748  0.31416035  1
  Zn  Zn152  1  0.56522476  0.05943550  0.81443099  1
  Zn  Zn153  1  0.59199098  0.54812428  0.32923686  1
  Zn  Zn154  1  0.56582565  0.55782951  0.81457634  1
  Zn  Zn155  1  0.44183909  0.18515838  0.43531688  1
  Zn  Zn156  1  0.43622750  0.18833044  0.94328661  1
  Zn  Zn157  1  0.43946531  0.69083863  0.43956069  1
  Zn  Zn158  1  0.43510038  0.69076707  0.93448354  1
  Zn  Zn159  1  0.93732862  0.19118707  0.44149901  1
  Zn  Zn160  1  0.94053008  0.18937201  0.93828402  1
  Zn  Zn161  1  0.93717263  0.68360444  0.43275936  1
  Zn  Zn162  1  0.94380041  0.56111422  0.94580666  1
  Zn  Zn163  1  0.05405899  0.32555492  0.08843434  1
  Zn  Zn164  1  0.06799741  0.28837763  0.57270714  1
  Zn  Zn165  1  0.05887665  0.81141078  0.06080800  1
  Zn  Zn166  1  0.06050649  0.81201858  0.56266041  1
  Zn  Zn167  1  0.56343622  0.31345144  0.06024901  1
  Zn  Zn168  1  0.56121117  0.30885695  0.56299823  1
  Zn  Zn169  1  0.56172705  0.81992460  0.06435750  1
  Zn  Zn170  1  0.56155228  0.81166958  0.56753978  1
  O  O171  1  0.11604394  0.11966059  0.11752127  1
  O  O172  1  0.11185394  0.17949095  0.59444609  1
  O  O173  1  0.11347840  0.62913218  0.12346215  1
  O  O174  1  0.13248299  0.61055736  0.61703473  1
  O  O175  1  0.63206651  0.11080461  0.11736432  1
  O  O176  1  0.61401443  0.13113208  0.61702082  1
  O  O177  1  0.61967744  0.61349681  0.12660207  1
  O  O178  1  0.61296913  0.62701837  0.61346499  1
  O  O179  1  0.38190785  0.38083572  0.38092279  1
  O  O180  1  0.38837767  0.37285128  0.88623072  1
  O  O181  1  0.38000580  0.88610281  0.38205940  1
  O  O182  1  0.37872364  0.88384379  0.88132827  1
  O  O183  1  0.87759273  0.37777315  0.39202825  1
  O  O184  1  0.87607584  0.37144295  0.89499332  1
  O  O185  1  0.87525541  0.88107235  0.39049747  1
  O  O186  1  0.89510239  0.88300889  0.87006292  1
  O  O187  1  0.25881992  0.00215997  0.36828550  1
  O  O188  1  0.26472274  -0.00156676  0.87748885  1
  O  O189  1  0.26322144  0.51813533  0.36702256  1
  O  O190  1  0.24186289  0.50934230  0.85948657  1
  O  O191  1  0.76177195  0.00009959  0.36940888  1
  O  O192  1  0.75852803  0.00458248  0.86958179  1
  O  O193  1  0.70569068  0.51452918  0.35975665  1
  O  O194  1  0.74492322  0.49178022  0.85904258  1
  O  O195  1  0.24899842  0.49700586  0.12413625  1
  O  O196  1  0.24730506  0.49191340  0.63363574  1
  O  O197  1  0.24405615  0.98851620  0.12892769  1
  O  O198  1  0.23622564  1.03838973  0.62859667  1
  O  O199  1  0.73158125  0.49738398  0.12987680  1
  O  O200  1  0.74484942  0.50376235  0.64418056  1
  O  O201  1  0.74773136  0.99495483  0.13222468  1
  O  O202  1  0.76021264  0.99231853  0.63716811  1
  O  O203  1  0.01134362  0.36244952  0.20456204  1
  O  O204  1  0.00991774  0.37759056  0.75337233  1
  O  O205  1  0.00990783  0.86888769  0.25207536  1
  O  O206  1  0.00974138  0.86658916  0.75544957  1
  O  O207  1  0.50689909  0.36418701  0.25329952  1
  O  O208  1  0.50217052  0.36594199  0.75799986  1
  O  O209  1  0.50191602  0.86668180  0.25930939  1
  O  O210  1  0.50673595  0.87725867  0.75628717  1
  O  O211  1  0.49306714  0.13192384  0.25217580  1
  O  O212  1  0.50833739  0.13207179  0.74261087  1
  O  O213  1  0.48827332  0.64230489  0.25777731  1
  O  O214  1  0.49386312  0.62751842  0.74452965  1
  O  O215  1  0.99728528  0.12544236  0.23586493  1
  O  O216  1  1.00193549  0.13855739  0.75618895  1
  O  O217  1  0.99934504  0.64046760  0.23824965  1
  O  O218  1  0.99458193  0.63715621  0.75423121  1
  O  O219  1  0.36325682  0.25807439  -0.00341041  1
  O  O220  1  0.37659847  0.25696420  0.50328111  1
  O  O221  1  0.38281046  0.76219801  0.00938918  1
  O  O222  1  0.37584351  0.76151026  0.50835900  1
  O  O223  1  0.86691538  0.25107069  0.00846816  1
  O  O224  1  0.87167205  0.25203403  0.51389018  1
  O  O225  1  0.86878284  0.75542199  0.01483949  1
  O  O226  1  0.87452284  0.75531681  0.50571765  1
  O  O227  1  0.13959621  0.26818045  0.47878217  1
  O  O228  1  0.12612688  0.24564553  0.99623950  1
  O  O229  1  0.12788836  0.74558120  0.49341943  1
  O  O230  1  0.12599929  0.75531937  0.98505459  1
  O  O231  1  0.62766614  0.24289438  0.49377481  1
  O  O232  1  0.63206234  0.24477841  0.99348554  1
  O  O233  1  0.63077442  0.74620752  0.49806315  1
  O  O234  1  0.63053733  0.75694722  1.00778416  1
  O  O235  1  0.50645621  0.24850721  0.13561894  1
  O  O236  1  0.49438977  0.24402484  0.63435894  1
  O  O237  1  0.48909171  0.76229625  0.13645398  1
  O  O238  1  0.49057826  0.73979922  0.63011281  1
  O  O239  1  0.98731484  0.23559770  0.11769012  1
  O  O240  1  0.98380615  0.25693734  0.64681413  1
  O  O241  1  0.98973907  0.75051282  0.13069300  1
  O  O242  1  0.99015611  0.75605504  0.63462708  1
  O  O243  1  0.01251620  0.24572001  0.37006952  1
  O  O244  1  0.00462946  0.25608101  0.86870538  1
  O  O245  1  0.01017543  0.75300635  0.36830710  1
  O  O246  1  0.01713012  0.75959429  0.86417444  1
  O  O247  1  0.51167307  0.25332269  0.37042574  1
  O  O248  1  0.50199098  0.25266192  0.86803376  1
  O  O249  1  0.50515636  0.75953074  0.37140270  1
  O  O250  1  0.49198670  0.76797367  0.86809674  1
  O  O251  1  0.25736827  0.14357927  0.49131117  1
  O  O252  1  0.23768521  0.13506314  1.00883560  1
  O  O253  1  0.24529743  0.62825924  0.49150593  1
  O  O254  1  0.26683236  0.62189856  0.98093049  1
  O  O255  1  0.73685782  0.12059614  0.50225290  1
  O  O256  1  0.74590448  0.13366116  0.99230968  1
  O  O257  1  0.74165022  0.62880753  0.50044208  1
  O  O258  1  0.74153950  0.63290038  1.00491606  1
  O  O259  1  0.25999688  0.37043672  0.00307139  1
  O  O260  1  0.26815257  0.36645103  0.50535521  1
  O  O261  1  0.26149078  0.88106192  0.00693402  1
  O  O262  1  0.26417771  0.87650907  0.49764391  1
  O  O263  1  0.75371600  0.36224264  -0.00281525  1
  O  O264  1  0.76650701  0.37747430  0.50039672  1
  O  O265  1  0.74991642  0.88054595  0.01419027  1
  O  O266  1  0.75738971  0.87261046  0.50773449  1
  O  O267  1  0.13513207  0.51035088  0.23127586  1
  O  O268  1  0.13197071  0.49752374  0.73758160  1
  O  O269  1  0.12989057  0.99516163  0.24394353  1
  O  O270  1  0.12478694  0.98196483  0.75564476  1
  O  O271  1  0.60744337  0.48797070  0.23153836  1
  O  O272  1  0.63050024  0.48934527  0.74615419  1
  O  O273  1  0.63104134  1.00055958  0.24455797  1
  O  O274  1  0.63566237  0.98950141  0.75159415  1
  O  O275  1  0.37285195  0.00392997  0.25707696  1
  O  O276  1  0.37013237  -0.00087535  0.76446330  1
  O  O277  1  0.38136826  0.51198438  0.25344545  1
  O  O278  1  0.36587758  0.50834265  0.74516652  1
  O  O279  1  0.86870301  0.00059093  0.25899336  1
  O  O280  1  0.86736173  -0.00425735  0.76297883  1
  O  O281  1  0.87154184  0.49741005  0.25194148  1
  O  O282  1  0.86630681  0.50726481  0.74504588  1
  O  O283  1  0.12523135  0.36246311  0.36493673  1
  O  O284  1  0.12301835  0.36799025  0.86871174  1
  O  O285  1  0.12808733  0.86425929  0.37184821  1
  O  O286  1  0.12205801  0.86590396  0.86850304  1
  O  O287  1  0.61812248  0.36600223  0.36838925  1
  O  O288  1  0.61443525  0.36422373  0.86557557  1
  O  O289  1  0.62085049  0.86405550  0.37683655  1
  O  O290  1  0.61332383  0.88421227  0.86604466  1
  O  O291  1  0.37586764  0.11510749  0.13398023  1
  O  O292  1  0.39253665  0.13876088  0.61474175  1
  O  O293  1  0.37318840  0.63907291  0.13193909  1
  O  O294  1  0.38022239  0.63129802  0.63288835  1
  O  O295  1  0.87998632  0.13108778  0.12613928  1
  O  O296  1  0.87499628  0.14175437  0.62534727  1
  O  O297  1  0.88352984  0.64076126  0.13035510  1
  O  O298  1  0.86989519  0.63504739  0.63238063  1
  O  O299  1  0.24160402  0.26192640  0.11197614  1
  O  O300  1  0.26365913  0.25776719  0.61440246  1
  O  O301  1  0.25951815  0.76295554  0.12975499  1
  O  O302  1  0.26431948  0.74416353  0.62412429  1
  O  O303  1  0.75519803  0.24790913  0.11531953  1
  O  O304  1  0.76367507  0.24947989  0.62981050  1
  O  O305  1  0.76349448  0.76120442  0.13363599  1
  O  O306  1  0.76381472  0.76271185  0.61644776  1
  O  O307  1  0.24584878  0.25131711  0.37690008  1
  O  O308  1  0.23289754  0.24957787  0.88831270  1
  O  O309  1  0.24535107  0.74279784  0.37721116  1
  O  O310  1  0.23921026  0.74467876  0.86971077  1
  O  O311  1  0.73719064  0.24825558  0.37713878  1
  O  O312  1  0.74681403  0.24157654  0.87918028  1
  O  O313  1  0.74157550  0.74858726  0.38375590  1
  O  O314  1  0.75430705  0.75120483  0.86926019  1
  O  O315  1  0.00339703  0.11400256  0.00920906  1
  O  O316  1  -0.00568677  0.10567627  0.49672981  1
  O  O317  1  -0.00600081  0.63781867  0.01602647  1
  O  O318  1  0.01673231  0.62944860  0.49640135  1
  O  O319  1  0.50566337  0.11313341  -0.00401958  1
  O  O320  1  0.51155073  0.11771180  0.50522998  1
  O  O321  1  0.49966441  0.61114712  -0.01000514  1
  O  O322  1  0.50217995  0.62137429  0.50962496  1
  O  O323  1  0.49197860  0.37843649  0.49664580  1
  O  O324  1  0.49468623  0.37750272  0.99359801  1
  O  O325  1  0.49443641  0.88310190  0.49819986  1
  O  O326  1  0.49004624  0.88778888  0.99301887  1
  O  O327  1  0.98973772  0.36472509  0.50757668  1
  O  O328  1  0.98165114  0.37481843  1.00607075  1
  O  O329  1  0.99315719  0.88537587  0.49944936  1
  O  O330  1  1.00861773  0.88869984  0.99067072  1
  O  O331  1  0.49910884  0.49282506  0.38264339  1
  O  O332  1  0.50767720  0.48778906  0.88860329  1
  O  O333  1  0.49484198  0.99484050  0.38289611  1
  O  O334  1  0.48924973  0.99417721  0.88045662  1
  O  O335  1  1.02211135  0.48768593  0.35744719  1
  O  O336  1  1.00755557  0.50086600  0.87950980  1
  O  O337  1  0.98816184  0.99743482  0.37211599  1
  O  O338  1  0.99587337  0.99628920  0.87946595  1
  O  O339  1  0.00284968  0.00224292  0.11729701  1
  O  O340  1  -0.00459625  -0.00082873  0.61727759  1
  O  O341  1  0.00940089  0.51959343  0.12235382  1
  O  O342  1  0.01318244  0.50082369  0.63144753  1
  O  O343  1  0.50886511  -0.00695491  0.11532543  1
  O  O344  1  0.49503283  0.00979656  0.61665717  1
  O  O345  1  0.50771007  0.49526383  0.10797089  1
  O  O346  1  0.49823913  0.51168259  0.62159569  1
  O  O347  1  0.26308292  0.37776744  0.23275420  1
  O  O348  1  0.23418570  0.38355247  0.74342276  1
  O  O349  1  0.24637820  0.88069288  0.24224081  1
  O  O350  1  0.23882545  0.87912819  0.74832585  1
  O  O351  1  0.73366576  0.37522810  0.25062063  1
  O  O352  1  0.74055150  0.38276877  0.75307476  1
  O  O353  1  0.74814552  0.88767501  0.24535465  1
  O  O354  1  0.74505694  0.88219966  0.74354726  1
  O  O355  1  0.26055322  0.11781682  0.24770683  1
  O  O356  1  0.22624164  0.12553451  0.76414511  1
  O  O357  1  0.26622889  0.63181352  0.25681553  1
  O  O358  1  0.25796280  0.61690321  0.75354263  1
  O  O359  1  0.75167501  0.11182174  0.25283071  1
  O  O360  1  0.74206257  0.11386951  0.75964382  1
  O  O361  1  0.75554166  0.62429299  0.25439071  1
  O  O362  1  0.76041768  0.61265294  0.75965710  1
  O  O363  1  0.37751725  0.11197236  0.37028350  1
  O  O364  1  0.37388686  0.11682635  0.87539154  1
  O  O365  1  0.37257895  0.62520544  0.36987179  1
  O  O366  1  0.36922789  0.63371888  0.85857510  1
  O  O367  1  0.87232035  0.11816880  0.37430759  1
  O  O368  1  0.86409114  0.11934622  0.87932629  1
  O  O369  1  0.87725816  0.60958094  0.37383632  1
  O  O370  1  0.87411974  0.62103090  0.86949211  1
  O  O371  1  0.14175998  0.39238080  0.11382293  1
  O  O372  1  0.12817300  0.38291089  0.63075416  1
  O  O373  1  0.13270944  0.87695229  0.12774443  1
  O  O374  1  0.12543673  0.87188409  0.63643841  1
  O  O375  1  0.62627213  0.37843847  0.13127563  1
  O  O376  1  0.61499608  0.37295946  0.64049809  1
  O  O377  1  0.63437410  0.88933600  0.13037934  1
  O  O378  1  0.63855939  0.87411539  0.62923482  1
  O  O379  1  0.12582481  0.24306538  0.26182421  1
  O  O380  1  0.10910129  0.26068423  0.76106686  1
  O  O381  1  0.11956715  0.75559212  0.25782266  1
  O  O382  1  0.12133825  0.75909367  0.74970157  1
  O  O383  1  0.61976281  0.25265673  0.25585457  1
  O  O384  1  0.61542945  0.25437550  0.75534179  1
  O  O385  1  0.61753651  0.75087651  0.25906334  1
  O  O386  1  0.61361039  0.76886276  0.74383856  1
  O  O387  1  0.38711408  0.23670892  0.25376868  1
  O  O388  1  0.38390634  0.24517284  0.74219844  1
  O  O389  1  0.38187655  0.74902662  0.24289881  1
  O  O390  1  0.38058862  0.74672852  0.74258109  1
  O  O391  1  0.87248554  0.25174635  0.23806213  1
  O  O392  1  0.88482589  0.25575013  0.74765436  1
  O  O393  1  0.88792812  0.75545775  0.25461372  1
  O  O394  1  0.88529587  0.74071248  0.74367608  1
  O  O395  1  0.38033150  0.49357669  0.49475582  1
  O  O396  1  0.39146782  0.49196117  1.00058245  1
  O  O397  1  0.38457396  0.99615740  0.49371914  1
  O  O398  1  0.38001148  0.99624507  0.99156227  1
  O  O399  1  0.88135230  0.48998896  0.50323908  1
  O  O400  1  0.86787468  0.49278651  1.00799472  1
  O  O401  1  0.88303987  0.99306580  0.49613845  1
  O  O402  1  0.88360878  1.00317067  0.98640371  1
  O  O403  1  0.11975389  0.00784696  0.00443928  1
  O  O404  1  0.10780228  -0.00007528  0.49674363  1
  O  O405  1  0.13622393  0.50885152  0.00850361  1
  O  O406  1  0.12506409  0.50433383  0.51434496  1
  O  O407  1  0.61657289  0.00354531  0.00668504  1
  O  O408  1  0.61443822  0.00546976  0.49479974  1
  O  O409  1  0.61475104  0.49603706  0.01076592  1
  O  O410  1  0.61753595  0.50823668  0.50595429  1
  O  O411  1  0.36994075  0.37976069  0.11102153  1
  O  O412  1  0.37575509  0.36477606  0.61876169  1
  O  O413  1  0.36785200  0.87120367  0.11721433  1
  O  O414  1  0.38209753  0.86720117  0.61717905  1
  O  O415  1  0.86448199  0.36668715  0.11141975  1
  O  O416  1  0.87482930  0.36561015  0.61247224  1
  O  O417  1  0.86870958  0.86388136  0.13055598  1
  O  O418  1  0.86939823  0.87022414  0.61595455  1
  O  O419  1  0.12942937  0.13654605  0.38138994  1
  O  O420  1  0.11278712  0.13421523  0.89262449  1
  O  O421  1  0.13607196  0.63585652  0.38036621  1
  O  O422  1  0.13603082  0.64248468  0.86716015  1
  O  O423  1  0.62649331  0.13229872  0.38447416  1
  O  O424  1  0.63463770  0.12780802  0.88213542  1
  O  O425  1  0.61291034  0.64292250  0.39269288  1
  O  O426  1  0.63241575  0.62485999  0.87442887  1
