# generated using pymatgen
data_V85Zn86O256
_symmetry_space_group_name_H-M   'P 1'
_cell_length_a   16.93013690
_cell_length_b   16.93651791
_cell_length_c   16.92860387
_cell_angle_alpha   90.00276511
_cell_angle_beta   89.95411011
_cell_angle_gamma   89.99790798
_symmetry_Int_Tables_number   1
_chemical_formula_structural   V85Zn86O256
_chemical_formula_sum   'V85 Zn86 O256'
_cell_volume   4854.06511821
_cell_formula_units_Z   1
loop_
 _symmetry_equiv_pos_site_id
 _symmetry_equiv_pos_as_xyz
  1  'x, y, z'
loop_
 _atom_site_type_symbol
 _atom_site_label
 _atom_site_symmetry_multiplicity
 _atom_site_fract_x
 _atom_site_fract_y
 _atom_site_fract_z
 _atom_site_occupancy
  V  V0  1  0.43804743  0.43661285  0.43117445  1
  V  V1  1  0.87548801  0.24921513  0.12351317  1
  V  V2  1  0.24798837  0.75386155  0.00372258  1
  V  V3  1  0.12813194  0.62332620  0.49284887  1
  V  V4  1  0.37640405  0.74727875  0.62363832  1
  V  V5  1  0.50328018  0.75300947  0.24664320  1
  V  V6  1  0.00038269  0.74769651  0.75016046  1
  V  V7  1  0.74263565  -0.00593445  0.25299477  1
  V  V8  1  0.50720994  0.12819750  0.12322809  1
  V  V9  1  0.24801652  0.50721575  0.26280802  1
  V  V10  1  0.00061274  -0.00040650  0.00192090  1
  V  V11  1  0.25546497  0.37929574  0.12717710  1
  V  V12  1  0.62048480  0.49923115  0.12911177  1
  V  V13  1  0.13670144  -0.00523520  0.12330442  1
  V  V14  1  0.87205099  0.87673558  0.00410092  1
  V  V15  1  0.50403211  0.60847487  0.61841821  1
  V  V16  1  0.75738292  0.25014745  0.50268393  1
  V  V17  1  0.50061753  0.00334221  0.50015016  1
  V  V18  1  0.50063269  0.74939198  0.74744744  1
  V  V19  1  0.50599327  0.00612700  -0.00054698  1
  V  V20  1  0.75358069  0.50555264  0.24975070  1
  V  V21  1  0.37489959  0.87599918  0.49747329  1
  V  V22  1  -0.00291871  0.75316335  0.25397427  1
  V  V23  1  0.62199193  0.62323256  0.00034139  1
  V  V24  1  0.12555911  0.12699361  -0.00063212  1
  V  V25  1  0.25256576  0.74536054  0.49260691  1
  V  V26  1  0.49399851  0.62395728  0.12798721  1
  V  V27  1  -0.00380464  0.13528531  0.63050186  1
  V  V28  1  0.00126119  0.12284220  0.12381813  1
  V  V29  1  0.36668664  0.63014639  0.26389714  1
  V  V30  1  0.88112112  0.50147274  0.88063404  1
  V  V31  1  0.00010633  0.87367570  0.87667774  1
  V  V32  1  0.61522531  0.25244183  0.87969758  1
  V  V33  1  0.42078088  0.05863146  0.81536388  1
  V  V34  1  0.12785582  0.12104725  0.49752917  1
  V  V35  1  0.49629836  0.87513743  0.87315521  1
  V  V36  1  0.74634194  0.37898208  0.62681890  1
  V  V37  1  0.88068952  0.37765814  0.00280783  1
  V  V38  1  0.86356736  0.75283852  0.62636615  1
  V  V39  1  0.61440419  0.37145620  0.75206628  1
  V  V40  1  0.75400295  0.13034575  0.86584533  1
  V  V41  1  0.63431837  -0.01045579  0.62350561  1
  V  V42  1  0.87786367  0.50328008  0.37312827  1
  V  V43  1  0.49524746  0.49801255  -0.01163333  1
  V  V44  1  0.36838590  0.00699376  0.37313046  1
  V  V45  1  0.74663768  0.74942789  0.00164021  1
  V  V46  1  0.62908259  0.37400592  0.25480942  1
  V  V47  1  0.74447340  0.50107788  0.74875657  1
  V  V48  1  0.25125519  0.00599798  0.75166247  1
  V  V49  1  0.62675247  0.12704880  0.50612607  1
  V  V50  1  -0.00445068  0.62093829  0.12910169  1
  V  V51  1  0.25786470  0.25917432  0.51019258  1
  V  V52  1  0.62340242  0.25120074  0.38013257  1
  V  V53  1  0.12603872  0.74708544  0.87531631  1
  V  V54  1  0.37518300  0.38143218  -0.01401494  1
  V  V55  1  0.13813870  0.49674384  0.62652813  1
  V  V56  1  0.38330493  0.25189172  0.64484793  1
  V  V57  1  0.88149936  0.87887221  0.50478427  1
  V  V58  1  -0.00067815  0.37191961  0.37682397  1
  V  V59  1  -0.00073750  0.62237753  0.62307087  1
  V  V60  1  0.11548508  -0.00165403  0.62006740  1
  V  V61  1  0.12818813  0.87105740  0.74849647  1
  V  V62  1  0.87567041  0.12322148  0.25284443  1
  V  V63  1  0.13400974  0.24563161  0.37515018  1
  V  V64  1  0.74775490  0.24381241  0.00206560  1
  V  V65  1  0.62829726  0.75067480  0.37136142  1
  V  V66  1  0.24996585  0.87506824  0.62409284  1
  V  V67  1  0.87376565  0.74664194  0.13023607  1
  V  V68  1  0.87370921  0.62435946  0.75191521  1
  V  V69  1  -0.00016858  0.36825002  0.86692353  1
  V  V70  1  0.89171863  -0.00725592  0.37617441  1
  V  V71  1  0.13072789  0.87428848  0.24805812  1
  V  V72  1  0.49989103  0.25291637  0.25519837  1
  V  V73  1  0.87397141  0.00496189  0.87033525  1
  V  V74  1  0.36986439  0.75589633  0.12451633  1
  V  V75  1  0.12436822  0.37415963  0.24943088  1
  V  V76  1  0.36995767  0.88588234  -0.00101260  1
  V  V77  1  0.37571675  0.25671718  0.12808543  1
  V  V78  1  0.50808625  0.87822168  0.36973140  1
  V  V79  1  0.75582736  0.62777913  0.37571093  1
  V  V80  1  0.12183534  0.75501730  0.37609417  1
  V  V81  1  0.12091688  0.62113306  -0.00015739  1
  V  V82  1  0.12366607  0.24685192  0.86491033  1
  V  V83  1  0.11960654  0.49734475  0.12109420  1
  V  V84  1  0.37383932  0.61474817  0.75465840  1
  Zn  Zn85  1  0.36752843  0.13045199  0.25330765  1
  Zn  Zn86  1  0.62944469  0.61540685  0.50767219  1
  Zn  Zn87  1  0.87463330  0.25163671  0.64284569  1
  Zn  Zn88  1  0.74916182  0.62251568  0.87793379  1
  Zn  Zn89  1  0.25642846  0.48482802  0.76107448  1
  Zn  Zn90  1  0.24772212  0.25181243  -0.00002551  1
  Zn  Zn91  1  0.62454918  0.75125866  0.87621536  1
  Zn  Zn92  1  0.63291205  0.87052123  0.74862369  1
  Zn  Zn93  1  -0.00002598  0.49927131  0.50061910  1
  Zn  Zn94  1  0.75058027  0.37501489  0.12391928  1
  Zn  Zn95  1  0.87574159  0.37622138  0.50355360  1
  Zn  Zn96  1  0.25007396  0.00291142  0.25070197  1
  Zn  Zn97  1  0.00092148  0.24824118  0.25165694  1
  Zn  Zn98  1  0.25729977  0.61963966  0.88060782  1
  Zn  Zn99  1  0.12458750  0.36473548  0.73798583  1
  Zn  Zn100  1  0.25282054  0.12249341  0.87598334  1
  Zn  Zn101  1  0.74704198  0.75553195  0.50201791  1
  Zn  Zn102  1  0.49593122  0.12567907  0.63918161  1
  Zn  Zn103  1  0.75893996  -0.00494684  0.74283437  1
  Zn  Zn104  1  0.73761270  0.87245452  0.13026722  1
  Zn  Zn105  1  0.62438350  -0.00093489  0.12522545  1
  Zn  Zn106  1  0.75409974  0.12271852  0.37854752  1
  Zn  Zn107  1  0.19091527  0.18553218  0.18942868  1
  Zn  Zn108  1  0.19086920  0.18566346  0.68281022  1
  Zn  Zn109  1  0.18589175  0.68809149  0.18566974  1
  Zn  Zn110  1  0.19018887  0.68326247  0.68287944  1
  Zn  Zn111  1  0.68939684  0.18374757  0.18960767  1
  Zn  Zn112  1  0.68675443  0.19046574  0.68883687  1
  Zn  Zn113  1  0.68509307  0.68590383  0.18948407  1
  Zn  Zn114  1  0.68372084  0.68415975  0.68952216  1
  Zn  Zn115  1  0.30972552  0.31431881  0.31470621  1
  Zn  Zn116  1  0.30310743  0.30910891  0.80936576  1
  Zn  Zn117  1  0.31261175  0.81743219  0.31405636  1
  Zn  Zn118  1  0.31414612  0.80960187  0.81467359  1
  Zn  Zn119  1  0.81162123  0.31299156  0.31386339  1
  Zn  Zn120  1  0.80738621  0.31804191  0.81584317  1
  Zn  Zn121  1  0.81578546  0.81725223  0.31511698  1
  Zn  Zn122  1  0.81082503  0.81397075  0.81543743  1
  Zn  Zn123  1  0.18747378  0.43428165  0.44066480  1
  Zn  Zn124  1  0.18722004  0.43633134  0.93419856  1
  Zn  Zn125  1  0.18368297  0.93363028  0.43800955  1
  Zn  Zn126  1  0.18908344  0.93818106  0.93487634  1
  Zn  Zn127  1  0.68612800  0.43649100  0.44307922  1
  Zn  Zn128  1  0.69067127  0.43512986  0.93745378  1
  Zn  Zn129  1  0.69468989  0.93612857  0.43755301  1
  Zn  Zn130  1  0.68716156  0.93724524  0.93445542  1
  Zn  Zn131  1  0.31512738  0.06816262  0.06622054  1
  Zn  Zn132  1  0.31109014  0.06935531  0.56589977  1
  Zn  Zn133  1  0.30988439  0.56271370  0.06633489  1
  Zn  Zn134  1  0.31834747  0.56028457  0.55704716  1
  Zn  Zn135  1  0.81011013  0.06393426  0.06228750  1
  Zn  Zn136  1  0.81702805  0.06186209  0.55924825  1
  Zn  Zn137  1  0.81117965  0.56194194  0.06434175  1
  Zn  Zn138  1  0.81151697  0.56276826  0.56035587  1
  Zn  Zn139  1  0.45091685  0.45500021  0.23073772  1
  Zn  Zn140  1  0.43271854  0.43168127  0.68080364  1
  Zn  Zn141  1  0.43819943  0.93744298  0.18567821  1
  Zn  Zn142  1  0.44400336  0.93250061  0.67979711  1
  Zn  Zn143  1  0.93724768  0.43699742  0.19159476  1
  Zn  Zn144  1  0.93441767  0.43689700  0.68881808  1
  Zn  Zn145  1  0.93981387  0.93486371  0.18928455  1
  Zn  Zn146  1  0.93939378  0.93559364  0.68711455  1
  Zn  Zn147  1  0.06658471  0.06417568  0.30975642  1
  Zn  Zn148  1  0.06687782  0.05753539  0.81080787  1
  Zn  Zn149  1  0.06241669  0.56529351  0.31062179  1
  Zn  Zn150  1  0.06295581  0.55830297  0.81322169  1
  Zn  Zn151  1  0.56084223  0.07026938  0.31578893  1
  Zn  Zn152  1  0.58628536  0.06404350  0.81478072  1
  Zn  Zn153  1  0.57872770  0.54057624  0.35352842  1
  Zn  Zn154  1  0.56190019  0.56194581  0.81074950  1
  Zn  Zn155  1  0.43879488  0.18936406  0.44115752  1
  Zn  Zn156  1  0.43746992  0.19592631  0.94555365  1
  Zn  Zn157  1  0.44173175  0.68693358  0.43717401  1
  Zn  Zn158  1  0.43762716  0.68956024  0.93777526  1
  Zn  Zn159  1  0.94412056  0.18302804  0.44105601  1
  Zn  Zn160  1  0.93975315  0.18555596  0.81248479  1
  Zn  Zn161  1  0.93666618  0.69002594  0.43970678  1
  Zn  Zn162  1  0.93825834  0.68651062  0.94206145  1
  Zn  Zn163  1  0.05914210  0.31053180  0.05836141  1
  Zn  Zn164  1  0.06378885  0.31061733  0.55813038  1
  Zn  Zn165  1  0.06153981  0.81210999  0.06566404  1
  Zn  Zn166  1  0.05816497  0.81096346  0.56119297  1
  Zn  Zn167  1  0.56106208  0.31732223  0.06364446  1
  Zn  Zn168  1  0.55347752  0.31833472  0.56555223  1
  Zn  Zn169  1  0.56094320  0.81833972  0.06350691  1
  Zn  Zn170  1  0.56221250  0.80937775  0.55669793  1
  O  O171  1  0.11992599  0.11724131  0.11989259  1
  O  O172  1  0.11797046  0.11688271  0.62018756  1
  O  O173  1  0.11768447  0.61722186  0.11994809  1
  O  O174  1  0.11829125  0.61880821  0.61468893  1
  O  O175  1  0.61158365  0.12314377  0.12862694  1
  O  O176  1  0.62064493  0.11980664  0.61726636  1
  O  O177  1  0.61677663  0.62068110  0.11717421  1
  O  O178  1  0.60952890  0.62611617  0.62489603  1
  O  O179  1  0.37310547  0.37672370  0.38214326  1
  O  O180  1  0.37048580  0.37057190  0.88872597  1
  O  O181  1  0.38719454  0.88211420  0.38050994  1
  O  O182  1  0.38592189  0.87043009  0.88411242  1
  O  O183  1  0.88306255  0.38169618  0.37619080  1
  O  O184  1  0.88123138  0.38153075  0.88323139  1
  O  O185  1  0.88073697  0.88691779  0.38032881  1
  O  O186  1  0.88097557  0.87833042  0.88926368  1
  O  O187  1  0.26668287  -0.00833281  0.37873937  1
  O  O188  1  0.24837778  0.00094498  0.86071275  1
  O  O189  1  0.23818854  0.49966359  0.36193895  1
  O  O190  1  0.23921143  0.51006140  0.87123700  1
  O  O191  1  0.76070836  0.00234756  0.36485879  1
  O  O192  1  0.75848657  0.01222321  0.88102849  1
  O  O193  1  0.75886725  0.50765306  0.36886735  1
  O  O194  1  0.76167955  0.50057941  0.86916058  1
  O  O195  1  0.24016512  0.49155084  0.13061692  1
  O  O196  1  0.23924357  0.50493747  0.62439391  1
  O  O197  1  0.23932405  0.99920854  0.12330432  1
  O  O198  1  0.24385740  0.99309903  0.63082565  1
  O  O199  1  0.74181258  0.49961415  0.13386599  1
  O  O200  1  0.75261598  0.49279137  0.63445016  1
  O  O201  1  0.75085042  1.00240303  0.14018772  1
  O  O202  1  0.73807052  1.00567427  0.62274516  1
  O  O203  1  0.00618189  0.37231764  0.26049341  1
  O  O204  1  0.00572547  0.38059373  0.76236278  1
  O  O205  1  0.01050872  0.86023652  0.24471950  1
  O  O206  1  0.00784722  0.86678554  0.75499816  1
  O  O207  1  0.51269024  0.35973144  0.24558019  1
  O  O208  1  0.51688828  0.38496547  0.74848384  1
  O  O209  1  0.49321994  0.86330535  0.25718198  1
  O  O210  1  0.50126191  0.86629022  0.75597520  1
  O  O211  1  0.49606413  0.13742930  0.24392763  1
  O  O212  1  0.49274365  0.10883819  0.75959831  1
  O  O213  1  0.48570418  0.64190275  0.24384661  1
  O  O214  1  0.49303659  0.62921119  0.74147165  1
  O  O215  1  0.98951709  0.12498210  0.24330115  1
  O  O216  1  1.00472472  0.12085726  0.73637793  1
  O  O217  1  1.00597740  0.63772273  0.23756664  1
  O  O218  1  0.99367901  0.62925477  0.74399850  1
  O  O219  1  0.37226867  0.26561914  0.01056876  1
  O  O220  1  0.35762927  0.24575766  0.49422011  1
  O  O221  1  0.36733678  0.75687803  0.00552312  1
  O  O222  1  0.36857608  0.75416443  0.50182273  1
  O  O223  1  0.86644003  0.25765506  0.01621345  1
  O  O224  1  0.86330446  0.25010644  0.49785675  1
  O  O225  1  0.86807067  0.75590811  0.00978018  1
  O  O226  1  0.87369229  0.75773214  0.51058728  1
  O  O227  1  0.13293984  0.24227550  0.49474472  1
  O  O228  1  0.12510141  0.23950237  0.99516105  1
  O  O229  1  0.13041346  0.74522231  0.49368152  1
  O  O230  1  0.13104951  0.74535075  0.99751996  1
  O  O231  1  0.63135299  0.24494475  0.49698936  1
  O  O232  1  0.63397946  0.26309191  0.98979019  1
  O  O233  1  0.62669129  0.74745628  0.48407650  1
  O  O234  1  0.63039461  0.74170532  1.00208281  1
  O  O235  1  0.49441696  0.24693189  0.13119207  1
  O  O236  1  0.49038248  0.24337876  0.62558466  1
  O  O237  1  0.49155078  0.74668067  0.12973458  1
  O  O238  1  0.49410937  0.75012879  0.63227528  1
  O  O239  1  0.99201477  0.24216549  0.12741831  1
  O  O240  1  0.99907763  0.23953143  0.62602463  1
  O  O241  1  0.99166154  0.74323737  0.13063645  1
  O  O242  1  0.99394776  0.73865163  0.63098049  1
  O  O243  1  0.00811657  0.25676638  0.37459294  1
  O  O244  1  0.00837026  0.25671243  0.87499059  1
  O  O245  1  0.00716422  0.74353613  0.36483153  1
  O  O246  1  0.00409493  0.75521593  0.87114705  1
  O  O247  1  0.51396299  0.24307605  0.36934910  1
  O  O248  1  0.51655081  0.24981364  0.88306598  1
  O  O249  1  0.50752579  0.75726176  0.36741772  1
  O  O250  1  0.50046032  0.75775801  0.86723318  1
  O  O251  1  0.23404073  0.13364632  0.50518100  1
  O  O252  1  0.23729228  0.12435338  1.00116161  1
  O  O253  1  0.24188821  0.63491394  0.50603516  1
  O  O254  1  0.23691006  0.63234553  1.00333523  1
  O  O255  1  0.74395224  0.13283051  0.50102650  1
  O  O256  1  0.75489944  0.13885663  0.99320234  1
  O  O257  1  0.74802598  0.63189770  0.49104725  1
  O  O258  1  0.73942124  0.63131973  1.00244609  1
  O  O259  1  0.26091756  0.37753381  0.00960871  1
  O  O260  1  0.24137926  0.35763485  0.50413307  1
  O  O261  1  0.25862338  0.86678925  -0.00662739  1
  O  O262  1  0.25517475  0.86717783  0.50526289  1
  O  O263  1  0.76165824  0.36602397  0.00198469  1
  O  O264  1  0.74899365  0.36858876  0.50931800  1
  O  O265  1  0.75620810  0.86769637  0.00226227  1
  O  O266  1  0.77045142  0.86990924  0.49175306  1
  O  O267  1  0.12890203  0.49658847  0.23938509  1
  O  O268  1  0.12566172  0.50773588  0.73138803  1
  O  O269  1  0.12385917  0.99124285  0.24155413  1
  O  O270  1  0.13327939  0.98979953  0.74146929  1
  O  O271  1  0.63267091  0.49060921  0.25261006  1
  O  O272  1  0.63756729  0.49042595  0.76002661  1
  O  O273  1  0.64103909  1.00998539  0.25522059  1
  O  O274  1  0.62549397  0.99602195  0.73220562  1
  O  O275  1  0.37587380  -0.00263460  0.26393312  1
  O  O276  1  0.36964062  -0.00577549  0.74831887  1
  O  O277  1  0.35816607  0.51915069  0.23953138  1
  O  O278  1  0.37467463  0.51162362  0.74424089  1
  O  O279  1  0.87217486  0.00363261  0.25934046  1
  O  O280  1  0.87783132  -0.00727549  0.76616253  1
  O  O281  1  0.86764840  0.49677789  0.26239391  1
  O  O282  1  0.86603715  0.50593594  0.75800122  1
  O  O283  1  0.11749306  0.36768693  0.37071779  1
  O  O284  1  0.11375446  0.36198097  0.88283006  1
  O  O285  1  0.12300991  0.86257866  0.36898443  1
  O  O286  1  0.11949075  0.86683220  0.86986386  1
  O  O287  1  0.63439566  0.36408687  0.36276585  1
  O  O288  1  0.63186075  0.36432762  0.86451165  1
  O  O289  1  0.61469012  0.87178936  0.37769541  1
  O  O290  1  0.60881750  0.87374084  0.87650202  1
  O  O291  1  0.38264805  0.14222017  0.12637191  1
  O  O292  1  0.38076510  0.14022210  0.61972929  1
  O  O293  1  0.37666348  0.63975811  0.12655766  1
  O  O294  1  0.38543743  0.62936462  0.63232537  1
  O  O295  1  0.88042689  0.13047735  0.13161032  1
  O  O296  1  0.89331479  0.12469978  0.61896969  1
  O  O297  1  0.88358024  0.63386433  0.11945743  1
  O  O298  1  0.88090505  0.63235839  0.62921905  1
  O  O299  1  0.25591168  0.26282387  0.12480195  1
  O  O300  1  0.26194441  0.24602326  0.61683596  1
  O  O301  1  0.25420495  0.74996013  0.11263909  1
  O  O302  1  0.25588437  0.75508153  0.61519433  1
  O  O303  1  0.75545658  0.24977184  0.12063511  1
  O  O304  1  0.75200718  0.25651161  0.61811135  1
  O  O305  1  0.75616783  0.74946768  0.11864993  1
  O  O306  1  0.76080020  0.74517607  0.62696964  1
  O  O307  1  0.23767043  0.25239432  0.38215466  1
  O  O308  1  0.23846674  0.24271337  0.88149008  1
  O  O309  1  0.24207818  0.75601259  0.38630648  1
  O  O310  1  0.24515571  0.74290646  0.88609889  1
  O  O311  1  0.74144669  0.24694519  0.38287648  1
  O  O312  1  0.74578584  0.24551868  0.88482194  1
  O  O313  1  0.74525319  0.74487238  0.36932156  1
  O  O314  1  0.74936422  0.74568353  0.89124927  1
  O  O315  1  0.01324242  0.11432077  0.00850822  1
  O  O316  1  0.01518472  0.12852082  0.51500761  1
  O  O317  1  0.01271289  0.63184760  0.01342553  1
  O  O318  1  0.00828853  0.62547641  0.50757253  1
  O  O319  1  0.49175479  0.11755740  0.01033086  1
  O  O320  1  0.50928549  0.11321191  0.49675272  1
  O  O321  1  0.50267746  0.61893124  0.00753036  1
  O  O322  1  0.50003254  0.63163269  0.51676115  1
  O  O323  1  0.50368598  0.37895863  0.48466098  1
  O  O324  1  0.48370473  0.38429247  1.00725078  1
  O  O325  1  0.49601194  0.88557129  0.49202286  1
  O  O326  1  0.49019583  0.88368269  0.99157779  1
  O  O327  1  0.99817356  0.37701968  0.48827163  1
  O  O328  1  0.98600574  0.37080171  0.99147216  1
  O  O329  1  0.98299487  0.86829814  0.49788653  1
  O  O330  1  0.99246665  0.87885865  0.99737390  1
  O  O331  1  0.47967175  0.48836215  0.34617924  1
  O  O332  1  0.50117372  0.50342286  0.88946807  1
  O  O333  1  0.49599765  0.99432330  0.37948080  1
  O  O334  1  0.49429618  0.99914553  0.87643670  1
  O  O335  1  0.99439332  0.49430411  0.37368735  1
  O  O336  1  0.98762686  0.49306882  0.87377779  1
  O  O337  1  0.98986699  1.00075170  0.37017426  1
  O  O338  1  0.99513531  0.99353155  0.88199201  1
  O  O339  1  0.00631343  0.00392988  0.12040889  1
  O  O340  1  0.01203223  0.00543923  0.62861239  1
  O  O341  1  0.00605046  0.50871588  0.13208711  1
  O  O342  1  -0.00119731  0.51318612  0.62375251  1
  O  O343  1  0.49754621  0.01080824  0.11778940  1
  O  O344  1  0.51017949  0.00312812  0.61466586  1
  O  O345  1  0.50484251  0.50819874  0.13054743  1
  O  O346  1  0.49958286  0.51027244  0.62509263  1
  O  O347  1  0.24323855  0.38344658  0.24389628  1
  O  O348  1  0.23607334  0.37496428  0.75112771  1
  O  O349  1  0.23562452  0.87840798  0.25331001  1
  O  O350  1  0.24619279  0.87668138  0.74380892  1
  O  O351  1  0.74623980  0.38490112  0.24784368  1
  O  O352  1  0.74295603  0.38408340  0.74422993  1
  O  O353  1  0.75530961  0.89052773  0.24866514  1
  O  O354  1  0.74489061  0.88253197  0.76046600  1
  O  O355  1  0.25483258  0.11717442  0.24804280  1
  O  O356  1  0.24803027  0.10944398  0.74926353  1
  O  O357  1  0.25387918  0.62017499  0.24654177  1
  O  O358  1  0.26871638  0.62870720  0.74760754  1
  O  O359  1  0.76377687  0.11703124  0.25256799  1
  O  O360  1  0.74426736  0.11853837  0.76226388  1
  O  O361  1  0.74850619  0.61227634  0.25442958  1
  O  O362  1  0.75408657  0.61807389  0.75439631  1
  O  O363  1  0.38253205  0.10929002  0.37490651  1
  O  O364  1  0.37308149  0.12515576  0.87931101  1
  O  O365  1  0.37118443  0.63731198  0.36317348  1
  O  O366  1  0.37826160  0.62942743  0.85845808  1
  O  O367  1  0.87768018  0.11517644  0.36971027  1
  O  O368  1  0.86957480  0.11514695  0.87715239  1
  O  O369  1  0.86530632  0.62057653  0.37662231  1
  O  O370  1  0.87522185  0.61826767  0.87272951  1
  O  O371  1  0.12872883  0.38039982  0.12727830  1
  O  O372  1  0.11375365  0.39452007  0.62160788  1
  O  O373  1  0.12137752  0.88358782  0.13281114  1
  O  O374  1  0.12804747  0.87968249  0.62725998  1
  O  O375  1  0.62801562  0.38034234  0.13702995  1
  O  O376  1  0.63478104  0.36761102  0.63950826  1
  O  O377  1  0.62486279  0.88469953  0.12378048  1
  O  O378  1  0.62239119  0.88727063  0.62001883  1
  O  O379  1  0.12412633  0.25574538  0.25747915  1
  O  O380  1  0.12688308  0.24430538  0.76082181  1
  O  O381  1  0.12024510  0.75465042  0.25658872  1
  O  O382  1  0.12194599  0.75077849  0.75376268  1
  O  O383  1  0.62283476  0.25286292  0.25869083  1
  O  O384  1  0.62842977  0.26212537  0.76282330  1
  O  O385  1  0.61486800  0.74915318  0.25748570  1
  O  O386  1  0.61283991  0.74967644  0.75355678  1
  O  O387  1  0.38369442  0.25298638  0.24717107  1
  O  O388  1  0.37565113  0.24748334  0.74466031  1
  O  O389  1  0.37504468  0.74995057  0.24142062  1
  O  O390  1  0.38491814  0.74332145  0.74442634  1
  O  O391  1  0.87382899  0.24174536  0.24212029  1
  O  O392  1  0.86799044  0.24802059  0.75511669  1
  O  O393  1  0.88109532  0.75672892  0.23855344  1
  O  O394  1  0.87994345  0.74480271  0.74564121  1
  O  O395  1  0.38517673  0.50116246  0.49021220  1
  O  O396  1  0.37993229  0.48961067  1.00657010  1
  O  O397  1  0.38286262  0.99796161  0.49271973  1
  O  O398  1  0.37983593  0.98968380  1.00655203  1
  O  O399  1  0.87684613  0.49858415  0.48663525  1
  O  O400  1  0.86900972  0.49108368  0.99352774  1
  O  O401  1  0.87541380  0.99177405  0.48773876  1
  O  O402  1  0.87881318  0.99263867  0.99525874  1
  O  O403  1  0.12100696  0.00216856  0.00609942  1
  O  O404  1  0.13015416  0.00649062  0.50820825  1
  O  O405  1  0.12594305  0.50672151  0.01312486  1
  O  O406  1  0.12344657  0.50826093  0.50782972  1
  O  O407  1  0.60863013  0.00073494  -0.00374943  1
  O  O408  1  0.62274808  0.00577230  0.50602300  1
  O  O409  1  0.61746878  0.50376536  0.00687696  1
  O  O410  1  0.61099025  0.51334969  0.46164854  1
  O  O411  1  0.36705466  0.36815794  0.12957210  1
  O  O412  1  0.37913691  0.35295550  0.62311122  1
  O  O413  1  0.37931253  0.86386320  0.11506392  1
  O  O414  1  0.37138295  0.86793414  0.61578264  1
  O  O415  1  0.87575794  0.36797570  0.12130148  1
  O  O416  1  0.86336716  0.37243660  0.62352953  1
  O  O417  1  0.87359648  0.86828441  0.11540744  1
  O  O418  1  0.87895434  0.86812280  0.61601665  1
  O  O419  1  0.11773942  0.13301753  0.38471911  1
  O  O420  1  0.12307539  0.12957715  0.88326543  1
  O  O421  1  0.12099138  0.63445085  0.38649872  1
  O  O422  1  0.11797382  0.63194418  0.88527051  1
  O  O423  1  0.62967743  0.13122194  0.38890627  1
  O  O424  1  0.63648242  0.14287410  0.87783080  1
  O  O425  1  0.64085044  0.63762845  0.36705553  1
  O  O426  1  0.62388528  0.62633912  0.88946672  1
