# generated using pymatgen
data_V85Zn86O256
_symmetry_space_group_name_H-M   'P 1'
_cell_length_a   16.97472589
_cell_length_b   16.96300443
_cell_length_c   16.95666694
_cell_angle_alpha   90.10863260
_cell_angle_beta   89.97425071
_cell_angle_gamma   90.05242707
_symmetry_Int_Tables_number   1
_chemical_formula_structural   V85Zn86O256
_chemical_formula_sum   'V85 Zn86 O256'
_cell_volume   4882.53122638
_cell_formula_units_Z   1
loop_
 _symmetry_equiv_pos_site_id
 _symmetry_equiv_pos_as_xyz
  1  'x, y, z'
loop_
 _atom_site_type_symbol
 _atom_site_label
 _atom_site_symmetry_multiplicity
 _atom_site_fract_x
 _atom_site_fract_y
 _atom_site_fract_z
 _atom_site_occupancy
  V  V0  1  0.12632035  0.75123219  0.87810343  1
  V  V1  1  0.36679125  0.12451634  0.24979369  1
  V  V2  1  0.61918580  0.00003837  0.62672811  1
  V  V3  1  0.25535973  0.36914666  0.12593384  1
  V  V4  1  0.12470965  0.24828432  0.37123973  1
  V  V5  1  0.87484660  -0.00392348  0.88201380  1
  V  V6  1  0.25069636  0.74938741  -0.00010354  1
  V  V7  1  0.49337466  0.12363368  0.12357499  1
  V  V8  1  0.50244289  0.62540714  0.62761233  1
  V  V9  1  0.37508996  0.60265318  0.75714682  1
  V  V10  1  0.12761063  0.87533183  0.74876620  1
  V  V11  1  -0.01512642  0.62594529  0.13042288  1
  V  V12  1  0.37960619  -0.00025221  0.87421134  1
  V  V13  1  0.62166979  0.87492283  0.75345168  1
  V  V14  1  0.49921319  0.75431012  0.24900910  1
  V  V15  1  -0.00110464  0.50401656  0.50383555  1
  V  V16  1  0.75048289  0.11321833  0.37433356  1
  V  V17  1  0.88019085  0.87449687  0.49517138  1
  V  V18  1  0.25176160  -0.00047148  0.74929338  1
  V  V19  1  0.24921844  0.24816465  0.49285940  1
  V  V20  1  0.25253549  0.61112692  0.87366135  1
  V  V21  1  0.75667477  0.50056628  0.75689435  1
  V  V22  1  0.87566261  0.11837753  0.24915532  1
  V  V23  1  0.63523064  0.36326632  0.75979018  1
  V  V24  1  0.63633776  -0.00491352  0.12632357  1
  V  V25  1  0.12387509  0.50399375  0.12642381  1
  V  V26  1  0.24865279  0.87589794  0.13029289  1
  V  V27  1  0.37681892  0.24501510  0.61926269  1
  V  V28  1  0.00029704  -0.00213575  0.49103842  1
  V  V29  1  0.25046736  0.63574282  0.37356827  1
  V  V30  1  0.37871186  0.12244883  0.74363131  1
  V  V31  1  0.86624661  0.76019652  0.13407336  1
  V  V32  1  -0.05404049  0.28802379  0.19422836  1
  V  V33  1  0.67650555  0.32847996  0.19543206  1
  V  V34  1  0.50543741  0.49810094  0.49963830  1
  V  V35  1  0.49147350  0.38965645  0.87511059  1
  V  V36  1  0.62411245  0.75072633  0.37751589  1
  V  V37  1  0.62217755  0.61860015  -0.00116524  1
  V  V38  1  0.63405905  0.88137117  0.25004788  1
  V  V39  1  0.87617015  0.37557311  0.50321024  1
  V  V40  1  0.00221453  0.62683410  0.62543509  1
  V  V41  1  0.36662190  0.00080072  0.37941340  1
  V  V42  1  0.37736337  0.87402862  -0.00420872  1
  V  V43  1  0.00124410  0.37206592  0.37914203  1
  V  V44  1  0.37539509  0.50052449  0.37269478  1
  V  V45  1  0.62112458  0.75643250  0.87947723  1
  V  V46  1  0.63722854  0.50292190  0.13884921  1
  V  V47  1  0.25648427  0.86732694  0.61286342  1
  V  V48  1  0.49711711  0.24787381  0.74926957  1
  V  V49  1  0.63184085  0.12811487  -0.00581458  1
  V  V50  1  0.61849941  0.12334213  0.51041975  1
  V  V51  1  -0.00509284  0.49286988  -0.00710466  1
  V  V52  1  0.62831948  0.49680107  0.62970175  1
  V  V53  1  0.12257176  0.12011708  -0.00103758  1
  V  V54  1  0.50180524  -0.00533404  -0.00073517  1
  V  V55  1  0.25918723  0.24747831  -0.00273023  1
  V  V56  1  0.12304329  0.63368706  0.49500603  1
  V  V57  1  0.87055119  0.50374610  0.36475820  1
  V  V58  1  0.49246645  0.25199817  0.24395170  1
  V  V59  1  0.11438022  0.25232932  0.86633454  1
  V  V60  1  0.87973541  0.25032922  0.63422167  1
  V  V61  1  0.50465750  0.37482070  0.36780742  1
  V  V62  1  0.87774552  0.62250287  0.76209174  1
  V  V63  1  0.11705382  0.75852506  0.36911034  1
  V  V64  1  0.87568089  0.11984438  0.75399826  1
  V  V65  1  0.00305375  0.13087754  0.62542373  1
  V  V66  1  0.12575765  0.00157627  0.62370946  1
  V  V67  1  0.37438109  0.39078714  -0.00225458  1
  V  V68  1  0.00045810  0.75320083  0.75330778  1
  V  V69  1  0.62666331  0.24999765  0.37629909  1
  V  V70  1  0.75162740  0.24608308  0.50492712  1
  V  V71  1  0.74916932  0.74781382  0.50201248  1
  V  V72  1  0.37769441  0.37621497  0.49794714  1
  V  V73  1  0.87454239  0.75164644  0.62909100  1
  V  V74  1  0.75411296  0.37858526  0.62324660  1
  V  V75  1  0.49886568  0.61670865  0.12242540  1
  V  V76  1  0.49588788  0.87759034  0.38424479  1
  V  V77  1  0.37615679  0.62569148  0.24842690  1
  V  V78  1  0.49324551  0.75229248  0.75716467  1
  V  V79  1  0.75182603  0.62344215  0.36175866  1
  V  V80  1  0.24920926  0.49885262  0.25428038  1
  V  V81  1  0.12254628  0.37230526  0.25049457  1
  V  V82  1  0.12910282  0.12665188  0.49359624  1
  V  V83  1  0.75019581  0.75983088  0.00202569  1
  V  V84  1  -0.00340990  0.11602833  0.12324481  1
  Zn  Zn85  1  0.87891550  0.88086306  0.00703365  1
  Zn  Zn86  1  0.81065081  0.30738520  0.05451447  1
  Zn  Zn87  1  0.74938649  0.87652717  0.62683822  1
  Zn  Zn88  1  0.61883743  0.24946572  0.88654003  1
  Zn  Zn89  1  0.37623756  0.75395515  0.61695163  1
  Zn  Zn90  1  0.12268662  -0.00391790  0.12307832  1
  Zn  Zn91  1  0.84218024  0.44709497  0.92157688  1
  Zn  Zn92  1  0.14661753  0.51116672  0.64022933  1
  Zn  Zn93  1  0.25737293  0.39411653  0.63623171  1
  Zn  Zn94  1  0.13023087  0.39561402  0.76491818  1
  Zn  Zn95  1  0.24834535  0.12596203  0.87293748  1
  Zn  Zn96  1  0.74724306  0.00124957  0.75076456  1
  Zn  Zn97  1  0.24480325  0.00488188  0.24944369  1
  Zn  Zn98  1  0.75276499  0.62570321  0.88024886  1
  Zn  Zn99  1  0.62972730  0.62183371  0.50154292  1
  Zn  Zn100  1  0.37772499  0.75077744  0.12276752  1
  Zn  Zn101  1  0.49223069  0.00074287  0.50447236  1
  Zn  Zn102  1  0.00774252  0.88542220  0.88731252  1
  Zn  Zn103  1  0.11082851  0.88293018  0.25097599  1
  Zn  Zn104  1  0.87502693  -0.00745099  0.36919140  1
  Zn  Zn105  1  -0.00898443  0.75266627  0.25384518  1
  Zn  Zn106  1  0.12380625  0.62545886  0.00188269  1
  Zn  Zn107  1  0.18208005  0.18826488  0.18366418  1
  Zn  Zn108  1  0.19440743  0.19385234  0.68461173  1
  Zn  Zn109  1  0.18652927  0.68979713  0.18854116  1
  Zn  Zn110  1  0.19120667  0.68476067  0.69063559  1
  Zn  Zn111  1  0.68866633  0.16197162  0.18463736  1
  Zn  Zn112  1  0.70536769  0.20694019  0.71718688  1
  Zn  Zn113  1  0.68441669  0.69144881  0.18720782  1
  Zn  Zn114  1  0.68804184  0.68827849  0.69257238  1
  Zn  Zn115  1  0.31211834  0.31124265  0.31387654  1
  Zn  Zn116  1  0.30736276  0.31513923  0.81251316  1
  Zn  Zn117  1  0.31407435  0.81462532  0.31505862  1
  Zn  Zn118  1  0.31241781  0.81206716  0.81315068  1
  Zn  Zn119  1  0.81211490  0.30924282  0.32337126  1
  Zn  Zn120  1  0.80223472  0.29404965  0.88115940  1
  Zn  Zn121  1  0.81200416  0.81139798  0.31449428  1
  Zn  Zn122  1  0.80790147  0.81562231  0.81582123  1
  Zn  Zn123  1  0.19626017  0.45184450  0.49194082  1
  Zn  Zn124  1  0.18137856  0.43356657  0.94241233  1
  Zn  Zn125  1  0.18907741  0.93846819  0.43762823  1
  Zn  Zn126  1  0.19173728  0.93877158  0.93843948  1
  Zn  Zn127  1  0.68933730  0.43678143  0.43532629  1
  Zn  Zn128  1  0.67532322  0.43704453  0.94368193  1
  Zn  Zn129  1  0.68628885  0.93444220  0.44178236  1
  Zn  Zn130  1  0.69279576  0.94149471  0.93408900  1
  Zn  Zn131  1  0.31096045  0.06137244  0.06292787  1
  Zn  Zn132  1  0.30904392  0.06195109  0.56202927  1
  Zn  Zn133  1  0.30883300  0.56335526  0.06437732  1
  Zn  Zn134  1  0.32082086  0.59175106  0.55373340  1
  Zn  Zn135  1  0.81653107  0.07276043  0.06066660  1
  Zn  Zn136  1  0.80962396  0.06026434  0.56575411  1
  Zn  Zn137  1  0.80793917  0.56869322  0.06366932  1
  Zn  Zn138  1  0.81633816  0.56571021  0.56275579  1
  Zn  Zn139  1  0.43827453  0.43690416  0.18411818  1
  Zn  Zn140  1  0.44072526  0.43229417  0.68561428  1
  Zn  Zn141  1  0.43717486  0.93836935  0.18812342  1
  Zn  Zn142  1  0.43988963  0.93432284  0.68559383  1
  Zn  Zn143  1  0.92770062  0.45003526  0.18040692  1
  Zn  Zn144  1  0.93463669  0.40516819  0.76058315  1
  Zn  Zn145  1  0.93777659  0.93578094  0.18994968  1
  Zn  Zn146  1  0.94233483  0.93964910  0.68500707  1
  Zn  Zn147  1  0.06048989  0.06472161  0.30645677  1
  Zn  Zn148  1  0.05926278  0.06611955  0.81315792  1
  Zn  Zn149  1  0.06035646  0.56262871  0.31376570  1
  Zn  Zn150  1  0.06395136  0.56571021  0.81485877  1
  Zn  Zn151  1  0.55891269  0.06220449  0.31259566  1
  Zn  Zn152  1  0.55885285  0.06211680  0.81309593  1
  Zn  Zn153  1  0.56479643  0.56653528  0.31263855  1
  Zn  Zn154  1  0.56689037  0.56276317  0.81316732  1
  Zn  Zn155  1  0.43895315  0.18438806  0.43157010  1
  Zn  Zn156  1  0.43678838  0.18640657  0.93449384  1
  Zn  Zn157  1  0.43925815  0.68803474  0.44044848  1
  Zn  Zn158  1  0.43790506  0.68445567  0.93679972  1
  Zn  Zn159  1  0.93826335  0.18605766  0.43890474  1
  Zn  Zn160  1  0.93789770  0.18991688  0.94186398  1
  Zn  Zn161  1  0.93417443  0.68822869  0.43538615  1
  Zn  Zn162  1  0.94233744  0.69398589  0.94655909  1
  Zn  Zn163  1  0.07085941  0.31428996  0.05159381  1
  Zn  Zn164  1  0.04913529  0.34292668  0.60717541  1
  Zn  Zn165  1  0.05847032  0.81401477  0.06573756  1
  Zn  Zn166  1  0.06442405  0.81319618  0.56155382  1
  Zn  Zn167  1  0.55202828  0.31203682  0.05826870  1
  Zn  Zn168  1  0.56355717  0.31097768  0.56600327  1
  Zn  Zn169  1  0.56261862  0.81331131  0.06474214  1
  Zn  Zn170  1  0.56218149  0.81227984  0.56610857  1
  O  O171  1  0.11329263  0.12249169  0.11887921  1
  O  O172  1  0.12075625  0.12298900  0.61720691  1
  O  O173  1  0.12345595  0.61324848  0.12630323  1
  O  O174  1  0.12132009  0.62986359  0.61311061  1
  O  O175  1  0.61200187  0.11335242  0.11647075  1
  O  O176  1  0.62835705  0.11950594  0.61175707  1
  O  O177  1  0.61946705  0.61732872  0.12213985  1
  O  O178  1  0.61491389  0.61773996  0.63244658  1
  O  O179  1  0.38562586  0.37955795  0.37778268  1
  O  O180  1  0.38421073  0.37117896  0.88100323  1
  O  O181  1  0.38209969  0.88923858  0.37041755  1
  O  O182  1  0.36967715  0.88234526  0.88799500  1
  O  O183  1  0.88062604  0.38075016  0.38408458  1
  O  O184  1  0.87819055  0.37290637  0.84752619  1
  O  O185  1  0.87066420  0.87459312  0.39031584  1
  O  O186  1  0.87737590  0.88756616  0.87341763  1
  O  O187  1  0.26302227  -0.00399908  0.37023460  1
  O  O188  1  0.26216224  0.00109286  0.86725689  1
  O  O189  1  0.25902177  0.50896008  0.36812233  1
  O  O190  1  0.24332597  0.51341762  0.88704031  1
  O  O191  1  0.75117587  0.01038422  0.38244150  1
  O  O192  1  0.76673052  -0.00059287  0.86721427  1
  O  O193  1  0.75789021  0.51202486  0.38405446  1
  O  O194  1  0.74887814  0.50657220  0.86803623  1
  O  O195  1  0.24112695  0.49294272  0.13190784  1
  O  O196  1  0.25400706  0.50485487  0.58892119  1
  O  O197  1  0.24868164  0.98908317  0.12622823  1
  O  O198  1  0.24492356  0.99036782  0.63047973  1
  O  O199  1  0.73642163  0.50195994  0.12518612  1
  O  O200  1  0.74468645  0.50011790  0.62844755  1
  O  O201  1  0.73480336  1.00947149  0.12157454  1
  O  O202  1  0.73472343  0.99578356  0.62644284  1
  O  O203  1  -0.00177435  0.36776679  0.25243491  1
  O  O204  1  0.02806175  0.37622932  0.71527845  1
  O  O205  1  -0.00103522  0.86650715  0.24906387  1
  O  O206  1  0.01566468  0.87075486  0.74834995  1
  O  O207  1  0.49620042  0.36417751  0.25342027  1
  O  O208  1  0.50341175  0.36747399  0.76024126  1
  O  O209  1  0.50480883  0.86869370  0.25896870  1
  O  O210  1  0.51091608  0.86533833  0.74767564  1
  O  O211  1  0.49357736  0.13123790  0.24189734  1
  O  O212  1  0.48658973  0.13059928  0.75220280  1
  O  O213  1  0.49594321  0.63414115  0.24436679  1
  O  O214  1  0.49214444  0.62930502  0.75062843  1
  O  O215  1  0.99253193  0.13003269  0.23569221  1
  O  O216  1  0.99181092  0.11854293  0.73244127  1
  O  O217  1  1.00538061  0.62789030  0.23316618  1
  O  O218  1  0.99386810  0.63323129  0.74542481  1
  O  O219  1  0.36263167  0.25280830  -0.00315230  1
  O  O220  1  0.37243156  0.25220501  0.50006773  1
  O  O221  1  0.36944998  0.75787725  -0.00077111  1
  O  O222  1  0.36428468  0.69757959  0.51974035  1
  O  O223  1  0.84532014  0.23777598  -0.02705342  1
  O  O224  1  0.86806613  0.25308359  0.50676865  1
  O  O225  1  0.86411137  0.74755675  0.01303426  1
  O  O226  1  0.87027398  0.75536904  0.50850922  1
  O  O227  1  0.13549851  0.24364568  0.48885266  1
  O  O228  1  0.13556134  0.23977011  0.99124120  1
  O  O229  1  0.11867575  0.74186515  0.48684839  1
  O  O230  1  0.13374172  0.74939024  0.99402263  1
  O  O231  1  0.62836373  0.23905223  0.49591230  1
  O  O232  1  0.61691316  0.23312336  1.00295909  1
  O  O233  1  0.63365184  0.74947083  0.49679097  1
  O  O234  1  0.62936643  0.74661750  0.99614585  1
  O  O235  1  0.50441162  0.24065002  0.13598918  1
  O  O236  1  0.48166068  0.25647981  0.62593771  1
  O  O237  1  0.50044995  0.74225800  0.13463174  1
  O  O238  1  0.49997969  0.74020857  0.63460354  1
  O  O239  1  1.01090007  0.24432461  0.12637264  1
  O  O240  1  0.99143528  0.24101534  0.61129384  1
  O  O241  1  0.98442149  0.73941933  0.12533409  1
  O  O242  1  0.99441391  0.74664839  0.63232795  1
  O  O243  1  0.00730303  0.26411172  0.38490963  1
  O  O244  1  0.01613061  0.24341458  0.87749484  1
  O  O245  1  0.01310317  0.74396499  0.37220227  1
  O  O246  1  0.01144137  0.75129069  0.86969605  1
  O  O247  1  0.51005659  0.25050925  0.36256371  1
  O  O248  1  0.49993461  0.25389382  0.86244376  1
  O  O249  1  0.50293037  0.75504923  0.37067262  1
  O  O250  1  0.50841205  0.74756400  0.86875350  1
  O  O251  1  0.23673403  0.13038913  0.50081206  1
  O  O252  1  0.24398735  0.13309228  1.00207812  1
  O  O253  1  0.23334719  0.62080108  0.47997351  1
  O  O254  1  0.25007641  0.63456763  0.99378648  1
  O  O255  1  0.74027674  0.12829982  0.49501700  1
  O  O256  1  0.72941266  0.12157023  1.00442316  1
  O  O257  1  0.74999102  0.63795788  0.49913021  1
  O  O258  1  0.73826844  0.63634093  1.00000163  1
  O  O259  1  0.25643661  0.36893793  0.00635830  1
  O  O260  1  0.27113529  0.36436276  0.48594626  1
  O  O261  1  0.25741535  0.86832467  0.00750417  1
  O  O262  1  0.24717237  0.87563868  0.51457889  1
  O  O263  1  0.76247838  0.37577243  -0.02444474  1
  O  O264  1  0.75621374  0.36832676  0.50532704  1
  O  O265  1  0.75314771  0.86326579  -0.00362351  1
  O  O266  1  0.75650073  0.86276126  0.50399171  1
  O  O267  1  0.12849102  0.49273137  0.24593240  1
  O  O268  1  0.13450643  0.51139659  0.75123936  1
  O  O269  1  0.12890515  0.99869217  0.24605015  1
  O  O270  1  0.13024921  0.99378134  0.74523066  1
  O  O271  1  0.62435477  0.50207234  0.23814538  1
  O  O272  1  0.63475862  0.49170727  0.74784189  1
  O  O273  1  0.61873028  0.99483786  0.23797872  1
  O  O274  1  0.62239302  0.99333028  0.74547969  1
  O  O275  1  0.37333908  0.00782438  0.25812673  1
  O  O276  1  0.37481556  0.00384723  0.75499688  1
  O  O277  1  0.37073446  0.50535189  0.25367051  1
  O  O278  1  0.37745955  0.50452104  0.75285682  1
  O  O279  1  0.87650149  0.01326345  0.25193890  1
  O  O280  1  0.87323963  0.00765485  0.74762568  1
  O  O281  1  0.87225825  0.49701547  0.26514862  1
  O  O282  1  0.86923164  0.51243062  0.74558285  1
  O  O283  1  0.11362754  0.37004828  0.36697676  1
  O  O284  1  0.12540320  0.35807416  0.87843375  1
  O  O285  1  0.13255387  0.86052808  0.37498384  1
  O  O286  1  0.12848823  0.86741753  0.86837432  1
  O  O287  1  0.62098646  0.35862398  0.38229514  1
  O  O288  1  0.60453569  0.37486237  0.87558943  1
  O  O289  1  0.61627518  0.87073239  0.37088698  1
  O  O290  1  0.62706260  0.86497301  0.87063738  1
  O  O291  1  0.38739951  0.11776605  0.13143160  1
  O  O292  1  0.37185807  0.13141137  0.63052594  1
  O  O293  1  0.38210727  0.62686361  0.13017807  1
  O  O294  1  0.39169090  0.61838049  0.64701179  1
  O  O295  1  0.88519838  0.13181775  0.13127451  1
  O  O296  1  0.88489670  0.12939179  0.62488346  1
  O  O297  1  0.88203183  0.63033495  0.12886948  1
  O  O298  1  0.88162440  0.63775404  0.63217640  1
  O  O299  1  0.24066120  0.26420990  0.11639806  1
  O  O300  1  0.26070151  0.25167909  0.60769609  1
  O  O301  1  0.25256747  0.75381583  0.11361441  1
  O  O302  1  0.25058037  0.76515550  0.63146309  1
  O  O303  1  0.73153001  0.26435133  0.13710111  1
  O  O304  1  0.75876162  0.25732581  0.62281705  1
  O  O305  1  0.75973994  0.74527068  0.11957199  1
  O  O306  1  0.75808127  0.74960547  0.62068490  1
  O  O307  1  0.24204182  0.25050244  0.38371037  1
  O  O308  1  0.24560076  0.24500661  0.88496779  1
  O  O309  1  0.24190182  0.74154248  0.36816484  1
  O  O310  1  0.24598863  0.74700636  0.88517731  1
  O  O311  1  0.74202092  0.24048723  0.38534347  1
  O  O312  1  0.70832105  0.27202049  0.81794843  1
  O  O313  1  0.74567445  0.74288164  0.38443155  1
  O  O314  1  0.74040388  0.74682963  0.88299955  1
  O  O315  1  0.00690693  0.13091808  0.01430290  1
  O  O316  1  0.00956540  0.11878025  0.50689631  1
  O  O317  1  0.00422269  0.62118696  0.01679723  1
  O  O318  1  0.00212579  0.62416753  0.50431703  1
  O  O319  1  0.50155986  0.11385790  0.00607488  1
  O  O320  1  0.51613209  0.12384983  0.49325966  1
  O  O321  1  0.50863302  0.63372342  0.01168050  1
  O  O322  1  0.50888610  0.61594046  0.51255509  1
  O  O323  1  0.49418678  0.37604720  0.49195764  1
  O  O324  1  0.48789866  0.37158412  0.98627121  1
  O  O325  1  0.50116016  0.87342122  0.48793742  1
  O  O326  1  0.49271901  0.88628683  1.00516882  1
  O  O327  1  0.99436022  0.38674052  0.49543696  1
  O  O328  1  1.00099059  0.39339933  1.00633142  1
  O  O329  1  0.99208999  0.88443653  0.50629045  1
  O  O330  1  0.99150556  0.86852096  0.99748544  1
  O  O331  1  0.49861229  0.49612232  0.37865046  1
  O  O332  1  0.49762027  0.48819489  0.87003183  1
  O  O333  1  0.49158603  0.99174949  0.37718940  1
  O  O334  1  0.48764156  1.00102852  0.88304797  1
  O  O335  1  0.99055102  0.49110593  0.37788809  1
  O  O336  1  1.00243191  0.50892514  0.89341021  1
  O  O337  1  0.99684517  1.00703962  0.38818265  1
  O  O338  1  0.98228589  0.99823166  0.86461381  1
  O  O339  1  -0.00161046  0.01348072  0.12382634  1
  O  O340  1  0.00935079  0.00772756  0.61425593  1
  O  O341  1  0.00408834  0.51083225  0.12128616  1
  O  O342  1  0.00268127  0.51300688  0.60758388  1
  O  O343  1  0.50526484  0.00520132  0.11681221  1
  O  O344  1  0.51228025  -0.00419388  0.62101436  1
  O  O345  1  0.50810238  0.51297138  0.13015009  1
  O  O346  1  0.50970653  0.50292335  0.62218946  1
  O  O347  1  0.24667816  0.37912917  0.24332427  1
  O  O348  1  0.24013815  0.36659655  0.74302947  1
  O  O349  1  0.25385342  0.87196872  0.23517855  1
  O  O350  1  0.24136222  0.88014216  0.74612545  1
  O  O351  1  0.74054247  0.37315440  0.25619104  1
  O  O352  1  0.75026793  0.39398368  0.73623530  1
  O  O353  1  0.73282640  0.87256793  0.25901140  1
  O  O354  1  0.73407413  0.87384699  0.74749930  1
  O  O355  1  0.26409585  0.12786231  0.23942539  1
  O  O356  1  0.26227649  0.11729377  0.74742129  1
  O  O357  1  0.25564482  0.62013758  0.25449192  1
  O  O358  1  0.26880201  0.62877149  0.75771631  1
  O  O359  1  0.76095456  0.13019468  0.26240876  1
  O  O360  1  0.77099218  0.11858353  0.74045216  1
  O  O361  1  0.74344150  0.62950078  0.26310211  1
  O  O362  1  0.75900674  0.61689471  0.75155986  1
  O  O363  1  0.38114829  0.11069166  0.36378491  1
  O  O364  1  0.37198378  0.11587964  0.86601021  1
  O  O365  1  0.36869371  0.62187526  0.36562554  1
  O  O366  1  0.36963668  0.62569472  0.86432160  1
  O  O367  1  0.86739952  0.12244660  0.37014505  1
  O  O368  1  0.88490880  0.11548742  0.85688053  1
  O  O369  1  0.86471072  0.61664288  0.37845116  1
  O  O370  1  0.87664506  0.63623165  0.86433449  1
  O  O371  1  0.13099956  0.38567080  0.13018650  1
  O  O372  1  0.14438642  0.40006989  0.58980006  1
  O  O373  1  0.13523013  0.87504458  0.12586539  1
  O  O374  1  0.13382297  0.87957552  0.63114753  1
  O  O375  1  0.61996000  0.38578981  0.12613067  1
  O  O376  1  0.63432773  0.37913834  0.63163542  1
  O  O377  1  0.62079553  0.88665321  0.13363395  1
  O  O378  1  0.62533560  0.88143594  0.63380566  1
  O  O379  1  0.13079741  0.25524968  0.26323612  1
  O  O380  1  0.12962009  0.23849774  0.76644876  1
  O  O381  1  0.12358571  0.75297258  0.26148038  1
  O  O382  1  0.12388716  0.75686635  0.75788977  1
  O  O383  1  0.62322802  0.25338719  0.25230363  1
  O  O384  1  0.59916865  0.25183042  0.72211421  1
  O  O385  1  0.61401172  0.75725735  0.25574294  1
  O  O386  1  0.61657198  0.75432744  0.75922272  1
  O  O387  1  0.38417468  0.24011394  0.25691632  1
  O  O388  1  0.37951664  0.24241373  0.74017530  1
  O  O389  1  0.38657443  0.74675855  0.24916860  1
  O  O390  1  0.38747791  0.75043425  0.74962767  1
  O  O391  1  0.88013734  0.23972006  0.25998130  1
  O  O392  1  0.87778049  0.23344985  0.73590596  1
  O  O393  1  0.86985807  0.74832192  0.23807187  1
  O  O394  1  0.87836918  0.74789392  0.74488162  1
  O  O395  1  0.38747200  0.49221378  0.49058237  1
  O  O396  1  0.37079096  0.49011301  1.00151450  1
  O  O397  1  0.37537409  1.00819505  0.48442266  1
  O  O398  1  0.38075952  0.99449124  0.99286706  1
  O  O399  1  0.88270147  0.49690953  0.49414008  1
  O  O400  1  0.88787048  0.50758495  1.00620050  1
  O  O401  1  0.88276728  0.99048535  0.50313452  1
  O  O402  1  0.87016366  1.00318714  0.98579249  1
  O  O403  1  0.13162035  0.01552827  -0.00037037  1
  O  O404  1  0.12039616  0.00731922  0.50198461  1
  O  O405  1  0.11539756  0.50289792  0.01100150  1
  O  O406  1  0.10732801  0.52256022  0.47784193  1
  O  O407  1  0.61802976  0.00328358  0.00483511  1
  O  O408  1  0.62217340  0.00904400  0.50589802  1
  O  O409  1  0.62333866  0.51462011  0.01082043  1
  O  O410  1  0.62181145  0.49840496  0.50966096  1
  O  O411  1  0.36497496  0.37901421  0.11552465  1
  O  O412  1  0.37422250  0.36908532  0.61281074  1
  O  O413  1  0.36998829  0.87394170  0.11306755  1
  O  O414  1  0.36203167  0.87317183  0.62606011  1
  O  O415  1  0.88413496  0.35281299  0.13625186  1
  O  O416  1  0.87065603  0.36547524  0.61973182  1
  O  O417  1  0.86992353  0.86309516  0.12611807  1
  O  O418  1  0.87492850  0.86417193  0.61969555  1
  O  O419  1  0.11527722  0.13628686  0.38196394  1
  O  O420  1  0.12722836  0.12902859  0.88249603  1
  O  O421  1  0.13072433  0.63739653  0.37333766  1
  O  O422  1  0.13512126  0.63991203  0.87699818  1
  O  O423  1  0.63132278  0.13186661  0.37923676  1
  O  O424  1  0.61910206  0.12390352  0.88985144  1
  O  O425  1  0.63193798  0.63342322  0.37954946  1
  O  O426  1  0.62386866  0.63478188  0.88464462  1
