# generated using pymatgen
data_V85Zn86O256
_symmetry_space_group_name_H-M   'P 1'
_cell_length_a   16.96475973
_cell_length_b   16.96267320
_cell_length_c   16.97287073
_cell_angle_alpha   90.02871827
_cell_angle_beta   89.92888031
_cell_angle_gamma   90.01235182
_symmetry_Int_Tables_number   1
_chemical_formula_structural   V85Zn86O256
_chemical_formula_sum   'V85 Zn86 O256'
_cell_volume   4884.23906285
_cell_formula_units_Z   1
loop_
 _symmetry_equiv_pos_site_id
 _symmetry_equiv_pos_as_xyz
  1  'x, y, z'
loop_
 _atom_site_type_symbol
 _atom_site_label
 _atom_site_symmetry_multiplicity
 _atom_site_fract_x
 _atom_site_fract_y
 _atom_site_fract_z
 _atom_site_occupancy
  V  V0  1  0.50293220  0.00099729  0.49553308  1
  V  V1  1  0.12751991  0.49736108  0.12605112  1
  V  V2  1  0.61417322  0.50707877  0.13264403  1
  V  V3  1  0.74476245  0.38185174  0.14387055  1
  V  V4  1  0.36712706  0.25221059  0.62507367  1
  V  V5  1  0.01410059  0.38398201  0.37796775  1
  V  V6  1  0.62535058  0.13834746  0.50365724  1
  V  V7  1  0.49299143  -0.00390274  0.00160397  1
  V  V8  1  0.74860006  0.74720398  -0.00067221  1
  V  V9  1  0.00174260  0.00110376  0.00107281  1
  V  V10  1  0.75122452  0.87315115  0.12582951  1
  V  V11  1  0.75818658  0.62004419  0.36192881  1
  V  V12  1  0.74996279  0.63296526  0.87051455  1
  V  V13  1  0.00252758  0.63040054  0.62592413  1
  V  V14  1  0.13757371  0.88068525  0.25130138  1
  V  V15  1  0.00067778  0.75463560  0.24259423  1
  V  V16  1  0.13075583  0.75039197  0.87527946  1
  V  V17  1  0.87731638  0.87445414  0.00015205  1
  V  V18  1  0.74847462  0.13105469  0.87782733  1
  V  V19  1  0.75454899  0.24582735  0.01853891  1
  V  V20  1  0.87635481  0.00018467  0.87122809  1
  V  V21  1  0.62475023  0.49772512  0.62292860  1
  V  V22  1  0.37201269  0.75166927  0.62930416  1
  V  V23  1  0.36649490  0.75280425  0.11380087  1
  V  V24  1  0.74889426  0.13336509  0.37825361  1
  V  V25  1  0.75220286  0.00014305  0.25325100  1
  V  V26  1  0.87397023  0.50094024  0.87736787  1
  V  V27  1  0.75066757  0.49834532  0.74859974  1
  V  V28  1  0.50853009  0.74825182  0.74750860  1
  V  V29  1  0.00123720  0.87911593  0.37357064  1
  V  V30  1  0.25100635  0.49663887  0.74704525  1
  V  V31  1  0.25713564  0.25942742  -0.00166825  1
  V  V32  1  0.00127129  0.86653924  0.87134274  1
  V  V33  1  0.12392538  0.87283912  0.73928551  1
  V  V34  1  0.25001124  0.62303287  0.87619419  1
  V  V35  1  0.62516624  0.75006460  0.37445067  1
  V  V36  1  0.50810512  0.87913848  0.87439543  1
  V  V37  1  -0.05931124  0.57865193  0.18280822  1
  V  V38  1  0.37827576  0.25961696  0.12280600  1
  V  V39  1  0.25026203  0.49011195  0.24951324  1
  V  V40  1  0.36891314  -0.01050742  0.87644568  1
  V  V41  1  -0.00602331  0.13025705  0.12586413  1
  V  V42  1  0.12329352  0.62882497  0.00436681  1
  V  V43  1  0.87987150  0.13399321  0.74559390  1
  V  V44  1  0.87707532  0.00351830  0.37914453  1
  V  V45  1  0.62312881  -0.00184238  0.12596136  1
  V  V46  1  0.62531705  0.62432123  0.49718277  1
  V  V47  1  0.00745092  0.25670487  0.24800760  1
  V  V48  1  0.24483693  -0.00626034  0.72990466  1
  V  V49  1  0.38644404  0.48489149  0.88368462  1
  V  V50  1  0.12311561  0.25202767  0.87301261  1
  V  V51  1  0.87644377  0.74885485  0.12833473  1
  V  V52  1  0.62411354  0.87773424  0.25340941  1
  V  V53  1  0.49939988  0.87747960  0.37556587  1
  V  V54  1  0.88142846  0.38604722  0.49466890  1
  V  V55  1  0.12539456  0.12733531  0.00099527  1
  V  V56  1  0.88214000  0.63118826  0.74847858  1
  V  V57  1  0.37640392  0.62640874  0.24597996  1
  V  V58  1  0.62567427  0.12531709  0.00150078  1
  V  V59  1  0.49791095  0.11997800  0.63001766  1
  V  V60  1  0.75348849  0.75003993  0.50061936  1
  V  V61  1  0.24226582  0.12088014  0.37528923  1
  V  V62  1  0.37227333  0.37579325  0.50217827  1
  V  V63  1  0.75913565  0.37331985  0.62276831  1
  V  V64  1  0.12475248  0.37472898  0.74566804  1
  V  V65  1  -0.00551618  0.50541510  0.00225762  1
  V  V66  1  0.37912939  0.49880671  0.37520027  1
  V  V67  1  0.24356975  0.24894573  0.49917264  1
  V  V68  1  0.12074855  0.62452175  0.49995685  1
  V  V69  1  0.25207371  0.62738031  0.37541483  1
  V  V70  1  0.36963803  0.12179942  0.74981334  1
  V  V71  1  0.25254958  0.88127932  0.10869377  1
  V  V72  1  0.24832404  0.75532683  0.50522026  1
  V  V73  1  0.12339426  0.49702043  0.62133718  1
  V  V74  1  0.05648008  0.06289678  0.55978266  1
  V  V75  1  0.24736847  0.12136277  0.87175446  1
  V  V76  1  0.37028285  0.00017201  0.36751966  1
  V  V77  1  0.74335280  -0.00062028  0.74932145  1
  V  V78  1  0.87091967  0.36916186  0.00663736  1
  V  V79  1  0.87962921  0.87653123  0.50184594  1
  V  V80  1  0.37246103  0.87574542  0.50371073  1
  V  V81  1  0.51090891  0.36542228  0.37679865  1
  V  V82  1  0.58054645  0.69447504  0.93053441  1
  V  V83  1  0.49667984  0.75029142  0.24794425  1
  V  V84  1  0.36999127  0.12664811  0.24650260  1
  Zn  Zn85  1  0.12596629  0.75090627  0.37337054  1
  Zn  Zn86  1  0.75143332  0.87590280  0.62525590  1
  Zn  Zn87  1  0.49954012  0.49977414  0.50028747  1
  Zn  Zn88  1  0.37591450  0.62113750  0.74883610  1
  Zn  Zn89  1  0.49864417  0.62461828  0.62322181  1
  Zn  Zn90  1  0.74959266  0.25746744  0.49525718  1
  Zn  Zn91  1  -0.00524317  0.37317182  0.87471897  1
  Zn  Zn92  1  0.87918762  0.50466934  0.36687572  1
  Zn  Zn93  1  0.49604240  0.12572867  0.12531380  1
  Zn  Zn94  1  0.50868776  0.25908692  0.24879865  1
  Zn  Zn95  1  0.87757694  0.12957487  0.24992064  1
  Zn  Zn96  1  0.49903728  0.62585392  0.10407575  1
  Zn  Zn97  1  0.24969539  0.37505236  0.12353132  1
  Zn  Zn98  1  0.63079795  0.86932905  0.74869728  1
  Zn  Zn99  1  0.12847627  0.25021801  0.37310033  1
  Zn  Zn100  1  0.88026831  0.75313075  0.62810672  1
  Zn  Zn101  1  0.49659982  0.25378812  0.76194565  1
  Zn  Zn102  1  0.13033510  0.00578430  0.13057289  1
  Zn  Zn103  1  0.00297392  0.24758995  0.74379716  1
  Zn  Zn104  1  0.62713047  -0.00319112  0.62498833  1
  Zn  Zn105  1  0.88593434  0.24575663  0.61008468  1
  Zn  Zn106  1  0.60843314  0.36894724  0.77424447  1
  Zn  Zn107  1  0.18966454  0.18853221  0.18701396  1
  Zn  Zn108  1  0.18219093  0.18389143  0.68157334  1
  Zn  Zn109  1  0.18851983  0.68803622  0.18696226  1
  Zn  Zn110  1  0.18734783  0.68889056  0.69037924  1
  Zn  Zn111  1  0.68815071  0.18665153  0.19371773  1
  Zn  Zn112  1  0.69174216  0.18576874  0.69014444  1
  Zn  Zn113  1  0.68260100  0.68512995  0.18468124  1
  Zn  Zn114  1  0.68920012  0.68571201  0.68312486  1
  Zn  Zn115  1  0.31689512  0.30953793  0.31372928  1
  Zn  Zn116  1  0.30829739  0.31302587  0.80949321  1
  Zn  Zn117  1  0.31287700  0.81162400  0.31444913  1
  Zn  Zn118  1  0.30993868  0.81251897  0.80959925  1
  Zn  Zn119  1  0.82562126  0.30873884  0.31593972  1
  Zn  Zn120  1  0.76955730  0.33809732  0.84544615  1
  Zn  Zn121  1  0.81427861  0.81055679  0.31391822  1
  Zn  Zn122  1  0.81378480  0.81244049  0.81192696  1
  Zn  Zn123  1  0.19277929  0.43925556  0.44030633  1
  Zn  Zn124  1  0.18531849  0.44038987  0.93449110  1
  Zn  Zn125  1  0.18449945  0.94027617  0.44368057  1
  Zn  Zn126  1  0.18435135  0.93899649  0.93466317  1
  Zn  Zn127  1  0.69177369  0.44138897  0.43576187  1
  Zn  Zn128  1  0.61873130  0.42317442  0.95629498  1
  Zn  Zn129  1  0.68917787  0.94019658  0.43957272  1
  Zn  Zn130  1  0.68821972  0.93887284  0.93683741  1
  Zn  Zn131  1  0.31199011  0.06689462  0.05989828  1
  Zn  Zn132  1  0.31048383  0.06332956  0.55686551  1
  Zn  Zn133  1  0.31153981  0.56149048  0.05817984  1
  Zn  Zn134  1  0.30882244  0.56609726  0.56397180  1
  Zn  Zn135  1  0.81440493  0.05847657  0.06410116  1
  Zn  Zn136  1  0.81682088  0.06201577  0.56332811  1
  Zn  Zn137  1  0.76847266  0.53732328  0.03871999  1
  Zn  Zn138  1  0.81491619  0.56299490  0.55895735  1
  Zn  Zn139  1  0.44358632  0.43713421  0.18977835  1
  Zn  Zn140  1  0.43522408  0.43778454  0.68520485  1
  Zn  Zn141  1  0.43282315  0.93768095  0.18925372  1
  Zn  Zn142  1  0.43671555  0.93492973  0.68870105  1
  Zn  Zn143  1  0.93599090  0.41500500  0.18874065  1
  Zn  Zn144  1  0.94276719  0.43968558  0.68646272  1
  Zn  Zn145  1  0.94080045  0.94068158  0.18828184  1
  Zn  Zn146  1  0.94006489  0.94060271  0.68718084  1
  Zn  Zn147  1  0.06207355  0.06163694  0.31250359  1
  Zn  Zn148  1  0.06231288  0.05773426  0.80780160  1
  Zn  Zn149  1  0.07052253  0.56163056  0.31470409  1
  Zn  Zn150  1  0.06118779  0.56220108  0.81213956  1
  Zn  Zn151  1  0.57292730  0.09406613  0.30149446  1
  Zn  Zn152  1  0.52416103  0.11416975  0.85704108  1
  Zn  Zn153  1  0.56323569  0.56118494  0.30977438  1
  Zn  Zn154  1  0.56002210  0.55736655  0.80427557  1
  Zn  Zn155  1  0.43365604  0.18654687  0.43919078  1
  Zn  Zn156  1  0.45366150  0.30392089  0.93578402  1
  Zn  Zn157  1  0.43740873  0.68881361  0.43798120  1
  Zn  Zn158  1  0.41591629  0.69205724  0.92999859  1
  Zn  Zn159  1  0.94099694  0.19470682  0.43655728  1
  Zn  Zn160  1  0.93706510  0.18887305  0.93446274  1
  Zn  Zn161  1  0.93985264  0.69025414  0.43397520  1
  Zn  Zn162  1  0.93858340  0.68783956  0.94037977  1
  Zn  Zn163  1  0.06093607  0.31478595  0.06037393  1
  Zn  Zn164  1  0.06079581  0.31091015  0.56294182  1
  Zn  Zn165  1  0.06747034  0.81307394  0.06185294  1
  Zn  Zn166  1  0.06014208  0.81244012  0.55904712  1
  Zn  Zn167  1  0.56874626  0.30886725  0.07292958  1
  Zn  Zn168  1  0.57178161  0.30143794  0.61947313  1
  Zn  Zn169  1  0.55453468  0.81862727  0.06749753  1
  Zn  Zn170  1  0.56402039  0.81451170  0.56523008  1
  O  O171  1  0.11927178  0.12474563  0.11544733  1
  O  O172  1  0.11840144  0.11433920  0.62351288  1
  O  O173  1  0.13347979  0.61861596  0.11078790  1
  O  O174  1  0.12082793  0.62232735  0.61924071  1
  O  O175  1  0.62747281  0.10722979  0.11910600  1
  O  O176  1  0.61504533  0.11694062  0.62010976  1
  O  O177  1  0.61581001  0.61591501  0.12606964  1
  O  O178  1  0.62708211  0.61479410  0.61461461  1
  O  O179  1  0.37786973  0.38480515  0.37984828  1
  O  O180  1  0.37679010  0.37941077  0.87402153  1
  O  O181  1  0.37885830  0.88159765  0.38191469  1
  O  O182  1  0.38369043  0.88493540  0.86779798  1
  O  O183  1  0.88920975  0.38287279  0.37701718  1
  O  O184  1  0.86883534  0.38583958  0.88716745  1
  O  O185  1  0.88249347  0.88124153  0.37958513  1
  O  O186  1  0.88312589  0.88021278  0.87835483  1
  O  O187  1  0.26004607  0.00760735  0.38688777  1
  O  O188  1  0.25474785  0.00313223  0.87073365  1
  O  O189  1  0.26020604  0.50693694  0.36755548  1
  O  O190  1  0.25447807  0.50306100  0.86420787  1
  O  O191  1  0.75823976  0.00514527  0.37064478  1
  O  O192  1  0.76135488  0.00492731  0.87168535  1
  O  O193  1  0.75347360  0.51606957  0.37116025  1
  O  O194  1  0.76324155  0.51855446  0.86636919  1
  O  O195  1  0.24525760  0.49772914  0.13063316  1
  O  O196  1  0.23977806  0.50894198  0.63944205  1
  O  O197  1  0.25014648  0.98619516  0.11930948  1
  O  O198  1  0.25468185  0.99613441  0.63112338  1
  O  O199  1  0.75366808  0.48444033  0.14006384  1
  O  O200  1  0.74758222  0.49777282  0.63124446  1
  O  O201  1  0.74453875  0.99165262  0.13161960  1
  O  O202  1  0.75212155  0.99847790  0.63581022  1
  O  O203  1  0.00667379  0.36498170  0.25897624  1
  O  O204  1  0.01223758  0.37749063  0.75624682  1
  O  O205  1  0.01031659  0.86999251  0.25296687  1
  O  O206  1  0.01118954  0.88181179  0.75977596  1
  O  O207  1  0.49692301  0.37466511  0.27033006  1
  O  O208  1  0.50803761  0.36287564  0.72388309  1
  O  O209  1  0.50452510  0.87177711  0.25611450  1
  O  O210  1  0.50198656  0.86647637  0.75798223  1
  O  O211  1  0.47512917  0.10556189  0.24219657  1
  O  O212  1  0.48539166  0.11776622  0.74164631  1
  O  O213  1  0.48586693  0.63051878  0.25041160  1
  O  O214  1  0.49628011  0.63462848  0.74764421  1
  O  O215  1  1.00147525  0.13093606  0.24138823  1
  O  O216  1  0.98306099  0.12387745  0.75847569  1
  O  O217  1  1.00278450  0.63371162  0.24640625  1
  O  O218  1  0.99304317  0.62235125  0.74125406  1
  O  O219  1  0.36671007  0.25287026  0.00778459  1
  O  O220  1  0.36718703  0.25671324  0.50584659  1
  O  O221  1  0.37189197  0.75229214  0.01477699  1
  O  O222  1  0.36844324  0.75467372  0.50673314  1
  O  O223  1  0.86873218  0.25804377  -0.00299273  1
  O  O224  1  0.87189470  0.26739599  0.49523165  1
  O  O225  1  0.86870304  0.75613234  0.00663620  1
  O  O226  1  0.86854117  0.75723760  0.49901448  1
  O  O227  1  0.14108638  0.25911043  0.49761919  1
  O  O228  1  0.12816837  0.24228496  0.99276559  1
  O  O229  1  0.13306918  0.74509295  0.49730677  1
  O  O230  1  0.12057533  0.74185713  0.98736135  1
  O  O231  1  0.62603133  0.23923339  0.51617985  1
  O  O232  1  0.63690853  0.23021236  1.01338146  1
  O  O233  1  0.63239342  0.74550620  0.49384577  1
  O  O234  1  0.63110193  0.75656851  1.00051023  1
  O  O235  1  0.49218071  0.24477858  0.12929199  1
  O  O236  1  0.48111959  0.22939455  0.61888370  1
  O  O237  1  0.48548551  0.75073299  0.13048630  1
  O  O238  1  0.49354131  0.74806696  0.63247938  1
  O  O239  1  1.00751736  0.24499092  0.13588870  1
  O  O240  1  0.99522819  0.25595131  0.63189974  1
  O  O241  1  0.99654296  0.75589984  0.13460786  1
  O  O242  1  0.99912719  0.73538355  0.62106374  1
  O  O243  1  0.00884924  0.26205563  0.36660979  1
  O  O244  1  0.01292740  0.25130357  0.87208616  1
  O  O245  1  0.00055654  0.76114764  0.36103498  1
  O  O246  1  0.00511345  0.76206097  0.87795968  1
  O  O247  1  0.49539572  0.26314820  0.37902841  1
  O  O248  1  0.49343064  0.22282180  0.86968352  1
  O  O249  1  0.50376808  0.75738977  0.36856487  1
  O  O250  1  0.50455727  0.75657139  0.87211122  1
  O  O251  1  0.25871549  0.13662240  0.48741434  1
  O  O252  1  0.24166444  0.13459729  0.99293190  1
  O  O253  1  0.24225914  0.63594994  0.49593016  1
  O  O254  1  0.23896629  0.61680338  0.98463674  1
  O  O255  1  0.74363435  0.12830088  0.49673854  1
  O  O256  1  0.74770606  0.12540143  0.99821517  1
  O  O257  1  0.74193230  0.63193962  0.49217101  1
  O  O258  1  0.75331996  0.64011787  0.98811571  1
  O  O259  1  0.24085518  0.36184817  -0.00119360  1
  O  O260  1  0.26402269  0.36603397  0.49203724  1
  O  O261  1  0.24359950  0.87356934  0.01075296  1
  O  O262  1  0.25510953  0.86227253  0.49508666  1
  O  O263  1  0.75551490  0.35902080  0.01516010  1
  O  O264  1  0.76090233  0.37754249  0.50417942  1
  O  O265  1  0.75577174  0.86467542  0.00189388  1
  O  O266  1  0.76132910  0.86727088  0.49783784  1
  O  O267  1  0.13963380  0.51269958  0.23806252  1
  O  O268  1  0.13056290  0.49374901  0.74588934  1
  O  O269  1  0.12175137  0.98411497  0.24731294  1
  O  O270  1  0.13277626  0.98428391  0.75503405  1
  O  O271  1  0.62577279  0.50463769  0.23416998  1
  O  O272  1  0.63533039  0.49897804  0.73889062  1
  O  O273  1  0.63074061  0.99784129  0.24390806  1
  O  O274  1  0.64219140  1.00089443  0.75177682  1
  O  O275  1  0.36832493  -0.00122282  0.26351545  1
  O  O276  1  0.36327084  0.00070187  0.75314865  1
  O  O277  1  0.37012716  0.50809985  0.25443767  1
  O  O278  1  0.36534909  0.49797660  0.75502681  1
  O  O279  1  0.86993188  -0.00054429  0.26132715  1
  O  O280  1  0.86908405  0.00715919  0.75923851  1
  O  O281  1  0.89078570  0.51263721  0.24129620  1
  O  O282  1  0.87204034  0.51061370  0.75704366  1
  O  O283  1  0.11706597  0.37866484  0.37663165  1
  O  O284  1  0.12221896  0.36661231  0.86878043  1
  O  O285  1  0.11972884  0.87422362  0.36525278  1
  O  O286  1  0.11866931  0.86700371  0.87203978  1
  O  O287  1  0.60905566  0.37958770  0.38555437  1
  O  O288  1  0.66693434  0.38490582  0.86508344  1
  O  O289  1  0.62061061  0.87018374  0.37182143  1
  O  O290  1  0.61188676  0.88208563  0.87060074  1
  O  O291  1  0.36998595  0.13670864  0.13053657  1
  O  O292  1  0.37666970  0.12510979  0.63359303  1
  O  O293  1  0.37522105  0.63490342  0.12749660  1
  O  O294  1  0.37727400  0.63720574  0.62599809  1
  O  O295  1  0.89065432  0.11910097  0.12523438  1
  O  O296  1  0.86455491  0.13150786  0.64196776  1
  O  O297  1  0.87638521  0.62926521  0.12420220  1
  O  O298  1  0.88501099  0.62318002  0.63067552  1
  O  O299  1  0.25546966  0.25387824  0.11532035  1
  O  O300  1  0.26006505  0.24137849  0.61610164  1
  O  O301  1  0.26019988  0.75979816  0.12868448  1
  O  O302  1  0.25832551  0.74608138  0.61764879  1
  O  O303  1  0.75132672  0.24907412  0.12265862  1
  O  O304  1  0.75888522  0.26696001  0.62549073  1
  O  O305  1  0.75305298  0.75421423  0.11757332  1
  O  O306  1  0.75378551  0.74950475  0.61038968  1
  O  O307  1  0.24977838  0.24144683  0.38036806  1
  O  O308  1  0.24065219  0.24344985  0.87949406  1
  O  O309  1  0.25049175  0.74292663  0.38363116  1
  O  O310  1  0.24314690  0.73906649  0.87180769  1
  O  O311  1  0.75400649  0.23673548  0.37453389  1
  O  O312  1  0.75216652  0.23341776  0.89191334  1
  O  O313  1  0.74622351  0.74443727  0.38452009  1
  O  O314  1  0.75061844  0.74145567  0.87988441  1
  O  O315  1  0.00673630  0.12379700  0.00532662  1
  O  O316  1  0.00653767  0.12589050  0.49625479  1
  O  O317  1  0.00955653  0.61782329  -0.00315702  1
  O  O318  1  0.01470790  0.63001734  0.50188459  1
  O  O319  1  0.51328404  0.10694568  0.00545077  1
  O  O320  1  0.50534915  0.11747223  0.50439378  1
  O  O321  1  0.50745910  0.64291260  -0.01383503  1
  O  O322  1  0.51448079  0.62648991  0.49811030  1
  O  O323  1  0.48333425  0.38093396  0.48739584  1
  O  O324  1  0.52545892  0.37029783  0.99069895  1
  O  O325  1  0.49459719  0.88109834  0.49436012  1
  O  O326  1  0.50152548  0.88670972  0.99114034  1
  O  O327  1  0.99860739  0.37485903  0.48382601  1
  O  O328  1  0.98872618  0.38375945  0.99861705  1
  O  O329  1  0.98863673  0.86635699  0.48710690  1
  O  O330  1  0.99784922  0.88115593  0.99343336  1
  O  O331  1  0.48817876  0.49892218  0.37618331  1
  O  O332  1  0.48522350  0.49915942  0.86809028  1
  O  O333  1  0.49170206  0.99573914  0.38195053  1
  O  O334  1  0.48936965  0.99739540  0.88182031  1
  O  O335  1  1.00136999  0.48759925  0.36619794  1
  O  O336  1  0.98578962  0.50103853  0.88073795  1
  O  O337  1  0.99173366  0.98712726  0.36740873  1
  O  O338  1  0.99167794  0.99271539  0.88072680  1
  O  O339  1  0.00601979  0.00772239  0.11733078  1
  O  O340  1  -0.01191831  0.01105392  0.61549833  1
  O  O341  1  0.00104169  0.50817144  0.12669179  1
  O  O342  1  0.01599415  0.51250201  0.62781641  1
  O  O343  1  0.50620259  -0.00630248  0.11832404  1
  O  O344  1  0.49572261  0.00768935  0.61656406  1
  O  O345  1  0.50878494  0.50370464  0.12209435  1
  O  O346  1  0.51016259  0.50469548  0.62058915  1
  O  O347  1  0.25402477  0.38756877  0.25044106  1
  O  O348  1  0.23544634  0.38288089  0.75291812  1
  O  O349  1  0.23905144  0.87081332  0.24710651  1
  O  O350  1  0.23494669  0.88105276  0.75300432  1
  O  O351  1  0.75744583  0.36124562  0.24014276  1
  O  O352  1  0.76495915  0.39249648  0.73856441  1
  O  O353  1  0.74331719  0.87975882  0.24756148  1
  O  O354  1  0.75181083  0.88408371  0.75005792  1
  O  O355  1  0.26020105  0.12652826  0.25806766  1
  O  O356  1  0.25080313  0.11316162  0.75128284  1
  O  O357  1  0.26182611  0.62159499  0.25393588  1
  O  O358  1  0.24761530  0.61619701  0.76044674  1
  O  O359  1  0.75772043  0.11552176  0.25929247  1
  O  O360  1  0.75725512  0.11947044  0.76114429  1
  O  O361  1  0.74986872  0.63826326  0.26509075  1
  O  O362  1  0.75669516  0.61836050  0.75246186  1
  O  O363  1  0.36846736  0.11748374  0.36810194  1
  O  O364  1  0.36481708  0.10889267  0.85787200  1
  O  O365  1  0.37129128  0.61964141  0.36819452  1
  O  O366  1  0.36349777  0.61419362  0.86903032  1
  O  O367  1  0.86910683  0.11702086  0.37768351  1
  O  O368  1  0.86754860  0.11567999  0.87219738  1
  O  O369  1  0.86288569  0.62519995  0.37756070  1
  O  O370  1  0.87060211  0.62368452  0.86809031  1
  O  O371  1  0.12421193  0.39366628  0.11856056  1
  O  O372  1  0.12232866  0.38631147  0.63200962  1
  O  O373  1  0.13916755  0.87520189  0.13270401  1
  O  O374  1  0.11811752  0.86659648  0.64096774  1
  O  O375  1  0.63871054  0.38155602  0.13238130  1
  O  O376  1  0.64218611  0.39170231  0.61238029  1
  O  O377  1  0.63033036  0.88229240  0.13167049  1
  O  O378  1  0.63075532  0.87949557  0.62944542  1
  O  O379  1  0.11336438  0.24381702  0.25330263  1
  O  O380  1  0.12739924  0.25683926  0.75633405  1
  O  O381  1  0.11910557  0.75990589  0.24986727  1
  O  O382  1  0.12808278  0.76145420  0.76266571  1
  O  O383  1  0.60299644  0.20034968  0.26052226  1
  O  O384  1  0.61508585  0.25857572  0.72483078  1
  O  O385  1  0.61703098  0.75691447  0.25452699  1
  O  O386  1  0.61394355  0.74887014  0.74493929  1
  O  O387  1  0.37969548  0.24108991  0.24295276  1
  O  O388  1  0.36802238  0.23876016  0.74114101  1
  O  O389  1  0.37744403  0.74382029  0.24292490  1
  O  O390  1  0.38341335  0.74980557  0.74344967  1
  O  O391  1  0.89984810  0.24501449  0.25503823  1
  O  O392  1  0.87441410  0.23331359  0.76018207  1
  O  O393  1  0.88514885  0.75694789  0.24026200  1
  O  O394  1  0.86964237  0.73556212  0.74704000  1
  O  O395  1  0.37147907  0.49619799  0.49245862  1
  O  O396  1  0.37150379  0.49972242  0.98166464  1
  O  O397  1  0.38502293  0.99522605  0.49329131  1
  O  O398  1  0.38154131  1.00568813  0.98951417  1
  O  O399  1  0.87491137  0.49084827  0.49264222  1
  O  O400  1  0.87137803  0.49531465  0.99366388  1
  O  O401  1  0.86891502  0.99059220  0.48705265  1
  O  O402  1  0.87993485  0.99311636  0.99109667  1
  O  O403  1  0.12046411  0.01460878  -0.00249052  1
  O  O404  1  0.11102576  -0.00537187  0.50572009  1
  O  O405  1  0.11589140  0.50799774  0.00482685  1
  O  O406  1  0.13698618  0.51152762  0.51059354  1
  O  O407  1  0.62156988  -0.00016795  0.01063682  1
  O  O408  1  0.61177717  0.00191792  0.50217721  1
  O  O409  1  0.65292523  0.50332158  0.02889522  1
  O  O410  1  0.62557038  0.51057092  0.50347287  1
  O  O411  1  0.37368440  0.36337463  0.13244751  1
  O  O412  1  0.37515407  0.36382402  0.61485486  1
  O  O413  1  0.36061147  0.86658452  0.12941445  1
  O  O414  1  0.38020649  0.86196131  0.61706481  1
  O  O415  1  0.86391492  0.37538273  0.11407102  1
  O  O416  1  0.87292629  0.38255655  0.61419909  1
  O  O417  1  0.86942251  0.87233027  0.11912048  1
  O  O418  1  0.87596095  0.87231721  0.61548068  1
  O  O419  1  0.13932398  0.12251303  0.37045506  1
  O  O420  1  0.12826165  0.13119082  0.87878916  1
  O  O421  1  0.13321103  0.62815850  0.38318826  1
  O  O422  1  0.12854895  0.63176121  0.87967333  1
  O  O423  1  0.63937179  0.11268549  0.39355935  1
  O  O424  1  0.63704563  0.10984554  0.89195777  1
  O  O425  1  0.63281468  0.63088160  0.37923020  1
  O  O426  1  0.63319887  0.62395217  0.87046948  1
