# generated using pymatgen
data_V85Zn86O256
_symmetry_space_group_name_H-M   'P 1'
_cell_length_a   16.94280212
_cell_length_b   16.95536115
_cell_length_c   16.94093215
_cell_angle_alpha   89.94431850
_cell_angle_beta   89.95372432
_cell_angle_gamma   89.98641959
_symmetry_Int_Tables_number   1
_chemical_formula_structural   V85Zn86O256
_chemical_formula_sum   'V85 Zn86 O256'
_cell_volume   4866.64006950
_cell_formula_units_Z   1
loop_
 _symmetry_equiv_pos_site_id
 _symmetry_equiv_pos_as_xyz
  1  'x, y, z'
loop_
 _atom_site_type_symbol
 _atom_site_label
 _atom_site_symmetry_multiplicity
 _atom_site_fract_x
 _atom_site_fract_y
 _atom_site_fract_z
 _atom_site_occupancy
  V  V0  1  0.24696758  0.50351851  0.25469415  1
  V  V1  1  0.75421163  0.00234804  0.24986337  1
  V  V2  1  0.37442120  0.75106533  0.12333137  1
  V  V3  1  0.25281810  0.74584545  0.49412107  1
  V  V4  1  0.13159086  0.23750851  0.37821077  1
  V  V5  1  0.62627843  0.87693557  0.24963157  1
  V  V6  1  0.12368145  0.49755139  0.12505649  1
  V  V7  1  0.37036584  0.62639506  0.25615952  1
  V  V8  1  0.24990315  0.37137104  0.62356585  1
  V  V9  1  0.12822229  0.49889787  0.62515581  1
  V  V10  1  0.01328735  0.87372765  0.37065663  1
  V  V11  1  0.25055221  0.62587239  0.87722652  1
  V  V12  1  0.49934388  0.48661163  0.00062972  1
  V  V13  1  0.00592833  0.76000969  0.74799106  1
  V  V14  1  -0.00142202  0.62461832  0.12394367  1
  V  V15  1  0.63226471  0.25432008  0.37184554  1
  V  V16  1  0.74206469  0.25641216  -0.00582347  1
  V  V17  1  0.25845725  0.01775643  0.25983615  1
  V  V18  1  0.12480598  0.62638765  -0.00145405  1
  V  V19  1  0.37954928  0.25035909  0.62807888  1
  V  V20  1  0.74954799  0.37922651  0.14333194  1
  V  V21  1  0.24787626  0.87552810  0.13585541  1
  V  V22  1  0.87216175  -0.00672558  0.88242288  1
  V  V23  1  0.49838606  0.12124798  0.62923582  1
  V  V24  1  0.12399067  0.36957162  0.75757716  1
  V  V25  1  0.87721666  0.75479712  0.11846500  1
  V  V26  1  0.38292097  0.87492583  0.49758483  1
  V  V27  1  -0.00172315  0.49953643  -0.00168570  1
  V  V28  1  0.74400167  0.13157647  0.87292564  1
  V  V29  1  0.61795181  0.61241822  0.50064743  1
  V  V30  1  0.87535055  0.62523669  0.74825141  1
  V  V31  1  0.50113733  0.75297098  0.25145270  1
  V  V32  1  0.75369731  0.87689114  0.12221153  1
  V  V33  1  0.87596768  0.74915573  0.62321482  1
  V  V34  1  0.50761852  0.38225153  0.37709805  1
  V  V35  1  0.50757426  0.75027119  0.75830469  1
  V  V36  1  0.88092391  -0.00167792  0.37256493  1
  V  V37  1  0.37738573  0.48451137  0.88317002  1
  V  V38  1  0.00038108  0.24808474  0.75416869  1
  V  V39  1  0.74841296  0.00013504  0.74779753  1
  V  V40  1  0.74707708  0.74887870  0.49692467  1
  V  V41  1  0.87880102  0.13038730  0.24728988  1
  V  V42  1  0.37744310  0.75134247  0.62888360  1
  V  V43  1  0.87162169  0.37623480  -0.00141850  1
  V  V44  1  0.50170246  0.62298216  0.12601367  1
  V  V45  1  0.00611407  0.75284678  0.24849538  1
  V  V46  1  0.12454916  0.37282407  0.25129200  1
  V  V47  1  0.62155782  -0.00042391  0.61669545  1
  V  V48  1  0.63033016  0.49929770  0.13859826  1
  V  V49  1  0.74895310  0.75622814  -0.00408580  1
  V  V50  1  0.87431890  0.49241494  0.37816009  1
  V  V51  1  0.87446190  0.49859896  0.87149018  1
  V  V52  1  0.74866956  0.87508230  0.62204188  1
  V  V53  1  0.75009736  0.62241962  0.36907410  1
  V  V54  1  0.62589640  0.00854336  0.12280431  1
  V  V55  1  0.00337404  0.62400267  0.62344433  1
  V  V56  1  0.43733978  0.04927394  0.44594840  1
  V  V57  1  0.87264242  0.61880269  0.24815208  1
  V  V58  1  0.23630015  -0.00377330  0.74958552  1
  V  V59  1  0.74483279  0.62738301  0.87342391  1
  V  V60  1  0.24894689  0.23427497  0.50013210  1
  V  V61  1  0.87734846  0.87459684  0.49528053  1
  V  V62  1  0.12645915  -0.00308722  0.12463601  1
  V  V63  1  0.62045309  0.37962345  0.75470517  1
  V  V64  1  0.37348341  0.49834421  0.37640446  1
  V  V65  1  0.25117084  0.49756670  0.75319326  1
  V  V66  1  0.37613792  -0.00239879  0.87726892  1
  V  V67  1  0.00583548  0.12548403  0.11370809  1
  V  V68  1  0.75500787  0.13153632  0.38227157  1
  V  V69  1  0.24091233  0.25882052  0.00111342  1
  V  V70  1  0.48957644  0.12594938  0.12966885  1
  V  V71  1  0.87559502  0.25052743  0.12284969  1
  V  V72  1  0.87365434  0.12756083  0.74177411  1
  V  V73  1  0.23734338  0.87672811  0.62823094  1
  V  V74  1  0.50553060  0.25207451  0.77061331  1
  V  V75  1  0.74388874  0.49915424  0.73756966  1
  V  V76  1  0.62346346  0.62688797  -0.00216666  1
  V  V77  1  0.13560234  0.62207300  0.49372965  1
  V  V78  1  0.12768817  0.76100051  0.87177319  1
  V  V79  1  0.23356818  0.12705569  0.88499266  1
  V  V80  1  0.00099199  0.37156110  0.38680000  1
  V  V81  1  0.49095075  0.25521825  0.25006079  1
  V  V82  1  0.37127438  0.12216954  0.75354499  1
  V  V83  1  0.37640855  0.62466648  0.75354438  1
  V  V84  1  0.01564967  0.00014595  0.50728190  1
  Zn  Zn85  1  0.26051313  0.37961105  0.12150512  1
  Zn  Zn86  1  -0.00370220  0.87403167  0.87957776  1
  Zn  Zn87  1  -0.00174174  0.49665325  0.50367128  1
  Zn  Zn88  1  0.62621793  0.87096462  0.75352829  1
  Zn  Zn89  1  0.62494290  0.75272624  0.37568820  1
  Zn  Zn90  1  0.62906946  0.13026338  0.50052648  1
  Zn  Zn91  1  0.51007397  0.61209675  0.62860385  1
  Zn  Zn92  1  0.24992208  0.75366580  0.00134849  1
  Zn  Zn93  1  0.50007491  0.00152284  0.00046997  1
  Zn  Zn94  1  0.13429119  0.74258532  0.36682029  1
  Zn  Zn95  1  0.87417178  0.26068519  0.60917654  1
  Zn  Zn96  1  0.00504660  0.24794640  0.24843538  1
  Zn  Zn97  1  0.37974680  0.37939554  0.50286480  1
  Zn  Zn98  1  0.00448816  -0.00466405  -0.00215843  1
  Zn  Zn99  1  0.50036195  0.88357629  0.37780374  1
  Zn  Zn100  1  0.74535756  0.36372098  0.60972906  1
  Zn  Zn101  1  0.62043495  0.13331845  -0.00371235  1
  Zn  Zn102  1  0.37400427  0.25651355  0.11588328  1
  Zn  Zn103  1  0.50698781  0.87224784  0.88331460  1
  Zn  Zn104  1  0.01297188  0.12641159  0.62334938  1
  Zn  Zn105  1  0.00301282  0.36717900  0.87836835  1
  Zn  Zn106  1  0.37631094  0.87845626  0.00290299  1
  Zn  Zn107  1  0.18810662  0.18595024  0.18421932  1
  Zn  Zn108  1  0.18733956  0.18784339  0.69328521  1
  Zn  Zn109  1  0.18858319  0.68485688  0.18539700  1
  Zn  Zn110  1  0.19045323  0.68823747  0.68577926  1
  Zn  Zn111  1  0.68801635  0.19349515  0.19230040  1
  Zn  Zn112  1  0.68491966  0.19334467  0.68420978  1
  Zn  Zn113  1  0.68818153  0.68853256  0.18473309  1
  Zn  Zn114  1  0.68647408  0.68387752  0.68225030  1
  Zn  Zn115  1  0.31126082  0.31380379  0.31084467  1
  Zn  Zn116  1  0.30996098  0.30607559  0.81606603  1
  Zn  Zn117  1  0.31545770  0.81788641  0.31376950  1
  Zn  Zn118  1  0.31473580  0.81502395  0.81249459  1
  Zn  Zn119  1  0.81447935  0.31243985  0.44348089  1
  Zn  Zn120  1  0.81058292  0.31407534  0.80212305  1
  Zn  Zn121  1  0.81765392  0.80987293  0.30877786  1
  Zn  Zn122  1  0.81015022  0.81187237  0.80966137  1
  Zn  Zn123  1  0.18888664  0.43384429  0.43861881  1
  Zn  Zn124  1  0.18732747  0.43877357  0.93802059  1
  Zn  Zn125  1  0.19660153  0.92890419  0.43163763  1
  Zn  Zn126  1  0.19256934  0.93869396  0.94598680  1
  Zn  Zn127  1  0.68531521  0.44301574  0.42744379  1
  Zn  Zn128  1  0.68295849  0.43912115  0.93486155  1
  Zn  Zn129  1  0.68875419  0.94067374  0.43475762  1
  Zn  Zn130  1  0.68368233  0.93834832  0.93433458  1
  Zn  Zn131  1  0.31015010  0.06383846  0.06322097  1
  Zn  Zn132  1  0.18950036  0.05807750  0.56375270  1
  Zn  Zn133  1  0.31354726  0.56123958  0.06526163  1
  Zn  Zn134  1  0.34290264  0.54871653  0.57898336  1
  Zn  Zn135  1  0.80978405  0.06806027  0.06023652  1
  Zn  Zn136  1  0.81887252  0.06145020  0.56065345  1
  Zn  Zn137  1  0.80976225  0.56238229  0.06139059  1
  Zn  Zn138  1  0.81162634  0.56090528  0.55673169  1
  Zn  Zn139  1  0.43958776  0.43567542  0.18843636  1
  Zn  Zn140  1  0.44044769  0.43645613  0.69207927  1
  Zn  Zn141  1  0.43612235  0.94014765  0.18919594  1
  Zn  Zn142  1  0.43293156  0.93605536  0.68873519  1
  Zn  Zn143  1  0.93686959  0.43460942  0.19149388  1
  Zn  Zn144  1  0.93606121  0.43324329  0.68426334  1
  Zn  Zn145  1  0.94094523  0.93672676  0.18505361  1
  Zn  Zn146  1  0.93458659  0.93751590  0.68677802  1
  Zn  Zn147  1  0.06763034  0.05797784  0.30403809  1
  Zn  Zn148  1  0.05793455  0.06063796  0.80957772  1
  Zn  Zn149  1  0.05865689  0.56125430  0.31382114  1
  Zn  Zn150  1  0.06317237  0.56368550  0.81041795  1
  Zn  Zn151  1  0.56706412  0.07090938  0.30725332  1
  Zn  Zn152  1  0.56379561  0.05928217  0.81081988  1
  Zn  Zn153  1  0.56149344  0.56638746  0.31559387  1
  Zn  Zn154  1  0.56087089  0.55952896  0.81532694  1
  Zn  Zn155  1  0.44157832  0.20916574  0.44223749  1
  Zn  Zn156  1  0.42976869  0.18316454  0.94452621  1
  Zn  Zn157  1  0.43745442  0.69068141  0.43488634  1
  Zn  Zn158  1  0.43786064  0.68302031  0.93902168  1
  Zn  Zn159  1  0.94943608  0.18048838  0.43381994  1
  Zn  Zn160  1  0.93120938  0.18452539  0.93328646  1
  Zn  Zn161  1  0.93932967  0.68519804  0.43592665  1
  Zn  Zn162  1  0.93721367  0.68898288  0.93505201  1
  Zn  Zn163  1  0.06617499  0.31049180  0.05898661  1
  Zn  Zn164  1  0.06296545  0.30438243  0.56612297  1
  Zn  Zn165  1  0.06356513  0.81889383  0.05676472  1
  Zn  Zn166  1  0.06449956  0.80968731  0.55639687  1
  Zn  Zn167  1  0.56654323  0.31434731  0.07100805  1
  Zn  Zn168  1  0.57050530  0.31516859  0.56065665  1
  Zn  Zn169  1  0.56385403  0.81492573  0.06166159  1
  Zn  Zn170  1  0.56134506  0.80785140  0.56796129  1
  O  O171  1  0.11470145  0.11547652  0.12780874  1
  O  O172  1  0.12611788  0.12208549  0.62895637  1
  O  O173  1  0.11831202  0.61819969  0.11823293  1
  O  O174  1  0.12032907  0.61892901  0.61971624  1
  O  O175  1  0.62211097  0.12038634  0.12599474  1
  O  O176  1  0.61460350  0.12019022  0.62130179  1
  O  O177  1  0.62340810  0.61841334  0.11806956  1
  O  O178  1  0.62549732  0.62388825  0.60667915  1
  O  O179  1  0.38520900  0.38227756  0.37272802  1
  O  O180  1  0.36760147  0.38606115  0.87433833  1
  O  O181  1  0.37978049  0.87151341  0.39017379  1
  O  O182  1  0.37696516  0.88580590  0.87793333  1
  O  O183  1  0.88699584  0.38340660  0.37124618  1
  O  O184  1  0.87396811  0.38824200  0.87612554  1
  O  O185  1  0.88397338  0.87895321  0.37774018  1
  O  O186  1  0.87097647  0.89029848  0.86805589  1
  O  O187  1  0.24441432  -0.00162840  0.35866762  1
  O  O188  1  0.25623358  0.00676482  0.87080247  1
  O  O189  1  0.25446961  0.49353865  0.36092848  1
  O  O190  1  0.25565206  0.50810618  0.87342367  1
  O  O191  1  0.75948225  0.00581060  0.36680620  1
  O  O192  1  0.75696530  0.00545922  0.86594002  1
  O  O193  1  0.75916709  0.51476040  0.37176395  1
  O  O194  1  0.75632359  0.51165552  0.86875373  1
  O  O195  1  0.24190074  0.50037140  0.13520249  1
  O  O196  1  0.25107750  0.48942947  0.63426064  1
  O  O197  1  0.24322537  0.99489114  0.13001520  1
  O  O198  1  0.25035962  0.98459983  0.63263432  1
  O  O199  1  0.74568256  0.48825719  0.12198007  1
  O  O200  1  0.75188075  0.50719858  0.63735513  1
  O  O201  1  0.74676364  0.99702231  0.12997564  1
  O  O202  1  0.74574614  0.99581062  0.62930157  1
  O  O203  1  0.01223578  0.37359222  0.25718692  1
  O  O204  1  0.00836506  0.36847504  0.75238126  1
  O  O205  1  -0.00496727  0.86438018  0.25803388  1
  O  O206  1  -0.00454120  0.86261998  0.75254948  1
  O  O207  1  0.50174259  0.36321016  0.25849842  1
  O  O208  1  0.50509382  0.36136871  0.74965544  1
  O  O209  1  0.50892414  0.87030588  0.25002325  1
  O  O210  1  0.49872415  0.85782916  0.74780975  1
  O  O211  1  0.50451441  0.14080166  0.24237654  1
  O  O212  1  0.49587108  0.13569752  0.74726524  1
  O  O213  1  0.49464690  0.63409939  0.24477397  1
  O  O214  1  0.49457005  0.63269675  0.74995762  1
  O  O215  1  0.99356146  0.12416384  0.23848544  1
  O  O216  1  0.99102631  0.13025752  0.74864629  1
  O  O217  1  0.99225046  0.63044058  0.24318714  1
  O  O218  1  0.99650147  0.63163970  0.73850314  1
  O  O219  1  0.35137960  0.24186475  -0.00067015  1
  O  O220  1  0.36626034  0.25729043  0.51201144  1
  O  O221  1  0.37572357  0.74487164  0.01580482  1
  O  O222  1  0.37012910  0.75304851  0.50874715  1
  O  O223  1  0.86656963  0.25697475  0.00454518  1
  O  O224  1  0.88801988  0.24731999  0.49561948  1
  O  O225  1  0.86583730  0.74124970  0.01114867  1
  O  O226  1  0.86601317  0.75226992  0.50282644  1
  O  O227  1  0.13315247  0.25180900  0.48731702  1
  O  O228  1  0.13891771  0.24737056  0.99754712  1
  O  O229  1  0.13577884  0.74008794  0.49837683  1
  O  O230  1  0.12607927  0.74110993  0.99068319  1
  O  O231  1  0.61349608  0.24494864  0.47942956  1
  O  O232  1  0.63881058  0.25281173  1.00389512  1
  O  O233  1  0.63863181  0.75157806  0.49780028  1
  O  O234  1  0.63466676  0.73661192  1.00841881  1
  O  O235  1  0.50181445  0.24589470  0.13643346  1
  O  O236  1  0.49101954  0.24007563  0.62501844  1
  O  O237  1  0.49466408  0.74578850  0.13497279  1
  O  O238  1  0.49108263  0.74101699  0.63481077  1
  O  O239  1  0.99505922  0.24245994  0.12416687  1
  O  O240  1  0.99578350  0.24679991  0.63821497  1
  O  O241  1  0.99400481  0.74613027  0.12829741  1
  O  O242  1  0.99770552  0.74471100  0.62964132  1
  O  O243  1  0.01530682  0.25602079  0.37073774  1
  O  O244  1  -0.00670993  0.25016909  0.86165562  1
  O  O245  1  -0.00137869  0.75602505  0.36497291  1
  O  O246  1  0.00864261  0.74867366  0.86506799  1
  O  O247  1  0.50518053  0.26123543  0.36447474  1
  O  O248  1  0.49587163  0.24460170  0.86804494  1
  O  O249  1  0.50279122  0.75355750  0.36062973  1
  O  O250  1  0.49453435  0.74832651  0.86163302  1
  O  O251  1  0.25339055  0.13546178  0.50523462  1
  O  O252  1  0.24656045  0.12568721  0.98767369  1
  O  O253  1  0.24253040  0.63417609  0.51062155  1
  O  O254  1  0.24410723  0.62691345  0.99356885  1
  O  O255  1  0.75382789  0.11739671  0.48488901  1
  O  O256  1  0.74944145  0.13804683  0.99043647  1
  O  O257  1  0.74152738  0.63153742  0.49130654  1
  O  O258  1  0.74375910  0.63148965  0.99250829  1
  O  O259  1  0.24413853  0.36419417  0.00098573  1
  O  O260  1  0.24948309  0.36889225  0.51554478  1
  O  O261  1  0.25654575  0.87121295  0.01569465  1
  O  O262  1  0.25911028  0.86749863  0.51060268  1
  O  O263  1  0.75657801  0.37209762  -0.00105980  1
  O  O264  1  0.74529111  0.38188629  0.49591706  1
  O  O265  1  0.74445091  0.86166639  0.00299284  1
  O  O266  1  0.75614363  0.86821062  0.50115755  1
  O  O267  1  0.12992066  0.49636354  0.24652311  1
  O  O268  1  0.13249446  0.49514231  0.74359916  1
  O  O269  1  0.13833605  1.00137186  0.23468482  1
  O  O270  1  0.13697250  0.99646672  0.75631754  1
  O  O271  1  0.62476156  0.51022924  0.23759087  1
  O  O272  1  0.62838900  0.49221542  0.74936987  1
  O  O273  1  0.63277839  0.99581173  0.24096886  1
  O  O274  1  0.63781760  1.00314789  0.73797655  1
  O  O275  1  0.35775909  -0.00236624  0.24587578  1
  O  O276  1  0.36645021  0.00643517  0.75624335  1
  O  O277  1  0.36714876  0.50791229  0.25578761  1
  O  O278  1  0.36856660  0.50527326  0.76458676  1
  O  O279  1  0.87336489  0.00830208  0.25262898  1
  O  O280  1  0.86377234  0.00477290  0.75303848  1
  O  O281  1  0.88155861  0.51277418  0.25855443  1
  O  O282  1  0.86810011  0.50749389  0.75637293  1
  O  O283  1  0.11923798  0.37002275  0.36830134  1
  O  O284  1  0.12260873  0.38416099  0.86097330  1
  O  O285  1  0.11562726  0.86412251  0.37693090  1
  O  O286  1  0.12908585  0.86287874  0.87885498  1
  O  O287  1  0.61334311  0.37272857  0.37014213  1
  O  O288  1  0.62558734  0.37738577  0.85713184  1
  O  O289  1  0.62526837  0.87604096  0.36143761  1
  O  O290  1  0.61961422  0.88078672  0.86593461  1
  O  O291  1  0.38721074  0.12914731  0.12269264  1
  O  O292  1  0.38168634  0.13279974  0.64243616  1
  O  O293  1  0.37997456  0.63043039  0.13713957  1
  O  O294  1  0.35802796  0.64484743  0.63990125  1
  O  O295  1  0.87985886  0.12933378  0.12971932  1
  O  O296  1  0.88175218  0.11883961  0.63675624  1
  O  O297  1  0.87827321  0.62963718  0.13042019  1
  O  O298  1  0.88328019  0.62986776  0.62696336  1
  O  O299  1  0.24770298  0.25238168  0.11222427  1
  O  O300  1  0.25952181  0.25399256  0.62329640  1
  O  O301  1  0.25792543  0.75526932  0.12642420  1
  O  O302  1  0.25536003  0.76143234  0.62004323  1
  O  O303  1  0.75537000  0.26240410  0.11920635  1
  O  O304  1  0.75905827  0.24781986  0.62593718  1
  O  O305  1  0.75820622  0.75521428  0.11673722  1
  O  O306  1  0.75580239  0.75372382  0.61674454  1
  O  O307  1  0.23995529  0.25630142  0.38473629  1
  O  O308  1  0.24826787  0.23451429  0.88109481  1
  O  O309  1  0.25221169  0.75346713  0.38907965  1
  O  O310  1  0.24471768  0.74335724  0.87548140  1
  O  O311  1  0.74512358  0.24266632  0.37232802  1
  O  O312  1  0.75741067  0.24280912  0.88131786  1
  O  O313  1  0.75230656  0.74160998  0.38088408  1
  O  O314  1  0.75791332  0.73779986  0.88223494  1
  O  O315  1  -0.01087464  0.11824628  0.01069851  1
  O  O316  1  0.00419972  0.10272698  0.49992816  1
  O  O317  1  0.00415849  0.61992319  0.00455708  1
  O  O318  1  0.00870391  0.62705397  0.51241027  1
  O  O319  1  0.50490445  0.12385775  0.01146677  1
  O  O320  1  0.49378963  0.11727273  0.50898346  1
  O  O321  1  0.50881836  0.62188482  0.00797135  1
  O  O322  1  0.51707185  0.63622414  0.49700291  1
  O  O323  1  0.49767495  0.37035715  0.48183792  1
  O  O324  1  0.50960241  0.38779818  1.00413913  1
  O  O325  1  0.49005474  0.86763464  0.50068216  1
  O  O326  1  0.49562577  0.88112577  1.00136196  1
  O  O327  1  1.01052739  0.37658641  0.48982395  1
  O  O328  1  0.99178714  0.38117536  0.99768695  1
  O  O329  1  0.99724440  0.87934002  0.49039881  1
  O  O330  1  0.99743973  0.88072245  0.99348996  1
  O  O331  1  0.49204746  0.48833905  0.36527203  1
  O  O332  1  0.48855403  0.50568319  0.88751332  1
  O  O333  1  0.50431962  1.00300418  0.38008214  1
  O  O334  1  0.48767609  1.00196227  0.87385427  1
  O  O335  1  0.99355317  0.49003543  0.37738471  1
  O  O336  1  0.99011019  0.50227041  0.87943605  1
  O  O337  1  1.00145713  0.99064990  0.37845439  1
  O  O338  1  0.98273438  1.00006844  0.87289961  1
  O  O339  1  0.01132406  0.00508280  0.12573198  1
  O  O340  1  -0.00030167  -0.00712298  0.60880762  1
  O  O341  1  0.00300335  0.50508155  0.11928125  1
  O  O342  1  0.00754136  0.50803482  0.62529180  1
  O  O343  1  0.50926475  0.01034822  0.12920588  1
  O  O344  1  0.50734616  0.01173757  0.63743439  1
  O  O345  1  0.50941910  0.50592916  0.12132398  1
  O  O346  1  0.45082091  0.51731706  0.61736339  1
  O  O347  1  0.23750142  0.38258990  0.24825734  1
  O  O348  1  0.24314080  0.37419084  0.74308636  1
  O  O349  1  0.25122668  0.87460469  0.23901045  1
  O  O350  1  0.25511010  0.88094246  0.73676494  1
  O  O351  1  0.75722210  0.37539024  0.23770225  1
  O  O352  1  0.73731802  0.38683759  0.75189309  1
  O  O353  1  0.74526125  0.87981332  0.24435165  1
  O  O354  1  0.74984914  0.88235017  0.73953137  1
  O  O355  1  0.25206144  0.11767346  0.24928652  1
  O  O356  1  0.25661204  0.11759628  0.75973897  1
  O  O357  1  0.25846561  0.61754933  0.24872310  1
  O  O358  1  0.25335330  0.61903007  0.75965842  1
  O  O359  1  0.76003538  0.12124458  0.25619007  1
  O  O360  1  0.75448747  0.11885173  0.75402741  1
  O  O361  1  0.76041303  0.63469498  0.25692299  1
  O  O362  1  0.75323255  0.62221480  0.75623075  1
  O  O363  1  0.38727964  0.11598044  0.39328550  1
  O  O364  1  0.36862942  0.11731648  0.86570943  1
  O  O365  1  0.38240838  0.61791123  0.36274601  1
  O  O366  1  0.36251674  0.62314022  0.87221787  1
  O  O367  1  0.87454579  0.11846929  0.36448845  1
  O  O368  1  0.86397451  0.11416585  0.86358431  1
  O  O369  1  0.87007400  0.62117576  0.36611863  1
  O  O370  1  0.86920639  0.61658990  0.86892034  1
  O  O371  1  0.12336569  0.38328521  0.13334739  1
  O  O372  1  0.13178711  0.37913844  0.63384686  1
  O  O373  1  0.13248462  0.88540524  0.12523777  1
  O  O374  1  0.13891835  0.86850475  0.62243825  1
  O  O375  1  0.64105226  0.38405069  0.12637850  1
  O  O376  1  0.62729816  0.36694888  0.64287930  1
  O  O377  1  0.63232082  0.88274748  0.13459040  1
  O  O378  1  0.63014144  0.88243286  0.62838984  1
  O  O379  1  0.12859692  0.25770717  0.25930832  1
  O  O380  1  0.11651622  0.26004868  0.74969615  1
  O  O381  1  0.11060367  0.73976935  0.24972936  1
  O  O382  1  0.11655813  0.74257904  0.75860422  1
  O  O383  1  0.61622965  0.24813697  0.26440721  1
  O  O384  1  0.60943281  0.25325830  0.75342253  1
  O  O385  1  0.61852094  0.75952996  0.24798589  1
  O  O386  1  0.61041739  0.74668560  0.74344914  1
  O  O387  1  0.38858336  0.25013467  0.25205187  1
  O  O388  1  0.38435382  0.24454063  0.74771149  1
  O  O389  1  0.38111349  0.74489017  0.24415389  1
  O  O390  1  0.38313699  0.74602461  0.74652950  1
  O  O391  1  0.88028095  0.23589218  0.24020026  1
  O  O392  1  0.88153948  0.23939630  0.75055341  1
  O  O393  1  0.88420947  0.74016754  0.23855401  1
  O  O394  1  0.88212319  0.74316099  0.74342829  1
  O  O395  1  0.35939190  0.49669433  0.47862222  1
  O  O396  1  0.38647724  0.50668413  0.99507736  1
  O  O397  1  0.37702944  0.98878902  0.50203239  1
  O  O398  1  0.37564705  1.00220675  0.98993660  1
  O  O399  1  0.88115999  0.51030684  0.48266993  1
  O  O400  1  0.87777636  0.49675811  0.99119086  1
  O  O401  1  0.88645184  0.99202066  0.49093889  1
  O  O402  1  0.86760136  1.00290404  0.98359557  1
  O  O403  1  0.12616568  0.00056718  0.01735336  1
  O  O404  1  0.11939310  -0.00970771  0.49699012  1
  O  O405  1  0.11849330  0.50642957  0.00441040  1
  O  O406  1  0.12711861  0.50632052  0.50793186  1
  O  O407  1  0.62884421  0.00345348  0.01518463  1
  O  O408  1  0.63032389  0.00297025  0.51327177  1
  O  O409  1  0.62066290  0.51096260  0.00689387  1
  O  O410  1  0.61878756  0.51447785  0.49134142  1
  O  O411  1  0.37320600  0.37036996  0.12985314  1
  O  O412  1  0.36740759  0.36407038  0.62899096  1
  O  O413  1  0.37008824  0.86488145  0.12711555  1
  O  O414  1  0.37003658  0.86485893  0.61947314  1
  O  O415  1  0.86707798  0.37240413  0.11982371  1
  O  O416  1  0.86065667  0.37421444  0.63288902  1
  O  O417  1  0.86800605  0.86426822  0.13001173  1
  O  O418  1  0.86975461  0.86782038  0.61594245  1
  O  O419  1  0.12092760  0.13976573  0.36930909  1
  O  O420  1  0.13606441  0.11860860  0.87295888  1
  O  O421  1  0.11932075  0.62452647  0.38939140  1
  O  O422  1  0.13520501  0.62926794  0.87868257  1
  O  O423  1  0.63901337  0.13185410  0.37565315  1
  O  O424  1  0.64021660  0.11722835  0.87625191  1
  O  O425  1  0.63369814  0.63045033  0.38096992  1
  O  O426  1  0.63454401  0.62096270  0.88361521  1
