# generated using pymatgen
data_V85Zn86O256
_symmetry_space_group_name_H-M   'P 1'
_cell_length_a   16.97794127
_cell_length_b   16.96551265
_cell_length_c   16.96544530
_cell_angle_alpha   89.96369250
_cell_angle_beta   89.95865594
_cell_angle_gamma   90.01084006
_symmetry_Int_Tables_number   1
_chemical_formula_structural   V85Zn86O256
_chemical_formula_sum   'V85 Zn86 O256'
_cell_volume   4886.71565601
_cell_formula_units_Z   1
loop_
 _symmetry_equiv_pos_site_id
 _symmetry_equiv_pos_as_xyz
  1  'x, y, z'
loop_
 _atom_site_type_symbol
 _atom_site_label
 _atom_site_symmetry_multiplicity
 _atom_site_fract_x
 _atom_site_fract_y
 _atom_site_fract_z
 _atom_site_occupancy
  V  V0  1  0.75055460  0.62470775  0.38065636  1
  V  V1  1  0.87898566  0.74989194  0.13496407  1
  V  V2  1  0.87130584  0.87083495  0.50395078  1
  V  V3  1  0.57837932  0.44391714  0.68487329  1
  V  V4  1  0.63539935  0.74992034  0.38122632  1
  V  V5  1  0.50122837  0.12554275  0.12341416  1
  V  V6  1  0.00636530  -0.00722323  0.49878931  1
  V  V7  1  0.12830628  0.24455468  0.87201282  1
  V  V8  1  0.37524489  0.37473816  0.49535327  1
  V  V9  1  0.75059448  0.87187298  0.13004468  1
  V  V10  1  0.18533005  0.95555555  0.17539158  1
  V  V11  1  0.63205124  0.12825068  -0.00921119  1
  V  V12  1  0.50222166  0.75846154  0.74850452  1
  V  V13  1  -0.00032837  0.12027770  0.12506798  1
  V  V14  1  0.50119852  0.87471468  0.37094417  1
  V  V15  1  0.12514557  0.37060347  0.24756388  1
  V  V16  1  0.62594767  0.25703451  0.85831806  1
  V  V17  1  0.63223137  0.24539242  0.37331348  1
  V  V18  1  -0.00326966  0.49507116  0.49745079  1
  V  V19  1  0.87848033  -0.00484267  0.37749273  1
  V  V20  1  0.87377630  0.37903026  -0.00735343  1
  V  V21  1  0.25011744  0.37081818  0.12201610  1
  V  V22  1  0.00056392  0.62647263  0.13126024  1
  V  V23  1  -0.00381463  0.24661594  0.74955252  1
  V  V24  1  0.37086902  0.87571459  0.49763530  1
  V  V25  1  0.87181798  0.12697520  0.25877602  1
  V  V26  1  0.50115950  0.37954641  0.37822260  1
  V  V27  1  0.50336416  0.00416669  0.50197253  1
  V  V28  1  0.12647387  0.62901572  0.49068475  1
  V  V29  1  0.75954405  0.37812747  0.61910606  1
  V  V30  1  0.24881627  0.88195512  0.63305972  1
  V  V31  1  0.24546879  0.50011521  0.74680623  1
  V  V32  1  0.37269894  0.49902039  0.87350922  1
  V  V33  1  -0.00042424  0.86892635  0.87650397  1
  V  V34  1  0.25736120  0.50169722  0.25163778  1
  V  V35  1  0.24516265  0.36603792  0.61278838  1
  V  V36  1  0.36905684  0.12436900  0.24718250  1
  V  V37  1  0.24330385  0.75236749  0.49202019  1
  V  V38  1  0.62369255  0.61257615  0.50348514  1
  V  V39  1  0.37372137  0.00270602  0.37037337  1
  V  V40  1  -0.00154623  0.12115158  0.62580516  1
  V  V41  1  -0.00419264  0.62320675  0.62896062  1
  V  V42  1  0.86967256  0.74898600  0.62794039  1
  V  V43  1  0.25158471  0.24308446  -0.00598467  1
  V  V44  1  0.62317825  0.62552622  -0.00049517  1
  V  V45  1  0.25426716  0.12980107  0.38769470  1
  V  V46  1  0.86689341  0.00284578  0.87597986  1
  V  V47  1  0.12546054  0.37298186  0.74823980  1
  V  V48  1  -0.00483037  0.37216560  0.37797580  1
  V  V49  1  0.26628546  0.76918778  -0.00566377  1
  V  V50  1  0.12490526  0.87763853  0.75381417  1
  V  V51  1  0.49729965  -0.00669912  -0.00691164  1
  V  V52  1  0.12667986  0.49735651  0.12362232  1
  V  V53  1  0.87367322  0.49565286  0.37664333  1
  V  V54  1  0.86121146  0.12585643  0.75153753  1
  V  V55  1  0.87408249  0.25063597  0.12255451  1
  V  V56  1  0.12720814  0.63564631  -0.00765484  1
  V  V57  1  0.49181209  0.73859049  0.25559116  1
  V  V58  1  0.50523381  0.12670292  0.63630032  1
  V  V59  1  0.37700450  0.24560148  0.62171975  1
  V  V60  1  0.37275824  0.62500318  0.74717370  1
  V  V61  1  0.37546291  0.37228959  -0.00587287  1
  V  V62  1  0.87312325  0.87226614  0.00101406  1
  V  V63  1  -0.00135760  0.49972224  -0.00477140  1
  V  V64  1  0.62804095  0.00073667  0.12460293  1
  V  V65  1  0.76967111  0.49533104  0.75170099  1
  V  V66  1  0.00010308  0.24805363  0.25035433  1
  V  V67  1  0.11984742  0.12139867  -0.00213942  1
  V  V68  1  0.12839109  0.24479779  0.38014946  1
  V  V69  1  0.49852821  0.49637520  -0.00283483  1
  V  V70  1  0.36158179  0.12602092  0.75732150  1
  V  V71  1  0.50263941  0.62255285  0.61977406  1
  V  V72  1  0.63572058  0.12375958  0.49949017  1
  V  V73  1  0.75042188  0.37706878  0.12335150  1
  V  V74  1  0.37417936  0.24727680  0.12218021  1
  V  V75  1  0.62495892  0.50094143  0.12572999  1
  V  V76  1  0.75009295  0.00327808  0.25642927  1
  V  V77  1  0.36900917  0.74825342  0.62468635  1
  V  V78  1  0.74574392  -0.02137676  0.74472415  1
  V  V79  1  0.12508815  0.50030595  0.62201931  1
  V  V80  1  0.76063123  0.61855775  0.87246967  1
  V  V81  1  0.50157167  0.25036080  0.25003809  1
  V  V82  1  -0.00269076  0.37492826  0.87361052  1
  V  V83  1  0.00011741  0.74531510  0.75353925  1
  V  V84  1  0.62535006  0.75429426  0.87151906  1
  Zn  Zn85  1  0.62721523  0.37463281  0.24986277  1
  Zn  Zn86  1  0.74769103  0.74642990  0.00220924  1
  Zn  Zn87  1  0.87784527  0.62775660  0.25665446  1
  Zn  Zn88  1  0.34180607  -0.01723537  0.85120035  1
  Zn  Zn89  1  0.12872991  0.00374239  0.63241641  1
  Zn  Zn90  1  0.70649202  0.80743972  0.56536811  1
  Zn  Zn91  1  0.50246056  0.37141209  0.85910486  1
  Zn  Zn92  1  0.87606689  0.25110860  0.61532502  1
  Zn  Zn93  1  0.25751269  0.65111911  0.34914198  1
  Zn  Zn94  1  0.24320808  0.62693969  0.87129319  1
  Zn  Zn95  1  0.75222593  0.50242270  0.24892469  1
  Zn  Zn96  1  0.75205773  0.24671038  -0.00824933  1
  Zn  Zn97  1  0.49349403  0.62093887  0.13246124  1
  Zn  Zn98  1  0.13028543  0.12638026  0.50696242  1
  Zn  Zn99  1  0.62714513  0.87132282  0.25183325  1
  Zn  Zn100  1  0.38013229  0.50842171  0.37539599  1
  Zn  Zn101  1  0.75831156  0.25289485  0.49178310  1
  Zn  Zn102  1  0.49339035  0.87141254  0.88009232  1
  Zn  Zn103  1  0.37404863  0.75185353  0.12054666  1
  Zn  Zn104  1  -0.00215768  -0.00260130  0.00079859  1
  Zn  Zn105  1  0.62631459  -0.02003328  0.62951215  1
  Zn  Zn106  1  0.11444417  0.84303608  0.28748646  1
  Zn  Zn107  1  0.18493854  0.17207043  0.18978560  1
  Zn  Zn108  1  0.18822369  0.18772005  0.68646202  1
  Zn  Zn109  1  0.19045641  0.68846950  0.17378689  1
  Zn  Zn110  1  0.18218922  0.69105499  0.68433075  1
  Zn  Zn111  1  0.68909999  0.18748257  0.18420254  1
  Zn  Zn112  1  0.68856136  0.18873371  0.68207842  1
  Zn  Zn113  1  0.68590763  0.68769672  0.19478007  1
  Zn  Zn114  1  0.68530603  0.67599805  0.69421962  1
  Zn  Zn115  1  0.31167842  0.31174939  0.31147626  1
  Zn  Zn116  1  0.31357237  0.30886478  0.80618613  1
  Zn  Zn117  1  0.32437458  0.84371693  0.26925450  1
  Zn  Zn118  1  0.31068636  0.80661112  0.81644249  1
  Zn  Zn119  1  0.81292990  0.31517816  0.30937243  1
  Zn  Zn120  1  0.80692287  0.31081193  0.81056617  1
  Zn  Zn121  1  0.94147789  0.81414669  0.31590414  1
  Zn  Zn122  1  0.81584373  0.80426323  0.81451726  1
  Zn  Zn123  1  0.18205162  0.43681316  0.43415043  1
  Zn  Zn124  1  0.18637487  0.43533859  0.93552961  1
  Zn  Zn125  1  0.19138216  0.93932624  0.44039077  1
  Zn  Zn126  1  0.17870526  0.93654202  0.93270783  1
  Zn  Zn127  1  0.68462635  0.43698583  0.43801341  1
  Zn  Zn128  1  0.68678858  0.43605565  0.93375347  1
  Zn  Zn129  1  0.68893942  0.93977191  0.43623269  1
  Zn  Zn130  1  0.68829925  0.93666754  0.93776484  1
  Zn  Zn131  1  0.28854988  0.03353568  0.01856052  1
  Zn  Zn132  1  0.31725843  0.06093858  0.56506373  1
  Zn  Zn133  1  0.31346137  0.56810684  0.06568457  1
  Zn  Zn134  1  0.31292159  0.56244881  0.55209004  1
  Zn  Zn135  1  0.81299293  0.06194128  0.06405165  1
  Zn  Zn136  1  0.81401527  0.05878031  0.56755136  1
  Zn  Zn137  1  0.81353937  0.56344961  0.06038430  1
  Zn  Zn138  1  0.81214464  0.56092475  0.56257037  1
  Zn  Zn139  1  0.43818325  0.43368139  0.18467180  1
  Zn  Zn140  1  0.41861037  0.43902497  0.68003211  1
  Zn  Zn141  1  0.43718650  0.93892610  0.17852324  1
  Zn  Zn142  1  0.43618099  0.93996266  0.68845547  1
  Zn  Zn143  1  0.93854814  0.44001101  0.18893502  1
  Zn  Zn144  1  0.93856706  0.43648077  0.68716789  1
  Zn  Zn145  1  0.94331916  0.93916928  0.18940871  1
  Zn  Zn146  1  0.93433116  0.93522952  0.68812998  1
  Zn  Zn147  1  0.08496958  0.02167542  0.32653272  1
  Zn  Zn148  1  0.05624589  0.05837251  0.81395529  1
  Zn  Zn149  1  0.06599952  0.67238954  0.31411254  1
  Zn  Zn150  1  0.05770444  0.56076252  0.81231715  1
  Zn  Zn151  1  0.56262676  0.06430595  0.31293346  1
  Zn  Zn152  1  0.56850712  0.06141373  0.81302718  1
  Zn  Zn153  1  0.56727646  0.56060631  0.31497949  1
  Zn  Zn154  1  0.55959142  0.57064793  0.81621793  1
  Zn  Zn155  1  0.44192472  0.19075953  0.44054558  1
  Zn  Zn156  1  0.44642529  0.18547811  0.93327061  1
  Zn  Zn157  1  0.43304479  0.68652380  0.43480376  1
  Zn  Zn158  1  0.43551673  0.68512546  0.93678279  1
  Zn  Zn159  1  0.93695883  0.18305167  0.43968947  1
  Zn  Zn160  1  0.93535562  0.18814034  0.93446419  1
  Zn  Zn161  1  0.93211083  0.68156497  0.44766002  1
  Zn  Zn162  1  0.93787297  0.68968601  0.94479724  1
  Zn  Zn163  1  0.06120941  0.30886167  0.05954443  1
  Zn  Zn164  1  0.05839580  0.30834325  0.56115249  1
  Zn  Zn165  1  0.06363349  0.81592222  0.07128655  1
  Zn  Zn166  1  0.06047284  0.81306685  0.56469066  1
  Zn  Zn167  1  0.56355345  0.31268802  0.05874353  1
  Zn  Zn168  1  0.56235786  0.30618857  0.55787845  1
  Zn  Zn169  1  0.56230282  0.81080535  0.06771234  1
  Zn  Zn170  1  0.54774698  0.80731720  0.55657696  1
  O  O171  1  0.10804805  0.14387014  0.11019132  1
  O  O172  1  0.11569555  0.12331295  0.62701978  1
  O  O173  1  0.11794496  0.61408510  0.11222379  1
  O  O174  1  0.11289151  0.61873183  0.61985120  1
  O  O175  1  0.62083128  0.11795650  0.11799190  1
  O  O176  1  0.61840560  0.12424881  0.61596153  1
  O  O177  1  0.62233393  0.61727202  0.11806977  1
  O  O178  1  0.61560578  0.62711300  0.61727744  1
  O  O179  1  0.38251338  0.37064501  0.38121545  1
  O  O180  1  0.37950737  0.37992765  0.87533882  1
  O  O181  1  0.38072495  0.88668368  0.37242002  1
  O  O182  1  0.38256960  0.88021847  0.85771222  1
  O  O183  1  0.88767877  0.37822046  0.37039342  1
  O  O184  1  0.87850173  0.36836323  0.88681582  1
  O  O185  1  0.88130638  0.88972697  0.38301281  1
  O  O186  1  0.87585029  0.87695519  0.88688869  1
  O  O187  1  0.26860283  0.01109228  0.38279321  1
  O  O188  1  0.25548053  0.01422010  0.91095861  1
  O  O189  1  0.24775921  0.48717928  0.35368991  1
  O  O190  1  0.25403768  0.49749581  0.86342421  1
  O  O191  1  0.75767393  -0.00202297  0.36237248  1
  O  O192  1  0.75993706  -0.00656592  0.86506527  1
  O  O193  1  0.75759572  0.50151764  0.37360439  1
  O  O194  1  0.74755982  0.50777104  0.86512904  1
  O  O195  1  0.24537954  0.49043895  0.12670328  1
  O  O196  1  0.24344173  0.49145548  0.62861833  1
  O  O197  1  0.25702152  1.00385295  0.12289919  1
  O  O198  1  0.25072296  0.98597078  0.62153018  1
  O  O199  1  0.74284779  0.49451003  0.12416330  1
  O  O200  1  0.75559992  0.49301109  0.63964541  1
  O  O201  1  0.74185513  0.99500823  0.13018014  1
  O  O202  1  0.74958560  0.99622845  0.64099830  1
  O  O203  1  0.00612980  0.36882514  0.25615544  1
  O  O204  1  0.00557327  0.36839588  0.75350794  1
  O  O205  1  0.00766801  0.87126454  0.24490189  1
  O  O206  1  0.00219338  0.86749565  0.75822242  1
  O  O207  1  0.50154135  0.36184282  0.25315977  1
  O  O208  1  0.50985765  0.38892864  0.73863969  1
  O  O209  1  0.50514551  0.87011093  0.26403299  1
  O  O210  1  0.50070273  0.86005688  0.74398371  1
  O  O211  1  0.49583674  0.13627475  0.24609831  1
  O  O212  1  0.50157289  0.11977804  0.73793363  1
  O  O213  1  0.50398514  0.63536763  0.25414965  1
  O  O214  1  0.49216267  0.62907208  0.73895598  1
  O  O215  1  0.98709883  0.13416249  0.23938261  1
  O  O216  1  0.99134560  0.12635378  0.74177114  1
  O  O217  1  0.99963180  0.61707582  0.23372446  1
  O  O218  1  1.00299802  0.63115439  0.74175152  1
  O  O219  1  0.36884238  0.25056116  -0.00004766  1
  O  O220  1  0.37659619  0.25803933  0.51062446  1
  O  O221  1  0.37088440  0.75985606  -0.00488099  1
  O  O222  1  0.36735330  0.75903349  0.50734243  1
  O  O223  1  0.87249427  0.25743450  0.00635757  1
  O  O224  1  0.86938193  0.24492204  0.50164084  1
  O  O225  1  0.86841127  0.75806852  0.00998335  1
  O  O226  1  0.87894718  0.75922944  0.51314657  1
  O  O227  1  0.11695417  0.24445672  0.48443980  1
  O  O228  1  0.13072895  0.24704431  0.98884684  1
  O  O229  1  0.13021845  0.74211533  0.50664989  1
  O  O230  1  0.12462106  0.73624271  1.00243852  1
  O  O231  1  0.63254764  0.24152374  0.49104525  1
  O  O232  1  0.62855302  0.23615801  1.00247203  1
  O  O233  1  0.62520130  0.74029981  0.49413587  1
  O  O234  1  0.62511695  0.73929758  0.99679766  1
  O  O235  1  0.49617331  0.24674795  0.13078915  1
  O  O236  1  0.49152439  0.23844859  0.61943452  1
  O  O237  1  0.50331093  0.75042331  0.14725526  1
  O  O238  1  0.48847817  0.73941391  0.63064873  1
  O  O239  1  0.98702437  0.24863682  0.12856787  1
  O  O240  1  0.99761744  0.24162586  0.63310993  1
  O  O241  1  0.99125960  0.73793597  0.11524095  1
  O  O242  1  0.99297485  0.74049111  0.63186669  1
  O  O243  1  0.00450395  0.25306698  0.36889341  1
  O  O244  1  0.00569700  0.25646253  0.86809953  1
  O  O245  1  -0.00473949  0.73550441  0.37411622  1
  O  O246  1  -0.01015047  0.75893112  0.86852152  1
  O  O247  1  0.50945671  0.25625103  0.36688204  1
  O  O248  1  0.51859989  0.25536835  0.87953836  1
  O  O249  1  0.50792215  0.75624200  0.37297086  1
  O  O250  1  0.50688326  0.74794914  0.86575731  1
  O  O251  1  0.25398315  0.12556472  0.49143079  1
  O  O252  1  0.23652876  0.14083383  1.00805939  1
  O  O253  1  0.23649613  0.63919693  0.51598537  1
  O  O254  1  0.23111611  0.61388240  0.99491578  1
  O  O255  1  0.73783146  0.12119673  0.50581319  1
  O  O256  1  0.73554873  0.12451163  1.00487413  1
  O  O257  1  0.74147465  0.61752848  0.48967923  1
  O  O258  1  0.73812926  0.62030275  0.99073239  1
  O  O259  1  0.25528200  0.36436081  0.00292570  1
  O  O260  1  0.25128990  0.37639547  0.50774247  1
  O  O261  1  0.24690485  0.86590132  -0.00465108  1
  O  O262  1  0.25359201  0.87057081  0.50892864  1
  O  O263  1  0.75797111  0.37651700  0.00792454  1
  O  O264  1  0.74654235  0.38017437  0.51684286  1
  O  O265  1  0.75647444  0.87417826  0.01201951  1
  O  O266  1  0.76590195  0.87771660  0.49502254  1
  O  O267  1  0.13516818  0.48758431  0.23108900  1
  O  O268  1  0.12674374  0.49289373  0.74267961  1
  O  O269  1  0.13124861  1.02995140  0.22295037  1
  O  O270  1  0.11831675  0.98405946  0.75100028  1
  O  O271  1  0.62571059  0.49700395  0.23591261  1
  O  O272  1  0.63099483  0.50265520  0.74898595  1
  O  O273  1  0.63252502  1.00101363  0.24281360  1
  O  O274  1  0.64239061  0.99918611  0.75112757  1
  O  O275  1  0.39023185  0.01459833  0.26018251  1
  O  O276  1  0.37720100  0.01944387  0.74610615  1
  O  O277  1  0.36053140  0.49040499  0.24832499  1
  O  O278  1  0.36498810  0.50667612  0.75322801  1
  O  O279  1  0.87024631  0.00694302  0.25738462  1
  O  O280  1  0.86403194  0.00353040  0.75634039  1
  O  O281  1  0.87559519  0.50232223  0.26370110  1
  O  O282  1  0.86828946  0.49911298  0.75503894  1
  O  O283  1  0.11439001  0.36515945  0.36925004  1
  O  O284  1  0.11839693  0.36497985  0.86852209  1
  O  O285  1  0.10800775  0.91800611  0.37270817  1
  O  O286  1  0.10965089  0.87404037  0.86931346  1
  O  O287  1  0.61725985  0.36770713  0.37235667  1
  O  O288  1  0.62158613  0.36244986  0.87627918  1
  O  O289  1  0.61839293  0.86727691  0.37806365  1
  O  O290  1  0.62512930  0.85687478  0.88297366  1
  O  O291  1  0.38550630  0.13247812  0.13436971  1
  O  O292  1  0.38310535  0.13039165  0.62967545  1
  O  O293  1  0.38363901  0.63631058  0.11544755  1
  O  O294  1  0.38022939  0.62580800  0.62772439  1
  O  O295  1  0.87857263  0.13526705  0.12839049  1
  O  O296  1  0.88142107  0.12542109  0.63572254  1
  O  O297  1  0.88239125  0.63225524  0.12416888  1
  O  O298  1  0.88943798  0.62949684  0.61651363  1
  O  O299  1  0.25557087  0.25320132  0.11858146  1
  O  O300  1  0.25643978  0.25812803  0.62506604  1
  O  O301  1  0.25243534  0.73994097  0.09507235  1
  O  O302  1  0.25434152  0.76138301  0.62144550  1
  O  O303  1  0.76031058  0.25831905  0.12165745  1
  O  O304  1  0.75075577  0.26951490  0.62808067  1
  O  O305  1  0.75479898  0.75687446  0.12637037  1
  O  O306  1  0.76483286  0.73540365  0.63299120  1
  O  O307  1  0.24039246  0.24288730  0.37142891  1
  O  O308  1  0.23979730  0.25583382  0.88100245  1
  O  O309  1  0.25078537  0.75929950  0.39184625  1
  O  O310  1  0.24972451  0.74228785  0.89088605  1
  O  O311  1  0.73603657  0.25758533  0.37126546  1
  O  O312  1  0.73377002  0.25306175  0.87717927  1
  O  O313  1  0.73663882  0.73941009  0.37550510  1
  O  O314  1  0.74350885  0.73535280  0.87509305  1
  O  O315  1  0.00338983  0.12882428  0.00643883  1
  O  O316  1  -0.00111974  0.11648149  0.51570575  1
  O  O317  1  0.00841912  0.61622033  0.00435413  1
  O  O318  1  0.00891219  0.61168699  0.50637400  1
  O  O319  1  0.51384741  0.11770011  0.00509429  1
  O  O320  1  0.50690963  0.11716229  0.50695382  1
  O  O321  1  0.51040158  0.61252160  -0.00417602  1
  O  O322  1  0.50377046  0.62921758  0.51377127  1
  O  O323  1  0.49133918  0.36786722  0.48848700  1
  O  O324  1  0.49426204  0.38578777  0.99962098  1
  O  O325  1  0.48946621  0.88153337  0.48737205  1
  O  O326  1  0.50820665  0.88905990  1.00225247  1
  O  O327  1  1.00644802  0.38589891  0.49285854  1
  O  O328  1  0.99287751  0.38047771  0.99526060  1
  O  O329  1  0.99063834  0.88754999  0.50779030  1
  O  O330  1  0.99045935  0.87447444  0.99452890  1
  O  O331  1  0.49675363  0.48336754  0.36328624  1
  O  O332  1  0.49351986  0.49607414  0.88053711  1
  O  O333  1  0.49587609  0.99482206  0.38180705  1
  O  O334  1  0.51026755  0.99652447  0.88873847  1
  O  O335  1  0.99300078  0.48819665  0.38368288  1
  O  O336  1  1.00372045  0.49122984  0.88722624  1
  O  O337  1  0.98686004  1.02027261  0.39111442  1
  O  O338  1  0.98382354  0.98641277  0.87516297  1
  O  O339  1  -0.01284308  0.01772198  0.11835835  1
  O  O340  1  -0.00096012  0.00637050  0.62037123  1
  O  O341  1  0.00768291  0.50298407  0.11555435  1
  O  O342  1  0.00413571  0.50338479  0.61861188  1
  O  O343  1  0.51459279  0.00366969  0.12083757  1
  O  O344  1  0.50456595  0.00599321  0.61642459  1
  O  O345  1  0.50741960  0.49930233  0.11687683  1
  O  O346  1  0.50895980  0.50231743  0.63209435  1
  O  O347  1  0.24420472  0.37603640  0.23902506  1
  O  O348  1  0.24336157  0.37915188  0.73796687  1
  O  O349  1  0.22216489  0.89301817  0.25177090  1
  O  O350  1  0.23750902  0.86613981  0.74456810  1
  O  O351  1  0.74968789  0.37858106  0.23459583  1
  O  O352  1  0.75192286  0.38949229  0.74367097  1
  O  O353  1  0.74938339  0.88759243  0.23605988  1
  O  O354  1  0.75382031  0.88027625  0.75203447  1
  O  O355  1  0.26615453  0.13192506  0.26053956  1
  O  O356  1  0.26222344  0.12743913  0.75013838  1
  O  O357  1  0.24660692  0.60472298  0.24260884  1
  O  O358  1  0.25220915  0.61972104  0.74838169  1
  O  O359  1  0.76034445  0.11467065  0.23871680  1
  O  O360  1  0.76007802  0.12149083  0.74558730  1
  O  O361  1  0.75038828  0.62132231  0.26577461  1
  O  O362  1  0.75096513  0.61062988  0.76366243  1
  O  O363  1  0.37333169  0.12376170  0.37052950  1
  O  O364  1  0.38105891  0.13128433  0.85697493  1
  O  O365  1  0.35668721  0.61675225  0.39483263  1
  O  O366  1  0.37214028  0.61434699  0.86647296  1
  O  O367  1  0.87300299  0.11995000  0.36213574  1
  O  O368  1  0.87965513  0.11376580  0.86576807  1
  O  O369  1  0.86526670  0.61487240  0.37735787  1
  O  O370  1  0.85807163  0.62652012  0.88735444  1
  O  O371  1  0.12980396  0.37713204  0.12493241  1
  O  O372  1  0.12956066  0.37681158  0.62690701  1
  O  O373  1  0.12622275  0.89640264  0.11698287  1
  O  O374  1  0.13207795  0.87658134  0.63445895  1
  O  O375  1  0.63423780  0.38200946  0.12241250  1
  O  O376  1  0.63098879  0.37900130  0.62428715  1
  O  O377  1  0.63342585  0.88341657  0.12756815  1
  O  O378  1  0.62433117  0.86870569  0.60973344  1
  O  O379  1  0.11950866  0.25088383  0.25814417  1
  O  O380  1  0.11904590  0.25354616  0.75567635  1
  O  O381  1  0.13941834  0.73696678  0.25793466  1
  O  O382  1  0.10838273  0.75985378  0.74496845  1
  O  O383  1  0.61853258  0.24936945  0.25401572  1
  O  O384  1  0.62617373  0.24629185  0.76008786  1
  O  O385  1  0.61636219  0.75168480  0.26419262  1
  O  O386  1  0.61385974  0.73830533  0.75995207  1
  O  O387  1  0.38384740  0.24477758  0.24478840  1
  O  O388  1  0.37391214  0.23998282  0.73480594  1
  O  O389  1  0.39209770  0.74427827  0.27092496  1
  O  O390  1  0.38004651  0.73972610  0.74357991  1
  O  O391  1  0.87716411  0.24416175  0.24243786  1
  O  O392  1  0.87988650  0.24103150  0.75067315  1
  O  O393  1  0.87452519  0.74795791  0.23753860  1
  O  O394  1  0.88885593  0.75303099  0.74181395  1
  O  O395  1  0.37098059  0.48009484  0.49890134  1
  O  O396  1  0.38079393  0.49473777  0.99237899  1
  O  O397  1  0.38756700  0.99665906  0.49355195  1
  O  O398  1  0.40032811  1.00683799  1.00725536  1
  O  O399  1  0.88424326  0.50204359  0.48849724  1
  O  O400  1  0.88614267  0.49038563  1.00627167  1
  O  O401  1  0.87944863  0.99512737  0.49486763  1
  O  O402  1  0.87252030  0.99199145  0.99267769  1
  O  O403  1  0.11524980  0.01840102  -0.00750703  1
  O  O404  1  0.11668599  0.00635683  0.50955775  1
  O  O405  1  0.11738301  0.49769746  0.00811152  1
  O  O406  1  0.11964610  0.50623101  0.50481935  1
  O  O407  1  0.62322852  0.00984588  0.00623989  1
  O  O408  1  0.61557507  0.00635031  0.49771500  1
  O  O409  1  0.61796495  0.50300700  0.00666413  1
  O  O410  1  0.61964895  0.51306504  0.49457862  1
  O  O411  1  0.37059872  0.36653063  0.11418459  1
  O  O412  1  0.36466903  0.36503311  0.61642694  1
  O  O413  1  0.36630879  0.85820992  0.16184007  1
  O  O414  1  0.36790659  0.86996454  0.62084232  1
  O  O415  1  0.87049080  0.37009445  0.11730611  1
  O  O416  1  0.86334239  0.37400546  0.62673158  1
  O  O417  1  0.87043237  0.86990335  0.11834047  1
  O  O418  1  0.87705243  0.86262089  0.61795190  1
  O  O419  1  0.13987868  0.12709388  0.37651022  1
  O  O420  1  0.11317261  0.13820915  0.87977084  1
  O  O421  1  0.14032748  0.61899994  0.38975551  1
  O  O422  1  0.12106209  0.61938881  0.88915798  1
  O  O423  1  0.61877661  0.13421588  0.38518085  1
  O  O424  1  0.62264000  0.13507482  0.88664040  1
  O  O425  1  0.62918151  0.62960173  0.38403762  1
  O  O426  1  0.63212319  0.63124203  0.88346984  1
