# generated using pymatgen
data_V85Zn86O256
_symmetry_space_group_name_H-M   'P 1'
_cell_length_a   16.95008269
_cell_length_b   16.97982326
_cell_length_c   16.97300624
_cell_angle_alpha   89.99794047
_cell_angle_beta   89.99550012
_cell_angle_gamma   89.92263015
_symmetry_Int_Tables_number   1
_chemical_formula_structural   V85Zn86O256
_chemical_formula_sum   'V85 Zn86 O256'
_cell_volume   4884.98640974
_cell_formula_units_Z   1
loop_
 _symmetry_equiv_pos_site_id
 _symmetry_equiv_pos_as_xyz
  1  'x, y, z'
loop_
 _atom_site_type_symbol
 _atom_site_label
 _atom_site_symmetry_multiplicity
 _atom_site_fract_x
 _atom_site_fract_y
 _atom_site_fract_z
 _atom_site_occupancy
  V  V0  1  0.74911103  0.50262166  0.24996190  1
  V  V1  1  0.00852157  -0.01068413  0.50090851  1
  V  V2  1  0.87664563  0.00375729  0.37918945  1
  V  V3  1  -0.00008309  0.87806264  0.87393314  1
  V  V4  1  0.74066643  0.24898625  0.49440584  1
  V  V5  1  0.13832275  0.60296546  -0.02750869  1
  V  V6  1  0.87571494  -0.00054839  0.87481965  1
  V  V7  1  0.12342932  0.12456170  0.49715667  1
  V  V8  1  0.24933208  0.50307730  0.26428184  1
  V  V9  1  0.62377017  0.89695469  0.23366924  1
  V  V10  1  0.35025407  0.60410563  0.74867014  1
  V  V11  1  0.24994039  0.87127312  0.12131997  1
  V  V12  1  0.12827326  0.62787969  0.50384682  1
  V  V13  1  0.49950665  0.12576322  0.62324645  1
  V  V14  1  0.75067197  0.12555032  0.87491381  1
  V  V15  1  0.49545864  0.87483690  0.37660486  1
  V  V16  1  0.57181357  0.42230580  0.80878233  1
  V  V17  1  0.49993785  0.36657790  0.37843106  1
  V  V18  1  0.87223712  0.61956872  0.74808376  1
  V  V19  1  0.49239144  0.75031230  0.75598899  1
  V  V20  1  0.37686814  0.12593780  0.75472334  1
  V  V21  1  0.49572216  0.50133147  0.49533358  1
  V  V22  1  0.87531861  0.74937996  0.62515113  1
  V  V23  1  0.38629367  -0.00288728  0.87642857  1
  V  V24  1  0.24879689  0.00126471  0.74816714  1
  V  V25  1  0.87987784  0.25646428  0.13462479  1
  V  V26  1  0.87931103  0.49758404  0.36833850  1
  V  V27  1  0.62075092  0.36327743  0.25565638  1
  V  V28  1  0.00000072  0.37563076  0.87368344  1
  V  V29  1  -0.00296346  0.50190607  0.00467434  1
  V  V30  1  0.12483157  0.86399966  0.25023894  1
  V  V31  1  0.12487676  0.49408915  0.13416153  1
  V  V32  1  0.74797937  0.75234257  0.50113530  1
  V  V33  1  0.87364149  0.24779854  0.62123794  1
  V  V34  1  0.25783121  0.76089992  0.49724304  1
  V  V35  1  0.87046016  0.49917745  0.87149972  1
  V  V36  1  0.74820176  0.37730158  0.12807242  1
  V  V37  1  0.12776356  0.25298062  0.87432292  1
  V  V38  1  0.25078547  0.24352051  0.51184994  1
  V  V39  1  0.74835251  0.38029562  0.63127829  1
  V  V40  1  0.50747598  0.25028213  0.75151534  1
  V  V41  1  0.24547444  0.12455929  0.37327147  1
  V  V42  1  0.62228645  0.24938422  0.87831902  1
  V  V43  1  -0.04961414  0.82007005  0.31248455  1
  V  V44  1  0.62048727  0.11913875  0.01179233  1
  V  V45  1  0.12497619  -0.00008773  0.12380002  1
  V  V46  1  0.12524299  0.88106506  0.73795450  1
  V  V47  1  0.62124757  0.87417203  0.76138248  1
  V  V48  1  0.87202441  0.86650153  0.00427750  1
  V  V49  1  0.02040745  0.25239862  0.26042686  1
  V  V50  1  0.38200886  0.87017691  -0.00745189  1
  V  V51  1  0.49554158  0.62091000  0.11686600  1
  V  V52  1  0.75424335  0.62320304  0.37273903  1
  V  V53  1  0.00214847  0.62992937  0.13835857  1
  V  V54  1  0.61490304  0.49600705  0.12622064  1
  V  V55  1  0.00379139  0.49766185  0.50257618  1
  V  V56  1  0.87607668  0.37595082  0.00220628  1
  V  V57  1  0.24892465  0.74449055  -0.00573131  1
  V  V58  1  0.62646306  0.62184040  0.50350221  1
  V  V59  1  0.00848933  0.13076632  0.12728055  1
  V  V60  1  0.62468069  -0.00260794  0.62235673  1
  V  V61  1  0.00514579  0.12024275  0.62353978  1
  V  V62  1  0.38641164  0.39350944  -0.01339930  1
  V  V63  1  0.49988876  0.74967810  0.24669234  1
  V  V64  1  0.62473363  0.62220132  0.00166781  1
  V  V65  1  0.62191534  0.75144750  0.37358686  1
  V  V66  1  0.00012377  0.74875909  0.74827629  1
  V  V67  1  0.86158143  0.10178704  0.23080387  1
  V  V68  1  0.25223692  0.00125147  0.24879524  1
  V  V69  1  0.12679648  0.12871866  0.00014226  1
  V  V70  1  0.75071846  0.24988500  0.00283786  1
  V  V71  1  0.74510496  0.12272079  0.37318066  1
  V  V72  1  0.49183771  -0.00632721  0.50243323  1
  V  V73  1  0.26199431  0.25371829  0.00219007  1
  V  V74  1  0.12808691  0.75405502  0.87186938  1
  V  V75  1  0.75264044  0.63152275  0.87636142  1
  V  V76  1  0.87700991  0.37064953  0.49085841  1
  V  V77  1  0.37668439  0.61987830  0.25650828  1
  V  V78  1  0.12898137  0.38171758  0.73415047  1
  V  V79  1  0.25802014  0.37508914  0.12822086  1
  V  V80  1  0.87518156  0.12386600  0.74861260  1
  V  V81  1  0.00040904  0.24910828  0.74851111  1
  V  V82  1  0.74873127  -0.00110881  0.74792520  1
  V  V83  1  0.37400253  0.37028891  0.49924723  1
  V  V84  1  0.37395351  0.00137230  0.37378775  1
  Zn  Zn85  1  0.74587742  0.75331833  0.01587449  1
  Zn  Zn86  1  0.25677698  0.88364063  0.61766359  1
  Zn  Zn87  1  0.00406631  0.61631663  0.62916931  1
  Zn  Zn88  1  0.45555655  0.25012145  0.25237655  1
  Zn  Zn89  1  0.87804173  0.87109333  0.49767731  1
  Zn  Zn90  1  0.62069694  0.12510044  0.49220567  1
  Zn  Zn91  1  0.00179306  0.00010401  0.00007563  1
  Zn  Zn92  1  0.74913453  0.87463535  0.62446408  1
  Zn  Zn93  1  0.37483081  0.25764189  0.63253732  1
  Zn  Zn94  1  0.49701880  0.62709335  0.62449047  1
  Zn  Zn95  1  0.37238408  0.74642606  0.12219103  1
  Zn  Zn96  1  0.87610885  0.74362537  0.13889266  1
  Zn  Zn97  1  0.24999519  0.63167441  0.37428407  1
  Zn  Zn98  1  0.12207267  0.75292706  0.37468409  1
  Zn  Zn99  1  0.47188839  0.12698634  0.14634322  1
  Zn  Zn100  1  0.37739858  0.75764120  0.62348157  1
  Zn  Zn101  1  0.27744275  0.43288144  0.65618458  1
  Zn  Zn102  1  0.62125168  0.75517287  0.88169791  1
  Zn  Zn103  1  0.50919424  -0.00895815  0.01139224  1
  Zn  Zn104  1  0.25311279  0.12501988  0.87657728  1
  Zn  Zn105  1  0.05047069  0.37359258  0.36770240  1
  Zn  Zn106  1  0.63040208  0.49898547  0.63081687  1
  Zn  Zn107  1  0.30232479  0.19470252  0.19599976  1
  Zn  Zn108  1  0.18532506  0.18324145  0.69007428  1
  Zn  Zn109  1  0.18522285  0.68178646  0.18009695  1
  Zn  Zn110  1  0.18777017  0.69151382  0.67996162  1
  Zn  Zn111  1  0.68699017  0.18802561  0.18802434  1
  Zn  Zn112  1  0.68658214  0.18816291  0.68464992  1
  Zn  Zn113  1  0.68631403  0.68811777  0.18700841  1
  Zn  Zn114  1  0.68723906  0.68896650  0.69010377  1
  Zn  Zn115  1  0.25184214  0.32074133  0.32594961  1
  Zn  Zn116  1  0.31351609  0.31638739  0.81368241  1
  Zn  Zn117  1  0.31444432  0.81286035  0.31188972  1
  Zn  Zn118  1  0.31106310  0.81450595  0.81087718  1
  Zn  Zn119  1  0.80987441  0.30909146  0.31163868  1
  Zn  Zn120  1  0.81211920  0.31044439  0.81294005  1
  Zn  Zn121  1  0.78818215  0.81780611  0.30773956  1
  Zn  Zn122  1  0.81087344  0.81179647  0.81219447  1
  Zn  Zn123  1  0.20029772  0.44337943  0.46683832  1
  Zn  Zn124  1  0.18795087  0.43394039  0.93844793  1
  Zn  Zn125  1  0.18007200  0.93621731  0.43240298  1
  Zn  Zn126  1  0.19256215  0.93898063  0.93384642  1
  Zn  Zn127  1  0.68652319  0.43525153  0.43763495  1
  Zn  Zn128  1  0.69250482  0.44357572  0.94479142  1
  Zn  Zn129  1  0.68355686  0.93881076  0.43169847  1
  Zn  Zn130  1  0.69191382  0.93913944  0.93964946  1
  Zn  Zn131  1  0.31613754  0.05789247  0.06100213  1
  Zn  Zn132  1  0.31535701  0.06066543  0.56562314  1
  Zn  Zn133  1  0.31314038  0.55998745  0.06335212  1
  Zn  Zn134  1  0.31325974  0.57380286  0.56113078  1
  Zn  Zn135  1  0.81676299  0.06389498  0.05795662  1
  Zn  Zn136  1  0.81398072  0.06167910  0.55905190  1
  Zn  Zn137  1  0.81238289  0.56845747  0.06681888  1
  Zn  Zn138  1  0.81561544  0.56075447  0.55923392  1
  Zn  Zn139  1  0.43192780  0.43263661  0.19276558  1
  Zn  Zn140  1  0.44444264  0.44370377  0.67857664  1
  Zn  Zn141  1  0.43761949  0.93938431  0.18414912  1
  Zn  Zn142  1  0.43547537  0.93252503  0.68983448  1
  Zn  Zn143  1  0.94369104  0.43418527  0.19554592  1
  Zn  Zn144  1  0.93525858  0.43330888  0.68568023  1
  Zn  Zn145  1  0.92224800  0.94949495  0.17481069  1
  Zn  Zn146  1  0.93644808  0.93594479  0.68406979  1
  Zn  Zn147  1  0.06063940  0.05922620  0.30992807  1
  Zn  Zn148  1  0.06452145  0.06359810  0.81252625  1
  Zn  Zn149  1  0.06503756  0.56468297  0.31942756  1
  Zn  Zn150  1  0.07061745  0.55726003  0.81393144  1
  Zn  Zn151  1  0.55404528  0.07232582  0.30818158  1
  Zn  Zn152  1  0.56347282  0.06327824  0.81610759  1
  Zn  Zn153  1  0.56297863  0.56041580  0.31394749  1
  Zn  Zn154  1  0.55992656  0.58069501  0.81497983  1
  Zn  Zn155  1  0.43307805  0.18450891  0.43378826  1
  Zn  Zn156  1  0.44045755  0.18921432  0.93936244  1
  Zn  Zn157  1  0.43728983  0.68726778  0.43693882  1
  Zn  Zn158  1  0.43129362  0.67719345  0.92798768  1
  Zn  Zn159  1  0.93736996  0.18554891  0.43165640  1
  Zn  Zn160  1  0.93855884  0.18958510  0.93923061  1
  Zn  Zn161  1  0.93388443  0.67994152  0.44108442  1
  Zn  Zn162  1  0.94521255  0.68589526  0.93611167  1
  Zn  Zn163  1  0.06736434  0.31431673  0.06543500  1
  Zn  Zn164  1  0.05975095  0.30728806  0.55546224  1
  Zn  Zn165  1  0.06301264  0.80850929  0.05920693  1
  Zn  Zn166  1  0.06552375  0.80765105  0.56328262  1
  Zn  Zn167  1  0.54914479  0.30417573  0.07068889  1
  Zn  Zn168  1  0.56499984  0.31366430  0.56475224  1
  Zn  Zn169  1  0.56176146  0.80741180  0.06421633  1
  Zn  Zn170  1  0.55940626  0.81366629  0.56669716  1
  O  O171  1  0.11620960  0.12297056  0.11596141  1
  O  O172  1  0.11004431  0.12424680  0.62174966  1
  O  O173  1  0.11578149  0.61238972  0.11429293  1
  O  O174  1  0.11945718  0.63020116  0.60997505  1
  O  O175  1  0.63722861  0.12345856  0.11033107  1
  O  O176  1  0.61507918  0.11323960  0.62610229  1
  O  O177  1  0.61561348  0.61648168  0.12098339  1
  O  O178  1  0.63148638  0.62338032  0.61174494  1
  O  O179  1  0.38687993  0.38183713  0.39594830  1
  O  O180  1  0.37050506  0.38026185  0.88746918  1
  O  O181  1  0.38735059  0.88344944  0.37099194  1
  O  O182  1  0.37124139  0.88288148  0.88229720  1
  O  O183  1  0.86756697  0.38067681  0.38413930  1
  O  O184  1  0.87810178  0.38169106  0.87979277  1
  O  O185  1  0.88066904  0.87687624  0.37057826  1
  O  O186  1  0.88252620  0.88019964  0.87792153  1
  O  O187  1  0.25497093  0.00041195  0.36885079  1
  O  O188  1  0.25961842  0.00363336  0.86519467  1
  O  O189  1  0.24893828  0.50998737  0.36527836  1
  O  O190  1  0.17507588  0.53721842  0.89517054  1
  O  O191  1  0.76447603  0.00638988  0.38212109  1
  O  O192  1  0.75686993  0.00671210  0.86766691  1
  O  O193  1  0.75528568  0.50492208  0.36964969  1
  O  O194  1  0.76466364  0.51085588  0.88119328  1
  O  O195  1  0.23798304  0.49529147  0.12609150  1
  O  O196  1  0.23900258  0.49179548  0.57115680  1
  O  O197  1  0.24426921  0.99087258  0.13082045  1
  O  O198  1  0.25463226  1.00231863  0.64278710  1
  O  O199  1  0.74273337  0.49766883  0.13354744  1
  O  O200  1  0.75256358  0.48487321  0.61828027  1
  O  O201  1  0.82425179  1.02259300  0.16181965  1
  O  O202  1  0.74202322  0.99965710  0.62850108  1
  O  O203  1  0.00353286  0.35942653  0.25742959  1
  O  O204  1  0.00414119  0.36660362  0.75439766  1
  O  O205  1  0.00468919  0.87487404  0.24398726  1
  O  O206  1  0.00630845  0.87319123  0.75481590  1
  O  O207  1  0.50355951  0.37381888  0.26207031  1
  O  O208  1  0.50602186  0.36848714  0.74573733  1
  O  O209  1  0.50364841  0.86669679  0.25424406  1
  O  O210  1  0.50927059  0.86266943  0.74957445  1
  O  O211  1  0.47838308  0.13628496  0.26414354  1
  O  O212  1  0.49799379  0.13211209  0.74508566  1
  O  O213  1  0.49529526  0.62872974  0.24277574  1
  O  O214  1  0.50361236  0.64111843  0.74142101  1
  O  O215  1  0.99378327  0.13402982  0.24135849  1
  O  O216  1  0.99556603  0.12803085  0.74262095  1
  O  O217  1  1.00614803  0.62347404  0.23701692  1
  O  O218  1  0.98911376  0.62840695  0.74862028  1
  O  O219  1  0.36324466  0.25787346  -0.00885998  1
  O  O220  1  0.37161525  0.25347881  0.50686256  1
  O  O221  1  0.36622143  0.75150616  -0.00565758  1
  O  O222  1  0.36129554  0.74725550  0.49861980  1
  O  O223  1  0.87229872  0.25799259  0.00941931  1
  O  O224  1  0.87094291  0.25573358  0.50148886  1
  O  O225  1  0.87795953  0.76249995  -0.00819802  1
  O  O226  1  0.86698587  0.74978890  0.50683537  1
  O  O227  1  0.13258666  0.23228656  0.50679445  1
  O  O228  1  0.13125378  0.24808526  0.99259975  1
  O  O229  1  0.13123599  0.74471050  0.49592401  1
  O  O230  1  0.13256772  0.74281570  0.98924577  1
  O  O231  1  0.63702186  0.24525913  0.50347945  1
  O  O232  1  0.63168730  0.24335807  0.99517212  1
  O  O233  1  0.63030107  0.74407253  0.49454959  1
  O  O234  1  0.62721298  0.73791356  1.00034674  1
  O  O235  1  0.50549293  0.23906485  0.14666425  1
  O  O236  1  0.50318884  0.24146713  0.63322649  1
  O  O237  1  0.49646260  0.73826070  0.13222445  1
  O  O238  1  0.49933045  0.74762742  0.63574922  1
  O  O239  1  0.99909516  0.24958094  0.13497608  1
  O  O240  1  0.99199383  0.24063299  0.62721272  1
  O  O241  1  1.00102218  0.73296473  0.12011008  1
  O  O242  1  0.99074245  0.74685574  0.63050177  1
  O  O243  1  0.00240304  0.25008795  0.36412284  1
  O  O244  1  0.00570794  0.25707944  0.87043941  1
  O  O245  1  -0.00272223  0.75323457  0.37422205  1
  O  O246  1  0.00059732  0.76582989  0.86678048  1
  O  O247  1  0.49615890  0.26400633  0.38007725  1
  O  O248  1  0.51518635  0.24911217  0.86990302  1
  O  O249  1  0.50216705  0.75726653  0.36918765  1
  O  O250  1  0.50392650  0.74247022  0.86087282  1
  O  O251  1  0.24028833  0.11937959  0.49801289  1
  O  O252  1  0.23778565  0.13556148  0.99783207  1
  O  O253  1  0.24282953  0.64134941  0.49510942  1
  O  O254  1  0.24256197  0.63438769  1.00609172  1
  O  O255  1  0.74962000  0.13216553  0.49236674  1
  O  O256  1  0.74746920  0.13017260  0.99435004  1
  O  O257  1  0.74623500  0.63304491  0.49314022  1
  O  O258  1  0.74326518  0.62631135  0.99373916  1
  O  O259  1  0.25605206  0.37290015  0.00661776  1
  O  O260  1  0.26242910  0.35234578  0.50198208  1
  O  O261  1  0.25318296  0.86403519  0.00429906  1
  O  O262  1  0.24080626  0.86455572  0.49855229  1
  O  O263  1  0.75658136  0.37064187  0.00961750  1
  O  O264  1  0.75783449  0.36576431  0.50308080  1
  O  O265  1  0.76691224  0.87215164  -0.00428863  1
  O  O266  1  0.74969195  0.86168569  0.49687408  1
  O  O267  1  0.13229812  0.50960208  0.23987564  1
  O  O268  1  0.11558118  0.48052019  0.74297854  1
  O  O269  1  0.13189660  0.99035484  0.24240264  1
  O  O270  1  0.13470440  0.99245193  0.75773668  1
  O  O271  1  0.63104761  0.49252180  0.24381997  1
  O  O272  1  0.62234848  0.49175479  0.75252620  1
  O  O273  1  0.61299435  0.99488746  0.24729928  1
  O  O274  1  0.62732299  0.99402625  0.74470084  1
  O  O275  1  0.35921894  -0.01001233  0.25878217  1
  O  O276  1  0.37307579  0.00549781  0.76040398  1
  O  O277  1  0.36278565  0.50932223  0.24378689  1
  O  O278  1  0.35653250  0.50085693  0.72998827  1
  O  O279  1  0.90699076  0.00620353  0.27554039  1
  O  O280  1  0.87021584  0.00452800  0.75455773  1
  O  O281  1  0.86692075  0.49237610  0.26137371  1
  O  O282  1  0.88133559  0.50687958  0.75924740  1
  O  O283  1  0.16137233  0.37544779  0.38037067  1
  O  O284  1  0.12044391  0.36492878  0.86746146  1
  O  O285  1  0.12031758  0.87305831  0.35827884  1
  O  O286  1  0.11726830  0.87019457  0.86983747  1
  O  O287  1  0.61460983  0.38004369  0.36698466  1
  O  O288  1  0.63680990  0.36889717  0.87316171  1
  O  O289  1  0.61275118  0.87104948  0.36494556  1
  O  O290  1  0.62978871  0.87563881  0.86550097  1
  O  O291  1  0.35839814  0.14001352  0.11783372  1
  O  O292  1  0.38994155  0.12296416  0.63441112  1
  O  O293  1  0.38264017  0.62553896  0.13177371  1
  O  O294  1  0.37494837  0.63278158  0.63957570  1
  O  O295  1  0.89272091  0.14284685  0.12025714  1
  O  O296  1  0.88233368  0.12864958  0.62866260  1
  O  O297  1  0.89733697  0.62213114  0.12038940  1
  O  O298  1  0.87386624  0.63278633  0.63153787  1
  O  O299  1  0.24060051  0.27111870  0.11569003  1
  O  O300  1  0.25743011  0.23273446  0.61658960  1
  O  O301  1  0.24909283  0.75564084  0.11378473  1
  O  O302  1  0.25030402  0.75680225  0.60882376  1
  O  O303  1  0.76043179  0.25704587  0.12159194  1
  O  O304  1  0.75613635  0.25413669  0.61545294  1
  O  O305  1  0.76375448  0.73752358  0.12699503  1
  O  O306  1  0.75570263  0.75041166  0.61648542  1
  O  O307  1  0.25115433  0.22685886  0.39591858  1
  O  O308  1  0.24153318  0.25018762  0.88235829  1
  O  O309  1  0.24799873  0.75264427  0.38348501  1
  O  O310  1  0.23901769  0.75370689  0.88074153  1
  O  O311  1  0.75712368  0.23800045  0.38490091  1
  O  O312  1  0.74335946  0.24562822  0.88097732  1
  O  O313  1  0.74415868  0.74086957  0.38044271  1
  O  O314  1  0.74938181  0.73858631  0.87859865  1
  O  O315  1  0.01193774  0.12851082  0.00562213  1
  O  O316  1  0.00516470  0.11900610  0.50584329  1
  O  O317  1  0.01120849  0.61004947  -0.00143567  1
  O  O318  1  0.00241232  0.61230013  0.50206087  1
  O  O319  1  0.51769172  0.12943471  0.00055435  1
  O  O320  1  0.50119444  0.11714668  0.50750799  1
  O  O321  1  0.50494868  0.62780369  0.00961106  1
  O  O322  1  0.50784854  0.61736368  0.49885352  1
  O  O323  1  0.50051860  0.38378007  0.49775723  1
  O  O324  1  0.48393850  0.37085640  1.00417340  1
  O  O325  1  0.50790457  0.88295106  0.48931965  1
  O  O326  1  0.48538345  0.87146070  1.00422484  1
  O  O327  1  0.99613771  0.38115352  0.49045311  1
  O  O328  1  0.99600564  0.38406475  0.99686359  1
  O  O329  1  1.00021288  0.88655283  0.50616559  1
  O  O330  1  0.99478902  0.87669546  0.98918532  1
  O  O331  1  0.50649854  0.49340458  0.38995577  1
  O  O332  1  0.51765411  0.48306408  0.86465806  1
  O  O333  1  0.49183049  0.99438803  0.38235716  1
  O  O334  1  0.48945998  1.00383027  0.88379040  1
  O  O335  1  0.99329684  0.49298670  0.37856649  1
  O  O336  1  0.99101708  0.49411466  0.88433476  1
  O  O337  1  0.99693630  1.00679471  0.39625840  1
  O  O338  1  0.99590965  0.99168168  0.87488701  1
  O  O339  1  0.00694085  0.01315503  0.12103138  1
  O  O340  1  -0.00897697  0.00801955  0.61149067  1
  O  O341  1  0.00678398  0.50306588  0.12387984  1
  O  O342  1  -0.01114163  0.49751655  0.60602013  1
  O  O343  1  0.48178904  0.01530384  0.11814038  1
  O  O344  1  0.50550186  0.00425306  0.61941458  1
  O  O345  1  0.50925545  0.50487921  0.13359513  1
  O  O346  1  0.51223423  0.50601405  0.61091432  1
  O  O347  1  0.24761409  0.39253139  0.23245117  1
  O  O348  1  0.23598864  0.37031454  0.74428736  1
  O  O349  1  0.24305759  0.87793966  0.23988805  1
  O  O350  1  0.23951401  0.88349361  0.75084290  1
  O  O351  1  0.74359814  0.38471819  0.24716063  1
  O  O352  1  0.76222607  0.36952411  0.72938238  1
  O  O353  1  0.72372292  0.88120889  0.24725837  1
  O  O354  1  0.74206819  0.88178586  0.74771930  1
  O  O355  1  0.24338239  0.11173435  0.26176208  1
  O  O356  1  0.25787026  0.11990913  0.75495961  1
  O  O357  1  0.25806914  0.61995624  0.24730131  1
  O  O358  1  0.25255102  0.62595262  0.74826601  1
  O  O359  1  0.76150355  0.13079356  0.25683972  1
  O  O360  1  0.75521814  0.12005262  0.75375159  1
  O  O361  1  0.74191605  0.61053521  0.25930297  1
  O  O362  1  0.76329916  0.62912513  0.75877380  1
  O  O363  1  0.36229335  0.10713351  0.38401922  1
  O  O364  1  0.37591270  0.11827538  0.87148181  1
  O  O365  1  0.37557246  0.62859186  0.35981846  1
  O  O366  1  0.38062742  0.61551734  0.84523418  1
  O  O367  1  0.86661516  0.11652424  0.36779419  1
  O  O368  1  0.87158527  0.12038174  0.87047523  1
  O  O369  1  0.86251479  0.61422414  0.37757010  1
  O  O370  1  0.87244117  0.61899945  0.86950373  1
  O  O371  1  0.13286964  0.38942713  0.12291228  1
  O  O372  1  0.11813848  0.36456191  0.63634647  1
  O  O373  1  0.13326439  0.87805355  0.12504333  1
  O  O374  1  0.12628646  0.87588923  0.63624810  1
  O  O375  1  0.62789899  0.38160152  0.13137615  1
  O  O376  1  0.64407263  0.37555877  0.62147507  1
  O  O377  1  0.61286827  0.87979184  0.13453765  1
  O  O378  1  0.62619352  0.88689695  0.63306709  1
  O  O379  1  0.11575711  0.24497342  0.25316337  1
  O  O380  1  0.11874647  0.25353909  0.75751067  1
  O  O381  1  0.12913893  0.76083783  0.24581082  1
  O  O382  1  0.11981010  0.76016481  0.75313176  1
  O  O383  1  0.63722883  0.26504433  0.25407778  1
  O  O384  1  0.61614910  0.24537855  0.75863599  1
  O  O385  1  0.61130686  0.74751445  0.25604724  1
  O  O386  1  0.61942888  0.75946403  0.75298748  1
  O  O387  1  0.34134842  0.27072603  0.26658704  1
  O  O388  1  0.38887952  0.24624593  0.75332171  1
  O  O389  1  0.38624955  0.74461995  0.24673874  1
  O  O390  1  0.38647125  0.75085749  0.75148347  1
  O  O391  1  0.87644252  0.24386735  0.23914588  1
  O  O392  1  0.88149447  0.24206724  0.74465072  1
  O  O393  1  0.88258843  0.76557602  0.25885714  1
  O  O394  1  0.87960590  0.74351290  0.74322092  1
  O  O395  1  0.39344171  0.49716054  0.50590046  1
  O  O396  1  0.37630004  0.49350821  0.99716838  1
  O  O397  1  0.38601337  0.99927292  0.49491913  1
  O  O398  1  0.36724490  0.98564662  0.98906195  1
  O  O399  1  0.88248896  0.49285677  0.48736287  1
  O  O400  1  0.88058543  0.49563889  0.99598713  1
  O  O401  1  0.88448735  0.99363226  0.49320823  1
  O  O402  1  0.87853381  0.98841212  0.99046709  1
  O  O403  1  0.12675448  0.01085442  0.00361934  1
  O  O404  1  0.11400929  0.00497873  0.50346367  1
  O  O405  1  0.11340767  0.49647740  0.01729286  1
  O  O406  1  0.10630329  0.50966553  0.48980132  1
  O  O407  1  0.62603715  0.01443045  -0.00497815  1
  O  O408  1  0.61589576  0.00099127  0.50807666  1
  O  O409  1  0.62882911  0.51178384  0.01238369  1
  O  O410  1  0.62137617  0.50884422  0.50021140  1
  O  O411  1  0.36091929  0.38336464  0.11374116  1
  O  O412  1  0.37682403  0.37449066  0.61555274  1
  O  O413  1  0.36123054  0.86982078  0.11663241  1
  O  O414  1  0.37022445  0.87235131  0.62548317  1
  O  O415  1  0.87189815  0.37206696  0.12344326  1
  O  O416  1  0.86949183  0.36831076  0.61001478  1
  O  O417  1  0.88710229  0.86511037  0.10623281  1
  O  O418  1  0.87057113  0.86114781  0.62356020  1
  O  O419  1  0.13211281  0.11220835  0.38637741  1
  O  O420  1  0.12324158  0.13822378  0.88146932  1
  O  O421  1  0.12528780  0.63296294  0.38686006  1
  O  O422  1  0.09735915  0.65233801  0.87439530  1
  O  O423  1  0.64093092  0.11491354  0.37393971  1
  O  O424  1  0.63301901  0.13342244  0.88250178  1
  O  O425  1  0.63345020  0.62952227  0.38448163  1
  O  O426  1  0.63628580  0.62574458  0.88534498  1
