# generated using pymatgen
data_V85Zn86O256
_symmetry_space_group_name_H-M   'P 1'
_cell_length_a   16.92798421
_cell_length_b   16.93356773
_cell_length_c   16.92809830
_cell_angle_alpha   90.05936195
_cell_angle_beta   90.00068044
_cell_angle_gamma   89.98298781
_symmetry_Int_Tables_number   1
_chemical_formula_structural   V85Zn86O256
_chemical_formula_sum   'V85 Zn86 O256'
_cell_volume   4852.45631680
_cell_formula_units_Z   1
loop_
 _symmetry_equiv_pos_site_id
 _symmetry_equiv_pos_as_xyz
  1  'x, y, z'
loop_
 _atom_site_type_symbol
 _atom_site_label
 _atom_site_symmetry_multiplicity
 _atom_site_fract_x
 _atom_site_fract_y
 _atom_site_fract_z
 _atom_site_occupancy
  V  V0  1  0.87669919  0.49972174  0.87496884  1
  V  V1  1  -0.00221123  0.25092835  0.74632887  1
  V  V2  1  0.87590935  0.25015730  0.12445780  1
  V  V3  1  0.74397905  0.12730129  0.86815578  1
  V  V4  1  0.12894863  0.12461133  -0.00346347  1
  V  V5  1  0.24947878  0.62215602  0.87554384  1
  V  V6  1  0.25287989  0.74846753  0.00524760  1
  V  V7  1  0.87214134  0.87456983  -0.00198580  1
  V  V8  1  0.37938831  0.62545424  0.75238321  1
  V  V9  1  0.00049451  0.00030507  -0.00096882  1
  V  V10  1  0.74939201  0.62837677  0.87449747  1
  V  V11  1  0.12843277  0.24559281  0.87110075  1
  V  V12  1  0.86485082  0.74979543  0.62012228  1
  V  V13  1  0.37677082  0.87190495  0.50237833  1
  V  V14  1  0.62832685  0.64420744  0.49782970  1
  V  V15  1  0.12933123  0.37978702  0.74131108  1
  V  V16  1  0.49478349  0.63044544  0.12827212  1
  V  V17  1  0.75091893  0.49694502  0.74849621  1
  V  V18  1  0.50412201  0.00272609  0.50332164  1
  V  V19  1  0.24944520  0.00131461  0.25465601  1
  V  V20  1  0.62307832  -0.00227229  0.12275094  1
  V  V21  1  0.13118100  0.24232395  0.37484117  1
  V  V22  1  0.87487777  0.00472471  0.37346984  1
  V  V23  1  0.49924492  0.49495669  0.49449788  1
  V  V24  1  0.62417830  0.50148555  0.62466620  1
  V  V25  1  0.25099410  0.62283079  0.38405696  1
  V  V26  1  0.62667407  0.13916694  0.49691321  1
  V  V27  1  0.37384012  0.49156718  0.37518072  1
  V  V28  1  0.60230887  0.75265388  0.87021069  1
  V  V29  1  0.62463435  0.62242280  -0.00036578  1
  V  V30  1  0.88098761  0.62486280  0.74172687  1
  V  V31  1  0.50445432  0.36848592  0.87814450  1
  V  V32  1  0.87605497  0.37536085  0.00014817  1
  V  V33  1  0.75184349  0.50298673  0.26418870  1
  V  V34  1  0.74056059  0.00212431  0.25207296  1
  V  V35  1  0.12416997  0.49951630  0.13634410  1
  V  V36  1  0.12582068  -0.00445500  0.12903541  1
  V  V37  1  0.00060700  0.12492097  0.12366702  1
  V  V38  1  0.74144681  0.24976450  -0.00097163  1
  V  V39  1  0.50003783  0.49752691  0.00232924  1
  V  V40  1  0.37308489  0.12410134  0.25872968  1
  V  V41  1  0.87731507  0.62409398  0.25646408  1
  V  V42  1  0.74621986  0.14288265  0.37596746  1
  V  V43  1  0.50042057  0.87315608  0.37585577  1
  V  V44  1  0.87230796  0.00155881  0.86288915  1
  V  V45  1  0.36761401  0.12696889  0.75377693  1
  V  V46  1  0.25165252  0.87134693  0.13083693  1
  V  V47  1  0.24967750  0.87442402  0.62839788  1
  V  V48  1  0.49381332  0.75567193  0.25000522  1
  V  V49  1  0.50249407  0.24817839  0.75327667  1
  V  V50  1  0.36966749  0.00089427  0.87650744  1
  V  V51  1  0.01205207  0.38670270  0.36344965  1
  V  V52  1  0.12587189  0.87507686  0.75049997  1
  V  V53  1  0.87346866  0.12624690  0.24856385  1
  V  V54  1  0.49875754  0.62440500  0.62578921  1
  V  V55  1  0.37630349  0.75139542  0.63431004  1
  V  V56  1  0.12669778  0.74859305  0.37955631  1
  V  V57  1  0.24478802  0.37811093  0.13493602  1
  V  V58  1  0.25063493  0.24787468  -0.00401449  1
  V  V59  1  0.50134308  0.12278221  0.62593395  1
  V  V60  1  0.49998161  0.12440337  0.12450971  1
  V  V61  1  0.64836293  -0.00148795  0.63130387  1
  V  V62  1  0.89356150  0.38024386  0.48981450  1
  V  V63  1  0.62583759  0.49836103  0.13071719  1
  V  V64  1  0.00928015  0.87854291  0.37071864  1
  V  V65  1  0.12593077  0.00033335  0.62573215  1
  V  V66  1  0.36790258  0.62425012  0.25013577  1
  V  V67  1  0.62745096  0.37251101  0.75519087  1
  V  V68  1  0.50372796  0.25339185  0.26037806  1
  V  V69  1  -0.00063451  0.87467575  0.87387717  1
  V  V70  1  0.74372984  0.87377096  0.12183403  1
  V  V71  1  0.25870109  0.37390825  0.60657994  1
  V  V72  1  0.75051311  0.36895865  0.61176037  1
  V  V73  1  0.00205432  0.00114517  0.49828222  1
  V  V74  1  0.37814377  0.87289658  -0.00008439  1
  V  V75  1  0.50577362  -0.00519091  -0.00852029  1
  V  V76  1  0.37238920  0.49439742  0.87491773  1
  V  V77  1  0.37452566  0.25076138  0.12532424  1
  V  V78  1  0.06243937  0.56808238  0.56266310  1
  V  V79  1  0.86329601  0.87399471  0.50327724  1
  V  V80  1  0.12403293  0.74725596  0.87491108  1
  V  V81  1  0.00132731  0.12904142  0.61971135  1
  V  V82  1  0.00693211  0.75412294  0.24538712  1
  V  V83  1  0.62187622  0.37341622  0.26416684  1
  V  V84  1  0.66724648  0.81832793  0.30624820  1
  Zn  Zn85  1  0.00845263  0.25494298  0.24725101  1
  Zn  Zn86  1  0.87097734  0.12279741  0.74247814  1
  Zn  Zn87  1  0.44473088  0.31827535  0.43703235  1
  Zn  Zn88  1  0.24682038  0.00582553  0.75727209  1
  Zn  Zn89  1  0.00139810  0.37406206  0.87241704  1
  Zn  Zn90  1  0.87149547  0.25013228  0.61520143  1
  Zn  Zn91  1  0.37416416  0.25055629  0.60988754  1
  Zn  Zn92  1  0.74979454  0.37566791  0.12993642  1
  Zn  Zn93  1  0.36887079  0.00403840  0.38318671  1
  Zn  Zn94  1  0.00264635  0.50112551  0.00105285  1
  Zn  Zn95  1  -0.00122960  0.62514338  0.12270614  1
  Zn  Zn96  1  0.12310841  0.61812518  0.00010834  1
  Zn  Zn97  1  0.87599449  0.74844388  0.12260496  1
  Zn  Zn98  1  0.24705201  0.49968548  0.74392710  1
  Zn  Zn99  1  0.00284822  0.74463302  0.74014440  1
  Zn  Zn100  1  0.24356178  0.74831481  0.50437245  1
  Zn  Zn101  1  0.74813696  0.74865869  -0.00079958  1
  Zn  Zn102  1  0.62287744  0.12681900  -0.00446561  1
  Zn  Zn103  1  0.62856207  0.87332512  0.74693067  1
  Zn  Zn104  1  0.14289277  0.12754372  0.49911154  1
  Zn  Zn105  1  0.37296822  0.37372411  0.00187143  1
  Zn  Zn106  1  0.74794669  0.64100775  0.37970811  1
  Zn  Zn107  1  0.18742649  0.18748784  0.18903962  1
  Zn  Zn108  1  0.18900062  0.19267459  0.68055529  1
  Zn  Zn109  1  0.18509178  0.68572432  0.19058367  1
  Zn  Zn110  1  0.18989912  0.68406540  0.68766424  1
  Zn  Zn111  1  0.68577381  0.18911923  0.18665345  1
  Zn  Zn112  1  0.68426296  0.18904217  0.68769029  1
  Zn  Zn113  1  0.69053376  0.68263682  0.18293916  1
  Zn  Zn114  1  0.68944452  0.68837959  0.68821918  1
  Zn  Zn115  1  0.30910430  0.31259912  0.30812663  1
  Zn  Zn116  1  0.31248604  0.30975641  0.81128604  1
  Zn  Zn117  1  0.31378204  0.81198618  0.31383057  1
  Zn  Zn118  1  0.31420989  0.81287923  0.81720568  1
  Zn  Zn119  1  0.81903660  0.32032545  0.31246184  1
  Zn  Zn120  1  0.81318419  0.30970724  0.81167073  1
  Zn  Zn121  1  0.83280598  0.81529270  0.31202474  1
  Zn  Zn122  1  0.80681426  0.81054500  0.80217161  1
  Zn  Zn123  1  0.18138620  0.44313272  0.43605355  1
  Zn  Zn124  1  0.18476135  0.43262489  0.93979381  1
  Zn  Zn125  1  0.18855824  0.93857606  0.44076088  1
  Zn  Zn126  1  0.19007520  0.93587593  0.93942842  1
  Zn  Zn127  1  0.68246156  0.44326806  0.43987417  1
  Zn  Zn128  1  0.69000332  0.43745354  0.93898537  1
  Zn  Zn129  1  0.68693070  0.95178436  0.44211333  1
  Zn  Zn130  1  0.69983749  0.92123416  0.90478636  1
  Zn  Zn131  1  0.31354732  0.06200342  0.06458406  1
  Zn  Zn132  1  0.31671875  0.05745753  0.57144920  1
  Zn  Zn133  1  0.31054392  0.56019412  0.06327279  1
  Zn  Zn134  1  0.30855039  0.55505734  0.56109144  1
  Zn  Zn135  1  0.81017207  0.06132430  0.05755371  1
  Zn  Zn136  1  0.81591968  0.07051445  0.55492300  1
  Zn  Zn137  1  0.81328776  0.56314797  0.06708068  1
  Zn  Zn138  1  0.81169815  0.56111512  0.55785565  1
  Zn  Zn139  1  0.43524399  0.43795635  0.19148107  1
  Zn  Zn140  1  0.43504150  0.43622889  0.68711104  1
  Zn  Zn141  1  0.43523278  0.93670563  0.18571984  1
  Zn  Zn142  1  0.44649202  0.93651412  0.69661986  1
  Zn  Zn143  1  0.93613040  0.44099679  0.18959484  1
  Zn  Zn144  1  0.93919619  0.43859497  0.68012077  1
  Zn  Zn145  1  0.93417423  0.93729302  0.18653935  1
  Zn  Zn146  1  0.93894559  0.93330017  0.68252142  1
  Zn  Zn147  1  0.06412979  0.06744000  0.30931588  1
  Zn  Zn148  1  0.05966399  0.06485890  0.81039355  1
  Zn  Zn149  1  0.06655936  0.56781970  0.31243016  1
  Zn  Zn150  1  0.06021029  0.56058214  0.81086690  1
  Zn  Zn151  1  0.56011306  0.06451678  0.31604180  1
  Zn  Zn152  1  0.56273976  0.06006867  0.81178709  1
  Zn  Zn153  1  0.56194811  0.56771953  0.31735280  1
  Zn  Zn154  1  0.56088571  0.55981995  0.81302136  1
  Zn  Zn155  1  0.30787560  0.18847784  0.44397073  1
  Zn  Zn156  1  0.43659414  0.18499602  0.93795230  1
  Zn  Zn157  1  0.44040679  0.68801413  0.43878195  1
  Zn  Zn158  1  0.43202618  0.68328722  0.94385665  1
  Zn  Zn159  1  0.94045293  0.19743364  0.43505205  1
  Zn  Zn160  1  0.93689907  0.18777436  0.93464574  1
  Zn  Zn161  1  0.93891189  0.68931893  0.43856673  1
  Zn  Zn162  1  0.93923237  0.68651103  0.93720752  1
  Zn  Zn163  1  0.06335015  0.31530371  0.06143238  1
  Zn  Zn164  1  0.06936003  0.31429039  0.55724585  1
  Zn  Zn165  1  0.06554258  0.81293510  0.06058707  1
  Zn  Zn166  1  0.05499926  0.80736064  0.56236279  1
  Zn  Zn167  1  0.56267639  0.31417197  0.06960298  1
  Zn  Zn168  1  0.56279196  0.31246650  0.57081407  1
  Zn  Zn169  1  0.56323158  0.80928321  0.05925936  1
  Zn  Zn170  1  0.55675875  0.82499219  0.59290673  1
  O  O171  1  0.11977617  0.11606102  0.11764788  1
  O  O172  1  0.11858707  0.11967468  0.62129319  1
  O  O173  1  0.12784698  0.61039163  0.12323410  1
  O  O174  1  0.11480489  0.63417447  0.62294423  1
  O  O175  1  0.61326565  0.11980101  0.12311688  1
  O  O176  1  0.61956051  0.12153148  0.61926797  1
  O  O177  1  0.61622802  0.61806252  0.11976675  1
  O  O178  1  0.61644499  0.62080604  0.62339596  1
  O  O179  1  0.37604693  0.38748161  0.36778124  1
  O  O180  1  0.38211821  0.38057204  0.87685183  1
  O  O181  1  0.38263939  0.87721355  0.38625525  1
  O  O182  1  0.37305617  0.88234780  0.88899844  1
  O  O183  1  0.89345111  0.37419991  0.38173507  1
  O  O184  1  0.87417270  0.38270669  0.88134828  1
  O  O185  1  0.88828599  0.88487900  0.38380535  1
  O  O186  1  0.88050029  0.88179701  0.88062366  1
  O  O187  1  0.25051500  -0.01114476  0.35814932  1
  O  O188  1  0.26365691  -0.00127129  0.87587842  1
  O  O189  1  0.26378913  0.50779646  0.37796791  1
  O  O190  1  0.25771340  0.50311425  0.87604498  1
  O  O191  1  0.75531966  0.00827730  0.36517558  1
  O  O192  1  0.76210071  0.01952449  0.88722149  1
  O  O193  1  0.74326182  0.50847326  0.36609207  1
  O  O194  1  0.75889543  0.50680509  0.87070462  1
  O  O195  1  0.24110475  0.48586880  0.11797555  1
  O  O196  1  0.25527546  0.48234981  0.62939171  1
  O  O197  1  0.24369203  0.99239103  0.13047063  1
  O  O198  1  0.24383149  0.98975188  0.63438849  1
  O  O199  1  0.73648477  0.50255359  0.13375744  1
  O  O200  1  0.74442772  0.48955529  0.63029298  1
  O  O201  1  0.74497164  0.99383008  0.13155682  1
  O  O202  1  0.74576239  1.01829736  0.62967222  1
  O  O203  1  -0.00304354  0.37356148  0.26028254  1
  O  O204  1  0.01135523  0.36772219  0.74604703  1
  O  O205  1  -0.00641064  0.86898653  0.25885004  1
  O  O206  1  0.01207262  0.87475169  0.75565582  1
  O  O207  1  0.50899173  0.36504744  0.24182136  1
  O  O208  1  0.50479039  0.36827595  0.75722424  1
  O  O209  1  0.49583382  0.86872328  0.25871243  1
  O  O210  1  0.52347521  0.85853288  0.70312560  1
  O  O211  1  0.49461831  0.13018635  0.24297719  1
  O  O212  1  0.49644840  0.13120409  0.74580090  1
  O  O213  1  0.49353385  0.63365256  0.24596160  1
  O  O214  1  0.48696367  0.61681025  0.74270233  1
  O  O215  1  0.98984693  0.12539816  0.23996666  1
  O  O216  1  0.99940380  0.13225853  0.73614735  1
  O  O217  1  0.99420093  0.63370749  0.24800585  1
  O  O218  1  0.98448506  0.62585161  0.75554305  1
  O  O219  1  0.36728787  0.24874360  0.00652566  1
  O  O220  1  0.38536074  0.24695937  0.49691370  1
  O  O221  1  0.36227765  0.75709000  -0.00253487  1
  O  O222  1  0.37758372  0.76135038  0.50934330  1
  O  O223  1  0.86939731  0.25500387  0.00792199  1
  O  O224  1  0.87725405  0.27183949  0.49960171  1
  O  O225  1  0.87486482  0.76397690  -0.00056967  1
  O  O226  1  0.87543348  0.76594626  0.50268642  1
  O  O227  1  0.12206180  0.24487909  0.48377804  1
  O  O228  1  0.12997365  0.24571222  0.99132542  1
  O  O229  1  0.12469838  0.75845175  0.48520634  1
  O  O230  1  0.13472269  0.75040241  0.98809756  1
  O  O231  1  0.61661509  0.23802155  0.50302292  1
  O  O232  1  0.63816719  0.25142480  1.00551815  1
  O  O233  1  0.61429347  0.74009249  0.51636820  1
  O  O234  1  0.62397429  0.73822669  0.98841028  1
  O  O235  1  0.49272037  0.24104328  0.12733651  1
  O  O236  1  0.49812743  0.23943120  0.63554859  1
  O  O237  1  0.50254052  0.73819204  0.13144090  1
  O  O238  1  0.48644575  0.73110181  0.61844366  1
  O  O239  1  0.99347597  0.24482627  0.12438793  1
  O  O240  1  1.00290425  0.24373800  0.62785760  1
  O  O241  1  1.00215786  0.75126043  0.13228665  1
  O  O242  1  0.97709282  0.76151021  0.62895715  1
  O  O243  1  0.01158584  0.25978100  0.36925571  1
  O  O244  1  0.00647721  0.25064558  0.86422665  1
  O  O245  1  0.00628103  0.75976871  0.36877500  1
  O  O246  1  0.00951993  0.75629584  0.87209477  1
  O  O247  1  0.50019091  0.25099779  0.35910877  1
  O  O248  1  0.49745504  0.26160866  0.87279764  1
  O  O249  1  0.49948879  0.76431636  0.36875239  1
  O  O250  1  0.50434765  0.73533389  0.87262730  1
  O  O251  1  0.25404985  0.10458799  0.49344380  1
  O  O252  1  0.24294447  0.13750692  1.00934327  1
  O  O253  1  0.26086706  0.63138621  0.48785346  1
  O  O254  1  0.24971036  0.63285506  0.99436444  1
  O  O255  1  0.74133245  0.12670437  0.48768599  1
  O  O256  1  0.74805197  0.13487537  0.99313167  1
  O  O257  1  0.73407640  0.62900911  0.50059132  1
  O  O258  1  0.74344623  0.62252980  0.99274788  1
  O  O259  1  0.25130007  0.36092380  0.00646388  1
  O  O260  1  0.24852503  0.37871896  0.50831349  1
  O  O261  1  0.25563978  0.86731055  0.00810672  1
  O  O262  1  0.26029128  0.87465065  0.50906919  1
  O  O263  1  0.76003242  0.36769405  0.00126171  1
  O  O264  1  0.74000768  0.37301965  0.51196664  1
  O  O265  1  0.75664891  0.87512049  0.00284958  1
  O  O266  1  0.76639873  0.88301342  0.48786890  1
  O  O267  1  0.12798905  0.50220411  0.23551958  1
  O  O268  1  0.12594118  0.48245227  0.75790992  1
  O  O269  1  0.13328531  1.00595791  0.23852221  1
  O  O270  1  0.12549698  0.99279587  0.74598699  1
  O  O271  1  0.62796909  0.49718773  0.24670066  1
  O  O272  1  0.62999728  0.49444052  0.74385161  1
  O  O273  1  0.63456479  1.00526020  0.24329937  1
  O  O274  1  0.62132787  1.00180484  0.73297897  1
  O  O275  1  0.36805018  0.00777287  0.24954519  1
  O  O276  1  0.37783279  0.00486348  0.75981596  1
  O  O277  1  0.38285271  0.51070232  0.26479490  1
  O  O278  1  0.37432361  0.50477520  0.76260279  1
  O  O279  1  0.86272459  0.00494117  0.25312786  1
  O  O280  1  0.88148145  -0.00017168  0.76008168  1
  O  O281  1  0.86340896  0.50995052  0.24684394  1
  O  O282  1  0.87045514  0.50376999  0.75521174  1
  O  O283  1  0.11662129  0.36704622  0.37700940  1
  O  O284  1  0.12264765  0.36146900  0.86578621  1
  O  O285  1  0.11424002  0.87286041  0.37622732  1
  O  O286  1  0.12199821  0.86896690  0.86943637  1
  O  O287  1  0.62380133  0.38013598  0.36365537  1
  O  O288  1  0.61662402  0.38209724  0.86776648  1
  O  O289  1  0.61858839  0.88220823  0.37581074  1
  O  O290  1  0.60572346  0.85447495  0.88497012  1
  O  O291  1  0.38619624  0.12799748  0.13063604  1
  O  O292  1  0.38613476  0.12500504  0.63635063  1
  O  O293  1  0.38392377  0.61518357  0.13499823  1
  O  O294  1  0.37748476  0.62805054  0.63328189  1
  O  O295  1  0.87906826  0.13114801  0.12609629  1
  O  O296  1  0.88537278  0.13123401  0.62426445  1
  O  O297  1  0.87617667  0.62890603  0.13737360  1
  O  O298  1  0.86599672  0.63274879  0.63150867  1
  O  O299  1  0.25341496  0.25982613  0.12024918  1
  O  O300  1  0.25555287  0.26590317  0.62573809  1
  O  O301  1  0.24030150  0.75797278  0.11651443  1
  O  O302  1  0.25985187  0.75503819  0.62445436  1
  O  O303  1  0.75875902  0.25073530  0.11676506  1
  O  O304  1  0.75101759  0.26582840  0.63202556  1
  O  O305  1  0.75071337  0.75931489  0.12016186  1
  O  O306  1  0.76357042  0.75747962  0.63567537  1
  O  O307  1  0.23856426  0.25209165  0.37242961  1
  O  O308  1  0.24244393  0.25042802  0.88362902  1
  O  O309  1  0.24303496  0.74590577  0.37697318  1
  O  O310  1  0.24356393  0.74360703  0.88205926  1
  O  O311  1  0.75285702  0.24117336  0.36344800  1
  O  O312  1  0.75846747  0.23695187  0.88513910  1
  O  O313  1  0.73952875  0.76223324  0.35775440  1
  O  O314  1  0.74910094  0.73364334  0.87852582  1
  O  O315  1  0.00603133  0.11964502  0.00427228  1
  O  O316  1  -0.00300752  0.11586424  0.50620231  1
  O  O317  1  0.00297471  0.62172617  0.00424667  1
  O  O318  1  -0.00085684  0.62011322  0.50083849  1
  O  O319  1  0.50176060  0.11648247  0.00730348  1
  O  O320  1  0.50756048  0.11151888  0.50890593  1
  O  O321  1  0.50217637  0.61736225  0.01027555  1
  O  O322  1  0.50625580  0.61659673  0.50717073  1
  O  O323  1  0.50750716  0.38921499  0.50395544  1
  O  O324  1  0.49903299  0.37919799  0.99478448  1
  O  O325  1  0.49763157  0.88286130  0.49843846  1
  O  O326  1  0.48953448  0.88350006  1.01039071  1
  O  O327  1  0.99796048  0.38071084  0.49196465  1
  O  O328  1  0.98623881  0.37364779  0.99592476  1
  O  O329  1  0.99425371  0.88823503  0.49333900  1
  O  O330  1  0.99403434  0.88086982  0.99413579  1
  O  O331  1  0.48922213  0.50551856  0.38342390  1
  O  O332  1  0.49314240  0.48898446  0.88025552  1
  O  O333  1  0.49838180  0.99121704  0.38520208  1
  O  O334  1  0.49287885  1.00174793  0.88644558  1
  O  O335  1  1.01082508  0.48630209  0.36897152  1
  O  O336  1  0.98633453  0.49648089  0.87563159  1
  O  O337  1  0.99758405  0.99787971  0.37920747  1
  O  O338  1  0.99278275  0.99626090  0.88045498  1
  O  O339  1  0.00734975  0.00231792  0.11975240  1
  O  O340  1  0.00498102  0.00688738  0.61713153  1
  O  O341  1  0.01356706  0.49791037  0.12462017  1
  O  O342  1  0.00785909  0.50501433  0.62254922  1
  O  O343  1  0.50355588  0.00624208  0.11832568  1
  O  O344  1  0.50395741  0.01183058  0.62023304  1
  O  O345  1  0.50933745  0.50733857  0.12459974  1
  O  O346  1  0.50159329  0.50779816  0.61943949  1
  O  O347  1  0.25033468  0.37557532  0.23353791  1
  O  O348  1  0.23720092  0.37389464  0.75100807  1
  O  O349  1  0.25844243  0.87991983  0.23640822  1
  O  O350  1  0.23864329  0.87466673  0.74886318  1
  O  O351  1  0.74425139  0.38576858  0.25062019  1
  O  O352  1  0.74548647  0.37972172  0.74746754  1
  O  O353  1  0.74349996  0.87898240  0.24594818  1
  O  O354  1  0.73118857  0.88889803  0.79561451  1
  O  O355  1  0.26168499  0.11330975  0.23845402  1
  O  O356  1  0.26388523  0.12632564  0.74442617  1
  O  O357  1  0.26415162  0.63269773  0.25770150  1
  O  O358  1  0.26090069  0.62058339  0.75642254  1
  O  O359  1  0.75358562  0.11867331  0.25281185  1
  O  O360  1  0.75326731  0.13433972  0.76416427  1
  O  O361  1  0.75514290  0.61994333  0.25393554  1
  O  O362  1  0.75702410  0.61569766  0.75719636  1
  O  O363  1  0.37565419  0.12196644  0.36092363  1
  O  O364  1  0.38097994  0.11457402  0.86587914  1
  O  O365  1  0.37077360  0.62113201  0.36859269  1
  O  O366  1  0.37071615  0.61612644  0.86975707  1
  O  O367  1  0.86927020  0.12296183  0.36919855  1
  O  O368  1  0.86968474  0.11735110  0.87083792  1
  O  O369  1  0.86805498  0.63876636  0.36131942  1
  O  O370  1  0.86755916  0.61754253  0.86972789  1
  O  O371  1  0.13561305  0.38246573  0.12204531  1
  O  O372  1  0.13698695  0.36809116  0.63644101  1
  O  O373  1  0.13451731  0.88826027  0.11744847  1
  O  O374  1  0.12809278  0.87685558  0.63304403  1
  O  O375  1  0.62829888  0.38576925  0.13288558  1
  O  O376  1  0.63368919  0.38049103  0.63443449  1
  O  O377  1  0.63631252  0.87951163  0.11858832  1
  O  O378  1  0.64804547  0.89696747  0.61553659  1
  O  O379  1  0.12376147  0.24399933  0.26341220  1
  O  O380  1  0.11778773  0.25468615  0.75412389  1
  O  O381  1  0.11406583  0.74900120  0.25960707  1
  O  O382  1  0.12557791  0.75593656  0.76034346  1
  O  O383  1  0.61625611  0.26125940  0.24185503  1
  O  O384  1  0.61127442  0.25637153  0.74982498  1
  O  O385  1  0.61407872  0.75032725  0.24539064  1
  O  O386  1  0.62900108  0.74503062  0.76915885  1
  O  O387  1  0.38093580  0.24295191  0.24332583  1
  O  O388  1  0.38709853  0.24174880  0.75306192  1
  O  O389  1  0.38725617  0.74272176  0.25276405  1
  O  O390  1  0.37166212  0.74165880  0.74347242  1
  O  O391  1  0.87447412  0.24703440  0.23534667  1
  O  O392  1  0.88976798  0.25155465  0.74564743  1
  O  O393  1  0.89008097  0.74570759  0.24409862  1
  O  O394  1  0.87558422  0.74062551  0.74542575  1
  O  O395  1  0.38440457  0.50493023  0.48527581  1
  O  O396  1  0.38125938  0.49876260  0.98969393  1
  O  O397  1  0.38680091  0.98716165  0.50412152  1
  O  O398  1  0.38076887  0.99478354  0.99422335  1
  O  O399  1  0.86172958  0.47646496  0.49882764  1
  O  O400  1  0.87356072  0.49166898  0.99360269  1
  O  O401  1  0.88257942  0.99503849  0.49342735  1
  O  O402  1  0.88074651  0.99033861  0.99406107  1
  O  O403  1  0.12163390  0.00597014  0.00431529  1
  O  O404  1  0.11609278  0.00061710  0.50692508  1
  O  O405  1  0.12203890  0.49831851  0.00829210  1
  O  O406  1  0.12876392  0.51446436  0.50567598  1
  O  O407  1  0.61629651  0.00063499  0.00509440  1
  O  O408  1  0.62048433  0.01078412  0.51299970  1
  O  O409  1  0.61985908  0.50305087  0.00875069  1
  O  O410  1  0.61703074  0.51070334  0.50823656  1
  O  O411  1  0.36417171  0.37221814  0.12313206  1
  O  O412  1  0.36386449  0.37068585  0.62735909  1
  O  O413  1  0.36400702  0.88048429  0.11145564  1
  O  O414  1  0.37052827  0.86683713  0.62393389  1
  O  O415  1  0.87263583  0.36854926  0.11800970  1
  O  O416  1  0.86357835  0.37451265  0.61639744  1
  O  O417  1  0.86180482  0.87673522  0.11610040  1
  O  O418  1  0.87165789  0.87616666  0.60927919  1
  O  O419  1  0.12116148  0.13694260  0.37882657  1
  O  O420  1  0.12120801  0.13654600  0.87907875  1
  O  O421  1  0.13937122  0.63553816  0.36870199  1
  O  O422  1  0.13045273  0.63167314  0.87358103  1
  O  O423  1  0.63401166  0.12052949  0.38446458  1
  O  O424  1  0.63976026  0.12113166  0.87593161  1
  O  O425  1  0.62294876  0.63310139  0.39247486  1
  O  O426  1  0.63060928  0.62497011  0.88059047  1
