# generated using pymatgen
data_V85Zn86O256
_symmetry_space_group_name_H-M   'P 1'
_cell_length_a   16.93784455
_cell_length_b   16.94116112
_cell_length_c   16.93777023
_cell_angle_alpha   90.04857770
_cell_angle_beta   90.00666185
_cell_angle_gamma   90.01469724
_symmetry_Int_Tables_number   1
_chemical_formula_structural   V85Zn86O256
_chemical_formula_sum   'V85 Zn86 O256'
_cell_volume   4860.23624203
_cell_formula_units_Z   1
loop_
 _symmetry_equiv_pos_site_id
 _symmetry_equiv_pos_as_xyz
  1  'x, y, z'
loop_
 _atom_site_type_symbol
 _atom_site_label
 _atom_site_symmetry_multiplicity
 _atom_site_fract_x
 _atom_site_fract_y
 _atom_site_fract_z
 _atom_site_occupancy
  V  V0  1  0.74777362  0.74842850  0.49771666  1
  V  V1  1  0.86421713  0.37634153  0.00050298  1
  V  V2  1  0.24937549  0.62656438  0.87357285  1
  V  V3  1  0.25068179  0.25081220  -0.00095194  1
  V  V4  1  0.25044310  0.12312878  0.87373146  1
  V  V5  1  0.88279658  0.87650371  0.49501434  1
  V  V6  1  0.00350090  0.36716236  0.37745239  1
  V  V7  1  0.12612812  -0.01618456  0.62122494  1
  V  V8  1  0.50096236  0.50699075  0.00070858  1
  V  V9  1  0.25093098  0.76307803  0.50114789  1
  V  V10  1  0.12106811  0.62585537  0.00118529  1
  V  V11  1  0.74529865  0.63907499  0.87198023  1
  V  V12  1  -0.00254223  0.62345595  0.62837036  1
  V  V13  1  0.24958029  0.87247612  0.13073302  1
  V  V14  1  0.74124540  0.37266433  0.62757458  1
  V  V15  1  0.87358469  0.87544179  -0.00037672  1
  V  V16  1  0.61459272  0.74796685  0.36600107  1
  V  V17  1  -0.00261173  0.50056577  -0.00053775  1
  V  V18  1  0.12419729  0.37336657  0.74871882  1
  V  V19  1  0.50255922  0.25143319  0.74473924  1
  V  V20  1  0.12414713  0.12598299  -0.00144722  1
  V  V21  1  0.37354652  0.12832448  0.74509921  1
  V  V22  1  0.86103642  0.25533495  0.12539924  1
  V  V23  1  0.37731736  0.01697863  0.37910385  1
  V  V24  1  0.88400209  0.75070911  0.13496608  1
  V  V25  1  0.37141379  0.76052477  0.62333462  1
  V  V26  1  0.37868193  0.74738987  0.13384502  1
  V  V27  1  0.12387970  0.24971701  0.87286219  1
  V  V28  1  0.12565359  0.36674232  0.25354532  1
  V  V29  1  -0.00063797  0.49769340  0.50135631  1
  V  V30  1  0.87324499  0.11863613  0.75350414  1
  V  V31  1  0.18075380  0.18785195  0.43652169  1
  V  V32  1  -0.00310953  0.24916043  0.74959070  1
  V  V33  1  0.24423702  -0.01428197  0.74614643  1
  V  V34  1  0.74472004  0.49775845  0.75223692  1
  V  V35  1  0.49883729  0.49251851  0.49825178  1
  V  V36  1  0.11356613  0.75710689  0.37408141  1
  V  V37  1  0.48087681  0.35526708  0.34186754  1
  V  V38  1  0.86568478  0.37203950  0.49811859  1
  V  V39  1  0.25006388  0.49881188  0.74778280  1
  V  V40  1  0.25953116  0.01302328  0.25158563  1
  V  V41  1  0.00716115  0.12073676  0.61867906  1
  V  V42  1  0.00284133  0.87851420  0.87133999  1
  V  V43  1  -0.00641889  0.00293761  -0.00687840  1
  V  V44  1  0.75092087  -0.00375492  0.75615148  1
  V  V45  1  0.50087791  0.75028859  0.74988559  1
  V  V46  1  0.86475132  0.11948134  0.24955694  1
  V  V47  1  0.50421832  0.00519052  0.00272248  1
  V  V48  1  0.37461518  0.49894896  0.37930167  1
  V  V49  1  0.61995521  -0.00197820  0.61508848  1
  V  V50  1  0.49931657  0.62516276  0.62209060  1
  V  V51  1  0.12581623  0.49772480  0.62559007  1
  V  V52  1  0.00472523  0.75339338  0.75137536  1
  V  V53  1  0.25123996  0.37160675  0.12364066  1
  V  V54  1  0.87560418  0.50668822  0.37038486  1
  V  V55  1  0.11307822  0.87990695  0.25706834  1
  V  V56  1  0.64440025  -0.00085374  0.12506013  1
  V  V57  1  0.63704607  0.25291489  0.37412589  1
  V  V58  1  0.24871547  0.75112982  0.00388671  1
  V  V59  1  0.12698109  0.62556240  0.50162709  1
  V  V60  1  0.75725029  0.50960678  0.24246597  1
  V  V61  1  0.37638516  0.50106346  0.87233611  1
  V  V62  1  0.62279709  0.23499682  0.87558717  1
  V  V63  1  0.49472617  0.87962198  0.37242278  1
  V  V64  1  0.37628150  0.37640789  0.00040681  1
  V  V65  1  0.37489156  0.62637602  0.74745862  1
  V  V66  1  0.63203817  0.50050118  0.12197708  1
  V  V67  1  0.63619729  0.87976434  0.24834250  1
  V  V68  1  0.86701340  0.24665467  0.62088270  1
  V  V69  1  0.25145577  0.35872223  0.62405593  1
  V  V70  1  0.24912437  0.62724092  0.37727261  1
  V  V71  1  0.37463143  0.00051011  0.87631736  1
  V  V72  1  0.25032721  0.49965389  0.25054337  1
  V  V73  1  0.74434614  0.75588264  0.01025914  1
  V  V74  1  0.37467205  0.35748863  0.50837407  1
  V  V75  1  0.62492827  0.86964534  0.75258841  1
  V  V76  1  0.51208478  0.37683503  0.86801613  1
  V  V77  1  -0.00192410  0.13115589  0.12575306  1
  V  V78  1  0.74953268  0.87267162  0.62367895  1
  V  V79  1  0.50154074  0.86960567  0.87668325  1
  V  V80  1  0.62349637  0.62292050  0.49638977  1
  V  V81  1  0.12614471  0.00213426  0.12537663  1
  V  V82  1  0.63605822  0.37354403  0.24485167  1
  V  V83  1  0.49486755  0.12279501  0.61636461  1
  V  V84  1  0.63504107  0.12998032  0.50017716  1
  Zn  Zn85  1  0.87558105  0.62481407  0.75356680  1
  Zn  Zn86  1  0.50685492  0.63003509  0.13955690  1
  Zn  Zn87  1  0.00930121  0.00011177  0.48534979  1
  Zn  Zn88  1  0.62231871  0.49536388  0.62700676  1
  Zn  Zn89  1  0.12815455  0.75664885  0.87070480  1
  Zn  Zn90  1  0.75055315  0.11786395  0.37537846  1
  Zn  Zn91  1  0.43970916  0.22104642  0.20559574  1
  Zn  Zn92  1  0.50509263  0.10864555  0.14396323  1
  Zn  Zn93  1  0.75068249  0.11650632  0.88057276  1
  Zn  Zn94  1  0.37799397  0.62853504  0.25442907  1
  Zn  Zn95  1  0.37565216  0.87682846  0.00386786  1
  Zn  Zn96  1  -0.01272982  0.62079780  0.14538995  1
  Zn  Zn97  1  0.75239641  0.62646643  0.37093699  1
  Zn  Zn98  1  0.00013184  0.24704600  0.25377768  1
  Zn  Zn99  1  -0.00391883  0.37662825  0.87433235  1
  Zn  Zn100  1  0.62096683  0.63408467  -0.00204869  1
  Zn  Zn101  1  0.87411179  0.74757609  0.62671807  1
  Zn  Zn102  1  0.87216183  0.50145004  0.87437276  1
  Zn  Zn103  1  0.87457472  -0.01042856  0.36378704  1
  Zn  Zn104  1  0.38048435  0.88567915  0.50074766  1
  Zn  Zn105  1  0.74146966  0.24782726  0.00086451  1
  Zn  Zn106  1  0.12198070  0.49964943  0.12566760  1
  Zn  Zn107  1  0.18875471  0.19048866  0.18624270  1
  Zn  Zn108  1  0.18566301  0.18057642  0.68613272  1
  Zn  Zn109  1  0.15402282  0.67397339  0.20534513  1
  Zn  Zn110  1  0.18658454  0.69124165  0.68607715  1
  Zn  Zn111  1  0.67977195  0.18659832  0.18561754  1
  Zn  Zn112  1  0.68509610  0.18510228  0.69036054  1
  Zn  Zn113  1  0.68761731  0.68782804  0.18660714  1
  Zn  Zn114  1  0.68501272  0.68533969  0.68545382  1
  Zn  Zn115  1  0.30613173  0.31093445  0.31990608  1
  Zn  Zn116  1  0.31664698  0.31125680  0.81391984  1
  Zn  Zn117  1  0.30781783  0.81750443  0.31359702  1
  Zn  Zn118  1  0.31463558  0.81234848  0.81445281  1
  Zn  Zn119  1  0.81370950  0.31475162  0.30890620  1
  Zn  Zn120  1  0.80989153  0.31371663  0.81204550  1
  Zn  Zn121  1  0.80863927  0.81038370  0.31428861  1
  Zn  Zn122  1  0.82093783  0.81222353  0.81371081  1
  Zn  Zn123  1  0.18889686  0.43007133  0.44039970  1
  Zn  Zn124  1  0.18446903  0.43893056  0.93491335  1
  Zn  Zn125  1  0.19137300  0.94584895  0.43354199  1
  Zn  Zn126  1  0.18530301  0.93732165  0.93908419  1
  Zn  Zn127  1  0.68693826  0.43644177  0.43126751  1
  Zn  Zn128  1  0.68833302  0.44181238  0.93589630  1
  Zn  Zn129  1  0.69132668  0.93817601  0.43111156  1
  Zn  Zn130  1  0.68423569  0.93381009  0.93857268  1
  Zn  Zn131  1  0.31863617  0.06491294  0.06886226  1
  Zn  Zn132  1  0.30506177  0.06719814  0.56050422  1
  Zn  Zn133  1  0.31015035  0.56387566  0.06365695  1
  Zn  Zn134  1  0.31247975  0.56295080  0.56360225  1
  Zn  Zn135  1  0.81226556  0.06713481  0.05839115  1
  Zn  Zn136  1  0.81176207  0.05771263  0.56534941  1
  Zn  Zn137  1  0.81327124  0.57049959  0.05956085  1
  Zn  Zn138  1  0.81116825  0.55906100  0.56207578  1
  Zn  Zn139  1  0.43677614  0.43914854  0.18437676  1
  Zn  Zn140  1  0.43755570  0.43629285  0.68449146  1
  Zn  Zn141  1  0.44044732  0.93244307  0.19298129  1
  Zn  Zn142  1  0.43681053  0.94058454  0.68853580  1
  Zn  Zn143  1  0.93882154  0.43549860  0.18571986  1
  Zn  Zn144  1  0.93032236  0.43684751  0.68854075  1
  Zn  Zn145  1  0.93412129  0.94071973  0.17810994  1
  Zn  Zn146  1  0.93664523  0.93569496  0.68468326  1
  Zn  Zn147  1  0.05681895  0.06076337  0.31408704  1
  Zn  Zn148  1  0.06235291  0.06103521  0.80901210  1
  Zn  Zn149  1  0.06337861  0.55600614  0.31579254  1
  Zn  Zn150  1  0.06226598  0.56317913  0.81574632  1
  Zn  Zn151  1  0.56105099  0.06538173  0.31118991  1
  Zn  Zn152  1  0.55902355  0.05774285  0.80677077  1
  Zn  Zn153  1  0.56111800  0.55468429  0.31128946  1
  Zn  Zn154  1  0.56693095  0.56563348  0.81260137  1
  Zn  Zn155  1  0.44541458  0.18548750  0.43509726  1
  Zn  Zn156  1  0.43788223  0.19329239  1.02573839  1
  Zn  Zn157  1  0.43692455  0.68871854  0.43689666  1
  Zn  Zn158  1  0.43362682  0.69024814  0.93980781  1
  Zn  Zn159  1  0.93725507  0.18456764  0.43756190  1
  Zn  Zn160  1  0.93085329  0.18958574  0.93751144  1
  Zn  Zn161  1  0.93661194  0.68795399  0.44171356  1
  Zn  Zn162  1  0.93409815  0.68993337  0.93798660  1
  Zn  Zn163  1  0.06032642  0.31613701  0.06232231  1
  Zn  Zn164  1  0.05946719  0.30916674  0.56288973  1
  Zn  Zn165  1  0.06185892  0.81484637  0.06372325  1
  Zn  Zn166  1  0.06375604  0.80922736  0.56470807  1
  Zn  Zn167  1  0.56599246  0.31920186  0.06144746  1
  Zn  Zn168  1  0.56139176  0.30542314  0.56016633  1
  Zn  Zn169  1  0.56126587  0.81909879  0.06622240  1
  Zn  Zn170  1  0.56004377  0.81326674  0.55699848  1
  O  O171  1  0.11772490  0.12241849  0.11873047  1
  O  O172  1  0.11097671  0.11522552  0.63053639  1
  O  O173  1  0.13925349  0.61832184  0.10481472  1
  O  O174  1  0.11605601  0.61910002  0.62094928  1
  O  O175  1  0.62523435  0.10331428  0.12889914  1
  O  O176  1  0.61875998  0.11667317  0.62022957  1
  O  O177  1  0.62317110  0.61629137  0.11989315  1
  O  O178  1  0.61715897  0.62283174  0.61306167  1
  O  O179  1  0.37678186  0.37973555  0.39417636  1
  O  O180  1  0.38120803  0.38521811  0.88047253  1
  O  O181  1  0.38164578  0.88172491  0.37444631  1
  O  O182  1  0.38100122  0.88550978  0.87488490  1
  O  O183  1  0.87987847  0.38238567  0.38224724  1
  O  O184  1  0.87680742  0.37630357  0.88381099  1
  O  O185  1  0.87122745  0.86831665  0.39223582  1
  O  O186  1  0.88834969  0.87153417  0.88838018  1
  O  O187  1  0.26216040  -0.00040051  0.35992327  1
  O  O188  1  0.25368227  0.00127768  0.86592838  1
  O  O189  1  0.25393156  0.50592202  0.37204600  1
  O  O190  1  0.25579391  0.50509963  0.86742356  1
  O  O191  1  0.76300358  0.00478936  0.38011256  1
  O  O192  1  0.74234017  -0.00351503  0.86027915  1
  O  O193  1  0.75971043  0.50246238  0.36673796  1
  O  O194  1  0.75038451  0.51141538  0.86752457  1
  O  O195  1  0.25112446  0.48966680  0.13320194  1
  O  O196  1  0.24338228  0.49482338  0.63095477  1
  O  O197  1  0.24851019  0.99333229  0.13199084  1
  O  O198  1  0.23730060  1.00246059  0.63576551  1
  O  O199  1  0.74512595  0.50658931  0.12896879  1
  O  O200  1  0.74762030  0.49109331  0.63096663  1
  O  O201  1  0.74260455  0.99574366  0.12023902  1
  O  O202  1  0.74091732  0.98929977  0.63352073  1
  O  O203  1  0.00895780  0.37581882  0.25880512  1
  O  O204  1  0.00323827  0.36523848  0.74775880  1
  O  O205  1  0.01536441  0.88511603  0.24182183  1
  O  O206  1  -0.00696625  0.86777651  0.75904271  1
  O  O207  1  0.52361772  0.39638826  0.24914294  1
  O  O208  1  0.49072355  0.36446518  0.75613069  1
  O  O209  1  0.51013651  0.87460100  0.26492113  1
  O  O210  1  0.50623740  0.87052720  0.75464615  1
  O  O211  1  0.49816653  0.13666438  0.25414279  1
  O  O212  1  0.49169969  0.12886925  0.74124454  1
  O  O213  1  0.49039574  0.61532980  0.25105306  1
  O  O214  1  0.49611152  0.63171112  0.74471364  1
  O  O215  1  0.99222389  0.12817070  0.23896591  1
  O  O216  1  0.99263762  0.12868441  0.74096307  1
  O  O217  1  1.04890397  0.63141271  0.23764924  1
  O  O218  1  0.99916906  0.62873585  0.74324395  1
  O  O219  1  0.36312877  0.26697403  -0.01658971  1
  O  O220  1  0.38115417  0.25961631  0.50093794  1
  O  O221  1  0.36137977  0.75301919  0.00819254  1
  O  O222  1  0.36711881  0.75001771  0.50768305  1
  O  O223  1  0.87545293  0.26111463  0.00795597  1
  O  O224  1  0.87924586  0.25722218  0.51195685  1
  O  O225  1  0.86570112  0.75756671  0.00571789  1
  O  O226  1  0.86479243  0.75624641  0.50379060  1
  O  O227  1  0.12377536  0.25267485  0.49256623  1
  O  O228  1  0.12954831  0.24624121  0.99339066  1
  O  O229  1  0.13351724  0.74712771  0.49580485  1
  O  O230  1  0.13458178  0.74486152  0.99975055  1
  O  O231  1  0.62482058  0.24146874  0.48983814  1
  O  O232  1  0.62457451  0.25931473  0.97816850  1
  O  O233  1  0.63068113  0.74297353  0.49232407  1
  O  O234  1  0.63940946  0.75458908  1.00748763  1
  O  O235  1  0.50299426  0.24113042  0.10893749  1
  O  O236  1  0.50294469  0.23871574  0.63482755  1
  O  O237  1  0.48198977  0.74863814  0.11694115  1
  O  O238  1  0.49219823  0.74459417  0.62770405  1
  O  O239  1  0.99539588  0.23926945  0.12195867  1
  O  O240  1  0.99385156  0.23948974  0.63312820  1
  O  O241  1  0.98770422  0.74827362  0.12009624  1
  O  O242  1  0.99989497  0.73956223  0.63161548  1
  O  O243  1  -0.00764674  0.26420746  0.37436912  1
  O  O244  1  0.00319935  0.24875412  0.86174000  1
  O  O245  1  0.01500725  0.74572058  0.38181629  1
  O  O246  1  0.00190645  0.75748804  0.86853225  1
  O  O247  1  0.51140013  0.26435073  0.38213523  1
  O  O248  1  0.51270478  0.26045202  0.86508990  1
  O  O249  1  0.51051779  0.75498483  0.37732591  1
  O  O250  1  0.49052826  0.76179468  0.86806298  1
  O  O251  1  0.23733138  0.13103473  0.49992752  1
  O  O252  1  0.24486279  0.12951194  0.99318254  1
  O  O253  1  0.24492738  0.63120866  0.49483430  1
  O  O254  1  0.24717806  0.63248046  0.99131245  1
  O  O255  1  0.73839224  0.12367231  0.50568450  1
  O  O256  1  0.75979720  0.13551034  0.99030014  1
  O  O257  1  0.74327153  0.63248128  0.49935900  1
  O  O258  1  0.74800632  0.64085088  0.98997354  1
  O  O259  1  0.25491448  0.37487304  0.00507027  1
  O  O260  1  0.26484353  0.37838094  0.51032755  1
  O  O261  1  0.24841189  0.86965967  0.01218258  1
  O  O262  1  0.25423317  0.86514391  0.49413776  1
  O  O263  1  0.76083014  0.37277131  -0.00494898  1
  O  O264  1  0.76123733  0.38110393  0.50538472  1
  O  O265  1  0.75815221  0.86207758  -0.00920542  1
  O  O266  1  0.75214639  0.86440029  0.50729609  1
  O  O267  1  0.13884416  0.48631993  0.25039967  1
  O  O268  1  0.12923478  0.49304718  0.74615739  1
  O  O269  1  0.13567566  0.99425156  0.24613948  1
  O  O270  1  0.13813914  1.00225409  0.74370113  1
  O  O271  1  0.63911487  0.49782959  0.24125137  1
  O  O272  1  0.63853642  0.50632316  0.74471947  1
  O  O273  1  0.62253729  0.98899663  0.23956706  1
  O  O274  1  0.62927930  0.98724511  0.73966647  1
  O  O275  1  0.36436826  -0.00257854  0.25616845  1
  O  O276  1  0.36271739  0.00472427  0.75313042  1
  O  O277  1  0.36187930  0.49491908  0.25894430  1
  O  O278  1  0.37012822  0.50676532  0.75232154  1
  O  O279  1  0.87508933  0.01637923  0.24142744  1
  O  O280  1  0.86392341  0.00639619  0.74165405  1
  O  O281  1  0.87026457  0.49484034  0.25765233  1
  O  O282  1  0.86183834  0.50496422  0.75084875  1
  O  O283  1  0.11549534  0.38063557  0.36730652  1
  O  O284  1  0.12171019  0.36771940  0.86608844  1
  O  O285  1  0.12717365  0.87360016  0.36536447  1
  O  O286  1  0.10929114  0.87391462  0.88112337  1
  O  O287  1  0.62045650  0.36826344  0.36423908  1
  O  O288  1  0.61343310  0.38008596  0.87113481  1
  O  O289  1  0.61932878  0.86952005  0.36691498  1
  O  O290  1  0.61421047  0.87723198  0.86390225  1
  O  O291  1  0.38790887  0.13779476  0.11686859  1
  O  O292  1  0.38236422  0.11543940  0.63293928  1
  O  O293  1  0.37075641  0.63941298  0.12672934  1
  O  O294  1  0.38057091  0.63290771  0.63002247  1
  O  O295  1  0.88043659  0.13419330  0.13224143  1
  O  O296  1  0.87914474  0.13025234  0.63303115  1
  O  O297  1  0.87642517  0.64346277  0.12215533  1
  O  O298  1  0.88832496  0.62349665  0.62292571  1
  O  O299  1  0.24861337  0.26385517  0.11730276  1
  O  O300  1  0.24810438  0.25962911  0.63307599  1
  O  O301  1  0.25434289  0.75790541  0.11942023  1
  O  O302  1  0.25941918  0.74547074  0.61505577  1
  O  O303  1  0.75781827  0.24982549  0.12300213  1
  O  O304  1  0.75882308  0.25630141  0.63367241  1
  O  O305  1  0.75823096  0.74880687  0.11292920  1
  O  O306  1  0.74815560  0.75560420  0.61617459  1
  O  O307  1  0.24194985  0.24250569  0.37458922  1
  O  O308  1  0.24255229  0.24409307  0.87721224  1
  O  O309  1  0.24489999  0.74352042  0.38262837  1
  O  O310  1  0.24930119  0.74678958  0.88330894  1
  O  O311  1  0.74018729  0.24910919  0.37287010  1
  O  O312  1  0.72920547  0.24985843  0.86377939  1
  O  O313  1  0.73921000  0.74640186  0.38347546  1
  O  O314  1  0.75272562  0.74261087  0.88050131  1
  O  O315  1  0.00160430  0.12021355  0.00242514  1
  O  O316  1  -0.01105426  0.11819754  0.51583977  1
  O  O317  1  0.00784302  0.61950420  -0.00120250  1
  O  O318  1  0.00703146  0.61878287  0.50858839  1
  O  O319  1  0.50352491  0.10462463  -0.01090169  1
  O  O320  1  0.51069686  0.12783305  0.51184911  1
  O  O321  1  0.50039776  0.61581530  -0.00339558  1
  O  O322  1  0.50413035  0.61527828  0.50088530  1
  O  O323  1  0.48693978  0.38087732  0.51062654  1
  O  O324  1  0.49271029  0.38808154  0.98965309  1
  O  O325  1  0.49921187  0.87252211  0.48142614  1
  O  O326  1  0.49689584  0.87969266  0.99034962  1
  O  O327  1  0.99057954  0.38009587  0.49621441  1
  O  O328  1  0.99328142  0.38538596  0.99729942  1
  O  O329  1  0.98442441  0.87148519  0.50886406  1
  O  O330  1  0.99522482  0.88474928  0.99518114  1
  O  O331  1  0.49190192  0.48050689  0.38093731  1
  O  O332  1  0.49565231  0.49694760  0.87706713  1
  O  O333  1  0.48426394  0.99555736  0.37082729  1
  O  O334  1  0.49280435  0.98894199  0.87592994  1
  O  O335  1  0.99401935  0.49125494  0.38097605  1
  O  O336  1  0.99510492  0.49994790  0.88583802  1
  O  O337  1  0.98690967  1.00011445  0.37593892  1
  O  O338  1  1.00346524  0.99638952  0.88473741  1
  O  O339  1  0.00467478  0.01352925  0.11437905  1
  O  O340  1  0.01247654  0.00469240  0.62728815  1
  O  O341  1  0.00113937  0.50476271  0.11401534  1
  O  O342  1  0.00515100  0.50394334  0.62262653  1
  O  O343  1  0.49910381  -0.00606186  0.11458708  1
  O  O344  1  0.50903922  0.00844698  0.63036655  1
  O  O345  1  0.50649998  0.50351059  0.11308048  1
  O  O346  1  0.50156152  0.50597812  0.61687706  1
  O  O347  1  0.24486247  0.37815488  0.24254425  1
  O  O348  1  0.24693716  0.37948465  0.74382141  1
  O  O349  1  0.24381078  0.88546469  0.24072186  1
  O  O350  1  0.25223076  0.88726362  0.75185595  1
  O  O351  1  0.74192722  0.38859722  0.25244488  1
  O  O352  1  0.75396678  0.38505078  0.73954274  1
  O  O353  1  0.73525292  0.87735537  0.25620094  1
  O  O354  1  0.74491247  0.87504774  0.74398338  1
  O  O355  1  0.25013718  0.11133165  0.23972931  1
  O  O356  1  0.25665683  0.11803395  0.75532629  1
  O  O357  1  0.24750145  0.61539123  0.25980332  1
  O  O358  1  0.25386786  0.62066272  0.75419086  1
  O  O359  1  0.76290985  0.12977185  0.24732699  1
  O  O360  1  0.75544735  0.11275098  0.75007056  1
  O  O361  1  0.74997239  0.61413241  0.25225131  1
  O  O362  1  0.75036708  0.62430501  0.75914498  1
  O  O363  1  0.37789466  0.11606240  0.37525268  1
  O  O364  1  0.36897726  0.10843156  0.86396865  1
  O  O365  1  0.36227817  0.62071716  0.37687740  1
  O  O366  1  0.36903941  0.62086818  0.86744643  1
  O  O367  1  0.87357200  0.13343008  0.35629514  1
  O  O368  1  0.87420653  0.13068217  0.85670693  1
  O  O369  1  0.87675340  0.61054751  0.38132282  1
  O  O370  1  0.85998042  0.62401906  0.87537922  1
  O  O371  1  0.13326399  0.37906556  0.13071984  1
  O  O372  1  0.13122769  0.37803021  0.62973559  1
  O  O373  1  0.13126042  0.88233084  0.13289090  1
  O  O374  1  0.12117357  0.88543099  0.63088806  1
  O  O375  1  0.62676678  0.39048744  0.12917397  1
  O  O376  1  0.63826208  0.37300600  0.61666860  1
  O  O377  1  0.62190107  0.88183553  0.14076240  1
  O  O378  1  0.63182288  0.87885132  0.62715550  1
  O  O379  1  0.12097308  0.26261859  0.24403630  1
  O  O380  1  0.11544175  0.25279962  0.75176287  1
  O  O381  1  0.13497392  0.77258216  0.26138532  1
  O  O382  1  0.11123483  0.74603459  0.75178161  1
  O  O383  1  0.62981672  0.26338692  0.25542823  1
  O  O384  1  0.61113707  0.24545401  0.75715651  1
  O  O385  1  0.62968216  0.76067476  0.25645591  1
  O  O386  1  0.61810407  0.76228811  0.74236131  1
  O  O387  1  0.40592827  0.30926856  0.26688499  1
  O  O388  1  0.38408159  0.23460885  0.75841616  1
  O  O389  1  0.36558653  0.75005991  0.23644883  1
  O  O390  1  0.37838400  0.74610786  0.74120669  1
  O  O391  1  0.87830561  0.24671558  0.23904559  1
  O  O392  1  0.88126125  0.24531100  0.74045026  1
  O  O393  1  0.87111322  0.75939173  0.23379364  1
  O  O394  1  0.88762515  0.74508306  0.74593076  1
  O  O395  1  0.38553993  0.49908342  0.49722436  1
  O  O396  1  0.38062886  0.49776855  0.99288543  1
  O  O397  1  0.36478503  1.00188241  0.48326027  1
  O  O398  1  0.37990511  0.99665069  0.99057275  1
  O  O399  1  0.88069524  0.49118172  0.49418577  1
  O  O400  1  0.88001770  0.49403000  1.00050835  1
  O  O401  1  0.87619562  0.98090910  0.50887465  1
  O  O402  1  0.88511646  0.99192193  1.00578907  1
  O  O403  1  0.11837219  0.00766807  0.00674930  1
  O  O404  1  0.12479495  -0.00860336  0.51548564  1
  O  O405  1  0.11519917  0.50656335  -0.00182155  1
  O  O406  1  0.11968877  0.50305611  0.50640467  1
  O  O407  1  0.61877113  -0.01419244  0.01744755  1
  O  O408  1  0.62846647  0.00375760  0.51125554  1
  O  O409  1  0.61787896  0.50283794  0.00542624  1
  O  O410  1  0.61274727  0.50275405  0.49649933  1
  O  O411  1  0.36854131  0.38168775  0.10842777  1
  O  O412  1  0.36564872  0.37621967  0.61613449  1
  O  O413  1  0.36722591  0.86479135  0.12605097  1
  O  O414  1  0.38141804  0.86457443  0.62107703  1
  O  O415  1  0.88107803  0.36475750  0.11528307  1
  O  O416  1  0.86686541  0.36621720  0.61731774  1
  O  O417  1  0.87987874  0.86509463  0.11056075  1
  O  O418  1  0.86134456  0.87023861  0.61923610  1
  O  O419  1  0.12120298  0.12798955  0.37864251  1
  O  O420  1  0.12942832  0.12992643  0.87860788  1
  O  O421  1  0.13579068  0.63122621  0.38333776  1
  O  O422  1  0.13275398  0.62777862  0.88451547  1
  O  O423  1  0.62778545  0.13274686  0.38330096  1
  O  O424  1  0.62295651  0.13279797  0.86984407  1
  O  O425  1  0.62423109  0.63070036  0.38070086  1
  O  O426  1  0.64013205  0.62660538  0.87863369  1
