# generated using pymatgen
data_V85Zn86O256
_symmetry_space_group_name_H-M   'P 1'
_cell_length_a   16.93196408
_cell_length_b   16.92535216
_cell_length_c   16.91458441
_cell_angle_alpha   90.02752754
_cell_angle_beta   89.95692735
_cell_angle_gamma   89.99351217
_symmetry_Int_Tables_number   1
_chemical_formula_structural   V85Zn86O256
_chemical_formula_sum   'V85 Zn86 O256'
_cell_volume   4847.37041876
_cell_formula_units_Z   1
loop_
 _symmetry_equiv_pos_site_id
 _symmetry_equiv_pos_as_xyz
  1  'x, y, z'
loop_
 _atom_site_type_symbol
 _atom_site_label
 _atom_site_symmetry_multiplicity
 _atom_site_fract_x
 _atom_site_fract_y
 _atom_site_fract_z
 _atom_site_occupancy
  V  V0  1  0.49844555  0.49678618  0.50012056  1
  V  V1  1  0.87054334  0.63048460  0.75073821  1
  V  V2  1  0.25141868  0.24726329  0.00330030  1
  V  V3  1  0.61993245  0.12623314  0.00337471  1
  V  V4  1  0.49883504  0.12776594  0.62373726  1
  V  V5  1  0.62631556  0.25064097  0.87535153  1
  V  V6  1  0.75438536  0.50049730  0.25822422  1
  V  V7  1  0.13185112  0.24804363  0.87192784  1
  V  V8  1  0.75378657  0.25057458  0.00046441  1
  V  V9  1  0.12435006  0.88036051  0.75023158  1
  V  V10  1  0.38462640  0.24697005  0.12743096  1
  V  V11  1  0.00207774  0.88013730  0.37793418  1
  V  V12  1  0.75271632  0.86671307  0.12349494  1
  V  V13  1  0.19452456  0.18149354  0.43246265  1
  V  V14  1  0.36753396  0.00356980  0.87714788  1
  V  V15  1  0.12240627  0.61609754  -0.00523335  1
  V  V16  1  0.50177736  -0.00477502  -0.00746005  1
  V  V17  1  0.00026876  0.87666901  0.87557316  1
  V  V18  1  0.36440951  0.25779675  0.61905699  1
  V  V19  1  0.49899389  0.62641864  0.62618099  1
  V  V20  1  -0.00161792  0.75565501  0.24350389  1
  V  V21  1  0.49724416  0.75288817  0.76046162  1
  V  V22  1  0.63714889  0.75198181  0.38178471  1
  V  V23  1  0.75004453  0.50345230  0.76042549  1
  V  V24  1  -0.00618708  0.62671499  0.12023922  1
  V  V25  1  -0.00179055  0.23826819  0.74605197  1
  V  V26  1  0.24287482  0.62465575  0.37867370  1
  V  V27  1  0.86896946  0.38456222  0.48939111  1
  V  V28  1  0.75488991  0.00343529  0.74803979  1
  V  V29  1  0.25114228  -0.00324104  0.25004709  1
  V  V30  1  0.00361470  0.62190593  0.62191566  1
  V  V31  1  0.75324152  0.86280156  0.62438275  1
  V  V32  1  0.87428566  -0.00025522  0.38522679  1
  V  V33  1  0.50227160  0.87360650  0.37883144  1
  V  V34  1  0.00506358  0.38304914  0.37000840  1
  V  V35  1  0.75296357  0.37455520  0.62514613  1
  V  V36  1  0.62114310  0.87541303  0.75770371  1
  V  V37  1  0.50130299  0.74895053  0.25238710  1
  V  V38  1  0.24786001  0.87945749  0.62474622  1
  V  V39  1  0.88434053  0.50406703  0.87790614  1
  V  V40  1  0.12835819  0.74556991  0.87304069  1
  V  V41  1  0.50245173  0.62381121  0.12649162  1
  V  V42  1  0.36501484  0.62611473  0.75887069  1
  V  V43  1  0.75475701  -0.00005106  0.24694255  1
  V  V44  1  0.49913101  0.25083554  0.75104928  1
  V  V45  1  0.62614925  0.49711528  0.13044290  1
  V  V46  1  0.87364627  0.24528822  0.62222228  1
  V  V47  1  0.62936488  0.62354907  -0.00548382  1
  V  V48  1  0.61928657  0.00057466  0.12529930  1
  V  V49  1  0.75118492  0.37418705  0.12953485  1
  V  V50  1  0.75608644  0.74426086  -0.00739462  1
  V  V51  1  0.00535694  0.23889162  0.25647307  1
  V  V52  1  0.87733493  0.00679280  0.87245719  1
  V  V53  1  0.11944859  0.49771704  0.12354263  1
  V  V54  1  0.37328728  0.75186230  0.62565880  1
  V  V55  1  0.62622106  0.87299713  0.25189897  1
  V  V56  1  0.87232031  0.85899505  0.50417967  1
  V  V57  1  0.37368034  0.62547429  0.25155289  1
  V  V58  1  0.62407923  0.00042020  0.62630786  1
  V  V59  1  0.12351256  -0.00206882  0.13467443  1
  V  V60  1  0.11603380  0.00553176  0.61044221  1
  V  V61  1  0.37917428  0.87193455  -0.00547487  1
  V  V62  1  0.63449623  0.62803928  0.50370039  1
  V  V63  1  0.12954004  0.12370911  0.00098277  1
  V  V64  1  0.37337679  0.87488963  0.49963467  1
  V  V65  1  0.38329413  0.12362929  0.24316950  1
  V  V66  1  0.75206670  0.12586037  0.87227596  1
  V  V67  1  0.87811619  0.87168946  0.00447187  1
  V  V68  1  0.24765772  0.49331561  0.74937000  1
  V  V69  1  0.36621969  0.12793292  0.75428236  1
  V  V70  1  0.24889843  0.74411973  -0.00289128  1
  V  V71  1  0.88275284  0.23865106  0.12441504  1
  V  V72  1  0.12324461  0.37108332  0.73306579  1
  V  V73  1  0.62678027  0.37642186  0.75202656  1
  V  V74  1  0.00033312  0.00948980  0.00517499  1
  V  V75  1  0.50171150  0.37067472  0.35618531  1
  V  V76  1  0.23942585  0.74907737  0.50090752  1
  V  V77  1  0.37479908  0.00849249  0.37546941  1
  V  V78  1  -0.00540955  0.75256777  0.74297442  1
  V  V79  1  0.12504676  0.75541180  0.36634145  1
  V  V80  1  0.88700253  0.37829170  0.00062830  1
  V  V81  1  0.49550220  0.37901306  0.87803704  1
  V  V82  1  0.87752641  0.62555757  0.25824806  1
  V  V83  1  0.24711902  0.49846111  0.24994853  1
  V  V84  1  0.37441560  0.75027256  0.12477650  1
  Zn  Zn85  1  0.49610896  0.50098257  0.00096347  1
  Zn  Zn86  1  0.24509322  0.87132800  0.12608549  1
  Zn  Zn87  1  0.74620807  0.12981696  0.37771526  1
  Zn  Zn88  1  0.63259314  0.13879592  0.50041150  1
  Zn  Zn89  1  0.64084825  0.25609527  0.37473549  1
  Zn  Zn90  1  0.37101130  0.37742660  0.00124426  1
  Zn  Zn91  1  0.37397073  0.50228154  0.37906130  1
  Zn  Zn92  1  0.62524176  0.75040539  0.87731746  1
  Zn  Zn93  1  0.00414485  0.37550516  0.87284871  1
  Zn  Zn94  1  0.24957462  0.37114596  0.12772636  1
  Zn  Zn95  1  0.12679122  0.36814655  0.25034349  1
  Zn  Zn96  1  0.49661219  0.00196026  0.50248135  1
  Zn  Zn97  1  0.62663982  0.50134835  0.62798630  1
  Zn  Zn98  1  0.51533384  0.24052312  0.24376847  1
  Zn  Zn99  1  0.24576139  0.00503230  0.75344362  1
  Zn  Zn100  1  0.00818513  0.13057984  0.58824459  1
  Zn  Zn101  1  0.36234658  0.38327760  0.50943290  1
  Zn  Zn102  1  0.75831978  0.62312465  0.38494350  1
  Zn  Zn103  1  0.00072187  0.50692963  0.49141675  1
  Zn  Zn104  1  0.13117507  0.50256834  0.61480319  1
  Zn  Zn105  1  0.88242816  0.11673631  0.24609858  1
  Zn  Zn106  1  0.36598517  0.50361188  0.88146417  1
  Zn  Zn107  1  0.19187752  0.18168813  0.19562460  1
  Zn  Zn108  1  0.18672510  0.18560837  0.68127850  1
  Zn  Zn109  1  0.18452217  0.68542288  0.18534646  1
  Zn  Zn110  1  0.18642248  0.68805552  0.68931786  1
  Zn  Zn111  1  0.68802558  0.18787992  0.19096210  1
  Zn  Zn112  1  0.68905964  0.18823191  0.68605989  1
  Zn  Zn113  1  0.69075887  0.68559668  0.18694122  1
  Zn  Zn114  1  0.68555975  0.68671821  0.69262996  1
  Zn  Zn115  1  0.29079566  0.33121594  0.35649733  1
  Zn  Zn116  1  0.30975837  0.31364227  0.81120331  1
  Zn  Zn117  1  0.31233796  0.81637067  0.31204614  1
  Zn  Zn118  1  0.31053599  0.81601407  0.81484352  1
  Zn  Zn119  1  0.81281271  0.30902349  0.30774041  1
  Zn  Zn120  1  0.81755893  0.31409092  0.81076387  1
  Zn  Zn121  1  0.81757486  0.81209291  0.31070329  1
  Zn  Zn122  1  0.81197319  0.81724440  0.81482859  1
  Zn  Zn123  1  0.18150800  0.43993534  0.44706806  1
  Zn  Zn124  1  0.18797241  0.43293212  0.93171398  1
  Zn  Zn125  1  0.18763144  0.94275916  0.43149899  1
  Zn  Zn126  1  0.18895504  0.93456372  0.94135145  1
  Zn  Zn127  1  0.68200626  0.43726786  0.44050446  1
  Zn  Zn128  1  0.69118994  0.43765937  0.94143776  1
  Zn  Zn129  1  0.70300942  0.96746535  0.45490071  1
  Zn  Zn130  1  0.69068046  0.93658447  0.93712225  1
  Zn  Zn131  1  0.30994697  0.06474489  0.06441615  1
  Zn  Zn132  1  0.30979017  0.06500010  0.56436477  1
  Zn  Zn133  1  0.30931971  0.56245949  0.06338548  1
  Zn  Zn134  1  0.31021005  0.56559687  0.56615391  1
  Zn  Zn135  1  0.80816700  0.06020574  0.06113858  1
  Zn  Zn136  1  0.81656546  0.05974960  0.56173456  1
  Zn  Zn137  1  0.81446042  0.56091113  0.06422188  1
  Zn  Zn138  1  0.81672562  0.56054018  0.57153143  1
  Zn  Zn139  1  0.43191146  0.43754634  0.18468458  1
  Zn  Zn140  1  0.43621020  0.43968145  0.69008544  1
  Zn  Zn141  1  0.43835326  0.93553090  0.18471774  1
  Zn  Zn142  1  0.43646109  0.93898659  0.69179506  1
  Zn  Zn143  1  0.93706935  0.43818268  0.18816223  1
  Zn  Zn144  1  0.93780246  0.43636601  0.68924264  1
  Zn  Zn145  1  0.94205114  0.93625004  0.18699190  1
  Zn  Zn146  1  0.93789521  0.94107993  0.68312070  1
  Zn  Zn147  1  0.03823680  0.09065283  0.39012513  1
  Zn  Zn148  1  0.06392301  0.06532179  0.81467998  1
  Zn  Zn149  1  0.06309439  0.56421648  0.31208280  1
  Zn  Zn150  1  0.06303193  0.56152450  0.80697131  1
  Zn  Zn151  1  0.56359926  0.06372125  0.31382341  1
  Zn  Zn152  1  0.55938488  0.06348970  0.81321987  1
  Zn  Zn153  1  0.56686158  0.56188961  0.31621511  1
  Zn  Zn154  1  0.55955477  0.56297901  0.81347674  1
  Zn  Zn155  1  0.44020089  0.19109941  0.43830854  1
  Zn  Zn156  1  0.43799942  0.18708899  0.93946392  1
  Zn  Zn157  1  0.43621771  0.68709502  0.43976162  1
  Zn  Zn158  1  0.44030807  0.68398553  0.93943375  1
  Zn  Zn159  1  0.90960817  0.20036327  0.43025684  1
  Zn  Zn160  1  0.94247665  0.18955661  0.93456660  1
  Zn  Zn161  1  0.93943289  0.69161428  0.43637643  1
  Zn  Zn162  1  0.94038759  0.68753364  0.93339134  1
  Zn  Zn163  1  0.06406374  0.30879580  0.06764872  1
  Zn  Zn164  1  0.06227620  0.30679114  0.54780114  1
  Zn  Zn165  1  0.06353391  0.81322276  0.06215449  1
  Zn  Zn166  1  0.05989271  0.81423552  0.56177677  1
  Zn  Zn167  1  0.56505930  0.31567614  0.06312694  1
  Zn  Zn168  1  0.56530361  0.31257101  0.56135498  1
  Zn  Zn169  1  0.56403793  0.81113466  0.06157556  1
  Zn  Zn170  1  0.56494185  0.81329519  0.56625184  1
  O  O171  1  0.13036704  0.11145076  0.11217645  1
  O  O172  1  0.12309509  0.11055482  0.62346872  1
  O  O173  1  0.11699836  0.61865950  0.11551067  1
  O  O174  1  0.10712485  0.62724082  0.63284477  1
  O  O175  1  0.63504719  0.11235297  0.11442443  1
  O  O176  1  0.61846883  0.11730076  0.62529319  1
  O  O177  1  0.62082497  0.61987452  0.11802543  1
  O  O178  1  0.61603793  0.62636566  0.62120749  1
  O  O179  1  0.39424657  0.38433197  0.37664686  1
  O  O180  1  0.38359081  0.37539955  0.87615225  1
  O  O181  1  0.38443634  0.87879271  0.38093296  1
  O  O182  1  0.37358068  0.88195168  0.88703437  1
  O  O183  1  0.87510260  0.37825178  0.38673557  1
  O  O184  1  0.87855997  0.38159277  0.88378882  1
  O  O185  1  0.88032450  0.87540070  0.38519598  1
  O  O186  1  0.87903200  0.88705674  0.88528108  1
  O  O187  1  0.26595636  -0.01071064  0.36401346  1
  O  O188  1  0.26325369  -0.00325080  0.87661882  1
  O  O189  1  0.24944605  0.51279137  0.36743139  1
  O  O190  1  0.24850365  0.49958705  0.85746708  1
  O  O191  1  0.76187947  -0.01518344  0.35827259  1
  O  O192  1  0.75839565  0.00435696  0.86942254  1
  O  O193  1  0.74104359  0.50227809  0.36131411  1
  O  O194  1  0.76021171  0.49379443  0.86560709  1
  O  O195  1  0.23887280  0.49999329  0.13335870  1
  O  O196  1  0.24660107  0.50701434  0.64080616  1
  O  O197  1  0.24040273  0.99536941  0.12595621  1
  O  O198  1  0.23858600  0.99554375  0.62794514  1
  O  O199  1  0.74527339  0.49280914  0.13122311  1
  O  O200  1  0.75084712  0.49010264  0.64016130  1
  O  O201  1  0.74157540  0.98672824  0.12591853  1
  O  O202  1  0.74351949  0.99324645  0.63454090  1
  O  O203  1  -0.00215378  0.36975647  0.25842340  1
  O  O204  1  0.00888830  0.36457809  0.74920782  1
  O  O205  1  -0.00589413  0.86183977  0.25838383  1
  O  O206  1  0.00430922  0.87082432  0.75381835  1
  O  O207  1  0.50171112  0.37759556  0.25516196  1
  O  O208  1  0.50632884  0.37239268  0.75986723  1
  O  O209  1  0.50555407  0.86891510  0.25741384  1
  O  O210  1  0.50794488  0.86450001  0.74367863  1
  O  O211  1  0.48890414  0.11974033  0.24568347  1
  O  O212  1  0.49269734  0.13096657  0.74318737  1
  O  O213  1  0.49524839  0.62970890  0.24709715  1
  O  O214  1  0.49317901  0.63264459  0.74386129  1
  O  O215  1  1.00080077  0.13793484  0.26826668  1
  O  O216  1  1.00351824  0.13725366  0.74797820  1
  O  O217  1  0.99506459  0.63346726  0.24371024  1
  O  O218  1  0.99334468  0.63512493  0.74503710  1
  O  O219  1  0.36870220  0.24825676  0.00917769  1
  O  O220  1  0.38567934  0.25515044  0.51782466  1
  O  O221  1  0.36903941  0.75353116  0.00117962  1
  O  O222  1  0.36551736  0.75601210  0.50636135  1
  O  O223  1  0.87327922  0.25548612  0.00518345  1
  O  O224  1  0.87252965  0.27073422  0.51494250  1
  O  O225  1  0.87053329  0.75985827  -0.00603812  1
  O  O226  1  0.86790891  0.76004788  0.49710631  1
  O  O227  1  0.12634554  0.23554160  0.48875601  1
  O  O228  1  0.12982578  0.24260992  0.99556491  1
  O  O229  1  0.13503698  0.75535222  0.49213334  1
  O  O230  1  0.13103897  0.74382631  0.99183154  1
  O  O231  1  0.62219061  0.25092206  0.49123852  1
  O  O232  1  0.63140855  0.24230390  0.99704205  1
  O  O233  1  0.62002962  0.74184347  0.49308848  1
  O  O234  1  0.63406514  0.74256821  0.99880671  1
  O  O235  1  0.48904657  0.25366249  0.12313105  1
  O  O236  1  0.49652020  0.24402615  0.63548894  1
  O  O237  1  0.49573387  0.74442028  0.13193618  1
  O  O238  1  0.49484684  0.74163173  0.63313504  1
  O  O239  1  0.99138432  0.25255204  0.13846201  1
  O  O240  1  0.99099742  0.24595847  0.62618828  1
  O  O241  1  1.00882521  0.74197991  0.13383707  1
  O  O242  1  1.00295955  0.74493471  0.63779835  1
  O  O243  1  -0.01402009  0.26525025  0.35979111  1
  O  O244  1  0.01045123  0.25094315  0.86482695  1
  O  O245  1  0.00840123  0.75630528  0.36765148  1
  O  O246  1  0.01058414  0.75818566  0.86706296  1
  O  O247  1  0.49513931  0.26469286  0.36698695  1
  O  O248  1  0.50591663  0.25659285  0.87045118  1
  O  O249  1  0.50518392  0.75797946  0.37182292  1
  O  O250  1  0.50092477  0.74856619  0.86380971  1
  O  O251  1  0.26446820  0.13713554  0.49241321  1
  O  O252  1  0.24365142  0.13601176  0.99947762  1
  O  O253  1  0.25526218  0.63741386  0.49092510  1
  O  O254  1  0.24047521  0.63697258  1.00252897  1
  O  O255  1  0.73499287  0.08191331  0.48872165  1
  O  O256  1  0.74116019  0.12952662  0.99253439  1
  O  O257  1  0.73895419  0.61752039  0.50483462  1
  O  O258  1  0.74437953  0.63460933  1.00869752  1
  O  O259  1  0.24894586  0.35997497  0.00048209  1
  O  O260  1  0.26078145  0.36742530  0.46313549  1
  O  O261  1  0.25756218  0.86071483  0.00107744  1
  O  O262  1  0.25537241  0.86916250  0.50397022  1
  O  O263  1  0.75981038  0.36802676  0.00868329  1
  O  O264  1  0.76024451  0.38751585  0.51028050  1
  O  O265  1  0.75839678  0.86941493  0.00488274  1
  O  O266  1  0.76107413  0.87882865  0.51082140  1
  O  O267  1  0.13183774  0.50227120  0.24071203  1
  O  O268  1  0.13180091  0.48987371  0.74526991  1
  O  O269  1  0.13359659  1.00329861  0.23505667  1
  O  O270  1  0.12466032  0.99025733  0.74889047  1
  O  O271  1  0.63547881  0.50962771  0.23673037  1
  O  O272  1  0.63282603  0.49623243  0.75186711  1
  O  O273  1  0.63103211  0.99152816  0.24137034  1
  O  O274  1  0.62889674  0.99430287  0.74467401  1
  O  O275  1  0.37344950  0.00291827  0.25389963  1
  O  O276  1  0.37357836  0.00787681  0.76035289  1
  O  O277  1  0.36564053  0.51041755  0.24897645  1
  O  O278  1  0.36340193  0.50808309  0.75122824  1
  O  O279  1  0.86913214  -0.00374153  0.25235629  1
  O  O280  1  0.86718764  -0.00519812  0.75933694  1
  O  O281  1  0.86579500  0.51205310  0.24256863  1
  O  O282  1  0.86886202  0.50651391  0.75851430  1
  O  O283  1  0.10707891  0.37649132  0.36954482  1
  O  O284  1  0.12227791  0.36406855  0.86473482  1
  O  O285  1  0.11470577  0.86785491  0.37905439  1
  O  O286  1  0.12022172  0.87028270  0.86883500  1
  O  O287  1  0.60338227  0.37936422  0.38166162  1
  O  O288  1  0.62058696  0.36977316  0.87190700  1
  O  O289  1  0.61763905  0.86859394  0.37208158  1
  O  O290  1  0.62833963  0.87624126  0.86185671  1
  O  O291  1  0.37703196  0.13603079  0.12636620  1
  O  O292  1  0.38195615  0.13236203  0.63432906  1
  O  O293  1  0.38114531  0.63141909  0.13112051  1
  O  O294  1  0.38072197  0.63429663  0.63512385  1
  O  O295  1  0.87230927  0.13477970  0.12224957  1
  O  O296  1  0.87142363  0.14250540  0.61715005  1
  O  O297  1  0.89016386  0.62177147  0.12916693  1
  O  O298  1  0.88455267  0.62416484  0.64263190  1
  O  O299  1  0.25828691  0.24917217  0.11967053  1
  O  O300  1  0.26581910  0.24874538  0.62786655  1
  O  O301  1  0.25528701  0.74974074  0.11687470  1
  O  O302  1  0.25061261  0.75694179  0.61764838  1
  O  O303  1  0.76019454  0.25681026  0.12061276  1
  O  O304  1  0.76060297  0.26355377  0.63403166  1
  O  O305  1  0.74644825  0.76159576  0.11548973  1
  O  O306  1  0.74750793  0.76384313  0.63435435  1
  O  O307  1  0.23957909  0.23135565  0.35394500  1
  O  O308  1  0.23818578  0.25139161  0.88055131  1
  O  O309  1  0.24242643  0.74916053  0.37947994  1
  O  O310  1  0.23645729  0.75295714  0.87986397  1
  O  O311  1  0.76007318  0.24397591  0.37840755  1
  O  O312  1  0.74793789  0.24579212  0.87907461  1
  O  O313  1  0.73923459  0.74819325  0.37093971  1
  O  O314  1  0.74710739  0.75519418  0.88865001  1
  O  O315  1  0.00590600  0.11397973  -0.00153540  1
  O  O316  1  -0.01911983  0.12599791  0.47948767  1
  O  O317  1  0.01059192  0.63242830  0.00764393  1
  O  O318  1  -0.01101437  0.62915928  0.51891622  1
  O  O319  1  0.51403421  0.11683041  -0.00335225  1
  O  O320  1  0.49904235  0.12252877  0.51497245  1
  O  O321  1  0.50958071  0.62464382  0.01006924  1
  O  O322  1  0.50520345  0.62019817  0.50882947  1
  O  O323  1  0.49683532  0.39379189  0.51169019  1
  O  O324  1  0.50040179  0.37609598  0.98778881  1
  O  O325  1  0.49092066  0.87184936  0.49474023  1
  O  O326  1  0.49298089  0.88160837  1.00116738  1
  O  O327  1  0.98951970  0.37514090  0.48421038  1
  O  O328  1  0.98985191  0.36973183  0.99927117  1
  O  O329  1  0.98559401  0.86685487  0.49175810  1
  O  O330  1  0.99422758  0.88302017  0.99553190  1
  O  O331  1  0.49893817  0.49687907  0.38433045  1
  O  O332  1  0.49568366  0.49159167  0.87727360  1
  O  O333  1  0.49402974  0.98628191  0.37637504  1
  O  O334  1  0.49193420  1.00114881  0.88664494  1
  O  O335  1  0.99613112  0.48867512  0.36957466  1
  O  O336  1  0.98847336  0.49624979  0.86911691  1
  O  O337  1  0.98893038  0.98530895  0.36645755  1
  O  O338  1  0.99430681  0.99608982  0.88170289  1
  O  O339  1  0.01204878  -0.00139789  0.11873474  1
  O  O340  1  0.01239723  0.00618621  0.62606579  1
  O  O341  1  0.01232904  0.50838998  0.12842608  1
  O  O342  1  0.00090192  0.51592698  0.63137940  1
  O  O343  1  0.51363297  -0.00690788  0.11399541  1
  O  O344  1  0.50586214  0.01043759  0.63152145  1
  O  O345  1  0.50886923  0.50489322  0.12500715  1
  O  O346  1  0.49979328  0.51425355  0.62403666  1
  O  O347  1  0.24835844  0.38996662  0.25641966  1
  O  O348  1  0.24153779  0.38491972  0.74864296  1
  O  O349  1  0.25820614  0.88887334  0.24243581  1
  O  O350  1  0.24037041  0.87720834  0.74354743  1
  O  O351  1  0.76092361  0.38490764  0.23673467  1
  O  O352  1  0.74565674  0.38191885  0.74648181  1
  O  O353  1  0.74728452  0.87731418  0.23980121  1
  O  O354  1  0.74485666  0.88550038  0.74597879  1
  O  O355  1  0.26774795  0.10631277  0.23953594  1
  O  O356  1  0.26223145  0.12424039  0.74822273  1
  O  O357  1  0.25351993  0.61954553  0.25571057  1
  O  O358  1  0.25675433  0.61924012  0.74881817  1
  O  O359  1  0.75320829  0.10551829  0.24293471  1
  O  O360  1  0.74468794  0.11161124  0.75556912  1
  O  O361  1  0.76119884  0.61952909  0.24990211  1
  O  O362  1  0.75730965  0.61702029  0.74882784  1
  O  O363  1  0.38697368  0.11255103  0.36752249  1
  O  O364  1  0.38153132  0.11671924  0.86679114  1
  O  O365  1  0.36357633  0.62836507  0.36755476  1
  O  O366  1  0.37900511  0.62471974  0.86239465  1
  O  O367  1  0.86505559  0.10974932  0.36682789  1
  O  O368  1  0.87093073  0.11369673  0.88084253  1
  O  O369  1  0.87544027  0.62752712  0.36426561  1
  O  O370  1  0.87988728  0.61721686  0.86440886  1
  O  O371  1  0.12810534  0.38377464  0.12822819  1
  O  O372  1  0.11901934  0.37116801  0.63039101  1
  O  O373  1  0.12714890  0.89225407  0.11608809  1
  O  O374  1  0.12576486  0.88385905  0.63254323  1
  O  O375  1  0.63829790  0.38469068  0.11873000  1
  O  O376  1  0.63397932  0.37753539  0.63485565  1
  O  O377  1  0.63268591  0.87969475  0.12967358  1
  O  O378  1  0.63216678  0.87916779  0.63796515  1
  O  O379  1  0.10919632  0.24974984  0.24065340  1
  O  O380  1  0.12183472  0.25292811  0.75315382  1
  O  O381  1  0.11823937  0.74836710  0.25874836  1
  O  O382  1  0.11922100  0.76143853  0.75554175  1
  O  O383  1  0.62678327  0.24970112  0.25747058  1
  O  O384  1  0.62001937  0.25548338  0.75627983  1
  O  O385  1  0.62078856  0.75377354  0.25763991  1
  O  O386  1  0.61568635  0.75630763  0.75496659  1
  O  O387  1  0.38031322  0.23980018  0.23418516  1
  O  O388  1  0.38031132  0.24429472  0.74588697  1
  O  O389  1  0.37997251  0.74503571  0.24538093  1
  O  O390  1  0.37796294  0.74622933  0.74649570  1
  O  O391  1  0.88477733  0.24466295  0.23851520  1
  O  O392  1  0.88532949  0.25674575  0.73506527  1
  O  O393  1  0.88521883  0.74057973  0.24855198  1
  O  O394  1  0.88385536  0.74483317  0.76079321  1
  O  O395  1  0.38313790  0.50439256  0.50125564  1
  O  O396  1  0.37577317  0.49727577  0.99911660  1
  O  O397  1  0.37576672  0.99335924  0.49305418  1
  O  O398  1  0.38200343  0.99414793  0.99666144  1
  O  O399  1  0.88255021  0.48797413  0.50720549  1
  O  O400  1  0.87004402  0.49104385  0.99079855  1
  O  O401  1  0.87437753  0.98636463  0.48816624  1
  O  O402  1  0.88277447  0.99510418  0.99573565  1
  O  O403  1  0.11878468  0.00585429  0.00188135  1
  O  O404  1  0.12227978  -0.00845638  0.51190419  1
  O  O405  1  0.13251319  0.50992457  0.00438363  1
  O  O406  1  0.11382137  0.50416068  0.50312321  1
  O  O407  1  0.61994463  0.00350858  0.00307852  1
  O  O408  1  0.61153305  -0.01571461  0.52214767  1
  O  O409  1  0.62769787  0.50772442  0.01103434  1
  O  O410  1  0.61599236  0.51109019  0.50616597  1
  O  O411  1  0.37020161  0.36164429  0.12301585  1
  O  O412  1  0.37658327  0.36237748  0.62935875  1
  O  O413  1  0.37521267  0.86731703  0.11174420  1
  O  O414  1  0.36852447  0.87170982  0.62115485  1
  O  O415  1  0.87089981  0.36911350  0.11657183  1
  O  O416  1  0.86893582  0.37145549  0.62010359  1
  O  O417  1  0.86870912  0.88007965  0.11211951  1
  O  O418  1  0.86983382  0.87812673  0.61274865  1
  O  O419  1  0.14717717  0.10382481  0.38327170  1
  O  O420  1  0.12193738  0.13241576  0.88839974  1
  O  O421  1  0.13571660  0.63668595  0.37130463  1
  O  O422  1  0.11665214  0.63375272  0.88149239  1
  O  O423  1  0.62781275  0.12301204  0.38071393  1
  O  O424  1  0.63051624  0.13072213  0.88119192  1
  O  O425  1  0.62723878  0.63486388  0.38656969  1
  O  O426  1  0.62110661  0.62461671  0.89067423  1
