# generated using pymatgen
data_V85Zn86O256
_symmetry_space_group_name_H-M   'P 1'
_cell_length_a   16.95141623
_cell_length_b   16.94127422
_cell_length_c   16.97345675
_cell_angle_alpha   89.88848299
_cell_angle_beta   89.90334825
_cell_angle_gamma   89.94287375
_symmetry_Int_Tables_number   1
_chemical_formula_structural   V85Zn86O256
_chemical_formula_sum   'V85 Zn86 O256'
_cell_volume   4874.39481543
_cell_formula_units_Z   1
loop_
 _symmetry_equiv_pos_site_id
 _symmetry_equiv_pos_as_xyz
  1  'x, y, z'
loop_
 _atom_site_type_symbol
 _atom_site_label
 _atom_site_symmetry_multiplicity
 _atom_site_fract_x
 _atom_site_fract_y
 _atom_site_fract_z
 _atom_site_occupancy
  V  V0  1  0.62112354  0.37804210  0.25250374  1
  V  V1  1  0.12171498  0.61363462  0.01312793  1
  V  V2  1  0.74289565  0.37171871  0.63135039  1
  V  V3  1  0.75349531  0.25204574  -0.00203251  1
  V  V4  1  0.24577485  0.00112241  0.75054723  1
  V  V5  1  0.49604112  0.24834723  0.22886068  1
  V  V6  1  0.88099623  0.87905469  0.50512821  1
  V  V7  1  0.25683163  0.75011876  0.50726238  1
  V  V8  1  0.62583104  0.87544541  0.75061431  1
  V  V9  1  0.37696320  0.62599800  0.25071242  1
  V  V10  1  0.50027026  0.00133531  0.50020592  1
  V  V11  1  0.12384420  0.62333413  0.50816892  1
  V  V12  1  0.62425373  0.62595196  0.50270771  1
  V  V13  1  0.00283352  0.12702102  0.12433644  1
  V  V14  1  0.62518569  0.12488164  0.49898093  1
  V  V15  1  0.12947160  0.37164939  0.76319492  1
  V  V16  1  0.87404544  -0.00682208  0.87960698  1
  V  V17  1  0.12692480  0.38138996  0.25005309  1
  V  V18  1  0.12685800  0.74755703  0.37462815  1
  V  V19  1  0.50198825  0.00312941  0.01323366  1
  V  V20  1  0.24902000  0.12493947  0.37252233  1
  V  V21  1  0.48450040  0.62838448  0.63215204  1
  V  V22  1  0.37401922  0.00285732  0.87521891  1
  V  V23  1  0.50590601  0.37505945  0.87252549  1
  V  V24  1  0.49850748  0.12487148  0.62558626  1
  V  V25  1  -0.00094951  0.73133882  0.74708650  1
  V  V26  1  -0.00362937  0.25452405  0.25030972  1
  V  V27  1  -0.00576675  0.50466931  0.50542685  1
  V  V28  1  0.00256402  0.87566650  0.37504534  1
  V  V29  1  0.62653229  0.75460070  0.37492847  1
  V  V30  1  0.74876512  0.00162661  0.24353559  1
  V  V31  1  0.87870110  0.73050319  0.12396504  1
  V  V32  1  0.75211682  0.25140557  0.49278164  1
  V  V33  1  0.25221859  0.62627650  0.87584673  1
  V  V34  1  0.11996700  0.12873724  -0.00542003  1
  V  V35  1  0.50183959  0.87854022  0.37418084  1
  V  V36  1  0.25679678  0.37079604  0.12878566  1
  V  V37  1  0.87719446  -0.00104229  0.37697890  1
  V  V38  1  0.48573049  0.74929287  0.74618017  1
  V  V39  1  0.75052044  -0.00201699  0.74881614  1
  V  V40  1  0.87134593  0.13908729  0.74640795  1
  V  V41  1  -0.00277144  0.38109922  0.37886225  1
  V  V42  1  -0.00648349  0.12805235  0.61746692  1
  V  V43  1  0.75058091  0.75174588  0.50500089  1
  V  V44  1  -0.01406870  0.36995841  0.88267359  1
  V  V45  1  0.37761562  0.36834612  0.00159597  1
  V  V46  1  0.49758464  0.62612170  0.12466231  1
  V  V47  1  0.62515181  0.73996313  0.87336369  1
  V  V48  1  0.37353041  0.24963279  0.62456965  1
  V  V49  1  0.87926493  0.73252893  0.62747869  1
  V  V50  1  0.36911207  0.75598141  0.12565084  1
  V  V51  1  0.61049750  0.25227377  0.37521512  1
  V  V52  1  0.00553971  0.24981353  0.74797560  1
  V  V53  1  -0.00402921  0.87234298  0.87970174  1
  V  V54  1  0.87021233  0.37797655  0.50301487  1
  V  V55  1  0.24479039  0.75506659  0.00189320  1
  V  V56  1  0.87473280  0.12959608  0.25158916  1
  V  V57  1  0.12144144  0.12133663  0.49890936  1
  V  V58  1  0.24733875  0.24789566  0.00565847  1
  V  V59  1  0.62361508  0.50110066  0.11919605  1
  V  V60  1  0.11857572  0.87503420  0.74993405  1
  V  V61  1  0.25367229  0.50602161  0.74991367  1
  V  V62  1  0.36974465  0.87732144  0.00313039  1
  V  V63  1  -0.00242780  0.73376527  0.24599959  1
  V  V64  1  0.50016107  0.25323270  0.75031266  1
  V  V65  1  0.25078582  0.50187158  0.24635179  1
  V  V66  1  0.49864881  0.49697534  0.49120977  1
  V  V67  1  0.75283170  0.75316325  -0.00361223  1
  V  V68  1  0.24452403  0.13299566  0.87306481  1
  V  V69  1  0.62280756  0.49842197  0.63680888  1
  V  V70  1  0.75226877  0.37538488  0.12235316  1
  V  V71  1  0.76817297  0.87933695  0.12307968  1
  V  V72  1  0.12469642  0.25054547  0.37608067  1
  V  V73  1  0.37325084  0.00236540  0.37621335  1
  V  V74  1  0.62778052  0.24914760  0.87030070  1
  V  V75  1  0.24950009  0.25071352  0.49917506  1
  V  V76  1  0.62501189  0.88184199  0.23685344  1
  V  V77  1  0.24559288  -0.00665532  0.24307788  1
  V  V78  1  0.74768257  0.12487332  0.87510104  1
  V  V79  1  0.49873337  0.87684097  0.87412816  1
  V  V80  1  0.24864487  0.37719540  0.62413803  1
  V  V81  1  0.62164440  0.12100520  0.01327143  1
  V  V82  1  0.37712699  0.12758378  0.23648739  1
  V  V83  1  0.11843186  -0.00129020  0.61987755  1
  V  V84  1  0.38140635  0.50244987  0.87030070  1
  Zn  Zn85  1  0.49683348  0.50176141  -0.00088019  1
  Zn  Zn86  1  0.78389450  0.59978342  0.38578865  1
  Zn  Zn87  1  0.87820339  0.25397604  0.11607522  1
  Zn  Zn88  1  0.25475200  0.87265778  0.62896260  1
  Zn  Zn89  1  0.25254593  0.62254344  0.37587838  1
  Zn  Zn90  1  0.38004444  0.86769601  0.50665709  1
  Zn  Zn91  1  0.12137990  0.74561708  0.87653258  1
  Zn  Zn92  1  0.12208658  0.50292012  0.63027670  1
  Zn  Zn93  1  0.37889898  0.37374471  0.49427662  1
  Zn  Zn94  1  0.81033584  0.54861134  0.80484945  1
  Zn  Zn95  1  0.78513960  0.53510063  0.23368530  1
  Zn  Zn96  1  -0.00452135  -0.00484258  0.00514853  1
  Zn  Zn97  1  0.38217804  0.49163838  0.36833117  1
  Zn  Zn98  1  0.37298689  0.12454894  0.74942644  1
  Zn  Zn99  1  0.49934245  0.75382561  0.24886277  1
  Zn  Zn100  1  0.74915959  0.12600582  0.37280341  1
  Zn  Zn101  1  -0.02142325  0.50644060  0.00250081  1
  Zn  Zn102  1  0.62608741  -0.00056529  0.62469089  1
  Zn  Zn103  1  0.12611886  0.86747757  0.24064298  1
  Zn  Zn104  1  0.62198098  0.63001786  0.00130214  1
  Zn  Zn105  1  0.75396175  0.87590228  0.62752937  1
  Zn  Zn106  1  0.12489279  -0.00897291  0.11821745  1
  Zn  Zn107  1  0.18609893  0.18950882  0.18607059  1
  Zn  Zn108  1  0.18460325  0.18700162  0.68579119  1
  Zn  Zn109  1  0.18820747  0.68786948  0.18661169  1
  Zn  Zn110  1  0.18677213  0.68679197  0.68880282  1
  Zn  Zn111  1  0.68674763  0.19105624  0.18838911  1
  Zn  Zn112  1  0.68690907  0.19202787  0.68502828  1
  Zn  Zn113  1  0.68705215  0.69512460  0.18560349  1
  Zn  Zn114  1  0.68079370  0.68459693  0.68836309  1
  Zn  Zn115  1  0.32038695  0.31250823  0.31446771  1
  Zn  Zn116  1  0.31562036  0.31390451  0.81287378  1
  Zn  Zn117  1  0.31319242  0.81286077  0.31718544  1
  Zn  Zn118  1  0.30748606  0.81637726  0.81540441  1
  Zn  Zn119  1  0.82950435  0.36522515  0.29327348  1
  Zn  Zn120  1  0.83230674  0.35195754  0.78461504  1
  Zn  Zn121  1  0.83028746  0.77613111  0.32873528  1
  Zn  Zn122  1  0.81194536  0.71019274  0.81305029  1
  Zn  Zn123  1  0.19031775  0.44098960  0.43520524  1
  Zn  Zn124  1  0.19231430  0.43691882  0.93841650  1
  Zn  Zn125  1  0.18676266  0.93478090  0.43693508  1
  Zn  Zn126  1  0.18175754  0.93962004  0.93665173  1
  Zn  Zn127  1  0.68111437  0.43562240  0.43818350  1
  Zn  Zn128  1  0.79441796  0.43789717  0.93835437  1
  Zn  Zn129  1  0.69212662  0.93750914  0.43524757  1
  Zn  Zn130  1  0.68676442  0.93414081  0.93858246  1
  Zn  Zn131  1  0.31109998  0.06261958  0.06129697  1
  Zn  Zn132  1  0.30946909  0.05942827  0.56309501  1
  Zn  Zn133  1  0.31076897  0.56041952  0.06169675  1
  Zn  Zn134  1  0.31243674  0.56298081  0.56001772  1
  Zn  Zn135  1  0.81360117  0.06884802  0.06327475  1
  Zn  Zn136  1  0.81172186  0.06274922  0.56215499  1
  Zn  Zn137  1  0.80408212  0.56777350  0.05436244  1
  Zn  Zn138  1  0.80712754  0.55798426  0.57051010  1
  Zn  Zn139  1  0.43990620  0.43696179  0.18789777  1
  Zn  Zn140  1  0.43858205  0.43863472  0.68591247  1
  Zn  Zn141  1  0.43243146  0.93755281  0.18882951  1
  Zn  Zn142  1  0.43530909  0.93710059  0.68668351  1
  Zn  Zn143  1  0.93809358  0.45404153  0.17691617  1
  Zn  Zn144  1  0.93996173  0.44044388  0.68364490  1
  Zn  Zn145  1  0.94246055  0.93747844  0.19286202  1
  Zn  Zn146  1  0.93687532  0.94024539  0.69062554  1
  Zn  Zn147  1  0.06053373  0.06225780  0.31238924  1
  Zn  Zn148  1  0.05858228  0.06371646  0.81141936  1
  Zn  Zn149  1  0.06486191  0.56113764  0.31873711  1
  Zn  Zn150  1  0.06491024  0.55326965  0.82455172  1
  Zn  Zn151  1  0.56226482  0.06644572  0.30827207  1
  Zn  Zn152  1  0.56111360  0.06485507  0.81491911  1
  Zn  Zn153  1  0.63468860  0.56304645  0.31380502  1
  Zn  Zn154  1  0.62427975  0.52311254  0.84752353  1
  Zn  Zn155  1  0.43409626  0.18713467  0.43591274  1
  Zn  Zn156  1  0.43685516  0.18609738  0.94044654  1
  Zn  Zn157  1  0.44218130  0.68329367  0.43504163  1
  Zn  Zn158  1  0.43613525  0.68919061  0.93608141  1
  Zn  Zn159  1  0.93369663  0.19200103  0.43724908  1
  Zn  Zn160  1  0.93667738  0.18855802  0.93121663  1
  Zn  Zn161  1  0.94253309  0.68892584  0.44219246  1
  Zn  Zn162  1  0.93602774  0.67960702  0.93787083  1
  Zn  Zn163  1  0.04859716  0.34715453  0.08074283  1
  Zn  Zn164  1  0.06334348  0.31347383  0.56628954  1
  Zn  Zn165  1  0.06107598  0.80876843  0.06303156  1
  Zn  Zn166  1  0.06216196  0.81034720  0.56309221  1
  Zn  Zn167  1  0.56908194  0.31413859  0.05640666  1
  Zn  Zn168  1  0.56243654  0.31352950  0.56246593  1
  Zn  Zn169  1  0.55838361  0.81419932  0.05972767  1
  Zn  Zn170  1  0.56032780  0.81359352  0.56669423  1
  O  O171  1  0.11342143  0.12501099  0.11921408  1
  O  O172  1  0.11622694  0.11913185  0.61811352  1
  O  O173  1  0.12954123  0.62529046  0.11146404  1
  O  O174  1  0.12863753  0.62289080  0.61239059  1
  O  O175  1  0.62858328  0.12582155  0.11215561  1
  O  O176  1  0.61737216  0.12647767  0.61307119  1
  O  O177  1  0.61296371  0.62153324  0.12783897  1
  O  O178  1  0.61789944  0.61681810  0.61679139  1
  O  O179  1  0.37620096  0.37864386  0.38130985  1
  O  O180  1  0.38411713  0.38042476  0.88121258  1
  O  O181  1  0.38649078  0.88310929  0.37718324  1
  O  O182  1  0.37532634  0.88737341  0.88177667  1
  O  O183  1  0.88640782  0.36795309  0.39183536  1
  O  O184  1  0.88279039  0.36259048  0.88713751  1
  O  O185  1  0.88176057  0.87654939  0.38516444  1
  O  O186  1  0.88052657  0.89222497  0.86924128  1
  O  O187  1  0.25645457  0.00504277  0.36897200  1
  O  O188  1  0.25428372  0.00885359  0.87035934  1
  O  O189  1  0.25405847  0.50258327  0.36077074  1
  O  O190  1  0.26137393  0.50440726  0.86791940  1
  O  O191  1  0.76148858  0.00028329  0.36375577  1
  O  O192  1  0.75810855  0.00320257  0.86923401  1
  O  O193  1  0.72751480  0.50621406  0.36525351  1
  O  O194  1  0.72963860  0.49198774  0.86680457  1
  O  O195  1  0.25534898  0.49014077  0.13823580  1
  O  O196  1  0.25125831  0.49383582  0.63297803  1
  O  O197  1  0.24801694  1.00421972  0.14034972  1
  O  O198  1  0.23521346  1.00306602  0.63355827  1
  O  O199  1  0.73873325  0.49460326  0.12953358  1
  O  O200  1  0.73286608  0.48771709  0.62205995  1
  O  O201  1  0.75729523  0.99660382  0.13522936  1
  O  O202  1  0.74686832  0.99986313  0.63517452  1
  O  O203  1  0.01091526  0.37064928  0.26072298  1
  O  O204  1  0.01024082  0.36808520  0.76012523  1
  O  O205  1  0.00107349  0.86591449  0.26358620  1
  O  O206  1  0.00839434  0.87472376  0.75722798  1
  O  O207  1  0.50598165  0.35768816  0.24262942  1
  O  O208  1  0.49367391  0.36121468  0.75531821  1
  O  O209  1  0.50614173  0.87760746  0.25717323  1
  O  O210  1  0.50603130  0.87180663  0.75487624  1
  O  O211  1  0.49180187  0.13693354  0.25079585  1
  O  O212  1  0.49652019  0.13442959  0.74388573  1
  O  O213  1  0.48956371  0.63346188  0.23591365  1
  O  O214  1  0.50008855  0.63609889  0.73470875  1
  O  O215  1  0.99668661  0.13478033  0.24386505  1
  O  O216  1  0.99270437  0.13165652  0.74122844  1
  O  O217  1  1.00313065  0.63431364  0.25612895  1
  O  O218  1  1.01041450  0.63324292  0.75602784  1
  O  O219  1  0.36579182  0.26086890  -0.00601604  1
  O  O220  1  0.36804101  0.24963525  0.50830978  1
  O  O221  1  0.36649732  0.75723649  0.00550490  1
  O  O222  1  0.35936421  0.74736394  0.49051677  1
  O  O223  1  0.85715477  0.23729186  -0.00088774  1
  O  O224  1  0.86003091  0.25647327  0.49862970  1
  O  O225  1  0.86904606  0.74555187  0.01481137  1
  O  O226  1  0.86994709  0.75908051  0.51094284  1
  O  O227  1  0.13018095  0.24373880  0.49573691  1
  O  O228  1  0.14097643  0.23641300  1.00235914  1
  O  O229  1  0.13113452  0.74299377  0.49397424  1
  O  O230  1  0.13159321  0.73935159  0.99731370  1
  O  O231  1  0.62314205  0.24333858  0.49234537  1
  O  O232  1  0.62870851  0.23932588  0.98938318  1
  O  O233  1  0.63254306  0.74734560  0.50086303  1
  O  O234  1  0.62766399  0.75506943  0.98873555  1
  O  O235  1  0.50426172  0.24794927  0.13100095  1
  O  O236  1  0.49458093  0.24595886  0.63093973  1
  O  O237  1  0.48614355  0.74660328  0.12446460  1
  O  O238  1  0.50067969  0.73892390  0.63096928  1
  O  O239  1  0.99927496  0.25046129  0.13518026  1
  O  O240  1  1.00207721  0.24113470  0.63447356  1
  O  O241  1  0.98662974  0.74586468  0.12946686  1
  O  O242  1  0.99526163  0.75022284  0.63829434  1
  O  O243  1  0.00643049  0.25975979  0.37199432  1
  O  O244  1  -0.00483552  0.25190565  0.85474788  1
  O  O245  1  0.01244588  0.75584191  0.36939980  1
  O  O246  1  -0.00065881  0.75711472  0.86219777  1
  O  O247  1  0.50815449  0.24526888  0.37113237  1
  O  O248  1  0.50188152  0.25210416  0.86672348  1
  O  O249  1  0.50803601  0.76225174  0.37606071  1
  O  O250  1  0.50444388  0.75750985  0.86820881  1
  O  O251  1  0.24321798  0.13093305  0.49299472  1
  O  O252  1  0.24488455  0.12937375  0.99347014  1
  O  O253  1  0.24425588  0.63376257  0.49701617  1
  O  O254  1  0.24655481  0.63464913  0.99466999  1
  O  O255  1  0.74119695  0.13231300  0.49952737  1
  O  O256  1  0.74006310  0.12819172  0.99379932  1
  O  O257  1  0.74187998  0.63278983  0.50024535  1
  O  O258  1  0.73804333  0.64857554  1.00965762  1
  O  O259  1  0.25459842  0.36614087  0.00806031  1
  O  O260  1  0.24828198  0.36950722  0.50903790  1
  O  O261  1  0.25147453  0.86276467  -0.00853547  1
  O  O262  1  0.24940602  0.85898928  0.49879099  1
  O  O263  1  0.73968451  0.36128081  0.00899266  1
  O  O264  1  0.75328618  0.36980322  0.50085361  1
  O  O265  1  0.74338730  0.86721110  0.01356137  1
  O  O266  1  0.75842199  0.86937295  0.50516643  1
  O  O267  1  0.13283285  0.48886620  0.25592611  1
  O  O268  1  0.13494344  0.49086214  0.75050863  1
  O  O269  1  0.13976673  1.00237502  0.25228251  1
  O  O270  1  0.12650508  0.99375848  0.74421935  1
  O  O271  1  0.60665251  0.48457070  0.23656649  1
  O  O272  1  0.61185356  0.50099303  0.73395170  1
  O  O273  1  0.63622131  0.99446577  0.25599018  1
  O  O274  1  0.63233427  0.99575935  0.75214669  1
  O  O275  1  0.36561870  0.00553273  0.25859124  1
  O  O276  1  0.36605188  0.00241445  0.75949978  1
  O  O277  1  0.37116535  0.50921264  0.24915674  1
  O  O278  1  0.36980050  0.49378810  0.76276368  1
  O  O279  1  0.86848544  0.00696997  0.25667195  1
  O  O280  1  0.86646931  0.00906737  0.75766243  1
  O  O281  1  0.87077717  0.47140083  0.26010188  1
  O  O282  1  0.86239230  0.46037772  0.75544017  1
  O  O283  1  0.12139005  0.36841890  0.37010944  1
  O  O284  1  0.13384058  0.37123017  0.86437387  1
  O  O285  1  0.11813143  0.86752926  0.37231667  1
  O  O286  1  0.11518236  0.87284496  0.86633931  1
  O  O287  1  0.62258222  0.36492358  0.36340813  1
  O  O288  1  0.60800255  0.36149956  0.87793035  1
  O  O289  1  0.61514186  0.87530453  0.36938565  1
  O  O290  1  0.61850841  0.87062968  0.86420160  1
  O  O291  1  0.37301086  0.12011104  0.13758640  1
  O  O292  1  0.38089033  0.13058437  0.62505107  1
  O  O293  1  0.37719220  0.63169150  0.13139565  1
  O  O294  1  0.38595427  0.62258601  0.62582975  1
  O  O295  1  0.88635130  0.13236421  0.13243902  1
  O  O296  1  0.88378671  0.11839469  0.63288748  1
  O  O297  1  0.86546999  0.63184605  0.13344990  1
  O  O298  1  0.87826669  0.63336060  0.61776878  1
  O  O299  1  0.25425803  0.25453099  0.11713240  1
  O  O300  1  0.25488586  0.25621052  0.62089465  1
  O  O301  1  0.26085224  0.74713267  0.11635454  1
  O  O302  1  0.24526939  0.75061586  0.61050140  1
  O  O303  1  0.74705692  0.25588714  0.11432477  1
  O  O304  1  0.73279448  0.26325687  0.60568634  1
  O  O305  1  0.76250172  0.76063920  0.12293098  1
  O  O306  1  0.75812637  0.75349792  0.61649572  1
  O  O307  1  0.24359654  0.24358831  0.37786708  1
  O  O308  1  0.25701368  0.23710363  0.88063404  1
  O  O309  1  0.23931487  0.74891722  0.38131333  1
  O  O310  1  0.24843116  0.74132086  0.88150007  1
  O  O311  1  0.73221697  0.24597601  0.38709653  1
  O  O312  1  0.73894716  0.24427139  0.88062501  1
  O  O313  1  0.73277657  0.76554574  0.39017119  1
  O  O314  1  0.73768124  0.76151809  0.88502985  1
  O  O315  1  0.00602503  0.12991813  0.00635166  1
  O  O316  1  0.00257999  0.13213728  0.51050036  1
  O  O317  1  0.01707192  0.61955704  -0.00560292  1
  O  O318  1  0.00873845  0.61485546  0.49550565  1
  O  O319  1  0.50813505  0.11521387  -0.00509299  1
  O  O320  1  0.50548679  0.12026298  0.50442559  1
  O  O321  1  0.49735626  0.62701560  0.01246218  1
  O  O322  1  0.50489935  0.62152853  0.51225605  1
  O  O323  1  0.49933363  0.39330176  0.50777528  1
  O  O324  1  0.49168600  0.37354161  0.99248796  1
  O  O325  1  0.50112500  0.88338834  0.49251498  1
  O  O326  1  0.49173985  0.88315094  0.99180336  1
  O  O327  1  0.99174724  0.37746083  0.49731856  1
  O  O328  1  1.01176126  0.34002778  0.97368580  1
  O  O329  1  0.99400590  0.86876641  0.48723201  1
  O  O330  1  1.00334553  0.87536747  0.98320416  1
  O  O331  1  0.50564926  0.50871524  0.39276285  1
  O  O332  1  0.50214291  0.49094178  0.87691862  1
  O  O333  1  0.49231438  0.99699013  0.37748090  1
  O  O334  1  0.48851352  0.99606585  0.87754754  1
  O  O335  1  1.00657824  0.48663881  0.38789503  1
  O  O336  1  1.00711170  0.47409039  0.88661147  1
  O  O337  1  0.98711618  0.99137820  0.36778124  1
  O  O338  1  0.98791767  0.99537403  0.87440097  1
  O  O339  1  -0.00040873  0.01293352  0.12397048  1
  O  O340  1  0.01144836  0.01031783  0.63028346  1
  O  O341  1  0.01187846  0.45496253  0.09926757  1
  O  O342  1  0.00604668  0.49154806  0.61058155  1
  O  O343  1  0.49566333  -0.00459949  0.11228380  1
  O  O344  1  0.50295315  0.00974805  0.61976145  1
  O  O345  1  0.50079515  0.51014565  0.12120416  1
  O  O346  1  0.50492987  0.51066706  0.62029400  1
  O  O347  1  0.24806900  0.37846703  0.24562008  1
  O  O348  1  0.24765494  0.38274432  0.74476393  1
  O  O349  1  0.24973335  0.89091834  0.25707463  1
  O  O350  1  0.23447108  0.88020701  0.75091698  1
  O  O351  1  0.72962151  0.36249686  0.23762357  1
  O  O352  1  0.73431619  0.35114222  0.72809648  1
  O  O353  1  0.74218243  0.88528474  0.23868259  1
  O  O354  1  0.74109215  0.88961334  0.74832143  1
  O  O355  1  0.25570439  0.11955439  0.25536863  1
  O  O356  1  0.24843236  0.12050841  0.75737646  1
  O  O357  1  0.25708257  0.61746274  0.24918427  1
  O  O358  1  0.24651712  0.61357616  0.75683606  1
  O  O359  1  0.75657770  0.12091783  0.25063774  1
  O  O360  1  0.75464541  0.12067938  0.75231122  1
  O  O361  1  0.72586799  0.62483630  0.26406284  1
  O  O362  1  0.75830128  0.63436023  0.74592412  1
  O  O363  1  0.36916740  0.11801052  0.36632955  1
  O  O364  1  0.36672159  0.11481373  0.87573694  1
  O  O365  1  0.37613014  0.62523652  0.35970471  1
  O  O366  1  0.36474190  0.61507704  0.88169180  1
  O  O367  1  0.87475480  0.11661592  0.36970942  1
  O  O368  1  0.86758305  0.11852481  0.86291053  1
  O  O369  1  0.86488113  0.66968675  0.36672872  1
  O  O370  1  0.87059401  0.62864601  0.86644651  1
  O  O371  1  0.14449548  0.36388365  0.14199467  1
  O  O372  1  0.13816146  0.37585058  0.63396604  1
  O  O373  1  0.11684716  0.87868008  0.12868659  1
  O  O374  1  0.12444661  0.88315373  0.63086142  1
  O  O375  1  0.62890167  0.38236311  0.12814315  1
  O  O376  1  0.62944768  0.38908096  0.61743801  1
  O  O377  1  0.62779588  0.87029661  0.13557176  1
  O  O378  1  0.62499176  0.87729031  0.63948591  1
  O  O379  1  0.11606771  0.25547719  0.25755439  1
  O  O380  1  0.11794674  0.25893514  0.74474866  1
  O  O381  1  0.11990611  0.74802739  0.25775574  1
  O  O382  1  0.11443835  0.75671732  0.74998656  1
  O  O383  1  0.61129191  0.25114399  0.25542466  1
  O  O384  1  0.61425960  0.24106951  0.76156139  1
  O  O385  1  0.62228100  0.76415394  0.26080129  1
  O  O386  1  0.61610818  0.75918810  0.75602986  1
  O  O387  1  0.38819524  0.24234413  0.24890596  1
  O  O388  1  0.38042862  0.24682482  0.74161244  1
  O  O389  1  0.37256243  0.74608965  0.24232303  1
  O  O390  1  0.38671629  0.75882175  0.75598764  1
  O  O391  1  0.88850284  0.25338303  0.25512027  1
  O  O392  1  0.87908846  0.24236450  0.74719213  1
  O  O393  1  0.88537316  0.75862221  0.23066407  1
  O  O394  1  0.89211096  0.75524712  0.73914807  1
  O  O395  1  0.38865903  0.50383310  0.49720556  1
  O  O396  1  0.37332666  0.48766626  0.98831166  1
  O  O397  1  0.37880574  1.00379720  0.48618540  1
  O  O398  1  0.37858247  0.99675681  0.99383821  1
  O  O399  1  0.88077925  0.49308959  0.50247507  1
  O  O400  1  0.86635533  0.49512380  1.00231164  1
  O  O401  1  0.86913110  0.99210318  0.48917765  1
  O  O402  1  0.87602550  1.01074920  0.98301509  1
  O  O403  1  0.12071487  0.01448146  0.00067384  1
  O  O404  1  0.12937445  0.00811150  0.50759646  1
  O  O405  1  0.13786928  0.51412039  0.00034081  1
  O  O406  1  0.11982112  0.50814204  0.50141972  1
  O  O407  1  0.61359152  0.00832160  -0.00781589  1
  O  O408  1  0.62114296  0.00820063  0.49957158  1
  O  O409  1  0.61824861  0.50658644  0.01540546  1
  O  O410  1  0.61449896  0.50947116  0.50835955  1
  O  O411  1  0.36637577  0.37779073  0.11614272  1
  O  O412  1  0.36391111  0.36942604  0.62214683  1
  O  O413  1  0.37524938  0.86769739  0.11717205  1
  O  O414  1  0.36685082  0.88599244  0.61714234  1
  O  O415  1  0.85503307  0.36893941  0.12981221  1
  O  O416  1  0.85513701  0.37564767  0.61266567  1
  O  O417  1  0.86932990  0.87792835  0.12390841  1
  O  O418  1  0.87948708  0.87539398  0.61389653  1
  O  O419  1  0.12681460  0.13001661  0.38059825  1
  O  O420  1  0.13195914  0.12192490  0.88137854  1
  O  O421  1  0.12873053  0.63245334  0.38603871  1
  O  O422  1  0.14002306  0.62347042  0.88180262  1
  O  O423  1  0.62469103  0.12952290  0.38580920  1
  O  O424  1  0.63090246  0.13109639  0.87990751  1
  O  O425  1  0.61200961  0.64268901  0.39344577  1
  O  O426  1  0.61565560  0.63755461  0.87792343  1
