# generated using pymatgen
data_V85Zn86O256
_symmetry_space_group_name_H-M   'P 1'
_cell_length_a   16.94191907
_cell_length_b   16.96341772
_cell_length_c   16.95932440
_cell_angle_alpha   90.02570477
_cell_angle_beta   89.99316776
_cell_angle_gamma   90.06090203
_symmetry_Int_Tables_number   1
_chemical_formula_structural   V85Zn86O256
_chemical_formula_sum   'V85 Zn86 O256'
_cell_volume   4873.98529772
_cell_formula_units_Z   1
loop_
 _symmetry_equiv_pos_site_id
 _symmetry_equiv_pos_as_xyz
  1  'x, y, z'
loop_
 _atom_site_type_symbol
 _atom_site_label
 _atom_site_symmetry_multiplicity
 _atom_site_fract_x
 _atom_site_fract_y
 _atom_site_fract_z
 _atom_site_occupancy
  V  V0  1  0.49925408  0.37708390  0.87085352  1
  V  V1  1  0.62733653  0.87327130  0.24846356  1
  V  V2  1  0.75880110  0.62521073  0.37611296  1
  V  V3  1  0.75179006  0.75364828  0.50578425  1
  V  V4  1  0.37651626  0.12409370  0.75376102  1
  V  V5  1  0.36654765  0.74888483  0.62053326  1
  V  V6  1  0.49650370  0.63057312  0.12918044  1
  V  V7  1  0.87954754  0.50338290  0.36077621  1
  V  V8  1  0.50678911  0.25017228  0.25228983  1
  V  V9  1  0.24746932  0.87585104  0.12225334  1
  V  V10  1  0.49940156  0.62422360  0.62381021  1
  V  V11  1  0.62631568  0.62367941  0.49717716  1
  V  V12  1  0.51209409  0.12437032  0.12657155  1
  V  V13  1  0.24920421  0.37824887  0.13829847  1
  V  V14  1  0.24955162  0.12494554  0.87440003  1
  V  V15  1  0.62804145  0.87663139  0.73355456  1
  V  V16  1  0.12057377  0.00521787  0.12393083  1
  V  V17  1  0.24600184  0.37346001  0.62752567  1
  V  V18  1  0.00654669  0.37116290  0.35385121  1
  V  V19  1  0.12765647  0.87948067  0.75272976  1
  V  V20  1  0.50482652  0.87679220  0.87444987  1
  V  V21  1  0.74482932  0.23704383  0.49693372  1
  V  V22  1  0.37569010  0.87505870  -0.00047279  1
  V  V23  1  0.75251774  0.62457823  0.86925176  1
  V  V24  1  -0.00016086  0.74706467  0.24485148  1
  V  V25  1  0.50434853  0.37073105  0.37500038  1
  V  V26  1  0.00559542  0.11993604  0.61381428  1
  V  V27  1  0.51005699  0.00123411  0.50413351  1
  V  V28  1  0.37710294  0.24965878  0.12746207  1
  V  V29  1  0.50614717  0.25072498  0.75404990  1
  V  V30  1  -0.00284007  0.00380698  -0.00253293  1
  V  V31  1  0.73175790  0.12177663  0.88273839  1
  V  V32  1  0.63905350  -0.00410273  0.12276946  1
  V  V33  1  0.62475959  0.49281413  0.13299754  1
  V  V34  1  0.51128185  0.12223116  0.62291685  1
  V  V35  1  0.12534081  0.49386644  0.13303508  1
  V  V36  1  0.63667347  0.50240700  0.62566809  1
  V  V37  1  0.37403779  0.75182154  0.13062576  1
  V  V38  1  0.37234481  0.62571909  0.75028264  1
  V  V39  1  0.86942039  0.87036849  0.01267858  1
  V  V40  1  0.87259032  0.62061394  0.74629213  1
  V  V41  1  0.37433469  0.12261302  0.24937847  1
  V  V42  1  0.62248965  0.23060653  0.38241164  1
  V  V43  1  0.37275727  0.37404971  0.50265701  1
  V  V44  1  0.50146544  0.86698493  0.37178169  1
  V  V45  1  0.24871266  0.62347348  0.37218512  1
  V  V46  1  -0.00064914  0.87091604  0.87593231  1
  V  V47  1  0.49603339  0.50466915  0.00071811  1
  V  V48  1  0.37126792  0.62136509  0.24970089  1
  V  V49  1  -0.00035181  0.25539096  0.75309966  1
  V  V50  1  0.36793509  0.49581117  0.37042444  1
  V  V51  1  0.12793632  0.74990015  0.37595921  1
  V  V52  1  0.87609260  0.12249309  0.75379769  1
  V  V53  1  -0.00597903  0.88601923  0.37512800  1
  V  V54  1  0.00057277  0.49557645  0.49669926  1
  V  V55  1  0.87428167  0.88615514  0.49798520  1
  V  V56  1  0.86580947  0.25429189  0.11578554  1
  V  V57  1  0.88008302  0.75731830  0.62511561  1
  V  V58  1  0.37617541  0.37513442  0.00194865  1
  V  V59  1  0.00015555  0.62266491  0.12524125  1
  V  V60  1  0.36909714  0.87095538  0.49876491  1
  V  V61  1  0.37518825  0.24900458  0.62640323  1
  V  V62  1  0.12916135  0.63027364  0.49997186  1
  V  V63  1  0.12232783  0.87450345  0.24746237  1
  V  V64  1  0.50614871  0.00385164  0.00131720  1
  V  V65  1  0.37001757  0.50238937  0.87498181  1
  V  V66  1  -0.00662490  0.48421450  -0.01001015  1
  V  V67  1  0.87502365  0.25131585  0.62124569  1
  V  V68  1  0.75635646  0.00150560  0.27132216  1
  V  V69  1  0.87636047  0.13163517  0.26096111  1
  V  V70  1  0.50111994  0.75183810  0.74983464  1
  V  V71  1  0.24848676  0.00085069  0.24859670  1
  V  V72  1  0.12512510  0.24527866  0.36732014  1
  V  V73  1  0.11897133  0.62548338  -0.00825552  1
  V  V74  1  0.00812016  0.74926667  0.75134093  1
  V  V75  1  0.24211949  0.75020169  -0.00590701  1
  V  V76  1  0.12011105  0.25716807  0.87889788  1
  V  V77  1  0.82663618  0.68267227  0.18955713  1
  V  V78  1  0.50200091  0.49911832  0.50036348  1
  V  V79  1  0.25283484  0.25032153  0.00142393  1
  V  V80  1  0.37485517  -0.00289911  0.37598706  1
  V  V81  1  0.62495355  0.63031645  -0.00241645  1
  V  V82  1  0.63448675  0.37810826  0.74842701  1
  V  V83  1  0.74646371  -0.00370234  0.73600810  1
  V  V84  1  0.12431634  0.50053261  0.62502099  1
  Zn  Zn85  1  0.66715567  0.28317760  0.92110210  1
  Zn  Zn86  1  0.24155194  0.12017865  0.38273891  1
  Zn  Zn87  1  0.87038195  -0.00183816  0.87524769  1
  Zn  Zn88  1  0.75490782  0.75107103  0.00524539  1
  Zn  Zn89  1  0.75092843  0.37642978  0.61748168  1
  Zn  Zn90  1  0.62394927  0.74731526  0.37327192  1
  Zn  Zn91  1  0.11954808  0.37927885  0.75594584  1
  Zn  Zn92  1  0.24309534  0.62967343  0.87198877  1
  Zn  Zn93  1  0.13214727  0.01135766  0.60916335  1
  Zn  Zn94  1  0.84638000  0.36692633  -0.00761507  1
  Zn  Zn95  1  0.87313167  0.37457837  0.49454565  1
  Zn  Zn96  1  -0.00306277  0.13648182  0.12922258  1
  Zn  Zn97  1  0.62992715  0.75314963  0.87408297  1
  Zn  Zn98  1  0.24718002  0.87732289  0.62228573  1
  Zn  Zn99  1  0.24521083  0.50087587  0.75261278  1
  Zn  Zn100  1  0.00108463  0.62894291  0.62205391  1
  Zn  Zn101  1  0.86886891  0.48403781  0.85851356  1
  Zn  Zn102  1  0.12333988  0.12829482  0.00141971  1
  Zn  Zn103  1  0.37543837  0.00052774  0.87492643  1
  Zn  Zn104  1  0.23541563  0.23732115  0.50579012  1
  Zn  Zn105  1  0.24962761  0.00111844  0.74550815  1
  Zn  Zn106  1  0.75459208  0.47664496  0.23565113  1
  Zn  Zn107  1  0.18602334  0.18968571  0.19091234  1
  Zn  Zn108  1  0.18434624  0.18857312  0.69028069  1
  Zn  Zn109  1  0.18678963  0.68371683  0.18410444  1
  Zn  Zn110  1  0.18571599  0.69014130  0.68799967  1
  Zn  Zn111  1  0.69238047  0.18196066  0.19741948  1
  Zn  Zn112  1  0.69116308  0.18853667  0.68977867  1
  Zn  Zn113  1  0.66641772  0.68382551  0.19250555  1
  Zn  Zn114  1  0.68929101  0.69132665  0.68578019  1
  Zn  Zn115  1  0.31119520  0.30753292  0.31555820  1
  Zn  Zn116  1  0.31144868  0.31103703  0.81177544  1
  Zn  Zn117  1  0.31027500  0.81229737  0.31111888  1
  Zn  Zn118  1  0.31460899  0.81378213  0.81316374  1
  Zn  Zn119  1  0.81362623  0.30703064  0.31298410  1
  Zn  Zn120  1  0.81320499  0.30687350  0.81180219  1
  Zn  Zn121  1  0.80703878  0.81923501  0.31804279  1
  Zn  Zn122  1  0.81451417  0.81171176  0.81444085  1
  Zn  Zn123  1  0.18539379  0.43255027  0.43785296  1
  Zn  Zn124  1  0.18693942  0.43853415  0.94392862  1
  Zn  Zn125  1  0.18655594  0.93817468  0.43588916  1
  Zn  Zn126  1  0.18348256  0.93926195  0.93483307  1
  Zn  Zn127  1  0.70923684  0.41320467  0.40499237  1
  Zn  Zn128  1  0.68337457  0.45082112  0.93612159  1
  Zn  Zn129  1  0.68653276  0.93526233  0.44124724  1
  Zn  Zn130  1  0.69017728  0.93958612  0.93428032  1
  Zn  Zn131  1  0.31561523  0.06318846  0.06007405  1
  Zn  Zn132  1  0.31719979  0.06016849  0.56401675  1
  Zn  Zn133  1  0.30584809  0.56401421  0.06224470  1
  Zn  Zn134  1  0.30862205  0.56144740  0.56006060  1
  Zn  Zn135  1  0.81631579  0.06773012  0.06189345  1
  Zn  Zn136  1  0.81692903  0.06492132  0.56483332  1
  Zn  Zn137  1  0.80702700  0.55443647  0.05322495  1
  Zn  Zn138  1  0.81818546  0.56571033  0.55773416  1
  Zn  Zn139  1  0.44106682  0.43679807  0.18948634  1
  Zn  Zn140  1  0.43887695  0.43929700  0.68725010  1
  Zn  Zn141  1  0.44105213  0.93751951  0.18684868  1
  Zn  Zn142  1  0.43619526  0.93834333  0.68579849  1
  Zn  Zn143  1  0.93438805  0.43175449  0.17701368  1
  Zn  Zn144  1  0.93889973  0.43581503  0.68290354  1
  Zn  Zn145  1  0.93511876  0.94184626  0.18970242  1
  Zn  Zn146  1  0.93804307  0.93826800  0.68630589  1
  Zn  Zn147  1  0.05890522  0.06700698  0.31128928  1
  Zn  Zn148  1  0.06259406  0.06433188  0.81119838  1
  Zn  Zn149  1  0.06092458  0.56387609  0.30977794  1
  Zn  Zn150  1  0.05616113  0.56185373  0.81210804  1
  Zn  Zn151  1  0.56144433  0.05367785  0.31170436  1
  Zn  Zn152  1  0.56325507  0.05834093  0.80801835  1
  Zn  Zn153  1  0.55800892  0.56352994  0.31377085  1
  Zn  Zn154  1  0.56211687  0.56259277  0.81082550  1
  Zn  Zn155  1  0.42458924  0.18110492  0.44217170  1
  Zn  Zn156  1  0.49829366  0.21943563  0.97057301  1
  Zn  Zn157  1  0.43650028  0.68662941  0.43618023  1
  Zn  Zn158  1  0.43535717  0.69189114  0.93765204  1
  Zn  Zn159  1  0.94123077  0.19211784  0.43657023  1
  Zn  Zn160  1  0.93384286  0.18918126  0.93752153  1
  Zn  Zn161  1  0.94115006  0.68972282  0.43740691  1
  Zn  Zn162  1  0.93461921  0.68796997  0.93559505  1
  Zn  Zn163  1  0.05939802  0.30938235  0.06976871  1
  Zn  Zn164  1  0.06188001  0.30960563  0.55919726  1
  Zn  Zn165  1  0.05813506  0.81250380  0.06154830  1
  Zn  Zn166  1  0.07646617  0.84087983  0.54864325  1
  Zn  Zn167  1  0.67106048  0.30815941  0.07651369  1
  Zn  Zn168  1  0.56475518  0.31174089  0.56374657  1
  Zn  Zn169  1  0.56305201  0.81415839  0.06422650  1
  Zn  Zn170  1  0.55747144  0.80916272  0.55793221  1
  O  O171  1  0.12025859  0.11899353  0.12441855  1
  O  O172  1  0.11192432  0.12752133  0.62441844  1
  O  O173  1  0.11802723  0.61411020  0.11547024  1
  O  O174  1  0.12574103  0.61955388  0.61638837  1
  O  O175  1  0.61578100  0.11522216  0.13373464  1
  O  O176  1  0.60997712  0.12803083  0.63242391  1
  O  O177  1  0.61164079  0.62162992  0.11721730  1
  O  O178  1  0.61986159  0.62015414  0.62041498  1
  O  O179  1  0.37897931  0.37929769  0.38377588  1
  O  O180  1  0.37596106  0.38409995  0.87970652  1
  O  O181  1  0.38168037  0.87703168  0.37811419  1
  O  O182  1  0.38802251  0.87671384  0.88026778  1
  O  O183  1  0.89310227  0.38174465  0.37531623  1
  O  O184  1  0.86760124  0.37374171  0.87977715  1
  O  O185  1  0.88671439  0.87329821  0.37934873  1
  O  O186  1  0.88612895  0.87869474  0.88050841  1
  O  O187  1  0.25452919  -0.00127623  0.36724645  1
  O  O188  1  0.25197902  0.01528840  0.87813210  1
  O  O189  1  0.26215478  0.50225838  0.38025918  1
  O  O190  1  0.25942440  0.50318137  0.87517473  1
  O  O191  1  0.74924594  0.00105122  0.36945276  1
  O  O192  1  0.75085844  0.00931550  0.86376003  1
  O  O193  1  0.76341217  0.51675675  0.38064548  1
  O  O194  1  0.75241710  0.51844724  0.87591014  1
  O  O195  1  0.23444023  0.49251777  0.11717786  1
  O  O196  1  0.23845024  0.49422947  0.62590840  1
  O  O197  1  0.23914023  0.99636120  0.12581103  1
  O  O198  1  0.24826210  0.99563514  0.62695169  1
  O  O199  1  0.73208985  0.50400845  0.12523505  1
  O  O200  1  0.73958822  0.50157858  0.61732987  1
  O  O201  1  0.73963056  1.00439354  0.12415427  1
  O  O202  1  0.75238062  1.00020521  0.63734107  1
  O  O203  1  0.00177739  0.37955606  0.25617088  1
  O  O204  1  -0.00008872  0.35994276  0.74512653  1
  O  O205  1  0.00073152  0.86741418  0.25688061  1
  O  O206  1  0.00431285  0.86930123  0.75736622  1
  O  O207  1  0.49099428  0.36144818  0.26185216  1
  O  O208  1  0.50475152  0.36827401  0.75171898  1
  O  O209  1  0.51112316  0.88585589  0.26190219  1
  O  O210  1  0.50657073  0.87390346  0.75640958  1
  O  O211  1  0.49355655  0.12491964  0.24350316  1
  O  O212  1  0.49504766  0.13198129  0.74684917  1
  O  O213  1  0.48570655  0.62563345  0.24196888  1
  O  O214  1  0.48897340  0.62946718  0.74517200  1
  O  O215  1  0.97990184  0.11267488  0.24383018  1
  O  O216  1  0.99245341  0.13462471  0.74504945  1
  O  O217  1  1.00104303  0.63055311  0.23527112  1
  O  O218  1  0.99206972  0.63437886  0.74827929  1
  O  O219  1  0.38012497  0.26063835  0.00963659  1
  O  O220  1  0.37975809  0.26582096  0.50806131  1
  O  O221  1  0.36696705  0.75514560  0.01128440  1
  O  O222  1  0.38282339  0.75647635  0.50964597  1
  O  O223  1  0.86760348  0.24709617  0.01103182  1
  O  O224  1  0.86702128  0.25014697  0.50585771  1
  O  O225  1  0.87659983  0.76535085  0.00014729  1
  O  O226  1  0.86993722  0.75338289  0.50670791  1
  O  O227  1  0.12509290  0.25904507  0.48106260  1
  O  O228  1  0.13103644  0.24892243  0.99590987  1
  O  O229  1  0.11825845  0.74266699  0.48789917  1
  O  O230  1  0.13066968  0.74027993  1.00674555  1
  O  O231  1  0.63554738  0.24775668  0.49838839  1
  O  O232  1  0.60045253  0.25204598  1.00488853  1
  O  O233  1  0.63338855  0.74258189  0.49869159  1
  O  O234  1  0.62764374  0.74051348  1.00146782  1
  O  O235  1  0.49213085  0.23782226  0.13860577  1
  O  O236  1  0.49415091  0.24408199  0.63255842  1
  O  O237  1  0.48965814  0.73884169  0.11934204  1
  O  O238  1  0.49090028  0.74219305  0.63082561  1
  O  O239  1  0.97887155  0.25129116  0.12342055  1
  O  O240  1  0.99401689  0.24269859  0.63069927  1
  O  O241  1  1.00319845  0.74108554  0.13577681  1
  O  O242  1  0.99395903  0.74916134  0.63416987  1
  O  O243  1  0.00846031  0.26445351  0.37368285  1
  O  O244  1  0.00960804  0.24317312  0.86796265  1
  O  O245  1  0.00898489  0.74843539  0.35954557  1
  O  O246  1  -0.00662288  0.75928929  0.86527485  1
  O  O247  1  0.49864767  0.25201268  0.37233538  1
  O  O248  1  0.49346722  0.26033215  0.86134539  1
  O  O249  1  0.50140912  0.76291699  0.37886399  1
  O  O250  1  0.50143456  0.75927429  0.86822966  1
  O  O251  1  0.28207349  0.13457983  0.48903133  1
  O  O252  1  0.25207842  0.13362142  0.99313922  1
  O  O253  1  0.23713958  0.62157487  0.49079474  1
  O  O254  1  0.23764578  0.63342198  0.99958991  1
  O  O255  1  0.75357388  0.13801301  0.50567021  1
  O  O256  1  0.75141820  0.11740451  0.98048799  1
  O  O257  1  0.74642067  0.63277872  0.49247876  1
  O  O258  1  0.74085576  0.62873526  0.99325243  1
  O  O259  1  0.26173178  0.37038145  0.00625214  1
  O  O260  1  0.25733661  0.37568606  0.51262762  1
  O  O261  1  0.25262176  0.87029088  0.00369310  1
  O  O262  1  0.26680576  0.87110308  0.49631581  1
  O  O263  1  0.72892216  0.36381907  -0.00941899  1
  O  O264  1  0.75456045  0.36172278  0.49843077  1
  O  O265  1  0.76465439  0.87309568  -0.00406569  1
  O  O266  1  0.76071188  0.86388708  0.49069434  1
  O  O267  1  0.12246685  0.50545965  0.23131571  1
  O  O268  1  0.12369558  0.49922510  0.74120004  1
  O  O269  1  0.12777911  0.99583215  0.24191407  1
  O  O270  1  0.12655001  0.99133322  0.74671966  1
  O  O271  1  0.62363817  0.51115023  0.23506542  1
  O  O272  1  0.61638607  0.49208365  0.73693361  1
  O  O273  1  0.63760012  0.99428980  0.24531147  1
  O  O274  1  0.63700376  0.99171939  0.74831907  1
  O  O275  1  0.36908207  0.00362398  0.25265548  1
  O  O276  1  0.37433908  0.00943810  0.75349550  1
  O  O277  1  0.37935790  0.50775707  0.25973637  1
  O  O278  1  0.37278540  0.50885370  0.75692611  1
  O  O279  1  0.86062951  0.00513978  0.24862750  1
  O  O280  1  0.86523126  0.00489244  0.74997570  1
  O  O281  1  0.87293146  0.49615063  0.25705238  1
  O  O282  1  0.88199787  0.51565008  0.74338395  1
  O  O283  1  0.11221531  0.37396832  0.37240575  1
  O  O284  1  0.13541525  0.36135358  0.87437302  1
  O  O285  1  0.11556752  0.86514993  0.36509649  1
  O  O286  1  0.11119359  0.87820247  0.86756423  1
  O  O287  1  0.60473924  0.36049400  0.38783811  1
  O  O288  1  0.61546925  0.38173380  0.86350771  1
  O  O289  1  0.61727935  0.87387186  0.36922275  1
  O  O290  1  0.61469863  0.87454312  0.86946736  1
  O  O291  1  0.38157352  0.12581037  0.13579718  1
  O  O292  1  0.38335356  0.13056334  0.63809996  1
  O  O293  1  0.37627169  0.62982894  0.13036171  1
  O  O294  1  0.37737992  0.62887133  0.63010255  1
  O  O295  1  0.87275263  0.13636884  0.13233730  1
  O  O296  1  0.88271860  0.13384687  0.63464967  1
  O  O297  1  0.87938960  0.61952148  0.12573004  1
  O  O298  1  0.87792377  0.63685068  0.62900700  1
  O  O299  1  0.25680182  0.25692726  0.12035109  1
  O  O300  1  0.25432648  0.25752374  0.62432797  1
  O  O301  1  0.25449687  0.75550246  0.11610162  1
  O  O302  1  0.26365388  0.75159733  0.62853578  1
  O  O303  1  0.75493657  0.24977145  0.13131817  1
  O  O304  1  0.75758840  0.25064514  0.61643560  1
  O  O305  1  0.76025605  0.73316159  0.13201488  1
  O  O306  1  0.75936742  0.74742687  0.61214001  1
  O  O307  1  0.23685488  0.24983387  0.37829724  1
  O  O308  1  0.24683114  0.24190411  0.88168574  1
  O  O309  1  0.23503154  0.74364255  0.36659666  1
  O  O310  1  0.25679069  0.74910567  0.89086296  1
  O  O311  1  0.73774716  0.24455571  0.38870434  1
  O  O312  1  0.74344406  0.22731794  0.85890840  1
  O  O313  1  0.75187327  0.73912769  0.38358758  1
  O  O314  1  0.74849635  0.73986729  0.87922355  1
  O  O315  1  -0.00179538  0.11274335  0.00213686  1
  O  O316  1  -0.00649157  0.12716373  0.51550674  1
  O  O317  1  0.00166752  0.62154581  0.00933480  1
  O  O318  1  0.01273499  0.61474382  0.49728689  1
  O  O319  1  0.49128308  0.11208408  0.01392482  1
  O  O320  1  0.49146830  0.10987977  0.50830945  1
  O  O321  1  0.50272143  0.62308349  0.00556649  1
  O  O322  1  0.50517155  0.61933723  0.50292565  1
  O  O323  1  0.49131445  0.38114188  0.49808921  1
  O  O324  1  0.48452572  0.38822002  0.99050555  1
  O  O325  1  0.49341272  0.88283390  0.49340209  1
  O  O326  1  0.49617172  0.88034432  0.99301244  1
  O  O327  1  0.99974045  0.38870027  0.49716178  1
  O  O328  1  1.00407014  0.38616167  0.99962173  1
  O  O329  1  0.98619033  0.85908380  0.47939332  1
  O  O330  1  0.99439706  0.88288697  0.99378802  1
  O  O331  1  0.49086849  0.49097077  0.38005905  1
  O  O332  1  0.48693280  0.49873010  0.87834243  1
  O  O333  1  0.49448033  0.99091464  0.38542904  1
  O  O334  1  0.49959255  0.99421935  0.88373298  1
  O  O335  1  0.99772637  0.49369986  0.37687637  1
  O  O336  1  0.99211176  0.50266464  0.88774141  1
  O  O337  1  1.00599910  0.98356034  0.37196979  1
  O  O338  1  0.99812900  0.99482083  0.88314713  1
  O  O339  1  0.01053997  -0.00204549  0.11792645  1
  O  O340  1  0.00032323  0.01838552  0.63168920  1
  O  O341  1  0.00721076  0.50354428  0.11655059  1
  O  O342  1  0.01029254  0.50298350  0.61588536  1
  O  O343  1  0.50834122  0.00560914  0.11923798  1
  O  O344  1  0.49518480  0.00628157  0.61241431  1
  O  O345  1  0.50227304  0.51216722  0.12092305  1
  O  O346  1  0.50384035  0.50769019  0.61817581  1
  O  O347  1  0.26165567  0.37481011  0.23678637  1
  O  O348  1  0.24917900  0.37770316  0.73769687  1
  O  O349  1  0.24328128  0.88102416  0.24153720  1
  O  O350  1  0.24132539  0.87891478  0.75705255  1
  O  O351  1  0.73769454  0.38508821  0.29569876  1
  O  O352  1  0.73671125  0.37068091  0.74415598  1
  O  O353  1  0.74260618  0.88957720  0.25498570  1
  O  O354  1  0.74253351  0.88664700  0.75509641  1
  O  O355  1  0.25814462  0.11769710  0.25179412  1
  O  O356  1  0.25701367  0.12645453  0.75718198  1
  O  O357  1  0.26199002  0.62684240  0.25372052  1
  O  O358  1  0.26019126  0.62504599  0.75219637  1
  O  O359  1  0.76008854  0.10919885  0.25309390  1
  O  O360  1  0.75524444  0.11221731  0.75171967  1
  O  O361  1  0.75924656  0.63063722  0.25194899  1
  O  O362  1  0.76059372  0.63304352  0.75524202  1
  O  O363  1  0.38019426  0.11406084  0.35911830  1
  O  O364  1  0.36729964  0.12646765  0.86083231  1
  O  O365  1  0.37096250  0.61771019  0.36835021  1
  O  O366  1  0.37334682  0.61960669  0.86733775  1
  O  O367  1  0.87967638  0.13259697  0.36047799  1
  O  O368  1  0.87173009  0.12292061  0.86144139  1
  O  O369  1  0.87205853  0.61784451  0.37578154  1
  O  O370  1  0.86803908  0.62424697  0.86386725  1
  O  O371  1  0.13299905  0.38584839  0.12063267  1
  O  O372  1  0.13090274  0.38234612  0.62610008  1
  O  O373  1  0.12774105  0.88274309  0.12900438  1
  O  O374  1  0.13077686  0.85885829  0.64796730  1
  O  O375  1  0.61155025  0.39495296  0.12761711  1
  O  O376  1  0.62514449  0.38642469  0.63007304  1
  O  O377  1  0.61886464  0.88405722  0.13593301  1
  O  O378  1  0.61880113  0.86930764  0.63483456  1
  O  O379  1  0.12820207  0.25386125  0.26549632  1
  O  O380  1  0.11626001  0.25254777  0.75944920  1
  O  O381  1  0.11766832  0.75411391  0.25123504  1
  O  O382  1  0.11238892  0.74982818  0.75482264  1
  O  O383  1  0.61186979  0.24131719  0.26135331  1
  O  O384  1  0.61447151  0.26147529  0.74194032  1
  O  O385  1  0.62816627  0.76705035  0.25497566  1
  O  O386  1  0.61864773  0.75773100  0.75096677  1
  O  O387  1  0.38174342  0.23935580  0.24830919  1
  O  O388  1  0.38273292  0.24517255  0.74421796  1
  O  O389  1  0.36978008  0.74480478  0.23627227  1
  O  O390  1  0.38073038  0.74322440  0.74430540  1
  O  O391  1  0.86792431  0.23641564  0.24315202  1
  O  O392  1  0.88006610  0.24117699  0.74121043  1
  O  O393  1  0.87901401  0.75055620  0.24796206  1
  O  O394  1  0.88180047  0.74587546  0.74132018  1
  O  O395  1  0.38024344  0.49160329  0.49497266  1
  O  O396  1  0.37518851  0.49812636  0.99348305  1
  O  O397  1  0.38350336  0.98773307  0.49330631  1
  O  O398  1  0.38566936  0.99083268  1.00077454  1
  O  O399  1  0.88614940  0.50043169  0.48985593  1
  O  O400  1  0.88649734  0.49061019  1.00372733  1
  O  O401  1  0.87266003  0.98507624  0.50669810  1
  O  O402  1  0.88231017  0.99060987  0.99901244  1
  O  O403  1  0.11717348  0.00309603  0.00754179  1
  O  O404  1  0.11450101  -0.05134555  0.51717811  1
  O  O405  1  0.11143911  0.50627380  0.00435216  1
  O  O406  1  0.12082237  0.50639310  0.50600437  1
  O  O407  1  0.61456085  -0.00976075  0.00851517  1
  O  O408  1  0.60893662  -0.00495831  0.50015089  1
  O  O409  1  0.61523483  0.51481819  0.00888381  1
  O  O410  1  0.61640384  0.50810924  0.50857611  1
  O  O411  1  0.37115783  0.37397658  0.11790540  1
  O  O412  1  0.36793172  0.37310863  0.61994217  1
  O  O413  1  0.37054402  0.86823884  0.12122012  1
  O  O414  1  0.37602143  0.86535436  0.61659406  1
  O  O415  1  0.86590469  0.36131434  0.11947894  1
  O  O416  1  0.87368185  0.36240712  0.62221626  1
  O  O417  1  0.88041946  0.87691688  0.11100300  1
  O  O418  1  0.88266459  0.86430946  0.61538117  1
  O  O419  1  0.12323520  0.13788068  0.37281914  1
  O  O420  1  0.13408985  0.13546724  0.87639954  1
  O  O421  1  0.12921881  0.62959729  0.37831604  1
  O  O422  1  0.12366906  0.62029190  0.88773524  1
  O  O423  1  0.61215366  0.13191751  0.37834481  1
  O  O424  1  0.63105744  0.11934689  0.87645431  1
  O  O425  1  0.63375141  0.62547636  0.37881999  1
  O  O426  1  0.62850567  0.62723720  0.88184057  1
