# generated using pymatgen
data_V85Zn86O256
_symmetry_space_group_name_H-M   'P 1'
_cell_length_a   16.92671690
_cell_length_b   16.92144494
_cell_length_c   16.92222916
_cell_angle_alpha   89.94268777
_cell_angle_beta   90.02874728
_cell_angle_gamma   89.96311079
_symmetry_Int_Tables_number   1
_chemical_formula_structural   V85Zn86O256
_chemical_formula_sum   'V85 Zn86 O256'
_cell_volume   4846.93712442
_cell_formula_units_Z   1
loop_
 _symmetry_equiv_pos_site_id
 _symmetry_equiv_pos_as_xyz
  1  'x, y, z'
loop_
 _atom_site_type_symbol
 _atom_site_label
 _atom_site_symmetry_multiplicity
 _atom_site_fract_x
 _atom_site_fract_y
 _atom_site_fract_z
 _atom_site_occupancy
  V  V0  1  0.62831664  -0.00184555  0.12612365  1
  V  V1  1  0.50010223  0.50068000  0.00225013  1
  V  V2  1  0.37094541  0.63341574  0.25070467  1
  V  V3  1  0.62543569  0.12416010  0.50181038  1
  V  V4  1  0.37340107  0.25248991  0.12783053  1
  V  V5  1  0.75584164  0.12498547  0.37016946  1
  V  V6  1  0.62475737  0.25009790  0.37354113  1
  V  V7  1  0.62833271  0.12464012  -0.00131883  1
  V  V8  1  0.12563983  0.12269043  -0.00147296  1
  V  V9  1  0.11682643  0.75308454  0.87921330  1
  V  V10  1  0.62607810  0.63078893  -0.00669163  1
  V  V11  1  0.25170848  0.87426605  0.62429956  1
  V  V12  1  0.12263093  -0.00094611  0.62533608  1
  V  V13  1  0.48823100  0.38260867  0.37630748  1
  V  V14  1  0.87529864  0.00058137  0.87927998  1
  V  V15  1  0.50132981  0.00001781  -0.00065692  1
  V  V16  1  -0.00014523  0.62847637  0.62529402  1
  V  V17  1  0.61612660  0.86660673  0.25557600  1
  V  V18  1  -0.00475235  -0.00620420  0.50138464  1
  V  V19  1  0.87017302  0.49917428  0.37591440  1
  V  V20  1  -0.00524007  0.37380935  0.38078476  1
  V  V21  1  0.62796759  0.37882263  0.25344096  1
  V  V22  1  0.75117981  0.37964071  0.12807737  1
  V  V23  1  0.87250876  -0.00657874  0.37811133  1
  V  V24  1  0.74489186  0.62395696  0.37143310  1
  V  V25  1  0.12095496  0.87506110  0.75633650  1
  V  V26  1  0.86685090  0.50115519  0.87314983  1
  V  V27  1  0.25191779  0.75079893  0.00675888  1
  V  V28  1  0.88470433  0.86895083  0.00019175  1
  V  V29  1  0.75488210  0.38001252  0.61671487  1
  V  V30  1  0.76056641  0.75153128  0.50055509  1
  V  V31  1  0.86575143  0.12768392  0.75630555  1
  V  V32  1  0.25708756  0.38517419  0.62427525  1
  V  V33  1  0.37468880  0.37626080  0.00136268  1
  V  V34  1  0.24784366  0.62425666  0.87807352  1
  V  V35  1  0.87035837  0.62925427  0.24863028  1
  V  V36  1  0.12906165  -0.00245142  0.13813452  1
  V  V37  1  0.63029167  0.50349592  0.62899889  1
  V  V38  1  0.87005913  0.62423270  0.74675954  1
  V  V39  1  -0.00627710  0.75337078  0.74738148  1
  V  V40  1  0.62841812  0.87380365  0.75500098  1
  V  V41  1  0.49906889  0.00096151  0.49314451  1
  V  V42  1  0.75601639  -0.00001699  0.24744171  1
  V  V43  1  0.43455574  0.81785424  0.44271168  1
  V  V44  1  0.25009615  0.00421104  0.75110717  1
  V  V45  1  0.12103798  0.38395671  0.24483738  1
  V  V46  1  0.24904803  0.87712463  0.13693122  1
  V  V47  1  0.87234944  0.24536719  0.13047091  1
  V  V48  1  0.50456102  0.75464193  0.75926659  1
  V  V49  1  0.76357002  0.87308227  0.62261388  1
  V  V50  1  0.37622077  0.75828804  0.62915344  1
  V  V51  1  0.50143891  0.62483523  0.62972885  1
  V  V52  1  -0.00469892  0.63020959  0.12778886  1
  V  V53  1  0.12471077  0.61952717  0.00836261  1
  V  V54  1  0.49990337  0.12450575  0.12768420  1
  V  V55  1  0.24981995  0.12181544  0.36788131  1
  V  V56  1  0.00109575  0.37702986  0.87459351  1
  V  V57  1  -0.00229578  0.49488156  0.50702168  1
  V  V58  1  0.75618383  0.86248355  0.12696679  1
  V  V59  1  -0.00394588  0.12139670  0.12788412  1
  V  V60  1  0.24864126  0.25157639  -0.00232724  1
  V  V61  1  0.00222206  0.87451182  0.36911284  1
  V  V62  1  0.75187592  0.24673072  -0.00284983  1
  V  V63  1  0.87489801  0.25234541  0.61720182  1
  V  V64  1  0.37329826  0.00808944  0.87634621  1
  V  V65  1  0.37293723  0.62682703  0.75346843  1
  V  V66  1  0.50046797  0.37314649  0.87271772  1
  V  V67  1  0.62518119  0.00007576  0.62445642  1
  V  V68  1  0.24415414  0.75384031  0.49690679  1
  V  V69  1  0.63280760  0.37756480  0.74924336  1
  V  V70  1  0.27034999  0.25030000  0.50742820  1
  V  V71  1  0.62735413  0.50270462  0.12800712  1
  V  V72  1  0.62890256  0.24439156  0.87347695  1
  V  V73  1  -0.00021609  0.24963003  0.75031969  1
  V  V74  1  0.37421973  0.87227566  0.00462539  1
  V  V75  1  0.12489152  0.75117419  0.36512645  1
  V  V76  1  0.75166560  0.75072572  -0.01126764  1
  V  V77  1  0.12405448  0.12639665  0.49916355  1
  V  V78  1  0.50215408  0.87549506  0.87417409  1
  V  V79  1  0.37499506  -0.00446558  0.37005219  1
  V  V80  1  0.49832260  0.24223617  0.73636173  1
  V  V81  1  -0.00069617  0.49889020  0.00747387  1
  V  V82  1  0.12446759  0.61776221  0.50168772  1
  V  V83  1  -0.00208312  0.24693827  0.25236763  1
  V  V84  1  0.49407345  0.64170400  0.12931954  1
  Zn  Zn85  1  0.74834461  0.00384382  0.75502216  1
  Zn  Zn86  1  0.49094433  0.48485481  0.51030036  1
  Zn  Zn87  1  0.74488906  0.62437116  0.86760073  1
  Zn  Zn88  1  0.12673336  0.25037256  0.37644055  1
  Zn  Zn89  1  0.12484330  0.25126295  0.87342006  1
  Zn  Zn90  1  -0.00337007  0.75493300  0.24528420  1
  Zn  Zn91  1  0.35495973  0.15505553  0.70109624  1
  Zn  Zn92  1  0.26047127  0.49733137  0.24945241  1
  Zn  Zn93  1  0.12171792  0.38625355  0.74000680  1
  Zn  Zn94  1  0.23927498  0.50652752  0.74416572  1
  Zn  Zn95  1  0.25185147  0.61022554  0.37936594  1
  Zn  Zn96  1  0.23770191  0.38164668  0.12041564  1
  Zn  Zn97  1  0.37260772  0.49949372  0.87428075  1
  Zn  Zn98  1  0.87429852  0.37538533  0.00097894  1
  Zn  Zn99  1  -0.00402772  0.12410972  0.62546687  1
  Zn  Zn100  1  0.36883598  0.11725337  0.24585580  1
  Zn  Zn101  1  0.62768663  0.62728058  0.50146866  1
  Zn  Zn102  1  0.61520466  0.75102797  0.37927230  1
  Zn  Zn103  1  0.00505695  -0.00673263  -0.00350523  1
  Zn  Zn104  1  0.49731657  0.24983202  0.25089812  1
  Zn  Zn105  1  0.75483392  0.25423944  0.49529086  1
  Zn  Zn106  1  0.25050996  0.13037796  0.86949756  1
  Zn  Zn107  1  0.18340856  0.19160727  0.18609260  1
  Zn  Zn108  1  0.18028111  0.19145810  0.68242544  1
  Zn  Zn109  1  0.18691236  0.68509070  0.18533830  1
  Zn  Zn110  1  0.18314085  0.68746175  0.68697038  1
  Zn  Zn111  1  0.68744224  0.18741627  0.18927975  1
  Zn  Zn112  1  0.68779464  0.19016977  0.68416894  1
  Zn  Zn113  1  0.68589435  0.68751127  0.18726200  1
  Zn  Zn114  1  0.68948471  0.69462291  0.68724383  1
  Zn  Zn115  1  0.30713801  0.30885209  0.31317051  1
  Zn  Zn116  1  0.31347468  0.31595788  0.80853734  1
  Zn  Zn117  1  0.31478515  0.79700539  0.30421961  1
  Zn  Zn118  1  0.31063772  0.81478070  0.81786214  1
  Zn  Zn119  1  0.81293749  0.31448904  0.31136973  1
  Zn  Zn120  1  0.81370279  0.31403456  0.81098439  1
  Zn  Zn121  1  0.81228536  0.81074193  0.31539103  1
  Zn  Zn122  1  0.81515217  0.81691358  0.81438099  1
  Zn  Zn123  1  0.18910881  0.43236230  0.43403064  1
  Zn  Zn124  1  0.18407739  0.43895127  0.93497934  1
  Zn  Zn125  1  0.18642446  0.93701858  0.43361513  1
  Zn  Zn126  1  0.18757691  0.93839249  0.94000116  1
  Zn  Zn127  1  0.68197259  0.44324701  0.44249190  1
  Zn  Zn128  1  0.68733223  0.43559849  0.94047689  1
  Zn  Zn129  1  0.68815917  0.93286889  0.43746199  1
  Zn  Zn130  1  0.69450706  0.93846425  0.93696210  1
  Zn  Zn131  1  0.31024550  0.06217361  0.06269159  1
  Zn  Zn132  1  0.31162151  0.05748810  0.55023026  1
  Zn  Zn133  1  0.31266007  0.55707664  0.07159114  1
  Zn  Zn134  1  0.31464610  0.56384730  0.56225203  1
  Zn  Zn135  1  0.81368606  0.06112970  0.06154769  1
  Zn  Zn136  1  0.81092593  0.06422325  0.56314979  1
  Zn  Zn137  1  0.81333604  0.56436628  0.06156722  1
  Zn  Zn138  1  0.81495198  0.56434505  0.56109638  1
  Zn  Zn139  1  0.43836426  0.44066468  0.19043080  1
  Zn  Zn140  1  0.43322875  0.43614360  0.68882737  1
  Zn  Zn141  1  0.43651770  0.93472459  0.18656202  1
  Zn  Zn142  1  0.42171756  0.97378859  0.66699664  1
  Zn  Zn143  1  0.93479442  0.44089937  0.19180910  1
  Zn  Zn144  1  0.93638241  0.43934040  0.68851492  1
  Zn  Zn145  1  0.93638860  0.93842622  0.18718311  1
  Zn  Zn146  1  0.93836449  0.94123571  0.69380353  1
  Zn  Zn147  1  0.05998407  0.06362191  0.31347885  1
  Zn  Zn148  1  0.05706666  0.06426429  0.81542202  1
  Zn  Zn149  1  0.06083414  0.56293966  0.31725578  1
  Zn  Zn150  1  0.05952069  0.56261086  0.81552869  1
  Zn  Zn151  1  0.56528038  0.05829728  0.31197632  1
  Zn  Zn152  1  0.56315990  0.06299225  0.81071772  1
  Zn  Zn153  1  0.56125757  0.56379467  0.30881314  1
  Zn  Zn154  1  0.56241382  0.55983598  0.81189185  1
  Zn  Zn155  1  0.44195850  0.18285034  0.43231801  1
  Zn  Zn156  1  0.43948538  0.18927291  0.93809952  1
  Zn  Zn157  1  0.43168093  0.63903299  0.44613600  1
  Zn  Zn158  1  0.43684958  0.68855998  0.94107798  1
  Zn  Zn159  1  0.93658886  0.18126648  0.43695955  1
  Zn  Zn160  1  0.93714792  0.18585306  0.93946007  1
  Zn  Zn161  1  0.93703665  0.68681005  0.43592413  1
  Zn  Zn162  1  0.93599183  0.68656033  0.93663405  1
  Zn  Zn163  1  0.05886873  0.30999145  0.06204077  1
  Zn  Zn164  1  0.06686689  0.31336159  0.56463492  1
  Zn  Zn165  1  0.06593293  0.81153020  0.06758333  1
  Zn  Zn166  1  0.06112478  0.81230329  0.56133697  1
  Zn  Zn167  1  0.56298645  0.31250271  0.06334184  1
  Zn  Zn168  1  0.56541514  0.31346843  0.55845834  1
  Zn  Zn169  1  0.57002211  0.81549140  0.06044763  1
  Zn  Zn170  1  0.57287244  0.80835608  0.57036957  1
  O  O171  1  0.12085433  0.11637213  0.11844321  1
  O  O172  1  0.11973588  0.11610653  0.61739955  1
  O  O173  1  0.11646059  0.62567743  0.11409650  1
  O  O174  1  0.11208942  0.62938554  0.61621667  1
  O  O175  1  0.61897899  0.11978907  0.12003225  1
  O  O176  1  0.63360804  0.11539449  0.61366837  1
  O  O177  1  0.61786993  0.61847846  0.11771219  1
  O  O178  1  0.61973107  0.61811294  0.63550127  1
  O  O179  1  0.39033856  0.37133514  0.36308940  1
  O  O180  1  0.38462032  0.37688469  0.88080968  1
  O  O181  1  0.37718896  0.87142144  0.37444339  1
  O  O182  1  0.37807289  0.88447550  0.88689053  1
  O  O183  1  0.88442877  0.38249092  0.37065535  1
  O  O184  1  0.88393152  0.38229294  0.87529940  1
  O  O185  1  0.87972094  0.88665838  0.37526711  1
  O  O186  1  0.87348518  0.88703620  0.88596850  1
  O  O187  1  0.26062575  0.00814376  0.38251811  1
  O  O188  1  0.25491247  0.00416380  0.86901099  1
  O  O189  1  0.24253642  0.49875142  0.36349591  1
  O  O190  1  0.25132757  0.51525513  0.87754025  1
  O  O191  1  0.75525282  0.00308690  0.36939477  1
  O  O192  1  0.76668277  0.00091814  0.87358368  1
  O  O193  1  0.75538155  0.51305149  0.38455292  1
  O  O194  1  0.76252296  0.49948033  0.88044771  1
  O  O195  1  0.24928837  0.49259038  0.13412589  1
  O  O196  1  0.25121707  0.49000114  0.62168221  1
  O  O197  1  0.23769705  0.99431980  0.12276480  1
  O  O198  1  0.24125384  0.99188813  0.63162381  1
  O  O199  1  0.74245673  0.48817682  0.11711902  1
  O  O200  1  0.74308688  0.49450275  0.62238994  1
  O  O201  1  0.74688301  0.99353058  0.13135227  1
  O  O202  1  0.74241344  0.98946841  0.62476104  1
  O  O203  1  0.00342479  0.36740084  0.25619629  1
  O  O204  1  -0.00036454  0.36811340  0.75704063  1
  O  O205  1  -0.00539822  0.87424879  0.26328344  1
  O  O206  1  0.01248302  0.86926049  0.74615639  1
  O  O207  1  0.51263776  0.37280754  0.25608056  1
  O  O208  1  0.50817258  0.36799295  0.75689427  1
  O  O209  1  0.51812749  0.87698478  0.24218855  1
  O  O210  1  0.50827327  0.87062661  0.75730857  1
  O  O211  1  0.50173005  0.12498888  0.23708049  1
  O  O212  1  0.50404526  0.14194651  0.75200301  1
  O  O213  1  0.49696161  0.62658083  0.23456462  1
  O  O214  1  0.49425348  0.63350704  0.74903677  1
  O  O215  1  1.00275684  0.13198135  0.23824765  1
  O  O216  1  0.98911599  0.13315849  0.74874480  1
  O  O217  1  0.99251959  0.62420067  0.24272050  1
  O  O218  1  0.99418431  0.63396276  0.74392180  1
  O  O219  1  0.36885403  0.25392498  0.00803720  1
  O  O220  1  0.36823895  0.24271438  0.49861038  1
  O  O221  1  0.36426519  0.75968173  -0.00412504  1
  O  O222  1  0.36990792  0.75750808  0.50360694  1
  O  O223  1  0.86821088  0.25198558  0.01038056  1
  O  O224  1  0.87543286  0.24397702  0.51322913  1
  O  O225  1  0.86754858  0.75786040  -0.00405326  1
  O  O226  1  0.86097445  0.74872064  0.49707301  1
  O  O227  1  0.12364988  0.23387818  0.49909461  1
  O  O228  1  0.13280488  0.24304161  1.00055647  1
  O  O229  1  0.12970846  0.74217047  0.49382310  1
  O  O230  1  0.12972765  0.74411282  0.99439545  1
  O  O231  1  0.62794263  0.24227901  0.48849044  1
  O  O232  1  0.63162553  0.24679294  0.99300446  1
  O  O233  1  0.63994928  0.75033506  0.49813920  1
  O  O234  1  0.63515878  0.74121886  1.00147040  1
  O  O235  1  0.49283008  0.24174864  0.12481760  1
  O  O236  1  0.50754909  0.25354015  0.63773552  1
  O  O237  1  0.50539843  0.73900514  0.11721818  1
  O  O238  1  0.49433319  0.75065253  0.64174708  1
  O  O239  1  0.99103983  0.24262253  0.13092748  1
  O  O240  1  0.99190056  0.25088815  0.63292908  1
  O  O241  1  1.00274183  0.73553790  0.12635547  1
  O  O242  1  1.00312767  0.74322149  0.63486447  1
  O  O243  1  -0.00527367  0.25428825  0.36784623  1
  O  O244  1  -0.00317368  0.25918119  0.86938107  1
  O  O245  1  0.00662633  0.75897201  0.37691769  1
  O  O246  1  0.01175318  0.74481723  0.86834149  1
  O  O247  1  0.50952308  0.25695390  0.37069258  1
  O  O248  1  0.50886938  0.26018051  0.87353706  1
  O  O249  1  0.48957245  0.74844271  0.39474612  1
  O  O250  1  0.49578237  0.75681126  0.86701472  1
  O  O251  1  0.24380275  0.13180853  0.49232019  1
  O  O252  1  0.24230391  0.13388877  0.99899130  1
  O  O253  1  0.24057909  0.63702367  0.50207045  1
  O  O254  1  0.24379998  0.63092933  0.99827394  1
  O  O255  1  0.74070614  0.12564804  0.48948240  1
  O  O256  1  0.74423284  0.13872967  1.00760260  1
  O  O257  1  0.74851767  0.63618180  0.49634254  1
  O  O258  1  0.74298028  0.63376700  0.99974438  1
  O  O259  1  0.25397834  0.36860998  -0.00063637  1
  O  O260  1  0.24743466  0.35751825  0.50786134  1
  O  O261  1  0.25674097  0.86846530  0.00495750  1
  O  O262  1  0.24086137  0.86336377  0.51022181  1
  O  O263  1  0.74932522  0.36282130  0.01007629  1
  O  O264  1  0.74458670  0.37307691  0.51229041  1
  O  O265  1  0.75676416  0.86711976  0.00704387  1
  O  O266  1  0.74950272  0.86809618  0.51300189  1
  O  O267  1  0.11333809  0.48434679  0.25070615  1
  O  O268  1  0.12577150  0.50015560  0.75347458  1
  O  O269  1  0.12366357  1.00402410  0.23676513  1
  O  O270  1  0.13169033  0.99468846  0.75018916  1
  O  O271  1  0.62254625  0.49416712  0.23604737  1
  O  O272  1  0.62137404  0.49004225  0.74137569  1
  O  O273  1  0.63643416  0.98987451  0.24616048  1
  O  O274  1  0.62741957  0.99644990  0.74119954  1
  O  O275  1  0.38178599  -0.00141223  0.26395213  1
  O  O276  1  0.35734638  -0.01095817  0.76328231  1
  O  O277  1  0.38055266  0.52304367  0.24015867  1
  O  O278  1  0.37230156  0.51607799  0.75327799  1
  O  O279  1  0.86269017  -0.00285535  0.25739824  1
  O  O280  1  0.87387216  0.00877295  0.76092126  1
  O  O281  1  0.87881283  0.51072425  0.26645585  1
  O  O282  1  0.88196025  0.51206468  0.76031391  1
  O  O283  1  0.10950364  0.36942755  0.36677083  1
  O  O284  1  0.11073252  0.37256325  0.87397077  1
  O  O285  1  0.11531245  0.86554249  0.37813414  1
  O  O286  1  0.13021057  0.86588431  0.86895613  1
  O  O287  1  0.62575177  0.36883860  0.36855605  1
  O  O288  1  0.62067916  0.36837233  0.86842722  1
  O  O289  1  0.62785638  0.87224226  0.36041453  1
  O  O290  1  0.62263690  0.88490979  0.86237888  1
  O  O291  1  0.38190231  0.13043441  0.12510757  1
  O  O292  1  0.38675398  0.08007480  0.62880063  1
  O  O293  1  0.39130690  0.62747993  0.12032760  1
  O  O294  1  0.38123398  0.63706108  0.63720182  1
  O  O295  1  0.88348707  0.13223970  0.12165870  1
  O  O296  1  0.87479718  0.13356532  0.63407167  1
  O  O297  1  0.88094498  0.61940491  0.13621663  1
  O  O298  1  0.88831225  0.62112674  0.63274558  1
  O  O299  1  0.25608075  0.25406426  0.11467367  1
  O  O300  1  0.25873592  0.24090514  0.61260191  1
  O  O301  1  0.23900332  0.75985036  0.11237836  1
  O  O302  1  0.25522817  0.75571335  0.61985741  1
  O  O303  1  0.75538567  0.25684200  0.12219484  1
  O  O304  1  0.75754911  0.25926840  0.62170354  1
  O  O305  1  0.74723205  0.75917089  0.11680519  1
  O  O306  1  0.75085969  0.76354537  0.61655258  1
  O  O307  1  0.24845076  0.24226799  0.38923221  1
  O  O308  1  0.24994611  0.25014786  0.88457722  1
  O  O309  1  0.24099983  0.75048944  0.38290780  1
  O  O310  1  0.24106501  0.74209798  0.88485550  1
  O  O311  1  0.74612703  0.24213947  0.37402019  1
  O  O312  1  0.74192052  0.25699037  0.88454582  1
  O  O313  1  0.74870726  0.74215412  0.38531835  1
  O  O314  1  0.75081364  0.74900985  0.88489893  1
  O  O315  1  0.00887888  0.12658449  0.01247935  1
  O  O316  1  0.00714373  0.11242908  0.49959670  1
  O  O317  1  0.00464981  0.61899053  0.00624976  1
  O  O318  1  0.00454312  0.62030391  0.50681915  1
  O  O319  1  0.50651794  0.12117768  0.00958041  1
  O  O320  1  0.51537609  0.11502706  0.49251904  1
  O  O321  1  0.50674012  0.61902497  0.00564133  1
  O  O322  1  0.51207932  0.64478204  0.52686247  1
  O  O323  1  0.50243115  0.37223178  0.48260451  1
  O  O324  1  0.49801587  0.38140484  0.99339888  1
  O  O325  1  0.49962075  0.87415131  0.49989713  1
  O  O326  1  0.49504753  0.87990086  0.99580045  1
  O  O327  1  1.00513089  0.38215697  0.49361285  1
  O  O328  1  0.99711450  0.38149342  0.99445537  1
  O  O329  1  1.00460074  0.88745903  0.49129311  1
  O  O330  1  0.98857510  0.87277988  1.00690938  1
  O  O331  1  0.50699207  0.48446398  0.37354792  1
  O  O332  1  0.50152824  0.48940152  0.88450305  1
  O  O333  1  0.49685514  0.99829466  0.38416446  1
  O  O334  1  0.49271951  0.99609614  0.87918210  1
  O  O335  1  0.99287331  0.49226323  0.38530344  1
  O  O336  1  0.98998133  0.49494338  0.88598378  1
  O  O337  1  0.99241628  0.99513929  0.37960341  1
  O  O338  1  0.98450977  1.00195683  0.87912983  1
  O  O339  1  0.00972868  0.00578043  0.12342301  1
  O  O340  1  0.00417075  -0.00063907  0.61787331  1
  O  O341  1  -0.00757372  0.50755741  0.11327692  1
  O  O342  1  -0.00433918  0.50504386  0.61260416  1
  O  O343  1  0.50594176  0.00598998  0.11830486  1
  O  O344  1  0.51901294  -0.01179879  0.60780681  1
  O  O345  1  0.50873907  0.50313810  0.11359604  1
  O  O346  1  0.50513444  0.50956983  0.63045020  1
  O  O347  1  0.22871826  0.36707880  0.25071495  1
  O  O348  1  0.24967191  0.37961837  0.73817064  1
  O  O349  1  0.25548533  0.86859015  0.23583495  1
  O  O350  1  0.23833727  0.87907249  0.74640892  1
  O  O351  1  0.73780919  0.37207498  0.24216401  1
  O  O352  1  0.73728391  0.36918352  0.74171810  1
  O  O353  1  0.74687596  0.87841189  0.24231177  1
  O  O354  1  0.74567928  0.87554946  0.74104535  1
  O  O355  1  0.24792408  0.13357896  0.26383595  1
  O  O356  1  0.25022454  0.11904989  0.74901378  1
  O  O357  1  0.26133264  0.62604112  0.24633216  1
  O  O358  1  0.25584913  0.63007810  0.75947295  1
  O  O359  1  0.74363680  0.11344182  0.25764848  1
  O  O360  1  0.76146358  0.12681185  0.74810219  1
  O  O361  1  0.75476771  0.62847916  0.25996481  1
  O  O362  1  0.76551861  0.63491137  0.74955280  1
  O  O363  1  0.36882214  0.11458159  0.37088513  1
  O  O364  1  0.37473229  0.11280727  0.88013438  1
  O  O365  1  0.36607403  0.63961388  0.35576025  1
  O  O366  1  0.36605079  0.62671129  0.87094398  1
  O  O367  1  0.86257474  0.11456781  0.37605334  1
  O  O368  1  0.87657215  0.11645836  0.87015064  1
  O  O369  1  0.86689314  0.61878299  0.36980109  1
  O  O370  1  0.87315132  0.61718106  0.86722381  1
  O  O371  1  0.11811500  0.36888440  0.14050908  1
  O  O372  1  0.14858515  0.35993687  0.62766821  1
  O  O373  1  0.13170866  0.88968010  0.12180846  1
  O  O374  1  0.13311975  0.87797281  0.63363279  1
  O  O375  1  0.63053069  0.38072383  0.13156107  1
  O  O376  1  0.63151817  0.38188662  0.63094349  1
  O  O377  1  0.63613678  0.88053545  0.13204485  1
  O  O378  1  0.63548303  0.88106891  0.63738909  1
  O  O379  1  0.10964363  0.25486212  0.25264747  1
  O  O380  1  0.10969741  0.24858153  0.75314719  1
  O  O381  1  0.12042955  0.74355784  0.26197273  1
  O  O382  1  0.11823944  0.75674328  0.75863119  1
  O  O383  1  0.62422546  0.25710977  0.25981239  1
  O  O384  1  0.61850248  0.25560048  0.75678389  1
  O  O385  1  0.62744864  0.76232804  0.25359849  1
  O  O386  1  0.61689040  0.76035151  0.74951190  1
  O  O387  1  0.37443493  0.24655332  0.23703878  1
  O  O388  1  0.39102545  0.24930471  0.75229526  1
  O  O389  1  0.37865926  0.73439936  0.23355383  1
  O  O390  1  0.37978767  0.74465246  0.75078040  1
  O  O391  1  0.88272901  0.25309410  0.23893933  1
  O  O392  1  0.88206429  0.24493115  0.74503246  1
  O  O393  1  0.87828015  0.73499851  0.25751315  1
  O  O394  1  0.88905549  0.74595188  0.75871971  1
  O  O395  1  0.39483278  0.53924545  0.49126630  1
  O  O396  1  0.38514346  0.49521031  0.99806154  1
  O  O397  1  0.38727018  0.99375781  0.48490102  1
  O  O398  1  0.38009343  0.99497142  0.99407787  1
  O  O399  1  0.88464621  0.50546825  0.48742913  1
  O  O400  1  0.88142192  0.49831038  0.99247386  1
  O  O401  1  0.88318105  1.00566201  0.49179476  1
  O  O402  1  0.87771207  0.99376018  0.99289807  1
  O  O403  1  0.12341158  0.00832570  0.00679556  1
  O  O404  1  0.11946882  0.00803555  0.50396925  1
  O  O405  1  0.11336617  0.50922460  -0.00539816  1
  O  O406  1  0.11606845  0.51172662  0.49444428  1
  O  O407  1  0.62238798  0.00413964  0.00470632  1
  O  O408  1  0.62245643  0.00467499  0.50232554  1
  O  O409  1  0.61972332  0.50479161  0.00905214  1
  O  O410  1  0.61546830  0.50539861  0.51628107  1
  O  O411  1  0.37949322  0.36594546  0.11871303  1
  O  O412  1  0.35924336  0.37412220  0.62582839  1
  O  O413  1  0.36628269  0.88361455  0.11179898  1
  O  O414  1  0.35932114  0.87507264  0.63297058  1
  O  O415  1  0.86591254  0.36945611  0.12637300  1
  O  O416  1  0.86470232  0.36711102  0.63314284  1
  O  O417  1  0.86563282  0.88109409  0.11537423  1
  O  O418  1  0.86185219  0.88133835  0.63106987  1
  O  O419  1  0.13150759  0.12404154  0.38196864  1
  O  O420  1  0.12474279  0.12776728  0.88743847  1
  O  O421  1  0.12386760  0.63399921  0.38484306  1
  O  O422  1  0.12995414  0.63298154  0.88680391  1
  O  O423  1  0.63411740  0.13151678  0.37729537  1
  O  O424  1  0.62151795  0.13704339  0.88085481  1
  O  O425  1  0.63020640  0.62862939  0.37588897  1
  O  O426  1  0.62678303  0.61649521  0.88848144  1
