# generated using pymatgen
data_V85Zn86O256
_symmetry_space_group_name_H-M   'P 1'
_cell_length_a   16.94967885
_cell_length_b   16.92868087
_cell_length_c   16.94233121
_cell_angle_alpha   89.96857517
_cell_angle_beta   90.01616672
_cell_angle_gamma   89.99622256
_symmetry_Int_Tables_number   1
_chemical_formula_structural   V85Zn86O256
_chemical_formula_sum   'V85 Zn86 O256'
_cell_volume   4861.35879916
_cell_formula_units_Z   1
loop_
 _symmetry_equiv_pos_site_id
 _symmetry_equiv_pos_as_xyz
  1  'x, y, z'
loop_
 _atom_site_type_symbol
 _atom_site_label
 _atom_site_symmetry_multiplicity
 _atom_site_fract_x
 _atom_site_fract_y
 _atom_site_fract_z
 _atom_site_occupancy
  V  V0  1  0.38526576  0.11949898  0.23251230  1
  V  V1  1  0.12827632  0.12056063  0.00362268  1
  V  V2  1  -0.00151412  0.11872484  0.62655562  1
  V  V3  1  -0.00075217  0.37370579  0.37886145  1
  V  V4  1  -0.00259154  0.50375666  0.50786607  1
  V  V5  1  0.69280008  0.18856961  0.04927234  1
  V  V6  1  0.62381035  0.62615679  0.51188991  1
  V  V7  1  0.12681714  0.89252486  0.24815275  1
  V  V8  1  0.12447020  0.62421413  0.00072394  1
  V  V9  1  -0.01054438  0.87434116  0.36979983  1
  V  V10  1  0.37425391  0.25571100  0.62188963  1
  V  V11  1  0.37594321  0.00152796  0.87152704  1
  V  V12  1  0.86473726  0.37104123  0.00235406  1
  V  V13  1  0.12402482  0.74749861  0.36332194  1
  V  V14  1  0.75089647  0.62601407  0.87412071  1
  V  V15  1  0.75389689  0.11964527  0.38366120  1
  V  V16  1  0.37334787  0.62291570  0.25890735  1
  V  V17  1  0.12745150  0.24723089  0.37632321  1
  V  V18  1  0.49346405  0.37587346  0.38222262  1
  V  V19  1  0.00138472  0.87565389  0.87290228  1
  V  V20  1  0.88107122  0.75586103  0.61650813  1
  V  V21  1  0.50422173  0.87680280  0.87084898  1
  V  V22  1  0.12609019  0.24875507  0.87264560  1
  V  V23  1  0.25456745  0.25012548  0.00346369  1
  V  V24  1  0.87721987  0.87573182  -0.00134539  1
  V  V25  1  -0.00646448  0.24537210  0.74759883  1
  V  V26  1  -0.01612008  -0.00610786  0.49801558  1
  V  V27  1  0.37414881  0.87890395  0.48973795  1
  V  V28  1  0.88163354  0.62679777  0.74255463  1
  V  V29  1  0.75091145  0.12998459  0.86600209  1
  V  V30  1  0.87647361  0.75043919  0.12589372  1
  V  V31  1  0.74005851  -0.00384473  0.74983720  1
  V  V32  1  0.63053055  0.25453351  0.38137809  1
  V  V33  1  0.87799718  0.62948721  0.25250853  1
  V  V34  1  0.50351886  0.74993577  0.74542373  1
  V  V35  1  0.00042792  0.37301283  0.87590940  1
  V  V36  1  0.24880157  0.37817280  0.62787453  1
  V  V37  1  0.37741367  0.87597997  0.00232558  1
  V  V38  1  0.87633101  0.25247759  0.12206464  1
  V  V39  1  0.12399291  0.87644497  0.74261990  1
  V  V40  1  0.24978297  0.75040807  0.00169143  1
  V  V41  1  0.62915521  0.12873523  0.50442293  1
  V  V42  1  0.86597956  0.36708379  0.50457140  1
  V  V43  1  0.74869231  0.75222578  -0.00090001  1
  V  V44  1  0.49921638  0.12479507  0.62757623  1
  V  V45  1  0.24942367  0.37375217  0.12589606  1
  V  V46  1  0.24935089  0.74323262  0.49455793  1
  V  V47  1  0.87626175  0.00424047  0.86403305  1
  V  V48  1  0.49680134  0.61401580  0.12004380  1
  V  V49  1  0.12693813  0.11040307  0.50142162  1
  V  V50  1  0.62737936  0.75614188  0.87191272  1
  V  V51  1  0.50134423  0.26157347  0.75087115  1
  V  V52  1  -0.00011559  0.24989110  0.25211981  1
  V  V53  1  0.74373047  0.62552398  0.37641023  1
  V  V54  1  0.25263068  0.25220039  0.49858203  1
  V  V55  1  0.37234466  0.62277591  0.74671688  1
  V  V56  1  0.37817349  0.74833238  0.62297875  1
  V  V57  1  0.87440128  0.50058769  0.37802329  1
  V  V58  1  0.00017950  0.49797379  0.00135171  1
  V  V59  1  0.74228882  0.87308335  0.62069926  1
  V  V60  1  0.62123948  0.87758920  0.25135904  1
  V  V61  1  0.74728272  0.87926140  0.12560265  1
  V  V62  1  0.75092885  0.49843956  0.24167206  1
  V  V63  1  0.24919474  0.87902686  0.62181220  1
  V  V64  1  0.62791991  0.25371791  0.86979314  1
  V  V65  1  0.26201308  0.11063540  0.36839651  1
  V  V66  1  0.12602668  0.50417576  0.63055056  1
  V  V67  1  0.50704761  0.01278108  0.00401997  1
  V  V68  1  0.00362594  0.00014475  0.00036285  1
  V  V69  1  0.87645068  0.50087700  0.87212060  1
  V  V70  1  0.24600311  0.88800590  0.12708416  1
  V  V71  1  0.25055713  0.49998805  0.25676664  1
  V  V72  1  0.62768097  0.37815772  0.24600400  1
  V  V73  1  0.74031628  0.37122005  0.63415578  1
  V  V74  1  0.49231025  0.50702426  0.50645948  1
  V  V75  1  0.00547940  0.11933501  0.12780667  1
  V  V76  1  0.24708547  0.00132519  0.74605675  1
  V  V77  1  0.12545415  0.75108084  0.87254589  1
  V  V78  1  0.00060758  0.62857498  0.12952355  1
  V  V79  1  0.49677826  0.00254096  0.49128855  1
  V  V80  1  0.24862040  0.61832595  0.87125769  1
  V  V81  1  0.87583853  0.11860759  0.25677829  1
  V  V82  1  0.38062457  0.37715680  -0.00340288  1
  V  V83  1  0.12082786  0.62677292  0.49916165  1
  V  V84  1  0.38082694  0.50215195  0.87754488  1
  Zn  Zn85  1  0.61643091  0.49876338  0.63517077  1
  Zn  Zn86  1  0.51537443  0.38977703  0.87207094  1
  Zn  Zn87  1  0.37661224  0.74985294  0.12768978  1
  Zn  Zn88  1  0.86845820  0.24257438  0.62656153  1
  Zn  Zn89  1  0.37210904  0.12732027  0.74808996  1
  Zn  Zn90  1  0.49966752  0.74934999  0.24893707  1
  Zn  Zn91  1  0.62623579  0.49712359  0.11655198  1
  Zn  Zn92  1  0.12590073  0.37561520  0.25170682  1
  Zn  Zn93  1  0.25046136  0.12574041  0.87225347  1
  Zn  Zn94  1  0.00278571  0.74796825  0.74294253  1
  Zn  Zn95  1  0.75113000  -0.00208822  0.25681029  1
  Zn  Zn96  1  0.49729344  0.24432821  0.23855997  1
  Zn  Zn97  1  0.61896270  -0.00432962  0.62988084  1
  Zn  Zn98  1  0.61684668  0.62123491  -0.00215560  1
  Zn  Zn99  1  0.74082718  0.49929570  0.75102580  1
  Zn  Zn100  1  0.12321822  0.49919147  0.12962458  1
  Zn  Zn101  1  0.62316214  0.01087884  0.12437710  1
  Zn  Zn102  1  0.61982914  0.75073652  0.37528306  1
  Zn  Zn103  1  0.36937815  0.49734153  0.37992436  1
  Zn  Zn104  1  0.75010210  0.75537405  0.49625831  1
  Zn  Zn105  1  0.49531671  0.87671967  0.36891943  1
  Zn  Zn106  1  0.12532697  0.37859528  0.74993635  1
  Zn  Zn107  1  0.19260677  0.18504313  0.18987738  1
  Zn  Zn108  1  0.18257394  0.18586133  0.68470460  1
  Zn  Zn109  1  0.19226965  0.68635298  0.18605469  1
  Zn  Zn110  1  0.18872434  0.68887027  0.68326938  1
  Zn  Zn111  1  0.68985228  0.19251676  0.21030907  1
  Zn  Zn112  1  0.68826016  0.18894762  0.68918347  1
  Zn  Zn113  1  0.68361592  0.68850804  0.18741687  1
  Zn  Zn114  1  0.69053532  0.68971785  0.69048463  1
  Zn  Zn115  1  0.31537614  0.30600221  0.30851448  1
  Zn  Zn116  1  0.31184798  0.31388384  0.80995210  1
  Zn  Zn117  1  0.30807106  0.81039986  0.31006834  1
  Zn  Zn118  1  0.31320004  0.81214650  0.81212513  1
  Zn  Zn119  1  0.81135873  0.31027129  0.31514321  1
  Zn  Zn120  1  0.81433417  0.31265345  0.81206909  1
  Zn  Zn121  1  0.80784936  0.80886490  0.30911931  1
  Zn  Zn122  1  0.81443258  0.81514038  0.80559238  1
  Zn  Zn123  1  0.18592662  0.43571603  0.44063666  1
  Zn  Zn124  1  0.18827428  0.43739161  0.93731810  1
  Zn  Zn125  1  0.18546199  0.93295573  0.43454280  1
  Zn  Zn126  1  0.18921152  0.93825872  0.93514954  1
  Zn  Zn127  1  0.68502164  0.44348179  0.44169446  1
  Zn  Zn128  1  0.68724350  0.44055307  0.93799979  1
  Zn  Zn129  1  0.68406389  0.94147252  0.44092831  1
  Zn  Zn130  1  0.68750435  0.94067211  0.93755947  1
  Zn  Zn131  1  0.31564882  0.06273302  0.06067884  1
  Zn  Zn132  1  0.31425975  0.06491396  0.56000986  1
  Zn  Zn133  1  0.31331220  0.55778347  0.06785516  1
  Zn  Zn134  1  0.31026132  0.56424803  0.56257935  1
  Zn  Zn135  1  0.82217417  0.05809377  0.06428255  1
  Zn  Zn136  1  0.81239628  0.06084077  0.56607306  1
  Zn  Zn137  1  0.81295143  0.56267540  0.05899535  1
  Zn  Zn138  1  0.80857181  0.56132310  0.56580405  1
  Zn  Zn139  1  0.44752129  0.41309611  0.17788387  1
  Zn  Zn140  1  0.43148450  0.43887631  0.68773106  1
  Zn  Zn141  1  0.43493236  0.94385378  0.18729462  1
  Zn  Zn142  1  0.43612726  0.93572365  0.68455105  1
  Zn  Zn143  1  0.93706137  0.43782146  0.18883695  1
  Zn  Zn144  1  0.93677392  0.43577938  0.68784173  1
  Zn  Zn145  1  0.93993786  0.93668411  0.19000686  1
  Zn  Zn146  1  0.93565396  0.93609481  0.68266885  1
  Zn  Zn147  1  0.06226714  0.06196008  0.31925415  1
  Zn  Zn148  1  0.06534387  0.06298939  0.81098224  1
  Zn  Zn149  1  0.06337076  0.56128959  0.31582929  1
  Zn  Zn150  1  0.06061587  0.56376608  0.81185324  1
  Zn  Zn151  1  0.56339539  0.06388329  0.31036419  1
  Zn  Zn152  1  0.56522008  0.07111957  0.81528020  1
  Zn  Zn153  1  0.55946469  0.55964099  0.31336330  1
  Zn  Zn154  1  0.56231273  0.56999303  0.81009258  1
  Zn  Zn155  1  0.43790932  0.19144162  0.43610637  1
  Zn  Zn156  1  0.43690639  0.19054958  0.93430406  1
  Zn  Zn157  1  0.44110243  0.68933702  0.43458189  1
  Zn  Zn158  1  0.43722772  0.68867101  0.93744158  1
  Zn  Zn159  1  0.93891402  0.18524185  0.44134228  1
  Zn  Zn160  1  0.93669150  0.18554125  0.93748304  1
  Zn  Zn161  1  0.93974362  0.68944424  0.43774195  1
  Zn  Zn162  1  0.93836062  0.68867588  0.93630303  1
  Zn  Zn163  1  0.06442314  0.31015997  0.06257636  1
  Zn  Zn164  1  0.06262832  0.31139744  0.56231329  1
  Zn  Zn165  1  0.06386436  0.81183684  0.06563628  1
  Zn  Zn166  1  0.06238236  0.81595647  0.55773353  1
  Zn  Zn167  1  0.55806386  0.31854142  0.06515205  1
  Zn  Zn168  1  0.56026627  0.31366768  0.56019520  1
  Zn  Zn169  1  0.56075990  0.80794967  0.06563888  1
  Zn  Zn170  1  0.56285558  0.81299814  0.55918206  1
  O  O171  1  0.11728614  0.13136085  0.11676394  1
  O  O172  1  0.11288952  0.12810532  0.61164677  1
  O  O173  1  0.11672775  0.62546251  0.11906365  1
  O  O174  1  0.13001379  0.61865365  0.61196365  1
  O  O175  1  0.63911674  0.13341851  0.11750353  1
  O  O176  1  0.61693397  0.12524174  0.62003257  1
  O  O177  1  0.60901776  0.62354121  0.12707019  1
  O  O178  1  0.63175717  0.62545808  0.61468353  1
  O  O179  1  0.39102800  0.37399417  0.37166217  1
  O  O180  1  0.36715668  0.38863217  0.87859836  1
  O  O181  1  0.37131414  0.87232409  0.38672946  1
  O  O182  1  0.38039715  0.88414930  0.88072451  1
  O  O183  1  0.87677105  0.37869097  0.38758002  1
  O  O184  1  0.88202669  0.37953831  0.88164531  1
  O  O185  1  0.89056668  0.86949383  0.36302217  1
  O  O186  1  0.88176253  0.88159156  0.87890140  1
  O  O187  1  0.24696754  0.01300798  0.37911993  1
  O  O188  1  0.25992017  -0.00031324  0.86587978  1
  O  O189  1  0.25114159  0.48926570  0.36259985  1
  O  O190  1  0.25228238  0.51432710  0.87495902  1
  O  O191  1  0.74667770  0.01517874  0.37666017  1
  O  O192  1  0.75634179  0.00489431  0.86806007  1
  O  O193  1  0.75649808  0.51071458  0.37115589  1
  O  O194  1  0.75929747  0.51081745  0.87312735  1
  O  O195  1  0.24355465  0.49333855  0.13684920  1
  O  O196  1  0.23983653  0.48967504  0.61492606  1
  O  O197  1  0.24731401  0.98667718  0.11295374  1
  O  O198  1  0.25616811  0.98753444  0.63060949  1
  O  O199  1  0.75341168  0.50565825  0.13896153  1
  O  O200  1  0.74906635  0.48537653  0.62832075  1
  O  O201  1  0.74991301  0.98773971  0.12198076  1
  O  O202  1  0.74973617  0.99011105  0.63290555  1
  O  O203  1  -0.00054973  0.36788903  0.25947018  1
  O  O204  1  0.00340112  0.36622807  0.75727236  1
  O  O205  1  0.01223170  0.87877694  0.25967088  1
  O  O206  1  0.00979691  0.87649869  0.75272183  1
  O  O207  1  0.51569232  0.39072435  0.27398554  1
  O  O208  1  0.49322320  0.36552143  0.75453865  1
  O  O209  1  0.50753027  0.87694103  0.24806862  1
  O  O210  1  0.49243891  0.86706985  0.76337819  1
  O  O211  1  0.49283478  0.12636437  0.24509742  1
  O  O212  1  0.49846975  0.13144607  0.73838127  1
  O  O213  1  0.48720534  0.62287528  0.24339895  1
  O  O214  1  0.48669919  0.64289358  0.75707566  1
  O  O215  1  0.99649937  0.12902570  0.24643491  1
  O  O216  1  1.00713119  0.12958728  0.73822603  1
  O  O217  1  0.99043669  0.61776990  0.24170926  1
  O  O218  1  0.98642522  0.62918734  0.75337384  1
  O  O219  1  0.36111756  0.25852043  -0.01098460  1
  O  O220  1  0.36452516  0.24676655  0.50870267  1
  O  O221  1  0.36789902  0.76287549  -0.00268992  1
  O  O222  1  0.36843578  0.75368351  0.50528520  1
  O  O223  1  0.88270001  0.25761537  0.00993643  1
  O  O224  1  0.87948827  0.26494710  0.50193582  1
  O  O225  1  0.86995227  0.75751553  0.00433289  1
  O  O226  1  0.86995206  0.74417278  0.51342444  1
  O  O227  1  0.12811965  0.23980346  0.49054719  1
  O  O228  1  0.13076446  0.24121059  0.99085740  1
  O  O229  1  0.13063984  0.74451235  0.49516800  1
  O  O230  1  0.13202648  0.74565843  0.99402849  1
  O  O231  1  0.61993075  0.23764216  0.49583520  1
  O  O232  1  0.62663403  0.25072557  0.99912001  1
  O  O233  1  0.62746394  0.74164455  0.49639432  1
  O  O234  1  0.63258073  0.74702392  0.99237160  1
  O  O235  1  0.48292690  0.30498141  0.14452528  1
  O  O236  1  0.49252892  0.24725620  0.62993410  1
  O  O237  1  0.49492981  0.73861666  0.12979418  1
  O  O238  1  0.49071513  0.75818953  0.63360837  1
  O  O239  1  0.99444450  0.24088266  0.13161693  1
  O  O240  1  1.00041849  0.24161173  0.63266236  1
  O  O241  1  0.99325050  0.73630949  0.11904853  1
  O  O242  1  0.98542253  0.75729803  0.62267770  1
  O  O243  1  0.00738249  0.25207017  0.37207701  1
  O  O244  1  0.00715954  0.25149776  0.86980841  1
  O  O245  1  0.00951196  0.76637880  0.38354310  1
  O  O246  1  0.00809964  0.75856338  0.87324360  1
  O  O247  1  0.51003459  0.26387755  0.37998743  1
  O  O248  1  0.50931703  0.24790338  0.86503717  1
  O  O249  1  0.50179561  0.75748743  0.36812043  1
  O  O250  1  0.50738059  0.75796443  0.87075584  1
  O  O251  1  0.24250018  0.13211441  0.49557321  1
  O  O252  1  0.24416494  0.13160740  0.99779091  1
  O  O253  1  0.24273950  0.63715819  0.50131184  1
  O  O254  1  0.24550890  0.63236692  0.99526945  1
  O  O255  1  0.74129904  0.12280646  0.49834057  1
  O  O256  1  0.75143196  0.12447766  0.99400178  1
  O  O257  1  0.74094164  0.62359668  0.49229505  1
  O  O258  1  0.75673059  0.63527700  0.98677953  1
  O  O259  1  0.25145539  0.36671766  0.00408952  1
  O  O260  1  0.24165497  0.35916990  0.50922757  1
  O  O261  1  0.25517280  0.86869442  0.00303018  1
  O  O262  1  0.25439374  0.86972141  0.50598816  1
  O  O263  1  0.76635565  0.37676080  -0.00337057  1
  O  O264  1  0.76220217  0.38129074  0.50793920  1
  O  O265  1  0.75623013  0.87148325  0.00502472  1
  O  O266  1  0.74789427  0.87699480  0.51490389  1
  O  O267  1  0.13276833  0.49714455  0.25088176  1
  O  O268  1  0.11988048  0.50286668  0.73451689  1
  O  O269  1  0.12489109  0.99109164  0.25094343  1
  O  O270  1  0.13877718  0.99116820  0.75434631  1
  O  O271  1  0.63632168  0.49602174  0.25117713  1
  O  O272  1  0.62648737  0.50639142  0.74787461  1
  O  O273  1  0.62890198  0.99480098  0.24221286  1
  O  O274  1  0.63584499  1.00281713  0.75128028  1
  O  O275  1  0.37710332  0.01838424  0.25036703  1
  O  O276  1  0.36519687  -0.00142209  0.75512636  1
  O  O277  1  0.36767721  0.50887596  0.25232367  1
  O  O278  1  0.37572388  0.51641759  0.75394553  1
  O  O279  1  0.87443203  0.01520399  0.24484227  1
  O  O280  1  0.86922322  -0.00476037  0.76074650  1
  O  O281  1  0.86955204  0.50738231  0.25745383  1
  O  O282  1  0.87471739  0.50892758  0.75521290  1
  O  O283  1  0.11719510  0.36434082  0.37704980  1
  O  O284  1  0.11935735  0.36664414  0.87393860  1
  O  O285  1  0.12058748  0.86929629  0.36181958  1
  O  O286  1  0.12246999  0.87102042  0.86399330  1
  O  O287  1  0.62294913  0.36918090  0.37607381  1
  O  O288  1  0.62853835  0.35985818  0.88025042  1
  O  O289  1  0.62681776  0.87782952  0.36213242  1
  O  O290  1  0.61841044  0.86547477  0.87870375  1
  O  O291  1  0.37184186  0.12825935  0.13314463  1
  O  O292  1  0.38195540  0.13626072  0.62550327  1
  O  O293  1  0.38330996  0.62452551  0.13225578  1
  O  O294  1  0.36656517  0.63901612  0.63239771  1
  O  O295  1  0.88343840  0.13448151  0.13074962  1
  O  O296  1  0.89158256  0.12771441  0.61620574  1
  O  O297  1  0.88126219  0.62879745  0.13157563  1
  O  O298  1  0.86473640  0.63955539  0.63317768  1
  O  O299  1  0.24443301  0.25764647  0.11375847  1
  O  O300  1  0.25506182  0.25231441  0.61804764  1
  O  O301  1  0.25132077  0.75642919  0.11159916  1
  O  O302  1  0.25607112  0.76139064  0.61658692  1
  O  O303  1  0.75423744  0.23994763  0.11611739  1
  O  O304  1  0.75301577  0.26397178  0.62892981  1
  O  O305  1  0.75544409  0.75938053  0.11983490  1
  O  O306  1  0.75576443  0.76219669  0.62509809  1
  O  O307  1  0.24352806  0.24436221  0.38238285  1
  O  O308  1  0.24061121  0.24845540  0.87945184  1
  O  O309  1  0.23802178  0.75676219  0.38572127  1
  O  O310  1  0.24590371  0.74520476  0.88494311  1
  O  O311  1  0.73729529  0.24016232  0.37226483  1
  O  O312  1  0.74577821  0.24003172  0.86771655  1
  O  O313  1  0.74937844  0.73663238  0.37675656  1
  O  O314  1  0.74481547  0.74940959  0.87666124  1
  O  O315  1  0.00813258  0.12120254  0.00837535  1
  O  O316  1  0.00697399  0.11082022  0.50021941  1
  O  O317  1  0.00345272  0.61803738  0.00578571  1
  O  O318  1  0.00607440  0.61512464  0.49859658  1
  O  O319  1  0.49503270  0.11096382  -0.00510775  1
  O  O320  1  0.50347523  0.12124138  0.51029540  1
  O  O321  1  0.49589307  0.62850909  0.01515000  1
  O  O322  1  0.50712687  0.61459377  0.49745560  1
  O  O323  1  0.50467641  0.38759617  0.48966378  1
  O  O324  1  0.48343047  0.37081026  0.98812604  1
  O  O325  1  0.49094735  0.88435639  0.49982724  1
  O  O326  1  0.49265953  0.87838422  0.98960302  1
  O  O327  1  0.99019430  0.38118258  0.49694472  1
  O  O328  1  0.99648246  0.38062242  0.99524156  1
  O  O329  1  1.00400079  0.88711606  0.48807895  1
  O  O330  1  0.99892095  0.88086561  0.99491304  1
  O  O331  1  0.49845163  0.49261922  0.38910758  1
  O  O332  1  0.48539125  0.50440190  0.87207671  1
  O  O333  1  0.50382002  0.99998043  0.38856180  1
  O  O334  1  0.49598602  0.99455095  0.87841948  1
  O  O335  1  0.99368839  0.49333202  0.38555553  1
  O  O336  1  0.99561221  0.49456776  0.88100507  1
  O  O337  1  1.00248203  0.98727620  0.38468196  1
  O  O338  1  0.99372631  0.99638437  0.87759896  1
  O  O339  1  -0.00445864  0.01263924  0.11911629  1
  O  O340  1  -0.00280379  0.00220823  0.60959554  1
  O  O341  1  -0.00048788  0.50966409  0.11899359  1
  O  O342  1  0.00735726  0.49426677  0.61398785  1
  O  O343  1  0.50174892  -0.00318578  0.10668325  1
  O  O344  1  0.49955343  0.00919228  0.62100301  1
  O  O345  1  0.49972202  0.51081591  0.13038903  1
  O  O346  1  0.49766826  0.49275367  0.61045214  1
  O  O347  1  0.25138293  0.37755277  0.24184139  1
  O  O348  1  0.24351489  0.36865769  0.73319637  1
  O  O349  1  0.23656209  0.87288045  0.24175647  1
  O  O350  1  0.24477112  0.87901282  0.74201810  1
  O  O351  1  0.74288497  0.38680594  0.26147322  1
  O  O352  1  0.75573183  0.37792761  0.73732498  1
  O  O353  1  0.74498138  0.87845859  0.24136545  1
  O  O354  1  0.75256283  0.88471112  0.73774314  1
  O  O355  1  0.25971813  0.12682632  0.26319328  1
  O  O356  1  0.24965855  0.11514936  0.74881805  1
  O  O357  1  0.26276928  0.61492351  0.24366492  1
  O  O358  1  0.25890677  0.63712346  0.76082009  1
  O  O359  1  0.75977299  0.12179685  0.26235966  1
  O  O360  1  0.75118588  0.11433571  0.75638782  1
  O  O361  1  0.75619957  0.61896343  0.25654346  1
  O  O362  1  0.76081322  0.62903247  0.76251741  1
  O  O363  1  0.36176675  0.12138492  0.38480409  1
  O  O364  1  0.37364945  0.11210106  0.87103240  1
  O  O365  1  0.37707558  0.62156798  0.36212047  1
  O  O366  1  0.36671615  0.62200457  0.87007567  1
  O  O367  1  0.86699568  0.13350047  0.36876367  1
  O  O368  1  0.86520387  0.11535402  0.88042179  1
  O  O369  1  0.87090218  0.62174034  0.36851420  1
  O  O370  1  0.87013804  0.62212387  0.86827573  1
  O  O371  1  0.13421650  0.37591108  0.12740912  1
  O  O372  1  0.13006031  0.38424441  0.62419595  1
  O  O373  1  0.12856166  0.87013565  0.14073920  1
  O  O374  1  0.13309534  0.87003323  0.63445408  1
  O  O375  1  0.62963251  0.37841474  0.14230540  1
  O  O376  1  0.63811187  0.37412478  0.62025949  1
  O  O377  1  0.63329198  0.87537590  0.13156915  1
  O  O378  1  0.63737693  0.87594590  0.62539440  1
  O  O379  1  0.12121493  0.24856957  0.26299992  1
  O  O380  1  0.11697862  0.24880390  0.76054478  1
  O  O381  1  0.12898959  0.74743112  0.26140945  1
  O  O382  1  0.12391233  0.75771383  0.75347132  1
  O  O383  1  0.61761264  0.26075875  0.26262645  1
  O  O384  1  0.61455037  0.24722584  0.75797988  1
  O  O385  1  0.62505199  0.76241102  0.25273563  1
  O  O386  1  0.61513405  0.74713205  0.75806849  1
  O  O387  1  0.38146626  0.22573853  0.26577436  1
  O  O388  1  0.38167996  0.24710160  0.74293104  1
  O  O389  1  0.37019003  0.73562718  0.24757085  1
  O  O390  1  0.37971307  0.74642127  0.74207291  1
  O  O391  1  0.87857725  0.24210001  0.24298078  1
  O  O392  1  0.89011246  0.25013202  0.74982216  1
  O  O393  1  0.87149080  0.73609482  0.24318070  1
  O  O394  1  0.87857129  0.74462532  0.73850317  1
  O  O395  1  0.38714358  0.50810291  0.49751332  1
  O  O396  1  0.36434889  0.49192954  0.98738652  1
  O  O397  1  0.38306855  0.98958422  0.50768275  1
  O  O398  1  0.38212229  0.99136897  0.99131595  1
  O  O399  1  0.88117496  0.49377318  0.49808662  1
  O  O400  1  0.88328048  0.49341695  0.99479688  1
  O  O401  1  0.88579180  0.99988765  0.49651609  1
  O  O402  1  0.88400463  0.99357361  0.98987468  1
  O  O403  1  0.12051983  0.01287876  -0.00775251  1
  O  O404  1  0.12058340  0.00794383  0.49642696  1
  O  O405  1  0.11661528  0.50664279  0.00092887  1
  O  O406  1  0.11703980  0.50753272  0.50462874  1
  O  O407  1  0.61133597  -0.00028435  0.00031379  1
  O  O408  1  0.61512389  0.01184446  0.50623344  1
  O  O409  1  0.63178299  0.50872842  0.00386368  1
  O  O410  1  0.61352078  0.50916589  0.50602114  1
  O  O411  1  0.35544037  0.38919398  0.10879445  1
  O  O412  1  0.36579334  0.36418637  0.62699544  1
  O  O413  1  0.36662071  0.87439350  0.11717926  1
  O  O414  1  0.36753906  0.86478746  0.61772494  1
  O  O415  1  0.88059633  0.36098494  0.12022689  1
  O  O416  1  0.86875001  0.37267073  0.61539469  1
  O  O417  1  0.87078061  0.87023618  0.12087889  1
  O  O418  1  0.86465799  0.86194616  0.62704114  1
  O  O419  1  0.13446902  0.12994498  0.38148044  1
  O  O420  1  0.12645490  0.13279940  0.88344009  1
  O  O421  1  0.11809065  0.63403984  0.38773963  1
  O  O422  1  0.13100081  0.63061201  0.87885864  1
  O  O423  1  0.63046414  0.13284220  0.38348554  1
  O  O424  1  0.63860466  0.13648481  0.87736968  1
  O  O425  1  0.63180662  0.62352319  0.38192035  1
  O  O426  1  0.63413803  0.63903153  0.87671758  1
