# generated using pymatgen
data_V85Zn86O256
_symmetry_space_group_name_H-M   'P 1'
_cell_length_a   16.94263174
_cell_length_b   16.92583019
_cell_length_c   16.93711193
_cell_angle_alpha   90.05736129
_cell_angle_beta   89.95533154
_cell_angle_gamma   90.06253101
_symmetry_Int_Tables_number   1
_chemical_formula_structural   V85Zn86O256
_chemical_formula_sum   'V85 Zn86 O256'
_cell_volume   4857.01674107
_cell_formula_units_Z   1
loop_
 _symmetry_equiv_pos_site_id
 _symmetry_equiv_pos_as_xyz
  1  'x, y, z'
loop_
 _atom_site_type_symbol
 _atom_site_label
 _atom_site_symmetry_multiplicity
 _atom_site_fract_x
 _atom_site_fract_y
 _atom_site_fract_z
 _atom_site_occupancy
  V  V0  1  0.37672631  0.25095869  0.12518545  1
  V  V1  1  0.24730346  0.12169418  0.87430029  1
  V  V2  1  0.62860020  0.24930967  0.37684816  1
  V  V3  1  0.12298731  0.74751795  0.37979252  1
  V  V4  1  0.25207566  0.24933909  0.00067884  1
  V  V5  1  0.00461268  0.37357915  0.37678394  1
  V  V6  1  0.87352134  0.87613329  0.50093084  1
  V  V7  1  0.13150865  0.24671818  0.37053919  1
  V  V8  1  -0.00257374  0.61953164  0.12325594  1
  V  V9  1  0.87546372  0.87261478  -0.00822748  1
  V  V10  1  0.50150374  0.37767902  0.37898221  1
  V  V11  1  0.62491113  0.75003591  0.37411167  1
  V  V12  1  0.13640411  0.38120800  0.74344729  1
  V  V13  1  0.74439791  0.61798893  0.86342981  1
  V  V14  1  0.24575212  0.62454076  0.37561668  1
  V  V15  1  0.87233592  0.49713500  0.36893589  1
  V  V16  1  -0.01389172  0.24489922  0.24729955  1
  V  V17  1  0.74982688  0.75224443  0.50176596  1
  V  V18  1  -0.00365806  -0.00360566  -0.00594159  1
  V  V19  1  0.74216129  0.88733809  0.62756720  1
  V  V20  1  -0.00160720  0.87426775  0.37319194  1
  V  V21  1  0.74930241  0.61977132  0.36871138  1
  V  V22  1  0.00004357  -0.00007936  0.49899295  1
  V  V23  1  0.50266978  0.00048178  0.50463121  1
  V  V24  1  0.60910881  0.75717362  0.87236354  1
  V  V25  1  0.87620608  0.75200358  0.63500569  1
  V  V26  1  0.50250631  0.12330689  0.12800110  1
  V  V27  1  0.12348873  0.49826535  0.11808343  1
  V  V28  1  0.61135101  0.62135643  -0.00425423  1
  V  V29  1  0.76425808  0.25629528  0.00075483  1
  V  V30  1  0.12337868  -0.00568069  0.62732855  1
  V  V31  1  0.11713574  0.74955411  0.86383727  1
  V  V32  1  -0.00097136  0.25493719  0.75175748  1
  V  V33  1  0.49983205  0.25217874  0.76464985  1
  V  V34  1  0.12780905  0.62457669  -0.00116993  1
  V  V35  1  -0.00129152  0.12418184  0.62700065  1
  V  V36  1  0.75032905  0.38763753  0.63227773  1
  V  V37  1  0.24960743  0.87617130  0.12681048  1
  V  V38  1  0.62577360  0.00064315  0.12468656  1
  V  V39  1  0.37662537  0.62765477  0.24834089  1
  V  V40  1  0.50527020  0.12720324  0.62825130  1
  V  V41  1  0.24935303  0.49820866  0.24984566  1
  V  V42  1  0.61969719  0.62241662  0.50634835  1
  V  V43  1  0.62743544  0.87598270  0.25112212  1
  V  V44  1  0.00094929  0.86881725  0.86303373  1
  V  V45  1  0.37564021  0.87150738  0.50147422  1
  V  V46  1  0.25150675  0.75565618  -0.00674274  1
  V  V47  1  0.25125885  0.24875612  0.50580834  1
  V  V48  1  0.50250559  0.25129615  0.25100865  1
  V  V49  1  0.74886202  0.74450337  -0.00602980  1
  V  V50  1  0.25136413  0.74590065  0.50148004  1
  V  V51  1  0.62914488  0.25136116  0.87826745  1
  V  V52  1  0.87080523  0.61100779  0.74595357  1
  V  V53  1  0.24576866  -0.00484749  0.75177305  1
  V  V54  1  0.13117206  0.12311060  0.49561158  1
  V  V55  1  0.62922691  0.12248785  0.50467529  1
  V  V56  1  -0.00296372  0.38399969  0.88712303  1
  V  V57  1  0.37336879  0.12341768  0.74914917  1
  V  V58  1  0.00701503  0.62988129  0.62619835  1
  V  V59  1  0.24877107  0.87132995  0.62633591  1
  V  V60  1  0.37577101  0.61969498  0.72954039  1
  V  V61  1  0.62119851  0.49912206  0.11947884  1
  V  V62  1  0.36908987  0.00722869  0.37427045  1
  V  V63  1  0.00266143  0.50527312  0.50093218  1
  V  V64  1  0.87226249  0.11948811  0.76490575  1
  V  V65  1  0.75472043  0.01124967  0.24741651  1
  V  V66  1  0.63171811  0.38462456  0.25000867  1
  V  V67  1  0.75253221  0.87231778  0.12304846  1
  V  V68  1  -0.01576817  0.12554166  0.12587868  1
  V  V69  1  0.87006892  0.24952885  0.62649049  1
  V  V70  1  0.37616128  0.49936428  0.37493337  1
  V  V71  1  0.63332464  0.12739578  -0.00156681  1
  V  V72  1  0.38974580  0.37978488  -0.00876329  1
  V  V73  1  0.87683149  0.00786708  0.36963865  1
  V  V74  1  0.37492999  0.37396678  0.50949943  1
  V  V75  1  0.12458020  0.12165168  0.00418687  1
  V  V76  1  0.25195066  0.37564202  0.12214647  1
  V  V77  1  0.74654555  0.00105185  0.76714481  1
  V  V78  1  0.12420537  0.25119113  0.87527522  1
  V  V79  1  0.37731045  0.75508425  0.12004479  1
  V  V80  1  0.62532814  0.38331937  0.75606951  1
  V  V81  1  0.76398672  0.37905626  0.12446740  1
  V  V82  1  -0.00193519  0.74807014  0.24810420  1
  V  V83  1  0.49128691  0.75040544  0.73020582  1
  V  V84  1  0.38002902  0.51306168  0.87647981  1
  Zn  Zn85  1  0.50046615  0.87733384  0.37496853  1
  Zn  Zn86  1  0.87363442  0.37510548  0.50237121  1
  Zn  Zn87  1  0.36704323  0.13022958  0.25445968  1
  Zn  Zn88  1  0.62424859  0.51173046  0.64099030  1
  Zn  Zn89  1  0.24319791  0.00492569  0.25410118  1
  Zn  Zn90  1  0.37256151  0.25424895  0.62961417  1
  Zn  Zn91  1  0.49666971  0.50660204  0.51209883  1
  Zn  Zn92  1  0.75132779  0.25095486  0.50243296  1
  Zn  Zn93  1  0.87403309  0.74603322  0.12294030  1
  Zn  Zn94  1  0.49516512  0.61962071  0.12022608  1
  Zn  Zn95  1  0.49931230  -0.01292809  -0.00881016  1
  Zn  Zn96  1  0.60682142  0.88877160  0.75086127  1
  Zn  Zn97  1  0.12402212  0.37146361  0.24695420  1
  Zn  Zn98  1  0.75540367  0.12961569  0.37375435  1
  Zn  Zn99  1  0.12455800  0.87625285  0.24941332  1
  Zn  Zn100  1  0.38459443  -0.01903724  0.87698662  1
  Zn  Zn101  1  0.50010009  0.75035443  0.24945280  1
  Zn  Zn102  1  0.86719582  0.49040489  0.88451026  1
  Zn  Zn103  1  0.12239019  -0.00303937  0.12650198  1
  Zn  Zn104  1  0.24627929  0.61571789  0.86457984  1
  Zn  Zn105  1  0.87029571  0.62114653  0.24749589  1
  Zn  Zn106  1  0.13310244  0.50559912  0.62949638  1
  Zn  Zn107  1  0.18528324  0.18344192  0.18891384  1
  Zn  Zn108  1  0.18508431  0.18687796  0.68535985  1
  Zn  Zn109  1  0.18751827  0.68940996  0.18795134  1
  Zn  Zn110  1  0.19122015  0.68635892  0.68764906  1
  Zn  Zn111  1  0.69187867  0.19440869  0.18484802  1
  Zn  Zn112  1  0.68852997  0.18634600  0.69249641  1
  Zn  Zn113  1  0.68643136  0.68560162  0.18464569  1
  Zn  Zn114  1  0.68658171  0.69702423  0.68948454  1
  Zn  Zn115  1  0.31172170  0.31129478  0.31478447  1
  Zn  Zn116  1  0.31375587  0.31117807  0.81509015  1
  Zn  Zn117  1  0.31333227  0.81635678  0.31218322  1
  Zn  Zn118  1  0.30841976  0.80303667  0.80591612  1
  Zn  Zn119  1  0.81206738  0.31641521  0.31142122  1
  Zn  Zn120  1  0.81237700  0.31324924  0.81477777  1
  Zn  Zn121  1  0.81269198  0.81354664  0.31231208  1
  Zn  Zn122  1  0.80823632  0.81038067  0.81401716  1
  Zn  Zn123  1  0.20075462  0.45066600  0.46786392  1
  Zn  Zn124  1  0.19131439  0.43736406  0.93311100  1
  Zn  Zn125  1  0.18741565  0.93386364  0.43696428  1
  Zn  Zn126  1  0.18695391  0.93278133  0.93578166  1
  Zn  Zn127  1  0.69126596  0.43716635  0.44341672  1
  Zn  Zn128  1  0.68407507  0.43574454  0.93925292  1
  Zn  Zn129  1  0.68921511  0.94128377  0.43640435  1
  Zn  Zn130  1  0.68149286  0.93417351  0.93807705  1
  Zn  Zn131  1  0.31700251  0.06026389  0.06394864  1
  Zn  Zn132  1  0.31341830  0.06218847  0.56303734  1
  Zn  Zn133  1  0.31344267  0.56365817  0.05709080  1
  Zn  Zn134  1  0.30890866  0.55794737  0.56171460  1
  Zn  Zn135  1  0.81161175  0.05884980  0.05308827  1
  Zn  Zn136  1  0.81321491  0.06455920  0.56375571  1
  Zn  Zn137  1  0.80920601  0.55776249  0.05861437  1
  Zn  Zn138  1  0.81326373  0.56391578  0.55629130  1
  Zn  Zn139  1  0.43919864  0.43672327  0.18777154  1
  Zn  Zn140  1  0.44494065  0.44152689  0.69198041  1
  Zn  Zn141  1  0.43966800  0.93645186  0.18625209  1
  Zn  Zn142  1  0.43281038  0.93802769  0.68635616  1
  Zn  Zn143  1  0.94233008  0.43764091  0.19115489  1
  Zn  Zn144  1  0.94184270  0.43840320  0.68910741  1
  Zn  Zn145  1  0.93726115  0.93593066  0.18237094  1
  Zn  Zn146  1  0.93185150  0.93897964  0.68827867  1
  Zn  Zn147  1  0.06311732  0.06405302  0.30833488  1
  Zn  Zn148  1  0.06059734  0.05959865  0.81407673  1
  Zn  Zn149  1  0.06355466  0.55946600  0.31001200  1
  Zn  Zn150  1  0.05916760  0.56349810  0.80780138  1
  Zn  Zn151  1  0.56190828  0.06208220  0.31573281  1
  Zn  Zn152  1  0.56552340  0.06619899  0.81782088  1
  Zn  Zn153  1  0.56227246  0.56171868  0.31352631  1
  Zn  Zn154  1  0.54982447  0.56540470  0.81734111  1
  Zn  Zn155  1  0.44082051  0.18784077  0.43971419  1
  Zn  Zn156  1  0.43020456  0.15580220  0.94760967  1
  Zn  Zn157  1  0.43776547  0.68984446  0.43655088  1
  Zn  Zn158  1  0.43312520  0.81763786  0.93985782  1
  Zn  Zn159  1  0.94087834  0.18878338  0.43962319  1
  Zn  Zn160  1  0.94094208  0.18950432  0.93881465  1
  Zn  Zn161  1  0.93401819  0.68611793  0.44025522  1
  Zn  Zn162  1  0.92248569  0.65419683  0.94931628  1
  Zn  Zn163  1  0.06103015  0.30837510  0.06528996  1
  Zn  Zn164  1  0.06085348  0.31262766  0.56185156  1
  Zn  Zn165  1  0.06396760  0.80938766  0.05990303  1
  Zn  Zn166  1  0.06242210  0.81007963  0.56191766  1
  Zn  Zn167  1  0.56705933  0.31078317  0.06406569  1
  Zn  Zn168  1  0.56417638  0.31340337  0.56880991  1
  Zn  Zn169  1  0.56458361  0.80713652  0.06724074  1
  Zn  Zn170  1  0.56548485  0.81484367  0.56322636  1
  O  O171  1  0.11604108  0.12469333  0.11177724  1
  O  O172  1  0.11869203  0.11448777  0.61793632  1
  O  O173  1  0.12274576  0.61711862  0.12037794  1
  O  O174  1  0.11123245  0.62560482  0.63099376  1
  O  O175  1  0.62304113  0.12000721  0.12376760  1
  O  O176  1  0.61815131  0.12945161  0.61749770  1
  O  O177  1  0.62540752  0.61632143  0.11559707  1
  O  O178  1  0.63538252  0.62825541  0.60898487  1
  O  O179  1  0.38598982  0.37824509  0.37863697  1
  O  O180  1  0.37285601  0.37507278  0.88923831  1
  O  O181  1  0.37860296  0.88368436  0.38551053  1
  O  O182  1  0.35603755  0.87144992  0.87944488  1
  O  O183  1  0.88416408  0.38012293  0.37730404  1
  O  O184  1  0.89060669  0.37580731  0.87245362  1
  O  O185  1  0.87900448  0.88331119  0.38147479  1
  O  O186  1  0.88373202  0.86236442  0.88540203  1
  O  O187  1  0.26577949  -0.00411145  0.37797510  1
  O  O188  1  0.24566022  0.00475270  0.86524588  1
  O  O189  1  0.25443608  0.50810027  0.37267518  1
  O  O190  1  0.26738574  0.49892267  0.87754977  1
  O  O191  1  0.75900008  0.00224592  0.36507661  1
  O  O192  1  0.75098099  -0.00371328  0.86591269  1
  O  O193  1  0.75842385  0.50750527  0.38015212  1
  O  O194  1  0.74756748  0.51441517  0.87982873  1
  O  O195  1  0.24655895  0.49242146  0.12820380  1
  O  O196  1  0.22912122  0.48507080  0.57692709  1
  O  O197  1  0.25343825  0.98450149  0.11979919  1
  O  O198  1  0.24189149  0.99352487  0.62907685  1
  O  O199  1  0.73998380  0.48730135  0.11899077  1
  O  O200  1  0.74633732  0.49067377  0.62227548  1
  O  O201  1  0.74693728  0.99312211  0.13057586  1
  O  O202  1  0.75847618  0.99038620  0.63276814  1
  O  O203  1  0.00292300  0.36398472  0.25735016  1
  O  O204  1  0.00501150  0.36435016  0.75728837  1
  O  O205  1  -0.00117344  0.86538562  0.25534658  1
  O  O206  1  -0.00642434  0.87998994  0.76391871  1
  O  O207  1  0.50805665  0.37140555  0.26158184  1
  O  O208  1  0.51013461  0.35985560  0.74689661  1
  O  O209  1  0.51623006  0.87563915  0.25165194  1
  O  O210  1  0.49398703  0.85919949  0.74170554  1
  O  O211  1  0.50290294  0.13172709  0.24163916  1
  O  O212  1  0.49325073  0.12880033  0.74376873  1
  O  O213  1  0.48585686  0.62442174  0.25157415  1
  O  O214  1  0.48583799  0.63702914  0.75187775  1
  O  O215  1  1.00144369  0.13282125  0.23842566  1
  O  O216  1  0.99135291  0.13086783  0.74767036  1
  O  O217  1  1.00091654  0.63050865  0.23983405  1
  O  O218  1  0.98633503  0.62151880  0.73768494  1
  O  O219  1  0.36976558  0.25358982  0.00584783  1
  O  O220  1  0.36839851  0.25336139  0.50101961  1
  O  O221  1  0.36383384  0.74643494  0.01050502  1
  O  O222  1  0.36630249  0.76027781  0.49313311  1
  O  O223  1  0.86279668  0.24708938  -0.00131387  1
  O  O224  1  0.87488421  0.25104493  0.51205010  1
  O  O225  1  0.86361466  0.74947370  -0.00038548  1
  O  O226  1  0.86667090  0.75741119  0.50580318  1
  O  O227  1  0.13074680  0.24304634  0.49526714  1
  O  O228  1  0.13060231  0.24210816  0.99522400  1
  O  O229  1  0.13274788  0.75218714  0.48666591  1
  O  O230  1  0.13340789  0.74194596  0.99340781  1
  O  O231  1  0.62504755  0.24121044  0.49331670  1
  O  O232  1  0.63494302  0.24769595  0.99544679  1
  O  O233  1  0.62994157  0.74390657  0.49274907  1
  O  O234  1  0.62863251  0.74504970  0.98748495  1
  O  O235  1  0.49847849  0.24649841  0.13438305  1
  O  O236  1  0.49859940  0.23783705  0.63294043  1
  O  O237  1  0.49065165  0.74243462  0.13063127  1
  O  O238  1  0.50264423  0.74618195  0.63211743  1
  O  O239  1  1.00085449  0.24098047  0.13566927  1
  O  O240  1  0.99065546  0.24660168  0.63441809  1
  O  O241  1  1.00023899  0.74248938  0.13419617  1
  O  O242  1  0.98917086  0.74238075  0.61747495  1
  O  O243  1  0.00708922  0.25503193  0.37001791  1
  O  O244  1  0.00564516  0.25636743  0.86816876  1
  O  O245  1  0.00556004  0.75064795  0.37116613  1
  O  O246  1  0.01280592  0.75383770  0.88147305  1
  O  O247  1  0.51146726  0.25558507  0.37111664  1
  O  O248  1  0.50599465  0.23755187  0.86694415  1
  O  O249  1  0.51343840  0.75392019  0.37222405  1
  O  O250  1  0.50818320  0.75162554  0.87177759  1
  O  O251  1  0.23853318  0.12893233  0.50212165  1
  O  O252  1  0.24091472  0.12911936  0.99716167  1
  O  O253  1  0.25739540  0.63870077  0.48942217  1
  O  O254  1  0.23932772  0.63489076  1.00096016  1
  O  O255  1  0.74213858  0.12781507  0.49838750  1
  O  O256  1  0.74103194  0.14011848  1.01104639  1
  O  O257  1  0.74230150  0.63238444  0.48893026  1
  O  O258  1  0.73820544  0.63612340  0.99183011  1
  O  O259  1  0.25617227  0.36901578  0.00975746  1
  O  O260  1  0.26639957  0.35846826  0.48424658  1
  O  O261  1  0.24318103  0.86157439  0.00803659  1
  O  O262  1  0.25593058  0.86657636  0.50452656  1
  O  O263  1  0.75022078  0.36676931  0.01042459  1
  O  O264  1  0.75214160  0.37005004  0.51448089  1
  O  O265  1  0.75526813  0.86439001  -0.00022670  1
  O  O266  1  0.75235815  0.87418350  0.50898121  1
  O  O267  1  0.13332467  0.49637140  0.23887929  1
  O  O268  1  0.12570003  0.48655637  0.74804751  1
  O  O269  1  0.12518327  0.99494735  0.24488639  1
  O  O270  1  0.13500043  1.00549966  0.74025632  1
  O  O271  1  0.62529142  0.48918585  0.24661506  1
  O  O272  1  0.61856085  0.48690340  0.75958000  1
  O  O273  1  0.63378475  0.99381557  0.24763229  1
  O  O274  1  0.64185081  1.00367755  0.75259091  1
  O  O275  1  0.38081369  -0.00163655  0.26802278  1
  O  O276  1  0.36165783  0.00694136  0.74993931  1
  O  O277  1  0.36900575  0.50572565  0.25462463  1
  O  O278  1  0.37933845  0.51311221  0.75733638  1
  O  O279  1  0.86643122  -0.00806033  0.25770905  1
  O  O280  1  0.86848541  0.01355705  0.75026207  1
  O  O281  1  0.87910243  0.50187771  0.26434750  1
  O  O282  1  0.87464476  0.50866012  0.75605960  1
  O  O283  1  0.11302945  0.36614758  0.37552393  1
  O  O284  1  0.11777926  0.36962326  0.86591132  1
  O  O285  1  0.11663548  0.86563205  0.37374271  1
  O  O286  1  0.11660755  0.85902973  0.87812030  1
  O  O287  1  0.62207533  0.37107239  0.37133014  1
  O  O288  1  0.62748010  0.36187299  0.87062949  1
  O  O289  1  0.62713442  0.86811569  0.36888705  1
  O  O290  1  0.62890054  0.86014671  0.86698506  1
  O  O291  1  0.38760089  0.13398342  0.12799280  1
  O  O292  1  0.38054502  0.12699726  0.63516501  1
  O  O293  1  0.37285594  0.63255573  0.13204944  1
  O  O294  1  0.37764846  0.61616828  0.63034666  1
  O  O295  1  0.88533660  0.11968056  0.11822759  1
  O  O296  1  0.88137037  0.13188104  0.63305702  1
  O  O297  1  0.88345405  0.62521616  0.12945535  1
  O  O298  1  0.87546742  0.63225365  0.63055316  1
  O  O299  1  0.25466102  0.25812932  0.12101934  1
  O  O300  1  0.25061865  0.24646632  0.61045444  1
  O  O301  1  0.25520191  0.75824730  0.12022998  1
  O  O302  1  0.24087816  0.75925230  0.61328056  1
  O  O303  1  0.74795314  0.26625555  0.11415859  1
  O  O304  1  0.76180922  0.25305607  0.62915205  1
  O  O305  1  0.74835232  0.75475028  0.11344338  1
  O  O306  1  0.75676735  0.76189773  0.62019253  1
  O  O307  1  0.23620327  0.24949644  0.37996609  1
  O  O308  1  0.24250322  0.24252785  0.88077688  1
  O  O309  1  0.24235609  0.74544832  0.37839096  1
  O  O310  1  0.23710250  0.74269592  0.88097035  1
  O  O311  1  0.73973136  0.25073104  0.37639688  1
  O  O312  1  0.74515718  0.25551336  0.89140912  1
  O  O313  1  0.74100068  0.74654946  0.38048876  1
  O  O314  1  0.73632943  0.74202626  0.87733283  1
  O  O315  1  0.00514056  0.11702178  0.00275595  1
  O  O316  1  0.00881567  0.11923227  0.50813716  1
  O  O317  1  0.01714579  0.63510441  0.01667362  1
  O  O318  1  -0.01044025  0.61754197  0.51315924  1
  O  O319  1  0.52025895  0.13652760  0.01814972  1
  O  O320  1  0.50746057  0.12046805  0.50851389  1
  O  O321  1  0.51285335  0.62767539  0.00071810  1
  O  O322  1  0.51620438  0.62725037  0.49365252  1
  O  O323  1  0.49543305  0.36909323  0.48927898  1
  O  O324  1  0.48688992  0.36864590  1.00417891  1
  O  O325  1  0.49411906  0.88303861  0.50221271  1
  O  O326  1  0.49961922  0.87492797  1.00905557  1
  O  O327  1  0.99607035  0.38093863  0.49314067  1
  O  O328  1  1.00648018  0.36992457  0.98541922  1
  O  O329  1  0.99492046  0.88114349  0.49322206  1
  O  O330  1  0.99279696  0.87867776  0.99527897  1
  O  O331  1  0.49567288  0.49144864  0.37909614  1
  O  O332  1  0.48063164  0.49515883  0.87540288  1
  O  O333  1  0.49380776  0.99886760  0.38863636  1
  O  O334  1  0.49827319  1.00088723  0.87506701  1
  O  O335  1  0.99325419  0.49179166  0.37614070  1
  O  O336  1  1.00305976  0.48524623  0.87268067  1
  O  O337  1  0.99359372  0.99493515  0.37778518  1
  O  O338  1  1.00729231  0.98764016  0.88694109  1
  O  O339  1  0.00023558  0.00504269  0.11224894  1
  O  O340  1  0.00620659  0.00206783  0.62096647  1
  O  O341  1  0.01196808  0.50635738  0.12951891  1
  O  O342  1  0.00317658  0.50728148  0.61680243  1
  O  O343  1  0.50750584  0.00947752  0.12509578  1
  O  O344  1  0.49348537  0.01142659  0.61392225  1
  O  O345  1  0.51497408  0.50089668  0.13082110  1
  O  O346  1  0.51454329  0.49247218  0.62155517  1
  O  O347  1  0.25043999  0.37881630  0.23850104  1
  O  O348  1  0.23424737  0.36449943  0.75123829  1
  O  O349  1  0.24722782  0.87908487  0.24154408  1
  O  O350  1  0.25202449  0.88019875  0.73429388  1
  O  O351  1  0.74364628  0.37049414  0.23595470  1
  O  O352  1  0.74011418  0.37001216  0.74435986  1
  O  O353  1  0.74227587  0.88084123  0.24570991  1
  O  O354  1  0.75496958  0.89042626  0.74574762  1
  O  O355  1  0.25525051  0.11728586  0.24249844  1
  O  O356  1  0.25432193  0.11717448  0.75026859  1
  O  O357  1  0.25921590  0.62074476  0.25538702  1
  O  O358  1  0.27017498  0.63027873  0.74820275  1
  O  O359  1  0.74731555  0.11445777  0.24986886  1
  O  O360  1  0.76233524  0.11381568  0.74841491  1
  O  O361  1  0.74958940  0.63083181  0.26425844  1
  O  O362  1  0.75236257  0.62692237  0.75300369  1
  O  O363  1  0.38163590  0.11124189  0.37584477  1
  O  O364  1  0.36220151  0.13320904  0.85655207  1
  O  O365  1  0.36614479  0.62220806  0.36815264  1
  O  O366  1  0.37197891  0.61364627  0.87699864  1
  O  O367  1  0.87580583  0.11182706  0.38065122  1
  O  O368  1  0.87907197  0.12704568  0.86303776  1
  O  O369  1  0.86606417  0.61736356  0.37422594  1
  O  O370  1  0.85873559  0.63920332  0.85378755  1
  O  O371  1  0.13339977  0.38123569  0.12367977  1
  O  O372  1  0.11709720  0.37185630  0.64219122  1
  O  O373  1  0.13451618  0.87337806  0.12689095  1
  O  O374  1  0.13129616  0.88727292  0.61637453  1
  O  O375  1  0.63042860  0.38104454  0.13313092  1
  O  O376  1  0.63661767  0.37109706  0.63806880  1
  O  O377  1  0.63340893  0.87951277  0.13313052  1
  O  O378  1  0.63715315  0.87150832  0.63332966  1
  O  O379  1  0.11705979  0.25018302  0.25832324  1
  O  O380  1  0.11494354  0.25174291  0.75475972  1
  O  O381  1  0.11410906  0.74972262  0.26059320  1
  O  O382  1  0.12611989  0.74350331  0.76497293  1
  O  O383  1  0.62201990  0.26041709  0.25753466  1
  O  O384  1  0.62027975  0.25177455  0.76111723  1
  O  O385  1  0.62628680  0.75757981  0.25691176  1
  O  O386  1  0.60806388  0.74902233  0.75836826  1
  O  O387  1  0.38474900  0.25169368  0.24535634  1
  O  O388  1  0.38311716  0.24508167  0.74831899  1
  O  O389  1  0.37527406  0.74258302  0.24480696  1
  O  O390  1  0.38453065  0.73763920  0.74586892  1
  O  O391  1  0.88717677  0.24771774  0.25841089  1
  O  O392  1  0.88069061  0.23984230  0.74744422  1
  O  O393  1  0.88709639  0.74705228  0.25103353  1
  O  O394  1  0.86902293  0.74707444  0.73652715  1
  O  O395  1  0.37968927  0.49068741  0.49064135  1
  O  O396  1  0.37497436  0.48761601  0.99402533  1
  O  O397  1  0.38132528  0.99616542  0.49174924  1
  O  O398  1  0.39178456  1.04102318  0.98302307  1
  O  O399  1  0.88325027  0.49765289  0.48899381  1
  O  O400  1  0.88641296  0.54585709  0.98102191  1
  O  O401  1  0.88086858  0.99545635  0.49377874  1
  O  O402  1  0.88218528  0.98601533  0.99796842  1
  O  O403  1  0.11831481  0.00635560  0.00152763  1
  O  O404  1  0.12100349  0.00616018  0.50347029  1
  O  O405  1  0.13328171  0.50713225  0.01022876  1
  O  O406  1  0.10224140  0.50536673  0.48500234  1
  O  O407  1  0.62821428  0.01013024  0.00699283  1
  O  O408  1  0.61744193  0.01216683  0.49514710  1
  O  O409  1  0.62583648  0.50779050  0.00707591  1
  O  O410  1  0.62573616  0.51751955  0.49598892  1
  O  O411  1  0.36995193  0.37184400  0.11676677  1
  O  O412  1  0.38123862  0.37398145  0.61244715  1
  O  O413  1  0.36837230  0.86246469  0.13273044  1
  O  O414  1  0.36266166  0.88284479  0.60984140  1
  O  O415  1  0.86282540  0.38482028  0.12735469  1
  O  O416  1  0.86796714  0.36795632  0.63039547  1
  O  O417  1  0.86958137  0.86861400  0.11195007  1
  O  O418  1  0.86988824  0.86913125  0.61904775  1
  O  O419  1  0.11578657  0.13349116  0.38604901  1
  O  O420  1  0.12695058  0.12963703  0.88441734  1
  O  O421  1  0.13821057  0.63095952  0.36737481  1
  O  O422  1  0.12358572  0.62963945  0.88158549  1
  O  O423  1  0.62683733  0.13433057  0.38241721  1
  O  O424  1  0.62828069  0.13807991  0.88647703  1
  O  O425  1  0.63059406  0.63235347  0.37981378  1
  O  O426  1  0.62627809  0.63345920  0.87726169  1
