# generated using pymatgen
data_V85Zn86O256
_symmetry_space_group_name_H-M   'P 1'
_cell_length_a   16.95738434
_cell_length_b   16.95441849
_cell_length_c   16.95530020
_cell_angle_alpha   89.96817095
_cell_angle_beta   90.05391521
_cell_angle_gamma   90.05934909
_symmetry_Int_Tables_number   1
_chemical_formula_structural   V85Zn86O256
_chemical_formula_sum   'V85 Zn86 O256'
_cell_volume   4874.68720955
_cell_formula_units_Z   1
loop_
 _symmetry_equiv_pos_site_id
 _symmetry_equiv_pos_as_xyz
  1  'x, y, z'
loop_
 _atom_site_type_symbol
 _atom_site_label
 _atom_site_symmetry_multiplicity
 _atom_site_fract_x
 _atom_site_fract_y
 _atom_site_fract_z
 _atom_site_occupancy
  V  V0  1  0.63573952  0.25566590  0.87003485  1
  V  V1  1  0.37074295  0.24881796  0.12043440  1
  V  V2  1  0.62822826  -0.00674675  0.13207095  1
  V  V3  1  0.87139404  0.00337683  0.36267176  1
  V  V4  1  0.62272876  0.62483100  0.50056422  1
  V  V5  1  0.37821251  0.74987734  0.63450645  1
  V  V6  1  0.74932972  0.62672619  0.87424928  1
  V  V7  1  0.00212358  0.86957824  0.37576534  1
  V  V8  1  0.37814287  0.24133378  0.62564287  1
  V  V9  1  0.51296401  0.00763529  0.50510357  1
  V  V10  1  0.62413124  0.61959743  0.00404539  1
  V  V11  1  0.50072482  0.62618200  0.63522122  1
  V  V12  1  0.00324273  0.00118260  0.50280575  1
  V  V13  1  0.50947842  0.87551583  0.37334364  1
  V  V14  1  0.01263692  0.37682354  0.36392759  1
  V  V15  1  0.86666810  0.37517842  0.50152293  1
  V  V16  1  0.37875957  0.87736230  -0.01745280  1
  V  V17  1  -0.00594126  0.00770991  0.00257921  1
  V  V18  1  0.62740499  0.25013662  0.37976639  1
  V  V19  1  0.24735795  0.61961174  0.86668997  1
  V  V20  1  0.25053859  0.75057817  0.50236365  1
  V  V21  1  0.37120711  0.49647475  0.86846447  1
  V  V22  1  0.25326605  0.74837047  0.00328392  1
  V  V23  1  0.50773389  0.37912642  0.86803222  1
  V  V24  1  0.07449841  0.20620192  0.31992953  1
  V  V25  1  0.74414418  0.87345831  0.14196324  1
  V  V26  1  0.24205566  0.49731834  0.24757863  1
  V  V27  1  0.87293971  0.25526659  0.62739929  1
  V  V28  1  0.37935101  0.12273173  0.24887785  1
  V  V29  1  0.74958937  0.48879759  0.74918087  1
  V  V30  1  0.87661487  0.74839502  0.62475744  1
  V  V31  1  -0.00184809  0.75289377  0.75158803  1
  V  V32  1  0.13081810  0.49362977  0.63999683  1
  V  V33  1  0.25064535  0.37507670  0.64692777  1
  V  V34  1  0.74643283  0.38207395  0.12321949  1
  V  V35  1  0.12440215  0.12799158  0.00532846  1
  V  V36  1  0.00111687  0.74628694  0.24674987  1
  V  V37  1  0.12388920  0.13161108  0.50390927  1
  V  V38  1  0.26239336  0.87201750  0.12590947  1
  V  V39  1  0.37661959  0.87660405  0.50326025  1
  V  V40  1  0.12323153  0.24427512  0.87025341  1
  V  V41  1  0.87465335  0.62440580  0.75158770  1
  V  V42  1  0.49759653  0.50214409  0.50221018  1
  V  V43  1  0.62163111  0.38610423  0.24396487  1
  V  V44  1  0.87233988  0.74868031  0.12338673  1
  V  V45  1  -0.00135456  0.61561871  0.11973961  1
  V  V46  1  0.86972355  0.87698545  -0.00101471  1
  V  V47  1  0.49866214  0.62137721  0.12415878  1
  V  V48  1  -0.00491607  0.87884354  0.87606959  1
  V  V49  1  0.12630840  0.62301147  0.50294338  1
  V  V50  1  0.86290132  0.12218111  0.75105899  1
  V  V51  1  0.49623525  0.37821043  0.37305817  1
  V  V52  1  0.12356240  0.61425715  0.00040169  1
  V  V53  1  0.12635380  0.88535336  0.75227442  1
  V  V54  1  0.25366992  0.12840340  0.37404213  1
  V  V55  1  0.88294812  0.23778708  0.14196878  1
  V  V56  1  0.24876631  0.25122345  0.49992072  1
  V  V57  1  0.12281429  0.75112194  0.87734529  1
  V  V58  1  0.37866634  -0.00191035  0.37617890  1
  V  V59  1  0.27600151  0.02245547  0.75798194  1
  V  V60  1  0.85372987  0.00466884  0.87381594  1
  V  V61  1  0.37356650  0.37390877  -0.00200568  1
  V  V62  1  0.00212335  0.62223722  0.62678084  1
  V  V63  1  0.37229181  0.62951906  0.24258555  1
  V  V64  1  0.87478145  0.87756829  0.50161431  1
  V  V65  1  0.62908306  0.48851237  0.62938323  1
  V  V66  1  0.49972583  0.25417215  0.24734346  1
  V  V67  1  0.50434966  0.24458182  0.74946510  1
  V  V68  1  0.24342551  0.37152577  0.12463934  1
  V  V69  1  0.61980324  0.88791932  0.74035717  1
  V  V70  1  0.00233402  0.49409498  0.50227732  1
  V  V71  1  0.50163702  0.75391917  0.24538503  1
  V  V72  1  0.12578170  0.74918626  0.37691772  1
  V  V73  1  0.36969132  0.37730164  0.50137708  1
  V  V74  1  0.75047632  0.61969807  0.37447609  1
  V  V75  1  0.75497310  0.24718227  0.00132049  1
  V  V76  1  0.88589257  0.37902219  0.00604104  1
  V  V77  1  0.63132164  0.12357625  -0.00568585  1
  V  V78  1  0.50425855  0.12374190  0.12060143  1
  V  V79  1  0.37144054  0.50309976  0.37384507  1
  V  V80  1  0.74929182  0.74873937  0.50154571  1
  V  V81  1  0.00474652  0.38198313  0.87017839  1
  V  V82  1  0.74232488  0.75807197  -0.00246456  1
  V  V83  1  0.60684975  0.74921771  0.85966796  1
  V  V84  1  0.12218084  -0.00372174  0.12417695  1
  Zn  Zn85  1  0.87267662  0.62184930  0.24922616  1
  Zn  Zn86  1  0.74620509  0.50554492  0.24301942  1
  Zn  Zn87  1  0.13095283  0.86908338  0.24663522  1
  Zn  Zn88  1  0.37361188  0.62286816  0.75141245  1
  Zn  Zn89  1  0.28466554  0.18204605  -0.06084530  1
  Zn  Zn90  1  0.49171217  -0.00146492  -0.01147242  1
  Zn  Zn91  1  0.66551408  0.03790794  0.63517163  1
  Zn  Zn92  1  0.50784120  0.12300642  0.62716358  1
  Zn  Zn93  1  0.87621847  0.49829383  0.37171722  1
  Zn  Zn94  1  0.12945782  0.00325242  0.62968662  1
  Zn  Zn95  1  0.25080325  -0.00489148  0.25110747  1
  Zn  Zn96  1  0.76070498  0.12965545  0.36602451  1
  Zn  Zn97  1  0.00054824  0.12774299  0.63119676  1
  Zn  Zn98  1  0.62714293  0.75413723  0.37156016  1
  Zn  Zn99  1  0.24994293  0.62489369  0.37392521  1
  Zn  Zn100  1  0.50338280  0.49700217  0.00330236  1
  Zn  Zn101  1  0.75057983  0.88175787  0.63002526  1
  Zn  Zn102  1  0.00000507  0.24911131  0.75002879  1
  Zn  Zn103  1  0.87835182  0.50219636  0.88060220  1
  Zn  Zn104  1  0.25130478  0.87967114  0.63095537  1
  Zn  Zn105  1  0.74112620  0.24643550  0.50969234  1
  Zn  Zn106  1  0.11797542  0.49031888  0.12516488  1
  Zn  Zn107  1  0.19106030  0.17966844  0.18197053  1
  Zn  Zn108  1  0.18894842  0.18853255  0.68833426  1
  Zn  Zn109  1  0.18657426  0.68583255  0.18452051  1
  Zn  Zn110  1  0.18508580  0.69227513  0.68835165  1
  Zn  Zn111  1  0.69548482  0.19626885  0.18901380  1
  Zn  Zn112  1  0.68907077  0.20163879  0.68800005  1
  Zn  Zn113  1  0.68203246  0.68921394  0.18757607  1
  Zn  Zn114  1  0.68950389  0.68398006  0.68535116  1
  Zn  Zn115  1  0.30832708  0.31162234  0.30903457  1
  Zn  Zn116  1  0.32262772  0.28849550  0.81944766  1
  Zn  Zn117  1  0.31623135  0.81087507  0.31399670  1
  Zn  Zn118  1  0.30746160  0.81016921  0.81341709  1
  Zn  Zn119  1  0.81267314  0.32208717  0.31319470  1
  Zn  Zn120  1  0.82013636  0.31101024  0.81693846  1
  Zn  Zn121  1  0.81643072  0.80670750  0.31652934  1
  Zn  Zn122  1  0.80522121  0.81605071  0.81209581  1
  Zn  Zn123  1  0.18653325  0.43886301  0.43968505  1
  Zn  Zn124  1  0.19044139  0.43164387  0.93634996  1
  Zn  Zn125  1  0.18937927  0.93842253  0.43901724  1
  Zn  Zn126  1  0.19005866  0.94270652  0.93466549  1
  Zn  Zn127  1  0.68334360  0.43649827  0.43734781  1
  Zn  Zn128  1  0.69288229  0.43854761  0.93908651  1
  Zn  Zn129  1  0.69218132  0.94025497  0.44015532  1
  Zn  Zn130  1  0.65105387  0.95017744  0.91772324  1
  Zn  Zn131  1  0.31405065  0.05178434  0.06461399  1
  Zn  Zn132  1  0.31063951  0.06014806  0.56750358  1
  Zn  Zn133  1  0.31272513  0.55854841  0.05966060  1
  Zn  Zn134  1  0.30972386  0.56183667  0.56742130  1
  Zn  Zn135  1  0.80739993  0.06155269  0.07012036  1
  Zn  Zn136  1  0.81666588  0.07179899  0.55277246  1
  Zn  Zn137  1  0.81081426  0.56270429  0.06050941  1
  Zn  Zn138  1  0.81272341  0.55865030  0.56337697  1
  Zn  Zn139  1  0.43207423  0.44177919  0.18530098  1
  Zn  Zn140  1  0.43824019  0.43490693  0.68910790  1
  Zn  Zn141  1  0.44418411  0.93940047  0.18463762  1
  Zn  Zn142  1  0.44301108  0.93551194  0.69177180  1
  Zn  Zn143  1  0.93107048  0.43700608  0.18992853  1
  Zn  Zn144  1  0.93598312  0.43775718  0.68928895  1
  Zn  Zn145  1  0.93971197  0.93005623  0.18378446  1
  Zn  Zn146  1  0.93304068  0.94299685  0.68787318  1
  Zn  Zn147  1  0.06089555  0.04398248  0.31074249  1
  Zn  Zn148  1  0.05304666  0.06639403  0.81744581  1
  Zn  Zn149  1  0.06263086  0.56334308  0.31318560  1
  Zn  Zn150  1  0.06101873  0.56146395  0.81535814  1
  Zn  Zn151  1  0.60381347  0.08545331  0.28840977  1
  Zn  Zn152  1  0.56488749  0.06631805  0.81301710  1
  Zn  Zn153  1  0.56024682  0.56609634  0.31331747  1
  Zn  Zn154  1  0.56533998  0.56023035  0.81397594  1
  Zn  Zn155  1  0.44039956  0.18904505  0.43678123  1
  Zn  Zn156  1  0.45073476  0.19167270  0.93465041  1
  Zn  Zn157  1  0.43673872  0.68937478  0.43674278  1
  Zn  Zn158  1  0.43246882  0.68585608  0.94039853  1
  Zn  Zn159  1  0.92806825  0.18584264  0.43959059  1
  Zn  Zn160  1  0.93448197  0.18851031  0.93608025  1
  Zn  Zn161  1  0.93678188  0.68358236  0.43813310  1
  Zn  Zn162  1  0.93593782  0.68860455  0.94011814  1
  Zn  Zn163  1  0.05782818  0.30583932  0.06726033  1
  Zn  Zn164  1  0.06179923  0.31372128  0.56629584  1
  Zn  Zn165  1  0.06359628  0.81272267  0.06040773  1
  Zn  Zn166  1  0.06415220  0.81491169  0.56699734  1
  Zn  Zn167  1  0.56317860  0.31253866  0.05914876  1
  Zn  Zn168  1  0.55916266  0.31400744  0.56235351  1
  Zn  Zn169  1  0.55873432  0.80667820  0.06133098  1
  Zn  Zn170  1  0.56079761  0.81295773  0.56496130  1
  O  O171  1  0.12726556  0.10668808  0.12004002  1
  O  O172  1  0.12223055  0.12293094  0.61765552  1
  O  O173  1  0.11596797  0.62348021  0.11578800  1
  O  O174  1  0.12073239  0.61874351  0.62171757  1
  O  O175  1  0.61873340  0.11931972  0.11980418  1
  O  O176  1  0.62160419  0.13725953  0.62498338  1
  O  O177  1  0.61547014  0.63019309  0.11423841  1
  O  O178  1  0.61786275  0.62059279  0.61451734  1
  O  O179  1  0.37713928  0.38254731  0.38017354  1
  O  O180  1  0.38222915  0.37831278  0.88224354  1
  O  O181  1  0.37978645  0.88115906  0.38438481  1
  O  O182  1  0.37450029  0.86953908  0.88384676  1
  O  O183  1  0.88733089  0.37705218  0.38543912  1
  O  O184  1  0.88828510  0.37456197  0.88931402  1
  O  O185  1  0.88288738  0.87482107  0.38572199  1
  O  O186  1  0.87579697  0.88148595  0.87965880  1
  O  O187  1  0.26086042  0.00879457  0.37559442  1
  O  O188  1  0.24627578  -0.00184986  0.85290927  1
  O  O189  1  0.25456441  0.50070413  0.36700973  1
  O  O190  1  0.25690735  0.50759950  0.88014352  1
  O  O191  1  0.76922770  -0.00464863  0.37620444  1
  O  O192  1  0.75567099  -0.00744054  0.88234239  1
  O  O193  1  0.74778115  0.51234675  0.37719467  1
  O  O194  1  0.75128528  0.51319947  0.87013963  1
  O  O195  1  0.24954865  0.48998813  0.13135955  1
  O  O196  1  0.24305790  0.48794706  0.62545577  1
  O  O197  1  0.24278309  0.98739676  0.12878724  1
  O  O198  1  0.25003372  0.99964435  0.64552510  1
  O  O199  1  0.74973497  0.48713868  0.12211363  1
  O  O200  1  0.74106660  0.50651102  0.63603350  1
  O  O201  1  0.73814525  0.98882291  0.12989003  1
  O  O202  1  0.76044122  0.99231788  0.60720760  1
  O  O203  1  0.00102520  0.38277095  0.26511837  1
  O  O204  1  -0.00558993  0.37264838  0.76761677  1
  O  O205  1  0.00369925  0.85871205  0.25360995  1
  O  O206  1  0.00129958  0.87107253  0.75621002  1
  O  O207  1  0.50147886  0.37414848  0.25166793  1
  O  O208  1  0.50138663  0.37175187  0.76353526  1
  O  O209  1  0.48787921  0.86443599  0.26029597  1
  O  O210  1  0.51959013  0.86931392  0.74384312  1
  O  O211  1  0.50021061  0.13134212  0.23594258  1
  O  O212  1  0.50321513  0.14081892  0.75117946  1
  O  O213  1  0.49193985  0.62957820  0.24375639  1
  O  O214  1  0.49775198  0.61898674  0.73746997  1
  O  O215  1  1.02153989  0.14200978  0.26621421  1
  O  O216  1  0.98714407  0.12819296  0.74920751  1
  O  O217  1  0.99989466  0.63353533  0.24221296  1
  O  O218  1  0.99380903  0.63137007  0.74792324  1
  O  O219  1  0.37670722  0.25613417  0.01119365  1
  O  O220  1  0.37258958  0.25965994  0.50627460  1
  O  O221  1  0.35964625  0.75712422  -0.00399189  1
  O  O222  1  0.36792448  0.75911145  0.50463744  1
  O  O223  1  0.86974100  0.25910015  0.00584685  1
  O  O224  1  0.88067341  0.26308352  0.50832635  1
  O  O225  1  0.86408305  0.75541691  0.00520107  1
  O  O226  1  0.87036654  0.75572642  0.50386555  1
  O  O227  1  0.13084800  0.23902682  0.50448028  1
  O  O228  1  0.11557940  0.23214156  0.99929027  1
  O  O229  1  0.13220083  0.74518299  0.49912868  1
  O  O230  1  0.13280582  0.74359486  0.99352170  1
  O  O231  1  0.62643084  0.26774154  0.48397841  1
  O  O232  1  0.63504778  0.24351119  0.99676713  1
  O  O233  1  0.63326379  0.74263690  0.49923951  1
  O  O234  1  0.62852121  0.74340672  0.98819356  1
  O  O235  1  0.49245473  0.24375787  0.12770985  1
  O  O236  1  0.49499073  0.25185073  0.63118548  1
  O  O237  1  0.49931183  0.73901035  0.13453911  1
  O  O238  1  0.48849061  0.73785541  0.61496104  1
  O  O239  1  0.98250375  0.25152677  0.13037668  1
  O  O240  1  0.99042098  0.25042107  0.62942000  1
  O  O241  1  0.99558730  0.74398078  0.13093709  1
  O  O242  1  0.99586498  0.74245175  0.63048664  1
  O  O243  1  0.00353516  0.26110525  0.37697511  1
  O  O244  1  0.00815253  0.26010866  0.87730969  1
  O  O245  1  0.00454515  0.75060898  0.36834626  1
  O  O246  1  0.00263772  0.75816258  0.87197205  1
  O  O247  1  0.50073509  0.26214130  0.36841401  1
  O  O248  1  0.51533595  0.26163450  0.86755299  1
  O  O249  1  0.50024887  0.76012096  0.37027819  1
  O  O250  1  0.50914077  0.74164951  0.87406421  1
  O  O251  1  0.24292781  0.12757475  0.49402101  1
  O  O252  1  0.23555908  0.11479265  1.00841016  1
  O  O253  1  0.24479002  0.63333272  0.50004578  1
  O  O254  1  0.24311135  0.63165944  0.99520055  1
  O  O255  1  0.76948776  0.14057835  0.47919356  1
  O  O256  1  0.74624255  0.13959346  1.00624019  1
  O  O257  1  0.74272292  0.62884929  0.49600670  1
  O  O258  1  0.74284148  0.63390333  0.99468161  1
  O  O259  1  0.26553879  0.37935902  0.00922105  1
  O  O260  1  0.25945812  0.37014967  0.50003980  1
  O  O261  1  0.25747480  0.86878149  0.00317975  1
  O  O262  1  0.25750452  0.86878796  0.50518142  1
  O  O263  1  0.75869774  0.36722951  0.00583140  1
  O  O264  1  0.76442099  0.37530745  0.49316943  1
  O  O265  1  0.75034570  0.86301690  0.00235024  1
  O  O266  1  0.75968410  0.86342057  0.49796640  1
  O  O267  1  0.13849924  0.50673976  0.24624562  1
  O  O268  1  0.12142311  0.50215435  0.73886016  1
  O  O269  1  0.12812715  0.98952629  0.23988547  1
  O  O270  1  0.11311408  0.98948891  0.75210091  1
  O  O271  1  0.62317537  0.49000734  0.25364749  1
  O  O272  1  0.63639495  0.50654835  0.74121905  1
  O  O273  1  0.60519435  0.98836141  0.22945341  1
  O  O274  1  0.62482505  0.99221280  0.74061444  1
  O  O275  1  0.37855035  0.00549373  0.25974431  1
  O  O276  1  0.37488035  0.00397713  0.75230801  1
  O  O277  1  0.36595304  0.51045881  0.25507631  1
  O  O278  1  0.37754837  0.49990923  0.76417903  1
  O  O279  1  0.88566319  -0.01231226  0.26539234  1
  O  O280  1  0.87358797  0.01173146  0.75898327  1
  O  O281  1  0.86564355  0.50415021  0.25389830  1
  O  O282  1  0.86948653  0.50946326  0.75303323  1
  O  O283  1  0.11215917  0.37532736  0.37937528  1
  O  O284  1  0.10783263  0.36684691  0.88850733  1
  O  O285  1  0.12004722  0.86724864  0.37560915  1
  O  O286  1  0.11621941  0.87115013  0.87108660  1
  O  O287  1  0.61345277  0.37377919  0.36698204  1
  O  O288  1  0.61725079  0.36945683  0.88692892  1
  O  O289  1  0.61257331  0.87602707  0.38007870  1
  O  O290  1  0.63004071  0.85342376  0.85687047  1
  O  O291  1  0.38296687  0.12884524  0.12609303  1
  O  O292  1  0.37952693  0.13892402  0.61740787  1
  O  O293  1  0.37969961  0.62219887  0.13294548  1
  O  O294  1  0.38231764  0.63047894  0.62656140  1
  O  O295  1  0.86800900  0.13855700  0.12766786  1
  O  O296  1  0.87888912  0.13384348  0.63543594  1
  O  O297  1  0.88164217  0.63144857  0.12188743  1
  O  O298  1  0.88313926  0.62848759  0.62998326  1
  O  O299  1  0.26246454  0.25566653  0.13063215  1
  O  O300  1  0.25840951  0.25711218  0.61913413  1
  O  O301  1  0.24272089  0.75907139  0.11449597  1
  O  O302  1  0.25696442  0.75009468  0.61485875  1
  O  O303  1  0.75659107  0.26229145  0.11842318  1
  O  O304  1  0.76689011  0.25724015  0.62415791  1
  O  O305  1  0.74995534  0.75467679  0.11637029  1
  O  O306  1  0.75833296  0.74456043  0.61229849  1
  O  O307  1  0.26054722  0.23608665  0.38276817  1
  O  O308  1  0.22282702  0.26869404  0.88545820  1
  O  O309  1  0.24617832  0.74983774  0.38819102  1
  O  O310  1  0.24130659  0.74072616  0.88253128  1
  O  O311  1  0.73235835  0.25770608  0.36976754  1
  O  O312  1  0.74412245  0.25953249  0.88635260  1
  O  O313  1  0.74907026  0.73917392  0.38603683  1
  O  O314  1  0.74655460  0.73886671  0.88167683  1
  O  O315  1  0.00143163  0.11202797  -0.00303711  1
  O  O316  1  0.00817097  0.11756264  0.49788062  1
  O  O317  1  0.00959684  0.63113863  0.00863040  1
  O  O318  1  0.00456167  0.61318038  0.50550328  1
  O  O319  1  0.51021412  0.12771996  0.00765552  1
  O  O320  1  0.49414465  0.10862400  0.49879866  1
  O  O321  1  0.50600237  0.62609215  0.00779722  1
  O  O322  1  0.50596738  0.61994779  0.50486618  1
  O  O323  1  0.48607960  0.38264638  0.49567415  1
  O  O324  1  0.49032173  0.37528061  0.99306782  1
  O  O325  1  0.49294864  0.88143816  0.49424296  1
  O  O326  1  0.47925980  0.86816901  1.00514128  1
  O  O327  1  0.99863649  0.38568626  0.49508408  1
  O  O328  1  0.98859641  0.37340965  0.99872838  1
  O  O329  1  0.99516276  0.87925874  0.49683923  1
  O  O330  1  0.98974734  0.88018362  0.99457491  1
  O  O331  1  0.49159807  0.49715435  0.38158608  1
  O  O332  1  0.49442666  0.49402289  0.87816636  1
  O  O333  1  0.48737444  0.99240137  0.38860829  1
  O  O334  1  0.54520616  0.99110814  0.89135842  1
  O  O335  1  1.00175795  0.49233290  0.38358877  1
  O  O336  1  0.99849666  0.48677544  0.87666976  1
  O  O337  1  0.99669554  0.98775033  0.38540272  1
  O  O338  1  0.98816124  0.99288691  0.88530122  1
  O  O339  1  0.00786799  -0.01047859  0.11397981  1
  O  O340  1  0.00043466  0.00082404  0.61089547  1
  O  O341  1  -0.00012973  0.51183154  0.12995775  1
  O  O342  1  0.00801538  0.50249220  0.61980831  1
  O  O343  1  0.50811462  0.00715179  0.11158903  1
  O  O344  1  0.49483996  0.00107877  0.60873319  1
  O  O345  1  0.49574744  0.51471844  0.12266788  1
  O  O346  1  0.50501828  0.50648777  0.61989231  1
  O  O347  1  0.25845234  0.38563455  0.23806350  1
  O  O348  1  0.25887804  0.36348598  0.74429656  1
  O  O349  1  0.25170491  0.87197439  0.24121419  1
  O  O350  1  0.23580350  0.87192407  0.74948755  1
  O  O351  1  0.73882255  0.37950876  0.24122858  1
  O  O352  1  0.75868069  0.39047585  0.76033946  1
  O  O353  1  0.74794897  0.85982972  0.24063593  1
  O  O354  1  0.73033062  0.86207353  0.74338959  1
  O  O355  1  0.26019254  0.12002953  0.25848376  1
  O  O356  1  0.25752085  0.12129233  0.74999386  1
  O  O357  1  0.25686020  0.61981400  0.24968731  1
  O  O358  1  0.24777445  0.62968029  0.76368799  1
  O  O359  1  0.71258870  0.11868114  0.26472478  1
  O  O360  1  0.76344606  0.12984156  0.74656740  1
  O  O361  1  0.74637861  0.62632200  0.25999065  1
  O  O362  1  0.75782475  0.62228027  0.75860670  1
  O  O363  1  0.37154635  0.11725168  0.37175891  1
  O  O364  1  0.36440903  0.18698775  0.86567419  1
  O  O365  1  0.37282202  0.61732506  0.36889458  1
  O  O366  1  0.36478575  0.61616114  0.87480504  1
  O  O367  1  0.88376345  0.10727155  0.36718055  1
  O  O368  1  0.87367940  0.11795412  0.86373162  1
  O  O369  1  0.86443547  0.62157532  0.37475938  1
  O  O370  1  0.86722613  0.62396101  0.87237551  1
  O  O371  1  0.13902484  0.37251385  0.11497939  1
  O  O372  1  0.13835526  0.38160804  0.62311260  1
  O  O373  1  0.13477346  0.88275688  0.12058815  1
  O  O374  1  0.12722864  0.87986909  0.63649595  1
  O  O375  1  0.63195593  0.37038129  0.13198762  1
  O  O376  1  0.62231821  0.38974756  0.62091373  1
  O  O377  1  0.63080984  0.88562121  0.11278273  1
  O  O378  1  0.62968791  0.86905001  0.63477482  1
  O  O379  1  0.13655489  0.25183242  0.25656958  1
  O  O380  1  0.12108072  0.24385027  0.76609491  1
  O  O381  1  0.11870329  0.74788396  0.25743824  1
  O  O382  1  0.11602202  0.75909623  0.75690609  1
  O  O383  1  0.61520224  0.26556873  0.25804235  1
  O  O384  1  0.62140854  0.25755002  0.76210170  1
  O  O385  1  0.60689821  0.74493407  0.25540936  1
  O  O386  1  0.62082074  0.73607525  0.75954394  1
  O  O387  1  0.38177853  0.24307294  0.24261702  1
  O  O388  1  0.39239384  0.26472496  0.73163907  1
  O  O389  1  0.38304267  0.73533851  0.25752208  1
  O  O390  1  0.36880428  0.74689986  0.73725834  1
  O  O391  1  0.86602332  0.25264640  0.24040357  1
  O  O392  1  0.87698669  0.24189506  0.74618598  1
  O  O393  1  0.88370958  0.74500937  0.24252925  1
  O  O394  1  0.87907636  0.74511155  0.74500936  1
  O  O395  1  0.37555833  0.49516276  0.49477819  1
  O  O396  1  0.37924171  0.49169206  0.98923399  1
  O  O397  1  0.37328961  0.98834688  0.49646739  1
  O  O398  1  0.37452661  0.98411908  0.99439573  1
  O  O399  1  0.88498856  0.49288022  0.49990260  1
  O  O400  1  0.86928592  0.48289134  0.99933654  1
  O  O401  1  0.88697190  0.99090116  0.48978461  1
  O  O402  1  0.87634275  0.99687330  0.99667117  1
  O  O403  1  0.11452469  0.00503947  0.00287362  1
  O  O404  1  0.12057762  0.01160203  0.49996922  1
  O  O405  1  0.13040093  0.51188423  0.00224065  1
  O  O406  1  0.11939314  0.50539952  0.50919168  1
  O  O407  1  0.63928296  0.01818434  0.01343464  1
  O  O408  1  0.61348245  -0.00144582  0.50034840  1
  O  O409  1  0.62439116  0.51592528  -0.00643826  1
  O  O410  1  0.61950951  0.50757393  0.50653562  1
  O  O411  1  0.37071275  0.36669888  0.11838282  1
  O  O412  1  0.36766926  0.37408420  0.61606501  1
  O  O413  1  0.36427499  0.87989112  0.11963433  1
  O  O414  1  0.37552349  0.86679838  0.61912853  1
  O  O415  1  0.86900684  0.36927096  0.11704755  1
  O  O416  1  0.88313994  0.37095767  0.61300585  1
  O  O417  1  0.86272640  0.86897304  0.11866267  1
  O  O418  1  0.87745774  0.86772833  0.61400676  1
  O  O419  1  0.13192758  0.13078864  0.37813112  1
  O  O420  1  0.11971222  0.13719598  0.88470197  1
  O  O421  1  0.12669466  0.63181272  0.38459427  1
  O  O422  1  0.12845427  0.62910063  0.88220735  1
  O  O423  1  0.60648674  0.15138395  0.38214693  1
  O  O424  1  0.62670283  0.14176283  0.88489849  1
  O  O425  1  0.62884313  0.62657421  0.38770785  1
  O  O426  1  0.63147512  0.63310646  0.88027769  1
