# generated using pymatgen
data_V85Zn86O256
_symmetry_space_group_name_H-M   'P 1'
_cell_length_a   16.93227966
_cell_length_b   16.93856724
_cell_length_c   16.93942626
_cell_angle_alpha   90.00004637
_cell_angle_beta   89.90629947
_cell_angle_gamma   89.98846997
_symmetry_Int_Tables_number   1
_chemical_formula_structural   V85Zn86O256
_chemical_formula_sum   'V85 Zn86 O256'
_cell_volume   4858.36581635
_cell_formula_units_Z   1
loop_
 _symmetry_equiv_pos_site_id
 _symmetry_equiv_pos_as_xyz
  1  'x, y, z'
loop_
 _atom_site_type_symbol
 _atom_site_label
 _atom_site_symmetry_multiplicity
 _atom_site_fract_x
 _atom_site_fract_y
 _atom_site_fract_z
 _atom_site_occupancy
  V  V0  1  0.62560495  0.12574327  0.00190997  1
  V  V1  1  0.44310314  0.57685521  0.18246882  1
  V  V2  1  0.87604260  0.62919821  0.74809908  1
  V  V3  1  0.13266365  0.13038821  0.49966477  1
  V  V4  1  0.37292000  0.87348662  0.49764120  1
  V  V5  1  0.73806161  0.63381268  0.87146148  1
  V  V6  1  0.50290215  -0.00019101  0.49718945  1
  V  V7  1  0.74629495  0.48945854  0.24366701  1
  V  V8  1  0.00192189  0.49696951  0.49504380  1
  V  V9  1  0.88410035  0.62707755  0.24507076  1
  V  V10  1  0.75648861  0.75435874  0.00144573  1
  V  V11  1  0.50127418  0.75340783  0.76056513  1
  V  V12  1  0.12354087  0.12251362  0.00062220  1
  V  V13  1  0.63306801  0.12446187  0.49382030  1
  V  V14  1  0.12801306  -0.01042760  0.12512276  1
  V  V15  1  0.50842917  0.37746410  0.37268825  1
  V  V16  1  0.12642105  -0.00120589  0.62464991  1
  V  V17  1  0.00294613  0.75986295  0.25123635  1
  V  V18  1  0.64092157  0.25235762  0.36939440  1
  V  V19  1  0.63436369  0.63274765  0.50144974  1
  V  V20  1  0.87429271  0.50488972  0.87643986  1
  V  V21  1  0.50896821  0.75317100  0.24874587  1
  V  V22  1  0.12408996  0.37614341  0.75053395  1
  V  V23  1  0.50551446  0.61814027  0.62198839  1
  V  V24  1  -0.01065577  -0.00677836  0.00081547  1
  V  V25  1  0.25284737  -0.00171403  0.24783335  1
  V  V26  1  -0.00296374  0.37919571  0.87806565  1
  V  V27  1  0.87288067  0.75146517  0.62426446  1
  V  V28  1  0.00264600  -0.00431387  0.49511049  1
  V  V29  1  0.36930881  0.75383260  0.13634656  1
  V  V30  1  0.36855268  0.87281713  0.00455310  1
  V  V31  1  0.24892371  0.24923174  0.00302343  1
  V  V32  1  0.75282405  0.12449974  0.87675296  1
  V  V33  1  0.50535308  0.24659828  0.25405186  1
  V  V34  1  0.74540628  0.87409959  0.61841499  1
  V  V35  1  0.37418534  0.62576754  0.74964602  1
  V  V36  1  0.25034231  0.36790193  0.61948388  1
  V  V37  1  0.37697067  -0.00825564  0.87372651  1
  V  V38  1  -0.00699721  0.87332908  0.87326657  1
  V  V39  1  0.25545249  0.13135266  0.37471259  1
  V  V40  1  0.87361509  0.50086197  0.37751970  1
  V  V41  1  0.36975578  0.50016670  0.87578997  1
  V  V42  1  0.36834132  0.37367410  0.00059761  1
  V  V43  1  0.12126523  0.25974407  0.37302919  1
  V  V44  1  0.00257437  0.63131827  0.62591947  1
  V  V45  1  0.12231771  0.74709639  0.87275253  1
  V  V46  1  0.87371303  0.38025461  0.00263921  1
  V  V47  1  0.12504632  0.50014019  0.62458821  1
  V  V48  1  0.23896365  0.38332614  0.14052334  1
  V  V49  1  0.87703271  0.86767203  0.49437950  1
  V  V50  1  0.62618867  -0.00777854  0.12750754  1
  V  V51  1  0.87736586  -0.00148469  0.37482250  1
  V  V52  1  0.49929176  0.24862844  0.74984747  1
  V  V53  1  0.37556695  0.12356010  0.74965847  1
  V  V54  1  0.12852357  0.75603832  0.38117150  1
  V  V55  1  0.50290286  0.12655317  0.62250659  1
  V  V56  1  0.62141387  0.63678763  0.00548856  1
  V  V57  1  0.10508043  0.50622647  0.13100695  1
  V  V58  1  0.49776576  0.37302443  0.87410467  1
  V  V59  1  0.24966341  0.12314680  0.87471521  1
  V  V60  1  0.25455011  0.62089679  0.35496073  1
  V  V61  1  0.37772089  0.00320556  0.36938198  1
  V  V62  1  0.25020504  0.86908475  0.62437658  1
  V  V63  1  0.62210594  0.87297856  0.76361352  1
  V  V64  1  0.75123663  -0.00010253  0.25394581  1
  V  V65  1  0.37589521  0.74731453  0.61910663  1
  V  V66  1  0.63084803  0.25232191  0.87453984  1
  V  V67  1  0.12240357  0.25014114  0.87639901  1
  V  V68  1  0.62280771  0.38352259  0.74315981  1
  V  V69  1  0.49445968  0.11992705  0.13148917  1
  V  V70  1  0.49928043  -0.00724746  -0.00206675  1
  V  V71  1  0.36778965  0.24298720  0.13514184  1
  V  V72  1  0.74819360  0.64333800  0.37136349  1
  V  V73  1  -0.00165898  0.12676354  0.62623488  1
  V  V74  1  0.37484278  0.37234056  0.49569976  1
  V  V75  1  0.11961778  0.87007622  0.74900132  1
  V  V76  1  0.74757454  0.38453556  0.62188707  1
  V  V77  1  0.49908925  0.50706449  -0.00006263  1
  V  V78  1  0.87359107  0.24916199  0.11837149  1
  V  V79  1  0.00113437  0.12483832  0.12670623  1
  V  V80  1  0.70550057  0.31124085  0.05525260  1
  V  V81  1  0.13887562  0.62563658  0.49954278  1
  V  V82  1  0.75426772  0.25140370  0.49928567  1
  V  V83  1  0.87507897  0.12644710  0.25627164  1
  V  V84  1  0.24513461  0.74790656  0.00537503  1
  Zn  Zn85  1  0.24455954  0.62377005  0.87522904  1
  Zn  Zn86  1  0.50636657  0.49953799  0.49890944  1
  Zn  Zn87  1  0.10686063  0.61859416  0.00058750  1
  Zn  Zn88  1  0.36983452  0.24540714  0.61678916  1
  Zn  Zn89  1  -0.00487209  0.25081447  0.74899404  1
  Zn  Zn90  1  0.25013079  -0.00159488  0.75031401  1
  Zn  Zn91  1  0.63601453  0.86602754  0.26023277  1
  Zn  Zn92  1  0.25031816  0.49901552  0.74935395  1
  Zn  Zn93  1  0.88113321  0.37580340  0.50433855  1
  Zn  Zn94  1  0.87397676  0.25214622  0.62800822  1
  Zn  Zn95  1  0.37536603  0.50347024  0.36838019  1
  Zn  Zn96  1  0.12846627  0.87689752  0.25450834  1
  Zn  Zn97  1  0.87083994  -0.00579428  0.87364160  1
  Zn  Zn98  1  0.50840336  0.86403477  0.38099427  1
  Zn  Zn99  1  0.62767329  -0.00029008  0.62503963  1
  Zn  Zn100  1  0.89083524  0.75180133  0.11528260  1
  Zn  Zn101  1  0.87062253  0.12465528  0.74821294  1
  Zn  Zn102  1  0.01195990  0.26528450  0.24627434  1
  Zn  Zn103  1  0.75075384  -0.00049765  0.74896494  1
  Zn  Zn104  1  0.63565506  0.49275708  0.12288767  1
  Zn  Zn105  1  0.74334165  0.50723088  0.74354256  1
  Zn  Zn106  1  0.76565913  0.87690818  0.11963071  1
  Zn  Zn107  1  0.18775088  0.18221146  0.19363388  1
  Zn  Zn108  1  0.18572687  0.18853821  0.68909534  1
  Zn  Zn109  1  0.18136112  0.68732670  0.18566295  1
  Zn  Zn110  1  0.18991019  0.68857030  0.68813379  1
  Zn  Zn111  1  0.68660183  0.17765031  0.19194864  1
  Zn  Zn112  1  0.68835375  0.19123045  0.68627705  1
  Zn  Zn113  1  0.69153345  0.68055580  0.18165111  1
  Zn  Zn114  1  0.68641857  0.69360342  0.68359286  1
  Zn  Zn115  1  0.31453953  0.31033403  0.31614741  1
  Zn  Zn116  1  0.30961418  0.31031179  0.80942171  1
  Zn  Zn117  1  0.30936539  0.81273124  0.31691793  1
  Zn  Zn118  1  0.30885495  0.81132903  0.81214742  1
  Zn  Zn119  1  0.84449196  0.32613604  0.30243032  1
  Zn  Zn120  1  0.81141702  0.31275073  0.80793658  1
  Zn  Zn121  1  0.81890367  0.81792829  0.30875721  1
  Zn  Zn122  1  0.80827376  0.80995519  0.80830915  1
  Zn  Zn123  1  0.19306221  0.44138964  0.43571154  1
  Zn  Zn124  1  0.18307757  0.43934013  0.94474374  1
  Zn  Zn125  1  0.19338312  0.94020586  0.43866863  1
  Zn  Zn126  1  0.18609385  0.93482109  0.93765344  1
  Zn  Zn127  1  0.68946994  0.44491491  0.43537720  1
  Zn  Zn128  1  0.68384960  0.44954107  0.92916357  1
  Zn  Zn129  1  0.69110828  0.93449140  0.43577658  1
  Zn  Zn130  1  0.68641755  0.93914984  0.93745464  1
  Zn  Zn131  1  0.31092595  0.06073229  0.06306746  1
  Zn  Zn132  1  0.31379492  0.05877002  0.56116125  1
  Zn  Zn133  1  0.30044912  0.56245789  0.06043180  1
  Zn  Zn134  1  0.31669688  0.55327279  0.56122712  1
  Zn  Zn135  1  0.81015007  0.06431596  0.06178089  1
  Zn  Zn136  1  0.81317357  0.06008589  0.56189609  1
  Zn  Zn137  1  0.92942681  0.56624580  0.06050703  1
  Zn  Zn138  1  0.81011580  0.56580766  0.55952425  1
  Zn  Zn139  1  0.43567754  0.41544941  0.18866855  1
  Zn  Zn140  1  0.43506857  0.43695953  0.68521846  1
  Zn  Zn141  1  0.43589484  0.93191196  0.18910832  1
  Zn  Zn142  1  0.44090109  0.93789550  0.68582033  1
  Zn  Zn143  1  0.93209519  0.43498300  0.19220131  1
  Zn  Zn144  1  0.93512163  0.44164919  0.68706415  1
  Zn  Zn145  1  0.93861160  0.93301116  0.18685236  1
  Zn  Zn146  1  0.93579086  0.94106659  0.68806074  1
  Zn  Zn147  1  0.06449244  0.06646446  0.31219500  1
  Zn  Zn148  1  0.06170693  0.05820869  0.81110706  1
  Zn  Zn149  1  0.06603174  0.56003170  0.31205399  1
  Zn  Zn150  1  0.05836165  0.56343870  0.81171468  1
  Zn  Zn151  1  0.56608234  0.06182909  0.31455797  1
  Zn  Zn152  1  0.56490536  0.05952972  0.81289128  1
  Zn  Zn153  1  0.57509106  0.55979996  0.31921207  1
  Zn  Zn154  1  0.55721099  0.56479638  0.81449536  1
  Zn  Zn155  1  0.43987795  0.18881742  0.43663932  1
  Zn  Zn156  1  0.43697212  0.18297209  0.94036981  1
  Zn  Zn157  1  0.43807044  0.68468323  0.43550827  1
  Zn  Zn158  1  0.43332857  0.68824155  0.94014290  1
  Zn  Zn159  1  0.94129233  0.18605858  0.43965192  1
  Zn  Zn160  1  0.93667190  0.18989797  0.93912020  1
  Zn  Zn161  1  0.94400783  0.68365638  0.43549286  1
  Zn  Zn162  1  0.93657619  0.69175309  0.92733388  1
  Zn  Zn163  1  0.06118058  0.31608787  0.06184767  1
  Zn  Zn164  1  0.06495204  0.31088049  0.55951721  1
  Zn  Zn165  1  0.05917787  0.80962134  0.06150994  1
  Zn  Zn166  1  0.06064411  0.81064275  0.55986740  1
  Zn  Zn167  1  0.54342753  0.31252571  0.06218337  1
  Zn  Zn168  1  0.56402265  0.31173262  0.55859555  1
  Zn  Zn169  1  0.55504449  0.81215571  0.06901397  1
  Zn  Zn170  1  0.56041937  0.80723255  0.56319996  1
  O  O171  1  0.11653575  0.11913228  0.12121394  1
  O  O172  1  0.12297093  0.12056673  0.61722112  1
  O  O173  1  0.12410988  0.60920140  0.12414690  1
  O  O174  1  0.12002008  0.62312487  0.62081747  1
  O  O175  1  0.61626375  0.11355206  0.12024128  1
  O  O176  1  0.61862708  0.12580729  0.61526641  1
  O  O177  1  0.62658282  0.61747146  0.10769329  1
  O  O178  1  0.62048394  0.62900951  0.61350248  1
  O  O179  1  0.38582057  0.37714348  0.37807378  1
  O  O180  1  0.37788487  0.37948751  0.87920969  1
  O  O181  1  0.37871236  0.88117164  0.38404258  1
  O  O182  1  0.37045556  0.88640165  0.88031258  1
  O  O183  1  0.86269131  0.39817240  0.39116373  1
  O  O184  1  0.87803213  0.38241581  0.87913807  1
  O  O185  1  0.87751463  0.88400673  0.38399186  1
  O  O186  1  0.88914601  0.87128209  0.86573774  1
  O  O187  1  0.25895857  0.00870661  0.37124970  1
  O  O188  1  0.25769704  0.00586873  0.87521513  1
  O  O189  1  0.25347429  0.51475490  0.37245367  1
  O  O190  1  0.25970464  0.49840786  0.87544988  1
  O  O191  1  0.76675689  -0.00063558  0.36782506  1
  O  O192  1  0.75046136  0.00867588  0.87337753  1
  O  O193  1  0.75673595  0.51488628  0.36714636  1
  O  O194  1  0.75854620  0.51452427  0.87003050  1
  O  O195  1  0.25053558  0.48421184  0.12676792  1
  O  O196  1  0.24244504  0.48874547  0.62798586  1
  O  O197  1  0.24056627  1.00720945  0.13471994  1
  O  O198  1  0.24536118  0.98684686  0.62550550  1
  O  O199  1  0.75484026  0.50246093  0.14442492  1
  O  O200  1  0.75047979  0.48956408  0.62402663  1
  O  O201  1  0.74196128  0.99697138  0.12874776  1
  O  O202  1  0.74911596  0.98889644  0.62738652  1
  O  O203  1  -0.04775470  0.35670699  0.26563225  1
  O  O204  1  0.00530283  0.37593038  0.75937323  1
  O  O205  1  0.00550945  0.86317625  0.25701057  1
  O  O206  1  0.01288302  0.88086103  0.75491036  1
  O  O207  1  0.50302547  0.35671946  0.25628500  1
  O  O208  1  0.50337913  0.36862094  0.75371118  1
  O  O209  1  0.50368299  0.86127357  0.25061013  1
  O  O210  1  0.51327246  0.86761879  0.74141962  1
  O  O211  1  0.50372622  0.13065105  0.23925902  1
  O  O212  1  0.49793324  0.12817429  0.74205855  1
  O  O213  1  0.50468246  0.62857526  0.24651404  1
  O  O214  1  0.49085028  0.63082289  0.74479120  1
  O  O215  1  0.99380194  0.12757676  0.23812638  1
  O  O216  1  1.00490059  0.12518256  0.73553540  1
  O  O217  1  0.98774540  0.63220239  0.25832688  1
  O  O218  1  0.98953664  0.62115408  0.73826265  1
  O  O219  1  0.36980534  0.25228888  0.01020363  1
  O  O220  1  0.38177442  0.26527573  0.50000619  1
  O  O221  1  0.36920065  0.75631180  0.00869317  1
  O  O222  1  0.38231741  0.75700107  0.51179088  1
  O  O223  1  0.87252590  0.25607063  0.01039758  1
  O  O224  1  0.86410805  0.25177014  0.49704757  1
  O  O225  1  0.85860697  0.74565201  -0.00268698  1
  O  O226  1  0.88685167  0.76135728  0.50485026  1
  O  O227  1  0.12502026  0.23728027  0.49181874  1
  O  O228  1  0.12841530  0.24366172  0.99548922  1
  O  O229  1  0.12119150  0.74106712  0.48905554  1
  O  O230  1  0.13186133  0.74981522  0.99331195  1
  O  O231  1  0.63628364  0.24446598  0.49185888  1
  O  O232  1  0.62794532  0.25139917  0.99689721  1
  O  O233  1  0.61478718  0.73238732  0.49584379  1
  O  O234  1  0.61816030  0.73974138  1.00239717  1
  O  O235  1  0.49043719  0.24056803  0.13217511  1
  O  O236  1  0.49940156  0.23872547  0.62844882  1
  O  O237  1  0.48697139  0.74688985  0.13814530  1
  O  O238  1  0.49147668  0.73930465  0.63412332  1
  O  O239  1  0.99256245  0.24315965  0.12574421  1
  O  O240  1  0.99912774  0.24098189  0.62401712  1
  O  O241  1  1.00861297  0.74925589  0.14572306  1
  O  O242  1  0.99159219  0.73897691  0.62134102  1
  O  O243  1  0.01813617  0.24381559  0.37656140  1
  O  O244  1  0.00602191  0.25824185  0.87354016  1
  O  O245  1  0.01862906  0.74232883  0.36621902  1
  O  O246  1  0.01346486  0.75992600  0.87458949  1
  O  O247  1  0.51006875  0.25307511  0.36769175  1
  O  O248  1  0.50890370  0.25292059  0.87383523  1
  O  O249  1  0.49008456  0.74631938  0.35260805  1
  O  O250  1  0.48883674  0.74819962  0.85953339  1
  O  O251  1  0.24164798  0.11774175  0.49224326  1
  O  O252  1  0.24367842  0.13016684  0.99521757  1
  O  O253  1  0.24009544  0.62076578  0.50498190  1
  O  O254  1  0.24745180  0.63823030  0.99448893  1
  O  O255  1  0.74261502  0.13476974  0.50528555  1
  O  O256  1  0.73809420  0.12016550  0.99027414  1
  O  O257  1  0.74260214  0.62933406  0.49001955  1
  O  O258  1  0.73226572  0.64002485  0.98998864  1
  O  O259  1  0.25236149  0.36589825  0.00796619  1
  O  O260  1  0.26012515  0.37953357  0.50792159  1
  O  O261  1  0.26000313  0.86467196  -0.00457705  1
  O  O262  1  0.26463062  0.87861531  0.50814155  1
  O  O263  1  0.75605987  0.37632565  -0.01121655  1
  O  O264  1  0.74596841  0.36929169  0.50745772  1
  O  O265  1  0.73865652  0.85743206  -0.00226508  1
  O  O266  1  0.76472033  0.88018510  0.50801508  1
  O  O267  1  0.11816164  0.49669758  0.23213012  1
  O  O268  1  0.12490333  0.48977084  0.74569103  1
  O  O269  1  0.13087751  0.99958013  0.24276047  1
  O  O270  1  0.12830090  0.99091734  0.74135427  1
  O  O271  1  0.63980286  0.50175229  0.24468353  1
  O  O272  1  0.62215910  0.48727170  0.75692677  1
  O  O273  1  0.63570768  1.00249770  0.24365074  1
  O  O274  1  0.62342728  0.98556277  0.74539578  1
  O  O275  1  0.37172780  -0.00377456  0.26196320  1
  O  O276  1  0.37628044  0.00392846  0.75809720  1
  O  O277  1  0.39011620  0.51170367  0.24008702  1
  O  O278  1  0.37506003  0.50710456  0.75871138  1
  O  O279  1  0.87458139  0.00549541  0.25624319  1
  O  O280  1  0.87131744  0.00640715  0.75531569  1
  O  O281  1  0.86984901  0.51536768  0.25839988  1
  O  O282  1  0.86876612  0.51305354  0.75430484  1
  O  O283  1  0.13338534  0.35787412  0.38399437  1
  O  O284  1  0.11641612  0.37455721  0.87040326  1
  O  O285  1  0.13338527  0.85921786  0.38101845  1
  O  O286  1  0.11921571  0.86973422  0.86599771  1
  O  O287  1  0.61594671  0.36672916  0.37997377  1
  O  O288  1  0.61721483  0.36944977  0.86976453  1
  O  O289  1  0.61981046  0.88123886  0.37137174  1
  O  O290  1  0.62292705  0.87706597  0.86192630  1
  O  O291  1  0.38239336  0.13115159  0.12113102  1
  O  O292  1  0.38237983  0.12507917  0.62953301  1
  O  O293  1  0.37673277  0.63016179  0.12394873  1
  O  O294  1  0.37922501  0.63044521  0.62994466  1
  O  O295  1  0.88360657  0.12915825  0.12704233  1
  O  O296  1  0.88620713  0.12650084  0.62284438  1
  O  O297  1  0.87400587  0.63366145  0.14235787  1
  O  O298  1  0.87967180  0.63252116  0.62782963  1
  O  O299  1  0.25292845  0.25255923  0.12374469  1
  O  O300  1  0.25025627  0.26300489  0.62893285  1
  O  O301  1  0.25505669  0.74638013  0.11773204  1
  O  O302  1  0.25909165  0.76102982  0.62770369  1
  O  O303  1  0.75277639  0.24262029  0.11977040  1
  O  O304  1  0.75061773  0.26061111  0.61501506  1
  O  O305  1  0.74822814  0.75114533  0.10872903  1
  O  O306  1  0.76434087  0.75784814  0.62361153  1
  O  O307  1  0.24449460  0.23687895  0.37127481  1
  O  O308  1  0.24321864  0.24399504  0.88137950  1
  O  O309  1  0.23786315  0.73716406  0.37139269  1
  O  O310  1  0.23837896  0.74971218  0.88175898  1
  O  O311  1  0.74321547  0.25884989  0.37886618  1
  O  O312  1  0.73606304  0.24547224  0.87124303  1
  O  O313  1  0.75740953  0.74183649  0.37121909  1
  O  O314  1  0.75051605  0.74086686  0.88193830  1
  O  O315  1  0.00385300  0.11825993  0.00847035  1
  O  O316  1  0.00898517  0.11588483  0.50892224  1
  O  O317  1  -0.00561366  0.63532094  0.00289430  1
  O  O318  1  0.01174480  0.61759047  0.50796209  1
  O  O319  1  0.50362034  0.11578614  0.01202022  1
  O  O320  1  0.50827896  0.12193030  0.50629143  1
  O  O321  1  0.50652488  0.61567863  -0.00625110  1
  O  O322  1  0.50578504  0.62300597  0.50714915  1
  O  O323  1  0.49730656  0.37691943  0.49034855  1
  O  O324  1  0.48855993  0.38716062  0.99494602  1
  O  O325  1  0.48996234  0.88101448  0.50314187  1
  O  O326  1  0.48827230  0.88586085  1.00499096  1
  O  O327  1  1.00140203  0.39227722  0.50799114  1
  O  O328  1  0.99006243  0.37151309  0.98613247  1
  O  O329  1  0.99412942  0.88873503  0.50580759  1
  O  O330  1  1.00696510  0.88337618  0.98802135  1
  O  O331  1  0.49840177  0.48985486  0.36987521  1
  O  O332  1  0.48772067  0.49476699  0.88236284  1
  O  O333  1  0.49252881  1.00281668  0.38177119  1
  O  O334  1  0.49042696  1.00777897  0.88770755  1
  O  O335  1  0.99093376  0.51084492  0.38503522  1
  O  O336  1  0.98391499  0.49412056  0.86953121  1
  O  O337  1  0.99168041  1.00759935  0.38348690  1
  O  O338  1  0.99979170  0.99200267  0.88416062  1
  O  O339  1  0.00694272  0.00618760  0.11900540  1
  O  O340  1  0.00772093  0.00621499  0.61703007  1
  O  O341  1  -0.00040217  0.49672001  0.12451380  1
  O  O342  1  0.00632786  0.51139049  0.62010579  1
  O  O343  1  0.50299663  0.00445942  0.12206996  1
  O  O344  1  0.50170297  0.01169094  0.61653336  1
  O  O345  1  0.49468564  0.50406878  0.12255169  1
  O  O346  1  0.49695921  0.51497660  0.62723508  1
  O  O347  1  0.25326927  0.37010892  0.23774357  1
  O  O348  1  0.24036800  0.37710716  0.74459202  1
  O  O349  1  0.24734002  0.89197858  0.25856613  1
  O  O350  1  0.24076540  0.87678896  0.74220081  1
  O  O351  1  0.75863925  0.39075124  0.25548570  1
  O  O352  1  0.73919283  0.37788115  0.74144726  1
  O  O353  1  0.75262991  0.88641312  0.24399265  1
  O  O354  1  0.73598087  0.87309129  0.74194953  1
  O  O355  1  0.24868557  0.11167273  0.26239773  1
  O  O356  1  0.25618319  0.12252970  0.75566575  1
  O  O357  1  0.25007838  0.62513053  0.25667324  1
  O  O358  1  0.26256296  0.62213108  0.75131633  1
  O  O359  1  0.76138529  0.10817566  0.24459459  1
  O  O360  1  0.74391599  0.12308403  0.76138331  1
  O  O361  1  0.76032296  0.62711564  0.25967729  1
  O  O362  1  0.75151814  0.62739784  0.75461306  1
  O  O363  1  0.36769232  0.11654814  0.38241783  1
  O  O364  1  0.36995155  0.11530344  0.87126542  1
  O  O365  1  0.35776869  0.62480663  0.37878289  1
  O  O366  1  0.37246404  0.61679838  0.86751720  1
  O  O367  1  0.88166398  0.12081950  0.36196104  1
  O  O368  1  0.86049243  0.12810100  0.87832975  1
  O  O369  1  0.86595139  0.62257071  0.37133564  1
  O  O370  1  0.86650342  0.62175689  0.86491279  1
  O  O371  1  0.13261297  0.38140661  0.12467412  1
  O  O372  1  0.12990512  0.37796032  0.63217328  1
  O  O373  1  0.12191417  0.88741324  0.12635518  1
  O  O374  1  0.13175137  0.87460054  0.62898207  1
  O  O375  1  0.63439978  0.36983791  0.10760518  1
  O  O376  1  0.63055415  0.37017430  0.63364824  1
  O  O377  1  0.62310263  0.88712333  0.12864047  1
  O  O378  1  0.63675824  0.87295952  0.62175418  1
  O  O379  1  0.12502351  0.24649287  0.26592166  1
  O  O380  1  0.12245223  0.26243026  0.75709272  1
  O  O381  1  0.11918673  0.75240131  0.26024236  1
  O  O382  1  0.13000881  0.75843162  0.75814542  1
  O  O383  1  0.61912606  0.24180757  0.25832944  1
  O  O384  1  0.61778226  0.25896794  0.75789775  1
  O  O385  1  0.61251294  0.74841518  0.23846095  1
  O  O386  1  0.61610230  0.76259164  0.74676562  1
  O  O387  1  0.38291137  0.24982733  0.24018535  1
  O  O388  1  0.38265384  0.24152401  0.74953406  1
  O  O389  1  0.37660217  0.75577762  0.23962078  1
  O  O390  1  0.37804505  0.74451570  0.74072821  1
  O  O391  1  0.86058919  0.23396612  0.23220845  1
  O  O392  1  0.87738610  0.24320949  0.74725369  1
  O  O393  1  0.89090747  0.74373323  0.25584287  1
  O  O394  1  0.87235128  0.73822940  0.74062088  1
  O  O395  1  0.38403739  0.48682117  0.49633063  1
  O  O396  1  0.37798434  0.49749280  0.99442686  1
  O  O397  1  0.38237990  0.99263702  0.49163802  1
  O  O398  1  0.37832824  0.99227327  0.99539580  1
  O  O399  1  0.88580215  0.50780405  0.49500274  1
  O  O400  1  0.87197245  0.49200189  0.99005539  1
  O  O401  1  0.88350032  0.99472023  0.49248840  1
  O  O402  1  0.88658983  1.00273726  0.99735967  1
  O  O403  1  0.11984356  0.00506642  0.00700074  1
  O  O404  1  0.11960593  0.00584309  0.50351957  1
  O  O405  1  0.12803854  0.50154774  0.02032240  1
  O  O406  1  0.12090752  0.50728489  0.50483118  1
  O  O407  1  0.61486389  0.00228599  0.00679384  1
  O  O408  1  0.62127089  0.00949196  0.50050651  1
  O  O409  1  0.61344368  0.50615950  0.00250507  1
  O  O410  1  0.62148830  0.52233769  0.48944342  1
  O  O411  1  0.36299738  0.36269141  0.11882624  1
  O  O412  1  0.36721600  0.37263764  0.61792699  1
  O  O413  1  0.37340952  0.86710734  0.11586170  1
  O  O414  1  0.36958969  0.86826056  0.62127731  1
  O  O415  1  0.87268799  0.36704063  0.10928217  1
  O  O416  1  0.86512708  0.37426833  0.62268689  1
  O  O417  1  0.87918998  0.86514651  0.12347177  1
  O  O418  1  0.87039893  0.86795715  0.62016567  1
  O  O419  1  0.13481016  0.12858397  0.38342040  1
  O  O420  1  0.12884406  0.12859339  0.87972687  1
  O  O421  1  0.13738081  0.62870999  0.38138267  1
  O  O422  1  0.12426308  0.63217119  0.87585088  1
  O  O423  1  0.62329389  0.13521537  0.38645467  1
  O  O424  1  0.62797704  0.13376703  0.88167167  1
  O  O425  1  0.64186570  0.63167288  0.37937050  1
  O  O426  1  0.62973015  0.61834798  0.88537535  1
