# generated using pymatgen
data_V85Zn86O256
_symmetry_space_group_name_H-M   'P 1'
_cell_length_a   16.94436003
_cell_length_b   16.95499929
_cell_length_c   16.93977995
_cell_angle_alpha   89.95724217
_cell_angle_beta   89.94508298
_cell_angle_gamma   90.02155332
_symmetry_Int_Tables_number   1
_chemical_formula_structural   V85Zn86O256
_chemical_formula_sum   'V85 Zn86 O256'
_cell_volume   4866.65275681
_cell_formula_units_Z   1
loop_
 _symmetry_equiv_pos_site_id
 _symmetry_equiv_pos_as_xyz
  1  'x, y, z'
loop_
 _atom_site_type_symbol
 _atom_site_label
 _atom_site_symmetry_multiplicity
 _atom_site_fract_x
 _atom_site_fract_y
 _atom_site_fract_z
 _atom_site_occupancy
  V  V0  1  0.74814793  0.62771905  0.89903096  1
  V  V1  1  0.87158378  0.12575283  0.75826038  1
  V  V2  1  0.50205696  -0.00852325  0.49908431  1
  V  V3  1  0.74587727  -0.00525457  0.23866782  1
  V  V4  1  0.74983420  0.74449552  0.49714396  1
  V  V5  1  0.37186452  0.61148230  0.25604905  1
  V  V6  1  0.74985595  0.12300247  0.37508501  1
  V  V7  1  0.62628368  0.38598505  0.25605819  1
  V  V8  1  0.12543822  0.37292056  0.75176478  1
  V  V9  1  0.62282233  0.12521747  0.50375312  1
  V  V10  1  0.62139882  0.76100581  0.37999494  1
  V  V11  1  0.49871959  0.73036656  0.75238842  1
  V  V12  1  0.75253509  0.24461921  -0.00731711  1
  V  V13  1  0.49997692  0.62548963  0.12172861  1
  V  V14  1  0.62503255  0.50331456  0.12043951  1
  V  V15  1  0.87653534  -0.00027948  0.38010250  1
  V  V16  1  0.12173673  0.62329173  0.49919709  1
  V  V17  1  0.62375375  0.23954867  0.87625004  1
  V  V18  1  0.25433086  0.01158822  0.74673246  1
  V  V19  1  0.50330162  0.24880064  0.25105393  1
  V  V20  1  0.37419296  0.24041629  0.62695239  1
  V  V21  1  0.75325725  0.25196681  0.50119877  1
  V  V22  1  0.25506649  0.74991689  -0.00337173  1
  V  V23  1  0.87644358  0.50031686  0.87921048  1
  V  V24  1  0.25789814  0.25394881  0.49395619  1
  V  V25  1  0.62314263  0.87642514  0.23230474  1
  V  V26  1  -0.00148214  0.62988856  0.12754563  1
  V  V27  1  0.00288056  0.37435203  0.87605692  1
  V  V28  1  0.24976316  0.61029620  0.37206961  1
  V  V29  1  0.38102284  -0.00807155  0.37487987  1
  V  V30  1  0.81154964  0.56103427  0.30942993  1
  V  V31  1  0.37939336  0.73625118  0.62786310  1
  V  V32  1  0.61204193  0.50184326  0.62641056  1
  V  V33  1  0.87115973  0.62639598  0.75296194  1
  V  V34  1  0.87487731  0.12084505  0.24887843  1
  V  V35  1  0.00466094  0.50295310  0.00733800  1
  V  V36  1  0.12668180  0.87441147  0.75111116  1
  V  V37  1  0.25120363  0.74896949  0.49828323  1
  V  V38  1  0.48589828  0.49908905  0.49953064  1
  V  V39  1  0.87714987  0.87677619  0.50028389  1
  V  V40  1  0.74980953  0.87659137  0.62728318  1
  V  V41  1  0.12864353  0.00329886  0.12088270  1
  V  V42  1  0.26381820  0.62533150  0.86993931  1
  V  V43  1  0.62365937  0.62104863  0.49771842  1
  V  V44  1  0.87483474  0.24877366  0.12406889  1
  V  V45  1  0.87465335  0.74963041  0.62561190  1
  V  V46  1  0.24354690  0.13471834  0.89015110  1
  V  V47  1  0.00092072  0.25063522  0.24882977  1
  V  V48  1  0.12823792  0.38450547  0.24660533  1
  V  V49  1  -0.01560118  0.49260541  0.49946651  1
  V  V50  1  -0.00037550  0.87129452  0.87777541  1
  V  V51  1  0.00604562  -0.00093046  -0.00382489  1
  V  V52  1  0.74806045  0.37445092  0.12982468  1
  V  V53  1  0.26016393  0.50444252  0.74758525  1
  V  V54  1  0.49561493  0.75394521  0.26026715  1
  V  V55  1  0.62551732  0.25272207  0.37871159  1
  V  V56  1  0.74891257  0.00144758  0.75732009  1
  V  V57  1  0.12560729  0.25252719  0.37371151  1
  V  V58  1  0.49924320  0.87968981  0.86419523  1
  V  V59  1  -0.01296961  0.75010607  0.24901550  1
  V  V60  1  0.00473172  0.12496682  0.11733407  1
  V  V61  1  0.74991153  0.37697657  0.62016243  1
  V  V62  1  0.25873053  0.37523953  0.62019427  1
  V  V63  1  0.37734150  0.75468700  0.12902880  1
  V  V64  1  0.12226521  0.49764980  0.62485356  1
  V  V65  1  0.12493822  0.74844077  0.37021401  1
  V  V66  1  0.24158326  0.26428242  0.00430234  1
  V  V67  1  0.87742692  0.25347283  0.62289441  1
  V  V68  1  0.25112382  0.12657319  0.37293518  1
  V  V69  1  0.37998864  0.12306293  0.24645548  1
  V  V70  1  0.49287136  0.47788280  0.00089450  1
  V  V71  1  0.25039006  -0.00129071  0.24821473  1
  V  V72  1  0.87739752  0.37611602  0.00431949  1
  V  V73  1  0.11720746  0.11917326  0.49914102  1
  V  V74  1  0.49525478  0.24275402  0.75466316  1
  V  V75  1  0.85909723  0.86921884  0.00500744  1
  V  V76  1  0.25322180  0.87453145  0.62397117  1
  V  V77  1  0.62347771  0.37299085  0.76028582  1
  V  V78  1  0.00373249  0.24700622  0.75301583  1
  V  V79  1  -0.00201945  0.62474117  0.62695008  1
  V  V80  1  0.48665226  0.37721859  0.38124071  1
  V  V81  1  0.74782999  0.50049538  0.75218508  1
  V  V82  1  0.37780488  0.88290757  -0.00521117  1
  V  V83  1  0.00150853  0.87897319  0.37787295  1
  V  V84  1  0.50860439  0.12045460  0.11728013  1
  Zn  Zn85  1  0.87364479  0.00226108  0.87737569  1
  Zn  Zn86  1  0.12824220  0.74635554  0.87413857  1
  Zn  Zn87  1  0.37613523  0.01031717  0.86779428  1
  Zn  Zn88  1  0.38116161  0.86913517  0.49629456  1
  Zn  Zn89  1  0.12431033  0.87559990  0.24735601  1
  Zn  Zn90  1  0.63298830  0.74865270  0.87818294  1
  Zn  Zn91  1  -0.00535444  0.11401667  0.62218262  1
  Zn  Zn92  1  0.49269126  0.12035097  0.62667730  1
  Zn  Zn93  1  0.00103052  0.74901595  0.75260773  1
  Zn  Zn94  1  0.50586075  -0.00213136  -0.00215191  1
  Zn  Zn95  1  0.26221981  0.39617009  0.11825080  1
  Zn  Zn96  1  0.64184228  0.11324072  0.00136893  1
  Zn  Zn97  1  0.13012938  0.62508125  -0.00130370  1
  Zn  Zn98  1  0.25164739  0.87728306  0.12146943  1
  Zn  Zn99  1  -0.01303228  0.37259891  0.38635908  1
  Zn  Zn100  1  0.62363857  0.00022740  0.62708567  1
  Zn  Zn101  1  0.62358575  0.87265991  0.74789141  1
  Zn  Zn102  1  0.11709696  -0.00777663  0.61716744  1
  Zn  Zn103  1  0.13120771  0.51065816  0.13289487  1
  Zn  Zn104  1  0.85372027  0.75222476  0.12592169  1
  Zn  Zn105  1  0.38103947  0.25991380  0.10930623  1
  Zn  Zn106  1  0.37491128  0.49047911  0.88735339  1
  Zn  Zn107  1  0.18918305  0.18868473  0.18239360  1
  Zn  Zn108  1  0.18352589  0.18994420  0.68120911  1
  Zn  Zn109  1  0.18957750  0.68552144  0.18620171  1
  Zn  Zn110  1  0.18815816  0.68845553  0.68758121  1
  Zn  Zn111  1  0.68786665  0.18840914  0.18863683  1
  Zn  Zn112  1  0.68832270  0.18673813  0.68913476  1
  Zn  Zn113  1  0.68615141  0.68247624  0.19766914  1
  Zn  Zn114  1  0.68354785  0.68490363  0.68685551  1
  Zn  Zn115  1  0.32757593  0.32856701  0.28103173  1
  Zn  Zn116  1  0.31103350  0.30875987  0.81706785  1
  Zn  Zn117  1  0.30853458  0.81266941  0.31325223  1
  Zn  Zn118  1  0.31756236  0.81304669  0.80930384  1
  Zn  Zn119  1  0.81250736  0.31503746  0.31611332  1
  Zn  Zn120  1  0.81271701  0.31358251  0.81235846  1
  Zn  Zn121  1  0.80601632  0.81261434  0.31298054  1
  Zn  Zn122  1  0.81308482  0.81130433  0.81729413  1
  Zn  Zn123  1  0.17893208  0.43294388  0.43718565  1
  Zn  Zn124  1  0.18697173  0.44008839  0.93449034  1
  Zn  Zn125  1  0.19117409  0.93610921  0.43487194  1
  Zn  Zn126  1  0.19012871  0.93956379  0.93269925  1
  Zn  Zn127  1  0.69089092  0.44117018  0.43731550  1
  Zn  Zn128  1  0.68750731  0.43773994  0.94240948  1
  Zn  Zn129  1  0.69015794  0.93786267  0.43764223  1
  Zn  Zn130  1  0.68000130  0.93844790  0.93366113  1
  Zn  Zn131  1  0.31708070  0.06845529  0.06044168  1
  Zn  Zn132  1  0.30795585  0.06061794  0.55796430  1
  Zn  Zn133  1  0.31549316  0.56669079  0.06372741  1
  Zn  Zn134  1  0.30817567  0.56181145  0.56145127  1
  Zn  Zn135  1  0.81913166  0.05880563  0.06004571  1
  Zn  Zn136  1  0.81348290  0.06438944  0.56632698  1
  Zn  Zn137  1  0.82423886  0.55551149  0.09120963  1
  Zn  Zn138  1  0.80654773  0.56377435  0.56480178  1
  Zn  Zn139  1  0.44102777  0.43560382  0.18768473  1
  Zn  Zn140  1  0.42184072  0.41577472  0.72512082  1
  Zn  Zn141  1  0.44266803  0.93610770  0.18590527  1
  Zn  Zn142  1  0.43501696  0.93601966  0.68263756  1
  Zn  Zn143  1  0.91764788  0.42805838  0.22293291  1
  Zn  Zn144  1  0.93544285  0.43665083  0.68851555  1
  Zn  Zn145  1  0.93685122  0.93518734  0.18700530  1
  Zn  Zn146  1  0.93929053  0.94027513  0.68884170  1
  Zn  Zn147  1  0.06238150  0.06321019  0.31072909  1
  Zn  Zn148  1  0.06630367  0.06093001  0.80919094  1
  Zn  Zn149  1  0.04968817  0.56579982  0.31648081  1
  Zn  Zn150  1  0.06677976  0.56440289  0.81616458  1
  Zn  Zn151  1  0.56460989  0.05878812  0.31382197  1
  Zn  Zn152  1  0.56500386  0.06263597  0.81223137  1
  Zn  Zn153  1  0.56156337  0.56605531  0.31830380  1
  Zn  Zn154  1  0.56460472  0.55835080  0.82450598  1
  Zn  Zn155  1  0.43811626  0.18369922  0.43608913  1
  Zn  Zn156  1  0.42764886  0.19128725  0.93194838  1
  Zn  Zn157  1  0.43775613  0.68081651  0.43988068  1
  Zn  Zn158  1  0.48671365  0.72738100  0.97208967  1
  Zn  Zn159  1  0.93586230  0.18876405  0.43662118  1
  Zn  Zn160  1  0.94231350  0.18883015  0.93614951  1
  Zn  Zn161  1  0.93386004  0.68274013  0.43464599  1
  Zn  Zn162  1  0.93721903  0.68854089  0.94074982  1
  Zn  Zn163  1  0.06886403  0.31522237  0.06486875  1
  Zn  Zn164  1  0.06371318  0.31068785  0.56349653  1
  Zn  Zn165  1  0.06704677  0.81421889  0.06330499  1
  Zn  Zn166  1  0.06214412  0.81140855  0.56116813  1
  Zn  Zn167  1  0.56754404  0.30626154  0.06504566  1
  Zn  Zn168  1  0.55956800  0.31611239  0.56778538  1
  Zn  Zn169  1  0.67006968  0.79164462  0.05554406  1
  Zn  Zn170  1  0.56199364  0.81008347  0.56834480  1
  O  O171  1  0.11725950  0.11313394  0.12952200  1
  O  O172  1  0.12306183  0.12564269  0.60637994  1
  O  O173  1  0.11514477  0.62994464  0.11907858  1
  O  O174  1  0.11835352  0.61781314  0.62123150  1
  O  O175  1  0.61176194  0.13275697  0.12180344  1
  O  O176  1  0.62779222  0.12445388  0.61127061  1
  O  O177  1  0.61303275  0.61051692  0.13992148  1
  O  O178  1  0.62749255  0.61323718  0.61516319  1
  O  O179  1  0.38800313  0.37117099  0.37008852  1
  O  O180  1  0.38034837  0.39325920  0.83232343  1
  O  O181  1  0.36905903  0.88801279  0.37719416  1
  O  O182  1  0.37813901  0.88297620  0.87752542  1
  O  O183  1  0.89131792  0.38950534  0.33099632  1
  O  O184  1  0.88153522  0.38156317  0.88204035  1
  O  O185  1  0.88041461  0.88150223  0.37947886  1
  O  O186  1  0.88328371  0.87701363  0.88573395  1
  O  O187  1  0.25595880  0.00682384  0.36571940  1
  O  O188  1  0.25026703  0.00775909  0.85957934  1
  O  O189  1  0.24070938  0.51167350  0.38173053  1
  O  O190  1  0.25041195  0.50575670  0.86331501  1
  O  O191  1  0.75716777  0.00504168  0.36739491  1
  O  O192  1  0.75425372  -0.00638120  0.86093317  1
  O  O193  1  0.75793011  0.49365343  0.36479325  1
  O  O194  1  0.75701461  0.50676950  0.87290812  1
  O  O195  1  0.24424332  0.50699854  0.12484123  1
  O  O196  1  0.23907331  0.49234699  0.62416588  1
  O  O197  1  0.24522053  1.00360606  0.13021092  1
  O  O198  1  0.24453603  0.99071497  0.62901409  1
  O  O199  1  0.73770517  0.48451230  0.11630516  1
  O  O200  1  0.74268351  0.49211256  0.63259603  1
  O  O201  1  0.75565829  1.00609430  0.13999123  1
  O  O202  1  0.75199588  0.99024681  0.63263285  1
  O  O203  1  0.01174553  0.35642562  0.23595199  1
  O  O204  1  0.00575598  0.36870074  0.75339422  1
  O  O205  1  0.00249166  0.86914644  0.26099308  1
  O  O206  1  0.00657013  0.87534512  0.76208406  1
  O  O207  1  0.50926073  0.36617836  0.25946487  1
  O  O208  1  0.51755247  0.35594271  0.73708283  1
  O  O209  1  0.51196727  0.86821479  0.24908926  1
  O  O210  1  0.49792617  0.87160269  0.75506139  1
  O  O211  1  0.49897287  0.12881304  0.24393038  1
  O  O212  1  0.50917880  0.13813014  0.74304409  1
  O  O213  1  0.48822982  0.63239887  0.25117184  1
  O  O214  1  0.50283106  0.63212684  0.75714309  1
  O  O215  1  0.99760654  0.13284417  0.23995676  1
  O  O216  1  0.99515754  0.13241261  0.74711754  1
  O  O217  1  1.00422772  0.63924695  0.24205166  1
  O  O218  1  0.98791550  0.62303988  0.74681847  1
  O  O219  1  0.35499840  0.24721051  -0.00113011  1
  O  O220  1  0.36244645  0.24615118  0.50162734  1
  O  O221  1  0.37303785  0.75798055  0.00999230  1
  O  O222  1  0.37365851  0.75041028  0.50956776  1
  O  O223  1  0.87251966  0.25649416  0.00491359  1
  O  O224  1  0.86707506  0.24662200  0.50912244  1
  O  O225  1  0.87858972  0.76793042  0.00105467  1
  O  O226  1  0.86713219  0.75270141  0.50353492  1
  O  O227  1  0.13087163  0.24333944  0.49088989  1
  O  O228  1  0.14002344  0.25242301  1.00099353  1
  O  O229  1  0.12695727  0.74260384  0.48893759  1
  O  O230  1  0.14649837  0.75578325  0.99980459  1
  O  O231  1  0.63122950  0.24440847  0.49791881  1
  O  O232  1  0.63569584  0.24815240  0.99238853  1
  O  O233  1  0.62854932  0.74367209  0.49921242  1
  O  O234  1  0.59856515  0.74680794  0.98691091  1
  O  O235  1  0.49797762  0.24249886  0.13580220  1
  O  O236  1  0.48894856  0.24609347  0.62693238  1
  O  O237  1  0.48807785  0.74057963  0.14081782  1
  O  O238  1  0.48836774  0.75070186  0.63645158  1
  O  O239  1  0.99796591  0.24070696  0.12677961  1
  O  O240  1  0.99186610  0.24982336  0.63422828  1
  O  O241  1  1.00560405  0.75036926  0.13725417  1
  O  O242  1  0.99251448  0.74312825  0.62715887  1
  O  O243  1  0.00510840  0.24974386  0.36477530  1
  O  O244  1  -0.00305966  0.25786908  0.86131414  1
  O  O245  1  0.00531179  0.75452704  0.36782861  1
  O  O246  1  0.00424028  0.75796199  0.87419754  1
  O  O247  1  0.50789001  0.25586713  0.37350619  1
  O  O248  1  0.50820671  0.24598042  0.86685714  1
  O  O249  1  0.50270111  0.74771601  0.36748129  1
  O  O250  1  0.48954438  0.75769304  0.85691858  1
  O  O251  1  0.24067987  0.13313631  0.49090300  1
  O  O252  1  0.24321225  0.12813537  0.99343012  1
  O  O253  1  0.24142046  0.63012380  0.49302696  1
  O  O254  1  0.25417313  0.63549522  0.99076651  1
  O  O255  1  0.74397064  0.12983000  0.49419602  1
  O  O256  1  0.75771621  0.13961108  1.00591470  1
  O  O257  1  0.74092954  0.63502243  0.50400266  1
  O  O258  1  0.75949301  0.61531889  0.99583666  1
  O  O259  1  0.24876064  0.36922136  0.00079970  1
  O  O260  1  0.24021233  0.36488088  0.50741934  1
  O  O261  1  0.26266504  0.87097514  -0.00291007  1
  O  O262  1  0.25095376  0.86710454  0.50668878  1
  O  O263  1  0.75736607  0.36592122  0.00840235  1
  O  O264  1  0.74592273  0.37025769  0.51299460  1
  O  O265  1  0.75716513  0.87348218  -0.00380192  1
  O  O266  1  0.75753845  0.86944518  0.50852387  1
  O  O267  1  0.10845247  0.48567823  0.25388111  1
  O  O268  1  0.12655803  0.49451012  0.73758376  1
  O  O269  1  0.13507293  1.00098135  0.24348087  1
  O  O270  1  0.13436783  0.98725262  0.74489144  1
  O  O271  1  0.61591223  0.48920408  0.24522556  1
  O  O272  1  0.62620719  0.49249677  0.74585425  1
  O  O273  1  0.62980389  0.98460346  0.25431555  1
  O  O274  1  0.63508389  0.99828610  0.74551523  1
  O  O275  1  0.37200131  0.00461233  0.25457879  1
  O  O276  1  0.35720032  -0.00285714  0.74441606  1
  O  O277  1  0.38170717  0.51400703  0.25278897  1
  O  O278  1  0.35734732  0.51130415  0.72472102  1
  O  O279  1  0.86847324  0.00173947  0.25836807  1
  O  O280  1  0.86896421  0.00956659  0.75175901  1
  O  O281  1  0.85589223  0.52265821  0.22081189  1
  O  O282  1  0.86933590  0.50645842  0.75725039  1
  O  O283  1  0.11146062  0.36384081  0.36877786  1
  O  O284  1  0.11870544  0.38217216  0.85905165  1
  O  O285  1  0.11777191  0.86827471  0.37446741  1
  O  O286  1  0.11986717  0.87253488  0.86677093  1
  O  O287  1  0.62195787  0.37007484  0.37020517  1
  O  O288  1  0.63138327  0.36980963  0.86444005  1
  O  O289  1  0.62321611  0.86313223  0.38000656  1
  O  O290  1  0.61370931  0.86970808  0.86645392  1
  O  O291  1  0.38327993  0.13010001  0.13748512  1
  O  O292  1  0.37084584  0.13685045  0.61774539  1
  O  O293  1  0.37970107  0.63354945  0.14074100  1
  O  O294  1  0.37018178  0.63868490  0.62027933  1
  O  O295  1  0.88528194  0.12823822  0.13022857  1
  O  O296  1  0.87595462  0.13789222  0.63311976  1
  O  O297  1  0.89410783  0.64156722  0.11352222  1
  O  O298  1  0.87755047  0.62968145  0.63389935  1
  O  O299  1  0.25192391  0.25173854  0.11190996  1
  O  O300  1  0.25416773  0.25614865  0.61506181  1
  O  O301  1  0.26292897  0.75237404  0.11947520  1
  O  O302  1  0.25917233  0.75408357  0.61973960  1
  O  O303  1  0.75340055  0.25717347  0.11815566  1
  O  O304  1  0.75597104  0.25772589  0.62157637  1
  O  O305  1  0.74133775  0.74705468  0.12756499  1
  O  O306  1  0.75441404  0.75628388  0.61815665  1
  O  O307  1  0.24124826  0.24572942  0.37834585  1
  O  O308  1  0.24687848  0.24313782  0.88534309  1
  O  O309  1  0.24115089  0.74536252  0.38085322  1
  O  O310  1  0.25560982  0.74353974  0.88001503  1
  O  O311  1  0.74698649  0.24528013  0.38122815  1
  O  O312  1  0.74250669  0.25629921  0.88398480  1
  O  O313  1  0.74066359  0.75712754  0.39084288  1
  O  O314  1  0.75252749  0.73263032  0.87719570  1
  O  O315  1  -0.00430063  0.11651798  0.00944050  1
  O  O316  1  0.01432657  0.13107038  0.49797539  1
  O  O317  1  0.00490601  0.61865850  0.00367152  1
  O  O318  1  0.00321621  0.61682728  0.50781889  1
  O  O319  1  0.49462148  0.13067087  0.01433063  1
  O  O320  1  0.50849677  0.11629755  0.50142590  1
  O  O321  1  0.49010600  0.62013039  0.02118556  1
  O  O322  1  0.50552108  0.60762100  0.50047912  1
  O  O323  1  0.50632942  0.38745281  0.49327778  1
  O  O324  1  0.49622581  0.37887458  1.01031198  1
  O  O325  1  0.50079072  0.88720091  0.50574810  1
  O  O326  1  0.48478670  0.87245107  0.98015728  1
  O  O327  1  0.99876063  0.38675157  0.50439541  1
  O  O328  1  0.99644578  0.38091853  0.99866636  1
  O  O329  1  0.99314510  0.86799083  0.48587509  1
  O  O330  1  1.00213858  0.88106372  0.98988975  1
  O  O331  1  0.50403141  0.49173865  0.39058603  1
  O  O332  1  0.50260038  0.49908088  0.89906869  1
  O  O333  1  0.49133378  1.00435388  0.38390566  1
  O  O334  1  0.49474746  0.99410894  0.87107390  1
  O  O335  1  1.00422574  0.49914314  0.39764632  1
  O  O336  1  0.99431587  0.49520880  0.88279036  1
  O  O337  1  0.99079344  0.99111383  0.36850998  1
  O  O338  1  1.00076470  0.99423541  0.88183322  1
  O  O339  1  0.00723601  0.00566712  0.11911867  1
  O  O340  1  0.00393320  0.00022879  0.62165219  1
  O  O341  1  0.00377778  0.51322542  0.11880606  1
  O  O342  1  0.00412880  0.50374046  0.61975761  1
  O  O343  1  0.49657295  0.01806039  0.12486523  1
  O  O344  1  0.50177953  0.00308024  0.61635512  1
  O  O345  1  0.50522673  0.50306851  0.11991327  1
  O  O346  1  0.51109043  0.48873327  0.61446143  1
  O  O347  1  0.22676596  0.37645140  0.26449307  1
  O  O348  1  0.23947449  0.38162246  0.73933345  1
  O  O349  1  0.24955534  0.88904319  0.24686998  1
  O  O350  1  0.24397565  0.87977889  0.74228097  1
  O  O351  1  0.73620931  0.36261308  0.23946651  1
  O  O352  1  0.74310192  0.38061707  0.74279000  1
  O  O353  1  0.73324761  0.88110335  0.25505099  1
  O  O354  1  0.75236118  0.87990286  0.74263928  1
  O  O355  1  0.25955902  0.11791460  0.25219649  1
  O  O356  1  0.24496870  0.11123144  0.73825700  1
  O  O357  1  0.26308997  0.63029630  0.25841665  1
  O  O358  1  0.24107972  0.61541188  0.75683843  1
  O  O359  1  0.75311614  0.11884519  0.25664022  1
  O  O360  1  0.75993950  0.11514512  0.74392210  1
  O  O361  1  0.74393133  0.62785941  0.27581709  1
  O  O362  1  0.76045417  0.61848172  0.74912109  1
  O  O363  1  0.37162132  0.11442666  0.36540331  1
  O  O364  1  0.35203527  0.12464692  0.87158380  1
  O  O365  1  0.36493287  0.62905563  0.36442082  1
  O  O366  1  0.36247615  0.61225357  0.87276623  1
  O  O367  1  0.87201414  0.11741294  0.36885038  1
  O  O368  1  0.87923590  0.12501918  0.86243024  1
  O  O369  1  0.88037425  0.61185757  0.36619258  1
  O  O370  1  0.86746377  0.62016680  0.87098373  1
  O  O371  1  0.13304063  0.37807138  0.13962635  1
  O  O372  1  0.12974847  0.38138401  0.63148105  1
  O  O373  1  0.12966255  0.88987800  0.12743052  1
  O  O374  1  0.13616835  0.87107558  0.62871417  1
  O  O375  1  0.62960233  0.37939719  0.13450991  1
  O  O376  1  0.63472424  0.38067573  0.63343181  1
  O  O377  1  0.62202264  0.87303532  0.13495985  1
  O  O378  1  0.63901402  0.87518255  0.62642190  1
  O  O379  1  0.11977564  0.25178211  0.25653898  1
  O  O380  1  0.11562767  0.26024368  0.74134634  1
  O  O381  1  0.12366613  0.75327191  0.26122856  1
  O  O382  1  0.12339361  0.76278663  0.74955379  1
  O  O383  1  0.61616408  0.25380802  0.25765884  1
  O  O384  1  0.62425887  0.25458516  0.75884916  1
  O  O385  1  0.61604423  0.76051046  0.26086773  1
  O  O386  1  0.60953257  0.74874129  0.75022076  1
  O  O387  1  0.39294331  0.23489823  0.26305150  1
  O  O388  1  0.38344039  0.24941501  0.74010385  1
  O  O389  1  0.38035741  0.75200097  0.24676945  1
  O  O390  1  0.38337428  0.74872804  0.73631416  1
  O  O391  1  0.88244399  0.23962041  0.24281065  1
  O  O392  1  0.88072504  0.24416004  0.74466219  1
  O  O393  1  0.88406376  0.75951014  0.24725577  1
  O  O394  1  0.87642091  0.74139563  0.74584063  1
  O  O395  1  0.38732903  0.50004866  0.50610141  1
  O  O396  1  0.38851201  0.49498120  1.00638782  1
  O  O397  1  0.38272666  0.99928598  0.49154262  1
  O  O398  1  0.38032963  0.99478625  0.99750891  1
  O  O399  1  0.88599164  0.50100790  0.51071040  1
  O  O400  1  0.88669306  0.49396116  1.00186621  1
  O  O401  1  0.86845504  0.99662884  0.48679576  1
  O  O402  1  0.88685425  0.98802039  0.99790619  1
  O  O403  1  0.11508764  -0.00388979  0.00583592  1
  O  O404  1  0.13159836  0.01647879  0.49399839  1
  O  O405  1  0.11258949  0.49874349  0.00094529  1
  O  O406  1  0.11741744  0.50347932  0.51219338  1
  O  O407  1  0.61891809  0.00458895  -0.00306081  1
  O  O408  1  0.61938705  0.00776482  0.49964163  1
  O  O409  1  0.61211478  0.49207716  0.01334671  1
  O  O410  1  0.62483569  0.50669431  0.50794798  1
  O  O411  1  0.36105838  0.35982454  0.16639337  1
  O  O412  1  0.36118194  0.36446146  0.62953651  1
  O  O413  1  0.37649364  0.87000838  0.11658525  1
  O  O414  1  0.36294425  0.86610776  0.62136131  1
  O  O415  1  0.86600520  0.36746354  0.12675700  1
  O  O416  1  0.86489426  0.36221983  0.63390349  1
  O  O417  1  0.87752492  0.87480115  0.10865226  1
  O  O418  1  0.86823032  0.86871404  0.62056830  1
  O  O419  1  0.12739645  0.13431305  0.37999976  1
  O  O420  1  0.14658066  0.12270792  0.86233340  1
  O  O421  1  0.12867001  0.63189623  0.37753026  1
  O  O422  1  0.13654430  0.62850347  0.87961551  1
  O  O423  1  0.62966346  0.13091139  0.38474512  1
  O  O424  1  0.62805194  0.13679634  0.87779691  1
  O  O425  1  0.61710967  0.63771435  0.39107551  1
  O  O426  1  0.64637126  0.62077443  0.87545096  1
