# generated using pymatgen
data_V85Zn86O256
_symmetry_space_group_name_H-M   'P 1'
_cell_length_a   16.95050115
_cell_length_b   16.95462235
_cell_length_c   16.95999005
_cell_angle_alpha   90.01594458
_cell_angle_beta   89.96505174
_cell_angle_gamma   89.98728262
_symmetry_Int_Tables_number   1
_chemical_formula_structural   V85Zn86O256
_chemical_formula_sum   'V85 Zn86 O256'
_cell_volume   4874.11922701
_cell_formula_units_Z   1
loop_
 _symmetry_equiv_pos_site_id
 _symmetry_equiv_pos_as_xyz
  1  'x, y, z'
loop_
 _atom_site_type_symbol
 _atom_site_label
 _atom_site_symmetry_multiplicity
 _atom_site_fract_x
 _atom_site_fract_y
 _atom_site_fract_z
 _atom_site_occupancy
  V  V0  1  0.24635989  0.37152879  0.13016674  1
  V  V1  1  0.63814416  -0.00013838  0.62621198  1
  V  V2  1  0.37827928  0.50137932  0.87958198  1
  V  V3  1  0.00301846  0.37786535  0.36610205  1
  V  V4  1  0.23812406  0.37151735  0.62732449  1
  V  V5  1  0.63752069  0.73817051  0.88692591  1
  V  V6  1  0.37742266  0.74906925  0.12526397  1
  V  V7  1  0.25502878  0.13086500  0.37992231  1
  V  V8  1  0.62622336  0.37467356  0.75165955  1
  V  V9  1  0.62178451  0.87660009  0.24667641  1
  V  V10  1  0.50096400  0.12414560  0.62478003  1
  V  V11  1  0.13138439  0.00507255  0.13008086  1
  V  V12  1  0.11634892  0.87745812  0.75424603  1
  V  V13  1  0.00327605  0.49769882  0.50558775  1
  V  V14  1  0.49931559  0.37450354  0.37903450  1
  V  V15  1  0.23983582  0.49559837  0.25184799  1
  V  V16  1  0.87043294  0.50462303  0.37611384  1
  V  V17  1  0.74949548  0.11789345  0.37196311  1
  V  V18  1  -0.05853808  0.68160528  0.57276743  1
  V  V19  1  0.24905506  0.87637200  0.62815044  1
  V  V20  1  0.49817209  0.61267530  0.11403463  1
  V  V21  1  0.63303736  0.87578801  0.74862841  1
  V  V22  1  0.12939619  0.75704930  0.36969513  1
  V  V23  1  0.12210798  0.51628942  0.62604931  1
  V  V24  1  0.37734968  0.62290896  0.74562082  1
  V  V25  1  0.25310856  0.00645010  0.25321556  1
  V  V26  1  0.24036319  0.49379430  0.75479511  1
  V  V27  1  0.50333784  0.24951786  0.75415940  1
  V  V28  1  0.12846663  0.25529469  0.37073633  1
  V  V29  1  0.50171338  -0.00102170  0.50267692  1
  V  V30  1  -0.00350998  0.74535199  0.74989912  1
  V  V31  1  -0.00260329  -0.00204899  0.49792783  1
  V  V32  1  0.37456450  0.12361925  0.74872549  1
  V  V33  1  0.50301171  0.87200965  0.87578091  1
  V  V34  1  0.37049474  0.62268303  0.25104596  1
  V  V35  1  0.75097107  0.24714955  -0.00273774  1
  V  V36  1  0.74241428  0.50640715  0.25515671  1
  V  V37  1  0.87968979  0.37305025  -0.00470768  1
  V  V38  1  0.74487025  0.37012606  0.61967278  1
  V  V39  1  0.37452509  0.87410395  0.50176128  1
  V  V40  1  0.50359020  0.37355565  0.87900416  1
  V  V41  1  0.49697272  0.74386771  0.25504008  1
  V  V42  1  0.86815745  0.50017525  0.87410506  1
  V  V43  1  0.87287762  0.12101752  0.74689124  1
  V  V44  1  0.37057505  0.37155828  0.50278849  1
  V  V45  1  0.49998744  0.24716342  0.25316685  1
  V  V46  1  0.63232796  0.13028206  0.50160524  1
  V  V47  1  0.00345656  0.25496012  0.74815566  1
  V  V48  1  0.75663774  0.86103129  0.61498456  1
  V  V49  1  0.49483820  0.51255116  0.50914184  1
  V  V50  1  0.12434601  0.13006212  0.49876948  1
  V  V51  1  0.63546281  0.25417837  0.37904543  1
  V  V52  1  0.37663062  -0.00112773  0.87199889  1
  V  V53  1  0.37555361  0.24714395  0.13037371  1
  V  V54  1  0.24445365  0.74494294  0.50486606  1
  V  V55  1  0.12368213  0.12728901  -0.00161376  1
  V  V56  1  0.25290922  0.87619221  0.13158356  1
  V  V57  1  0.63889442  0.62583643  0.50497489  1
  V  V58  1  0.00134988  0.50379566  -0.00440594  1
  V  V59  1  0.49732016  0.12388509  0.12994510  1
  V  V60  1  0.88256487  0.62266716  0.23634885  1
  V  V61  1  0.62406799  0.37820468  0.24281922  1
  V  V62  1  0.00286128  0.87747718  0.35958077  1
  V  V63  1  0.50235849  -0.00067184  -0.00193226  1
  V  V64  1  0.24091374  0.62358424  0.37973596  1
  V  V65  1  0.37742281  0.00305265  0.37262186  1
  V  V66  1  0.50290184  0.74432044  0.74681583  1
  V  V67  1  0.11934225  0.75173598  0.87662613  1
  V  V68  1  0.79476086  -0.04940872  0.20503101  1
  V  V69  1  0.36927486  0.24927026  0.62290077  1
  V  V70  1  0.24902883  0.75141077  -0.00004914  1
  V  V71  1  0.37044203  0.49856084  0.37836955  1
  V  V72  1  0.86862460  0.62740615  0.75242310  1
  V  V73  1  0.24947658  0.12471922  0.87430701  1
  V  V74  1  0.74634794  0.12059504  0.86860482  1
  V  V75  1  0.87092230  0.36632795  0.49814250  1
  V  V76  1  0.24474717  0.62531601  0.88059023  1
  V  V77  1  0.12189970  0.49799836  0.11970560  1
  V  V78  1  0.63903015  0.74444597  0.38032063  1
  V  V79  1  -0.00132477  0.13038404  0.12784202  1
  V  V80  1  0.62165902  0.13161370  -0.00646824  1
  V  V81  1  0.87139733  0.13430912  0.24866460  1
  V  V82  1  0.88224959  -0.00830377  0.87308051  1
  V  V83  1  0.67589105  0.55279687  0.06883533  1
  V  V84  1  0.37783637  0.37830288  0.00293096  1
  Zn  Zn85  1  0.62173038  -0.00043421  0.13346947  1
  Zn  Zn86  1  -0.00046023  0.74587864  0.23545814  1
  Zn  Zn87  1  0.00129261  -0.00490470  -0.00481229  1
  Zn  Zn88  1  0.50094358  0.87089801  0.37808098  1
  Zn  Zn89  1  0.25078837  0.24961245  -0.00034169  1
  Zn  Zn90  1  0.74818541  0.37637628  0.12080752  1
  Zn  Zn91  1  0.86519752  0.85974096  0.01036473  1
  Zn  Zn92  1  0.07094437  0.66243740  0.05423488  1
  Zn  Zn93  1  0.00401716  0.25817714  0.24699473  1
  Zn  Zn94  1  0.12857498  0.25435891  0.86784664  1
  Zn  Zn95  1  0.37599353  0.87414499  -0.00090134  1
  Zn  Zn96  1  0.74504090  0.50628661  0.75147439  1
  Zn  Zn97  1  0.87633725  0.86310389  0.49773113  1
  Zn  Zn98  1  0.61776824  0.50554899  0.63200666  1
  Zn  Zn99  1  0.01399508  0.37846835  0.86781311  1
  Zn  Zn100  1  0.12221788  0.00168371  0.62563209  1
  Zn  Zn101  1  0.87266950  -0.00537070  0.37372521  1
  Zn  Zn102  1  -0.00154350  0.12470129  0.62228533  1
  Zn  Zn103  1  0.87437463  0.25324334  0.12425615  1
  Zn  Zn104  1  0.38016354  0.74459663  0.62436227  1
  Zn  Zn105  1  0.87089620  0.24755297  0.62239622  1
  Zn  Zn106  1  0.24656716  -0.00153605  0.75023162  1
  Zn  Zn107  1  0.19073259  0.18597652  0.19395960  1
  Zn  Zn108  1  0.18676404  0.18460779  0.68523727  1
  Zn  Zn109  1  0.17737119  0.69124401  0.18404832  1
  Zn  Zn110  1  0.19047628  0.68954386  0.69380241  1
  Zn  Zn111  1  0.68563775  0.18728105  0.18419429  1
  Zn  Zn112  1  0.68880020  0.19092719  0.68822745  1
  Zn  Zn113  1  0.68245320  0.68560401  0.19643666  1
  Zn  Zn114  1  0.68501666  0.68924007  0.68731206  1
  Zn  Zn115  1  0.31190850  0.31072581  0.31232095  1
  Zn  Zn116  1  0.31281259  0.31246885  0.81190956  1
  Zn  Zn117  1  0.31047017  0.81394383  0.31387042  1
  Zn  Zn118  1  0.31216141  0.81114039  0.81108907  1
  Zn  Zn119  1  0.81163089  0.31707700  0.31096575  1
  Zn  Zn120  1  0.81366123  0.30696908  0.81382802  1
  Zn  Zn121  1  0.81825025  0.80293600  0.31322082  1
  Zn  Zn122  1  0.81023313  0.81193172  0.80931153  1
  Zn  Zn123  1  0.18454718  0.43577104  0.44452192  1
  Zn  Zn124  1  0.18783944  0.43159418  0.93943800  1
  Zn  Zn125  1  0.18578077  0.93969005  0.43911249  1
  Zn  Zn126  1  0.18768389  0.93843071  0.93941089  1
  Zn  Zn127  1  0.68485705  0.44131104  0.43891181  1
  Zn  Zn128  1  0.69032111  0.43163002  0.93300846  1
  Zn  Zn129  1  0.68612784  0.93413863  0.43682299  1
  Zn  Zn130  1  0.68749168  0.94016706  0.92799220  1
  Zn  Zn131  1  0.31633931  0.06398413  0.05945915  1
  Zn  Zn132  1  0.31006705  0.06083017  0.56058754  1
  Zn  Zn133  1  0.30966438  0.56144028  0.06315596  1
  Zn  Zn134  1  0.30764314  0.56013017  0.56599884  1
  Zn  Zn135  1  0.78554913  0.02465954  0.03783322  1
  Zn  Zn136  1  0.81340476  0.06177171  0.55781524  1
  Zn  Zn137  1  0.81451164  0.68276281  0.06573009  1
  Zn  Zn138  1  0.80749884  0.54810824  0.56481306  1
  Zn  Zn139  1  0.43297948  0.43571670  0.19339102  1
  Zn  Zn140  1  0.43416145  0.43699672  0.69009836  1
  Zn  Zn141  1  0.44000024  0.93447224  0.18950723  1
  Zn  Zn142  1  0.44159464  0.93509137  0.68798098  1
  Zn  Zn143  1  0.93330304  0.44203559  0.18137681  1
  Zn  Zn144  1  0.93394308  0.43819804  0.68578939  1
  Zn  Zn145  1  0.96407187  0.92151024  0.15915976  1
  Zn  Zn146  1  0.93626382  0.93756284  0.68459037  1
  Zn  Zn147  1  0.06293051  0.06565644  0.31127638  1
  Zn  Zn148  1  0.05865272  0.06510829  0.81060301  1
  Zn  Zn149  1  0.06320167  0.56052780  0.31427187  1
  Zn  Zn150  1  0.05817402  0.56622181  0.81296984  1
  Zn  Zn151  1  0.56045224  0.06374005  0.31598483  1
  Zn  Zn152  1  0.56528882  0.06076863  0.80955401  1
  Zn  Zn153  1  0.55895806  0.56300900  0.31969641  1
  Zn  Zn154  1  0.56199780  0.56205215  0.81941132  1
  Zn  Zn155  1  0.44062488  0.18760405  0.43996610  1
  Zn  Zn156  1  0.43454098  0.18976115  0.93914247  1
  Zn  Zn157  1  0.43064092  0.68691680  0.43710932  1
  Zn  Zn158  1  0.43919263  0.68949833  0.93603089  1
  Zn  Zn159  1  0.94020888  0.18822710  0.43255586  1
  Zn  Zn160  1  0.93745650  0.18492132  0.93344410  1
  Zn  Zn161  1  0.94240613  0.68489392  0.41116717  1
  Zn  Zn162  1  0.93196727  0.68929436  0.92856696  1
  Zn  Zn163  1  0.06448678  0.31349221  0.05696390  1
  Zn  Zn164  1  0.05763502  0.30949014  0.56037648  1
  Zn  Zn165  1  0.06629898  0.82372250  0.06455697  1
  Zn  Zn166  1  0.06717411  0.82005404  0.55749912  1
  Zn  Zn167  1  0.56174795  0.31118209  0.06026750  1
  Zn  Zn168  1  0.55828200  0.31337346  0.56410235  1
  Zn  Zn169  1  0.68939079  0.81826299  0.06013525  1
  Zn  Zn170  1  0.56425963  0.80970276  0.56344204  1
  O  O171  1  0.12602245  0.12190747  0.11860801  1
  O  O172  1  0.12492005  0.12176874  0.61254132  1
  O  O173  1  0.14566421  0.60125028  0.11923981  1
  O  O174  1  0.13313536  0.61516211  0.62700625  1
  O  O175  1  0.61121363  0.12416557  0.11644337  1
  O  O176  1  0.62399043  0.11946055  0.61929708  1
  O  O177  1  0.61058754  0.61733201  0.12775071  1
  O  O178  1  0.62468891  0.62538805  0.61018814  1
  O  O179  1  0.37630743  0.37801696  0.38511179  1
  O  O180  1  0.37885088  0.38073083  0.88345088  1
  O  O181  1  0.37362106  0.88156341  0.38867952  1
  O  O182  1  0.38324016  0.88161917  0.87246450  1
  O  O183  1  0.88170690  0.38332951  0.38053334  1
  O  O184  1  0.87742661  0.37789860  0.88222045  1
  O  O185  1  0.88604534  0.87216148  0.37744366  1
  O  O186  1  0.86794916  0.89109354  0.87174877  1
  O  O187  1  0.25681400  0.00507487  0.37016192  1
  O  O188  1  0.25731167  0.00919783  0.87449715  1
  O  O189  1  0.24800743  0.50464828  0.37201012  1
  O  O190  1  0.25580539  0.50559031  0.87070612  1
  O  O191  1  0.74848648  0.01428313  0.37856918  1
  O  O192  1  0.76030396  0.01389612  0.87233095  1
  O  O193  1  0.75943935  0.49197994  0.36756797  1
  O  O194  1  0.76372050  0.49246926  0.86887511  1
  O  O195  1  0.24893887  0.48837922  0.13374012  1
  O  O196  1  0.24096868  0.49193466  0.63403700  1
  O  O197  1  0.25264731  1.00048753  0.13406194  1
  O  O198  1  0.24834166  0.98729440  0.62643227  1
  O  O199  1  0.73387592  0.49526510  0.13553397  1
  O  O200  1  0.74131545  0.48512260  0.63328794  1
  O  O201  1  0.74077814  1.01418543  0.14316675  1
  O  O202  1  0.74009200  0.99418022  0.61954882  1
  O  O203  1  -0.00468280  0.38067065  0.26293503  1
  O  O204  1  -0.00918140  0.35793896  0.74838712  1
  O  O205  1  -0.00119721  0.87003767  0.25552967  1
  O  O206  1  0.01034684  0.86345666  0.73986643  1
  O  O207  1  0.50511751  0.37014260  0.25924350  1
  O  O208  1  0.50539218  0.36836618  0.75619343  1
  O  O209  1  0.50503016  0.86217005  0.25406450  1
  O  O210  1  0.50862324  0.86911029  0.75833532  1
  O  O211  1  0.50493994  0.13304265  0.24133909  1
  O  O212  1  0.49549715  0.13148665  0.74485332  1
  O  O213  1  0.48881135  0.62642609  0.25148447  1
  O  O214  1  0.49069944  0.63221967  0.75702845  1
  O  O215  1  0.99185126  0.13189711  0.24658175  1
  O  O216  1  0.98822821  0.13145189  0.74545125  1
  O  O217  1  0.98724449  0.61995719  0.25255214  1
  O  O218  1  0.99072479  0.63707819  0.74656609  1
  O  O219  1  0.37330954  0.25667776  0.01371077  1
  O  O220  1  0.38070196  0.25872905  0.51115013  1
  O  O221  1  0.36840635  0.75216995  0.00626741  1
  O  O222  1  0.36559165  0.75746587  0.50446472  1
  O  O223  1  0.86937645  0.25346731  -0.00011689  1
  O  O224  1  0.87925271  0.26310279  0.49826695  1
  O  O225  1  0.87858405  0.74897230  0.00289931  1
  O  O226  1  0.89039401  0.73958275  0.50562819  1
  O  O227  1  0.11923914  0.23731616  0.48978107  1
  O  O228  1  0.13011473  0.23717701  0.99763570  1
  O  O229  1  0.13967132  0.75426694  0.49311947  1
  O  O230  1  0.12896528  0.75265897  0.99123448  1
  O  O231  1  0.61600112  0.24184353  0.49148319  1
  O  O232  1  0.63032012  0.23835164  1.00046682  1
  O  O233  1  0.61862139  0.73748596  0.49042562  1
  O  O234  1  0.62222227  0.76106538  0.98388654  1
  O  O235  1  0.49423258  0.24327378  0.13110970  1
  O  O236  1  0.48929032  0.24388647  0.63214480  1
  O  O237  1  0.49083466  0.73254779  0.14343491  1
  O  O238  1  0.49850041  0.75595862  0.64201504  1
  O  O239  1  1.00352826  0.24159574  0.12689547  1
  O  O240  1  0.99345108  0.24618439  0.63321502  1
  O  O241  1  1.06070399  0.73714100  0.13944752  1
  O  O242  1  1.00395197  0.74523316  0.62613223  1
  O  O243  1  0.00873239  0.26146570  0.37280221  1
  O  O244  1  0.00109276  0.24808372  0.85923844  1
  O  O245  1  0.01446865  0.75667122  0.36386444  1
  O  O246  1  0.01149024  0.74829761  0.86462796  1
  O  O247  1  0.50658906  0.25480871  0.37075870  1
  O  O248  1  0.48954501  0.26072343  0.86554625  1
  O  O249  1  0.49668508  0.74868205  0.36547921  1
  O  O250  1  0.50538851  0.75806369  0.86700578  1
  O  O251  1  0.24056463  0.11830307  0.48808216  1
  O  O252  1  0.24438656  0.12542032  0.99143048  1
  O  O253  1  0.25535377  0.63305959  0.49342860  1
  O  O254  1  0.25525925  0.63138127  0.98720819  1
  O  O255  1  0.73892744  0.12563590  0.49283697  1
  O  O256  1  0.73862925  0.12479774  0.99267990  1
  O  O257  1  0.73698191  0.61654154  0.50029904  1
  O  O258  1  0.73985908  0.60584575  1.01519468  1
  O  O259  1  0.26266572  0.37092598  0.00989224  1
  O  O260  1  0.26339010  0.38106031  0.51085602  1
  O  O261  1  0.25402923  0.87255987  0.01179606  1
  O  O262  1  0.25573955  0.87008229  0.50814258  1
  O  O263  1  0.75692196  0.36231476  -0.00213550  1
  O  O264  1  0.75721845  0.38195805  0.50733662  1
  O  O265  1  0.75433104  0.90338001  0.01155687  1
  O  O266  1  0.75421981  0.87613121  0.50985702  1
  O  O267  1  0.13488837  0.50032336  0.24424515  1
  O  O268  1  0.13450282  0.50518640  0.74503952  1
  O  O269  1  0.14033582  1.00964326  0.24277866  1
  O  O270  1  0.12437366  0.99118213  0.74919011  1
  O  O271  1  0.63013600  0.49012321  0.26491366  1
  O  O272  1  0.62336855  0.49037216  0.75109829  1
  O  O273  1  0.61348301  0.98499523  0.25429855  1
  O  O274  1  0.61955302  0.98898855  0.73728138  1
  O  O275  1  0.37393798  -0.00427459  0.26644644  1
  O  O276  1  0.37554564  0.00582622  0.75567637  1
  O  O277  1  0.36194182  0.50229854  0.26020002  1
  O  O278  1  0.36498003  0.50464657  0.75836467  1
  O  O279  1  0.86669535  0.00814713  0.25365590  1
  O  O280  1  0.88090405  0.01210220  0.75721237  1
  O  O281  1  0.86682055  0.50390547  0.25574122  1
  O  O282  1  0.87516540  0.50808273  0.75580736  1
  O  O283  1  0.11679448  0.36710348  0.38319227  1
  O  O284  1  0.12836198  0.36784665  0.87197541  1
  O  O285  1  0.11614025  0.86882241  0.38170519  1
  O  O286  1  0.13127076  0.86622452  0.86570917  1
  O  O287  1  0.61934395  0.36809551  0.37271464  1
  O  O288  1  0.61105197  0.37581094  0.86848225  1
  O  O289  1  0.62140495  0.85932023  0.37406791  1
  O  O290  1  0.61946221  0.87426204  0.86366082  1
  O  O291  1  0.38764856  0.13297949  0.12028687  1
  O  O292  1  0.37761454  0.13093062  0.62749389  1
  O  O293  1  0.37706459  0.62918629  0.13172361  1
  O  O294  1  0.36708816  0.62441258  0.64165121  1
  O  O295  1  0.88545075  0.12756355  0.13879795  1
  O  O296  1  0.87154135  0.12472840  0.63507626  1
  O  O297  1  0.87754945  0.61285008  0.13829484  1
  O  O298  1  0.87646078  0.62231046  0.62651135  1
  O  O299  1  0.25809696  0.25435982  0.12837302  1
  O  O300  1  0.26104365  0.25638722  0.63232393  1
  O  O301  1  0.25472115  0.76007586  0.12222752  1
  O  O302  1  0.25244412  0.75968393  0.62158517  1
  O  O303  1  0.75081888  0.24939986  0.11049050  1
  O  O304  1  0.75133003  0.26418308  0.62645586  1
  O  O305  1  0.74246050  0.74549652  0.12640457  1
  O  O306  1  0.74491703  0.76310744  0.62036107  1
  O  O307  1  0.24520327  0.24139014  0.37404571  1
  O  O308  1  0.25338608  0.23557882  0.87470509  1
  O  O309  1  0.25077120  0.74302496  0.38687507  1
  O  O310  1  0.24333653  0.74389706  0.87977767  1
  O  O311  1  0.73860343  0.24607280  0.37410877  1
  O  O312  1  0.75515916  0.23496371  0.88722158  1
  O  O313  1  0.73722514  0.74669571  0.37559350  1
  O  O314  1  0.73660144  0.75319770  0.87284587  1
  O  O315  1  0.00815190  0.12445424  0.00852017  1
  O  O316  1  0.00662325  0.11837334  0.49737963  1
  O  O317  1  -0.00259369  0.60923130  -0.00973174  1
  O  O318  1  -0.00764687  0.62066343  0.50612398  1
  O  O319  1  0.50417797  0.12059241  0.00351202  1
  O  O320  1  0.51093362  0.11991948  0.50677075  1
  O  O321  1  0.49167443  0.62417864  0.01548245  1
  O  O322  1  0.49721533  0.61512314  0.49790753  1
  O  O323  1  0.48828633  0.38184124  0.49715912  1
  O  O324  1  0.48823711  0.36867779  0.99267034  1
  O  O325  1  0.49119884  0.87865850  0.50153478  1
  O  O326  1  0.49855860  0.88557479  0.98337418  1
  O  O327  1  0.99159501  0.38278297  0.49322420  1
  O  O328  1  0.99405622  0.37942282  0.99376607  1
  O  O329  1  0.99750292  0.88272834  0.49023012  1
  O  O330  1  0.97875187  0.89062632  1.04345714  1
  O  O331  1  0.48980470  0.49276574  0.38562870  1
  O  O332  1  0.48558758  0.48893070  0.87012567  1
  O  O333  1  0.49270791  0.99785195  0.38496213  1
  O  O334  1  0.49638030  0.99513650  0.87878512  1
  O  O335  1  0.99620672  0.49498323  0.38491197  1
  O  O336  1  0.99295695  0.49571973  0.87756007  1
  O  O337  1  1.00025009  0.99217258  0.37670506  1
  O  O338  1  0.98796831  1.00013071  0.87542753  1
  O  O339  1  0.01652410  0.01999513  0.13324184  1
  O  O340  1  0.00163538  0.00175826  0.61301978  1
  O  O341  1  0.01167872  0.49253877  0.11328512  1
  O  O342  1  0.01035910  0.49378067  0.61909479  1
  O  O343  1  0.49804337  0.00629048  0.11635512  1
  O  O344  1  0.50786244  0.00611009  0.62011520  1
  O  O345  1  0.48841299  0.51426987  0.13149538  1
  O  O346  1  0.49932942  0.49330515  0.61385584  1
  O  O347  1  0.25506964  0.38299783  0.24207180  1
  O  O348  1  0.25689545  0.38469341  0.74114002  1
  O  O349  1  0.25900002  0.88863724  0.23913321  1
  O  O350  1  0.24090575  0.87430838  0.74311033  1
  O  O351  1  0.74130794  0.38375426  0.24633038  1
  O  O352  1  0.73475929  0.36821016  0.74898569  1
  O  O353  1  0.74276846  0.88210947  0.26441714  1
  O  O354  1  0.73854999  0.87147182  0.73629003  1
  O  O355  1  0.25515787  0.11528018  0.26334482  1
  O  O356  1  0.25616880  0.12111293  0.75619568  1
  O  O357  1  0.25292121  0.61663089  0.25788528  1
  O  O358  1  0.25695417  0.61858968  0.76278545  1
  O  O359  1  0.75721744  0.13605990  0.26001607  1
  O  O360  1  0.76049265  0.13141062  0.75582375  1
  O  O361  1  0.75724793  0.61026856  0.24945798  1
  O  O362  1  0.76389707  0.62574417  0.74046855  1
  O  O363  1  0.36809218  0.11589382  0.38534595  1
  O  O364  1  0.36943168  0.11906496  0.87010367  1
  O  O365  1  0.36101499  0.61740097  0.37144960  1
  O  O366  1  0.36997496  0.61723393  0.86906665  1
  O  O367  1  0.86715847  0.12612222  0.36469381  1
  O  O368  1  0.86952717  0.11822768  0.86270170  1
  O  O369  1  0.87405600  0.60865610  0.36551217  1
  O  O370  1  0.87694943  0.61343184  0.86260280  1
  O  O371  1  0.13959637  0.37959269  0.11979700  1
  O  O372  1  0.13653695  0.37606477  0.61685340  1
  O  O373  1  0.13946441  0.89734410  0.12218737  1
  O  O374  1  0.13379220  0.87743321  0.63290316  1
  O  O375  1  0.62103029  0.36845623  0.14026201  1
  O  O376  1  0.62693610  0.37563105  0.63318189  1
  O  O377  1  0.62593954  0.87616488  0.14340117  1
  O  O378  1  0.63241850  0.88128865  0.62737373  1
  O  O379  1  0.12414527  0.24709585  0.26556575  1
  O  O380  1  0.10725758  0.23956059  0.74757879  1
  O  O381  1  0.14822494  0.75819474  0.27091670  1
  O  O382  1  0.11859785  0.75605165  0.75646419  1
  O  O383  1  0.62007991  0.25781394  0.25953932  1
  O  O384  1  0.60958568  0.25527504  0.74566133  1
  O  O385  1  0.61537561  0.75120000  0.26592928  1
  O  O386  1  0.61854553  0.75635294  0.75713095  1
  O  O387  1  0.38309143  0.25576748  0.23814110  1
  O  O388  1  0.38384274  0.24480881  0.74247307  1
  O  O389  1  0.37732700  0.74357636  0.24760531  1
  O  O390  1  0.38272536  0.74018471  0.75166473  1
  O  O391  1  0.87902864  0.24783788  0.24641341  1
  O  O392  1  0.88220551  0.23725540  0.74832576  1
  O  O393  1  0.87969464  0.72915021  0.25186390  1
  O  O394  1  0.88474233  0.74343942  0.75431457  1
  O  O395  1  0.37832608  0.49443326  0.49814187  1
  O  O396  1  0.36883331  0.49071559  0.99130933  1
  O  O397  1  0.37941852  0.99268208  0.49381650  1
  O  O398  1  0.38733054  1.00049166  0.99100335  1
  O  O399  1  0.88333459  0.49265144  0.49393679  1
  O  O400  1  0.88591068  0.48791789  0.98782784  1
  O  O401  1  0.88753033  1.00159010  0.49283414  1
  O  O402  1  0.88091582  1.00951141  0.97944150  1
  O  O403  1  0.12384878  0.01161877  0.00673071  1
  O  O404  1  0.11382896  0.01008117  0.49760675  1
  O  O405  1  0.11582186  0.49364163  0.00638685  1
  O  O406  1  0.11158552  0.49945021  0.50877623  1
  O  O407  1  0.61281735  0.00996556  0.00028237  1
  O  O408  1  0.61995388  0.00710045  0.50595282  1
  O  O409  1  0.62631206  0.49128492  0.00728572  1
  O  O410  1  0.61378977  0.51418213  0.49850199  1
  O  O411  1  0.36952505  0.36884338  0.12022452  1
  O  O412  1  0.36759984  0.36716449  0.62100931  1
  O  O413  1  0.37127818  0.86756412  0.12323154  1
  O  O414  1  0.36901772  0.87457669  0.61660754  1
  O  O415  1  0.87184889  0.37425239  0.10907863  1
  O  O416  1  0.86471216  0.37517322  0.61480319  1
  O  O417  1  0.85198626  0.89272606  0.14607817  1
  O  O418  1  0.86016469  0.87661526  0.62205531  1
  O  O419  1  0.13362848  0.13191066  0.38035516  1
  O  O420  1  0.13296609  0.12516811  0.88112351  1
  O  O421  1  0.13583136  0.63193733  0.37423343  1
  O  O422  1  0.13414827  0.63654015  0.86934685  1
  O  O423  1  0.63081615  0.13265801  0.38164946  1
  O  O424  1  0.63239273  0.12060505  0.88036822  1
  O  O425  1  0.62005500  0.63706252  0.38670686  1
  O  O426  1  0.62157472  0.63845358  0.87776325  1
