# generated using pymatgen
data_V85Zn86O256
_symmetry_space_group_name_H-M   'P 1'
_cell_length_a   16.93955112
_cell_length_b   16.94003371
_cell_length_c   16.94619949
_cell_angle_alpha   90.00284679
_cell_angle_beta   90.00829788
_cell_angle_gamma   90.04308212
_symmetry_Int_Tables_number   1
_chemical_formula_structural   V85Zn86O256
_chemical_formula_sum   'V85 Zn86 O256'
_cell_volume   4862.82179828
_cell_formula_units_Z   1
loop_
 _symmetry_equiv_pos_site_id
 _symmetry_equiv_pos_as_xyz
  1  'x, y, z'
loop_
 _atom_site_type_symbol
 _atom_site_label
 _atom_site_symmetry_multiplicity
 _atom_site_fract_x
 _atom_site_fract_y
 _atom_site_fract_z
 _atom_site_occupancy
  V  V0  1  0.62113138  0.37521644  0.76386346  1
  V  V1  1  0.75173775  0.37059065  0.63149450  1
  V  V2  1  0.01563969  0.76504584  0.26312161  1
  V  V3  1  0.88145407  0.62319324  0.74837848  1
  V  V4  1  0.87223555  0.87824308  0.48821377  1
  V  V5  1  0.61834014  0.24603017  0.37037606  1
  V  V6  1  0.50168280  0.62461548  0.62386045  1
  V  V7  1  0.00057109  0.62719715  0.13012543  1
  V  V8  1  0.88103317  0.75556434  0.12248383  1
  V  V9  1  0.63457996  0.63223162  0.48511076  1
  V  V10  1  -0.00224531  0.37879059  0.37219312  1
  V  V11  1  0.37639879  0.62489115  0.75267857  1
  V  V12  1  0.12443318  0.25313247  0.37305789  1
  V  V13  1  0.37365335  0.12679930  0.75067827  1
  V  V14  1  0.49985456  -0.00127627  0.50153963  1
  V  V15  1  0.50280273  0.00442483  0.00339690  1
  V  V16  1  0.62528534  0.50051766  0.62536030  1
  V  V17  1  0.25266462  0.87221274  0.62774850  1
  V  V18  1  0.12486941  0.12405163  0.49876839  1
  V  V19  1  -0.00192029  0.12704049  0.13267472  1
  V  V20  1  0.49938379  0.12609268  0.62521269  1
  V  V21  1  0.24949354  0.74733478  -0.00288312  1
  V  V22  1  0.76661643  0.12271084  0.37400292  1
  V  V23  1  0.37497589  0.25293116  0.62367912  1
  V  V24  1  0.12388881  0.87309605  0.75070359  1
  V  V25  1  0.37523703  0.86939875  0.50262548  1
  V  V26  1  0.75368372  0.49978641  0.75699042  1
  V  V27  1  0.12417620  0.25274017  0.88313119  1
  V  V28  1  0.37493296  0.36722271  -0.00536719  1
  V  V29  1  0.38009415  0.25263182  0.13353034  1
  V  V30  1  0.00283993  0.00330182  -0.00549129  1
  V  V31  1  0.37069092  -0.00015129  0.37547427  1
  V  V32  1  0.51087794  0.74994262  0.75638471  1
  V  V33  1  0.49792558  0.75064611  0.25414386  1
  V  V34  1  0.85027151  0.64605862  0.25780304  1
  V  V35  1  0.25157955  0.13158345  0.88270359  1
  V  V36  1  -0.01010252  0.37781276  0.88690120  1
  V  V37  1  0.50272516  0.49623978  -0.00380589  1
  V  V38  1  0.12464884  0.62737276  0.50455764  1
  V  V39  1  0.63714449  0.24123095  0.88500826  1
  V  V40  1  0.86993444  0.37806380  0.49654966  1
  V  V41  1  0.24877392  0.36814839  0.12005798  1
  V  V42  1  0.37546027  -0.00246461  0.87584375  1
  V  V43  1  0.49771069  0.49187147  0.50025981  1
  V  V44  1  0.74471201  0.75722920  -0.00512538  1
  V  V45  1  0.25490986  0.25473479  0.49912762  1
  V  V46  1  0.86889489  0.50777149  0.37123885  1
  V  V47  1  0.24593706  0.62464947  0.38076895  1
  V  V48  1  0.86617347  0.24468671  0.12107281  1
  V  V49  1  0.49998149  0.25349766  0.76100915  1
  V  V50  1  0.51584697  0.87356816  0.87962332  1
  V  V51  1  0.12138364  0.49806305  0.11914392  1
  V  V52  1  0.75046386  0.37006600  0.10528720  1
  V  V53  1  0.11036595  0.50076586  0.62949100  1
  V  V54  1  -0.00436088  0.87468973  0.87191829  1
  V  V55  1  0.25150746  0.37643910  0.62288118  1
  V  V56  1  0.25119762  0.00252857  0.24843313  1
  V  V57  1  0.76412219  0.00148527  0.25658895  1
  V  V58  1  0.37874181  0.49644658  0.87516564  1
  V  V59  1  0.75737773  0.62301157  0.88001249  1
  V  V60  1  0.62619981  0.00479857  0.12835688  1
  V  V61  1  0.24718271  0.49886407  0.24807168  1
  V  V62  1  0.12629431  -0.00209179  0.61926633  1
  V  V63  1  -0.00142622  0.12730189  0.63466233  1
  V  V64  1  0.11801164  0.36777348  0.75193759  1
  V  V65  1  0.62226462  0.50220339  0.12223903  1
  V  V66  1  0.61578429  0.36848165  0.24753851  1
  V  V67  1  0.62545193  0.87396056  0.25441253  1
  V  V68  1  -0.00367767  0.50616880  0.50192995  1
  V  V69  1  0.50365460  0.87209789  0.37744405  1
  V  V70  1  0.62626087  -0.00388926  0.63136917  1
  V  V71  1  0.37296342  0.74757209  0.62504865  1
  V  V72  1  0.62274629  0.63086225  -0.00409893  1
  V  V73  1  0.24985615  0.87618932  0.12204615  1
  V  V74  1  0.12591904  0.00013019  0.12817849  1
  V  V75  1  0.50392748  0.13135888  0.13013558  1
  V  V76  1  0.74819065  0.25074777  0.49869887  1
  V  V77  1  0.62699781  0.12276657  0.49900670  1
  V  V78  1  0.77463012  0.00639969  0.74769711  1
  V  V79  1  0.87299745  0.74447528  0.61523268  1
  V  V80  1  0.24912392  0.49987107  0.75001131  1
  V  V81  1  0.37456250  0.49139403  0.37948678  1
  V  V82  1  0.37423566  0.62698455  0.25088296  1
  V  V83  1  0.87589925  0.88104327  -0.00391844  1
  V  V84  1  0.74727204  0.49355980  0.24986093  1
  Zn  Zn85  1  -0.00935547  -0.00243449  0.48748102  1
  Zn  Zn86  1  -0.00176806  0.74390061  0.74972965  1
  Zn  Zn87  1  0.87801166  0.23785342  0.62699993  1
  Zn  Zn88  1  0.49495637  0.36728224  0.37489609  1
  Zn  Zn89  1  0.24684463  0.62405095  0.87648270  1
  Zn  Zn90  1  -0.02249539  0.50278503  0.00187221  1
  Zn  Zn91  1  0.25163787  0.12828722  0.37212348  1
  Zn  Zn92  1  0.63472188  0.87381475  0.75538479  1
  Zn  Zn93  1  0.38069261  0.12991879  0.25344516  1
  Zn  Zn94  1  0.74953769  0.87658134  0.12593619  1
  Zn  Zn95  1  0.12448939  0.74669049  0.87333000  1
  Zn  Zn96  1  0.19910329  0.78801004  0.45646857  1
  Zn  Zn97  1  0.25003544  0.00165388  0.75213419  1
  Zn  Zn98  1  0.76879841  0.11781680  0.88800879  1
  Zn  Zn99  1  -0.01285356  0.24664463  0.25567248  1
  Zn  Zn100  1  0.37675831  0.87168870  -0.00146191  1
  Zn  Zn101  1  0.37344225  0.75185284  0.12620869  1
  Zn  Zn102  1  0.13061997  0.13048769  0.00522287  1
  Zn  Zn103  1  0.12014159  0.37515002  0.24725061  1
  Zn  Zn104  1  0.12014194  0.62480411  -0.00395872  1
  Zn  Zn105  1  0.49980744  0.62937212  0.12444660  1
  Zn  Zn106  1  0.74874555  0.86787732  0.62196270  1
  Zn  Zn107  1  0.18774402  0.18766021  0.18937933  1
  Zn  Zn108  1  0.18574770  0.18775734  0.69120525  1
  Zn  Zn109  1  0.18878221  0.68551580  0.18356309  1
  Zn  Zn110  1  0.18621291  0.68506157  0.68764726  1
  Zn  Zn111  1  0.69118356  0.18470797  0.18938493  1
  Zn  Zn112  1  0.68722177  0.18499316  0.69121776  1
  Zn  Zn113  1  0.69109251  0.69364782  0.19422321  1
  Zn  Zn114  1  0.69123689  0.68433006  0.68626420  1
  Zn  Zn115  1  0.30985360  0.31505530  0.30970683  1
  Zn  Zn116  1  0.30863032  0.31330559  0.81212516  1
  Zn  Zn117  1  0.29424000  0.82062896  0.31734364  1
  Zn  Zn118  1  0.31594451  0.81208844  0.81328059  1
  Zn  Zn119  1  0.80787736  0.31105025  0.30779984  1
  Zn  Zn120  1  0.84563373  0.25774411  0.81896370  1
  Zn  Zn121  1  0.81468081  0.81155623  0.30837127  1
  Zn  Zn122  1  0.81117695  0.81378290  0.80895228  1
  Zn  Zn123  1  0.18467522  0.44032729  0.43956038  1
  Zn  Zn124  1  0.19031105  0.43812341  0.93873518  1
  Zn  Zn125  1  0.14026607  0.94308901  0.39735017  1
  Zn  Zn126  1  0.18697452  0.93790733  0.93818589  1
  Zn  Zn127  1  0.68298964  0.43893953  0.43518781  1
  Zn  Zn128  1  0.81147420  0.43350548  0.93397945  1
  Zn  Zn129  1  0.69182639  0.93472232  0.44049100  1
  Zn  Zn130  1  0.70175198  0.96857860  0.94725307  1
  Zn  Zn131  1  0.31762566  0.06544194  0.06184849  1
  Zn  Zn132  1  0.30922313  0.06178384  0.56165830  1
  Zn  Zn133  1  0.31223815  0.56178137  0.06265948  1
  Zn  Zn134  1  0.31150748  0.55970480  0.56389934  1
  Zn  Zn135  1  0.81339558  0.06334108  0.06619978  1
  Zn  Zn136  1  0.81263764  0.05722288  0.56224714  1
  Zn  Zn137  1  0.80716620  0.56829902  0.07240590  1
  Zn  Zn138  1  0.80955891  0.56361387  0.56528006  1
  Zn  Zn139  1  0.43664993  0.43908286  0.18639452  1
  Zn  Zn140  1  0.43712880  0.43547782  0.68755532  1
  Zn  Zn141  1  0.43462385  0.93745529  0.18798365  1
  Zn  Zn142  1  0.44206303  0.93591578  0.69318576  1
  Zn  Zn143  1  0.93148357  0.43626846  0.18540642  1
  Zn  Zn144  1  0.91658985  0.40540262  0.70959213  1
  Zn  Zn145  1  0.94446426  0.93470967  0.18908693  1
  Zn  Zn146  1  0.94136166  0.93093795  0.67392281  1
  Zn  Zn147  1  0.05979993  0.06622387  0.31086464  1
  Zn  Zn148  1  0.06440126  0.06209679  0.81200759  1
  Zn  Zn149  1  0.06060566  0.56984245  0.31034659  1
  Zn  Zn150  1  0.06182497  0.55639901  0.81827302  1
  Zn  Zn151  1  0.56295203  0.06176176  0.31248019  1
  Zn  Zn152  1  0.56219891  0.06488303  0.81369994  1
  Zn  Zn153  1  0.56024379  0.55962262  0.31267689  1
  Zn  Zn154  1  0.56548810  0.56367362  0.81666287  1
  Zn  Zn155  1  0.43688743  0.18616451  0.43947829  1
  Zn  Zn156  1  0.44145539  0.18581108  0.94253119  1
  Zn  Zn157  1  0.43988111  0.68206265  0.43793629  1
  Zn  Zn158  1  0.43564213  0.68788547  0.93719991  1
  Zn  Zn159  1  0.94052098  0.19091949  0.44630810  1
  Zn  Zn160  1  0.94184170  0.19019731  0.94603892  1
  Zn  Zn161  1  0.94067313  0.69006833  0.43552515  1
  Zn  Zn162  1  0.93825127  0.68891133  0.93841623  1
  Zn  Zn163  1  0.05885391  0.30917022  0.06304025  1
  Zn  Zn164  1  0.06213840  0.31354259  0.56036722  1
  Zn  Zn165  1  0.06712150  0.81434226  0.06242117  1
  Zn  Zn166  1  0.04933556  0.81099090  0.56802498  1
  Zn  Zn167  1  0.56249737  0.31346718  0.05719371  1
  Zn  Zn168  1  0.56485279  0.31223078  0.56490616  1
  Zn  Zn169  1  0.56168431  0.81586679  0.06783855  1
  Zn  Zn170  1  0.56389906  0.80880087  0.56462039  1
  O  O171  1  0.11814493  0.12162268  0.12323618  1
  O  O172  1  0.12243883  0.11817251  0.61964540  1
  O  O173  1  0.11596203  0.61559488  0.12369807  1
  O  O174  1  0.12851866  0.61017529  0.62012632  1
  O  O175  1  0.62008794  0.11317140  0.13162048  1
  O  O176  1  0.61814244  0.11836816  0.61835675  1
  O  O177  1  0.62436002  0.61780811  0.11653883  1
  O  O178  1  0.61950471  0.61267454  0.62522496  1
  O  O179  1  0.37627553  0.38623085  0.37050038  1
  O  O180  1  0.37059491  0.38192070  0.88338576  1
  O  O181  1  0.38197224  0.88440966  0.38012162  1
  O  O182  1  0.38284853  0.88805345  0.87383809  1
  O  O183  1  0.87812017  0.38410310  0.37816062  1
  O  O184  1  0.88748618  0.36481023  0.87521228  1
  O  O185  1  0.87147676  0.86211254  0.38943179  1
  O  O186  1  0.88745375  0.87265610  0.88106502  1
  O  O187  1  0.25655189  0.00544426  0.36397833  1
  O  O188  1  0.25919578  0.00638607  0.87358636  1
  O  O189  1  0.25503666  0.50290791  0.36822108  1
  O  O190  1  0.26120955  0.50000557  0.86848584  1
  O  O191  1  0.74501481  0.00784366  0.36394542  1
  O  O192  1  0.75483835  -0.00016546  0.84914098  1
  O  O193  1  0.75697479  0.49599080  0.36305406  1
  O  O194  1  0.74835907  0.50734037  0.86704885  1
  O  O195  1  0.24368068  0.49272869  0.13190184  1
  O  O196  1  0.24228653  0.49087428  0.63026965  1
  O  O197  1  0.24575425  0.99846054  0.12583587  1
  O  O198  1  0.24704637  0.99013456  0.63077858  1
  O  O199  1  0.73559130  0.48243126  0.12370456  1
  O  O200  1  0.73874539  0.49712957  0.63415530  1
  O  O201  1  0.74238163  0.99781266  0.14215028  1
  O  O202  1  0.74125031  0.99694089  0.63180472  1
  O  O203  1  -0.00086205  0.37695526  0.26272631  1
  O  O204  1  0.01425974  0.38217580  0.76675902  1
  O  O205  1  0.01074079  0.86501424  0.24827988  1
  O  O206  1  0.00736214  0.87663237  0.75612858  1
  O  O207  1  0.51216074  0.37898809  0.25034887  1
  O  O208  1  0.50887558  0.36449756  0.74123915  1
  O  O209  1  0.50323529  0.87076725  0.25874646  1
  O  O210  1  0.50464368  0.86605001  0.76099202  1
  O  O211  1  0.49835405  0.12051030  0.23618858  1
  O  O212  1  0.49294256  0.13372472  0.74351711  1
  O  O213  1  0.49265210  0.63313988  0.25102142  1
  O  O214  1  0.49647297  0.63041152  0.74629206  1
  O  O215  1  0.99973451  0.12638018  0.23802691  1
  O  O216  1  1.00758863  0.12262139  0.73330931  1
  O  O217  1  0.98942459  0.62937083  0.23877394  1
  O  O218  1  0.98383157  0.61817316  0.75866570  1
  O  O219  1  0.38219847  0.26337230  0.00795326  1
  O  O220  1  0.36176641  0.24764452  0.50394922  1
  O  O221  1  0.36388395  0.74973107  0.00369419  1
  O  O222  1  0.38609198  0.75414877  0.51399967  1
  O  O223  1  0.88267942  0.25726485  0.02230248  1
  O  O224  1  0.86695161  0.26016179  0.50607754  1
  O  O225  1  0.87066198  0.76189334  0.00495151  1
  O  O226  1  0.87641774  0.74832262  0.51021500  1
  O  O227  1  0.13284442  0.24606983  0.49145506  1
  O  O228  1  0.12782428  0.25005824  0.98806919  1
  O  O229  1  0.12006950  0.73346128  0.51579152  1
  O  O230  1  0.13799666  0.74872877  0.99875573  1
  O  O231  1  0.63086919  0.24384456  0.49355731  1
  O  O232  1  0.61867223  0.24948715  0.98290607  1
  O  O233  1  0.61831852  0.73094205  0.50350872  1
  O  O234  1  0.63289308  0.74439200  1.00874635  1
  O  O235  1  0.49407707  0.24338223  0.12126187  1
  O  O236  1  0.49308722  0.24526753  0.62894204  1
  O  O237  1  0.49392472  0.75095908  0.13944646  1
  O  O238  1  0.49190607  0.74500874  0.63580287  1
  O  O239  1  0.99304309  0.24304145  0.13116078  1
  O  O240  1  1.00406600  0.23234303  0.61733410  1
  O  O241  1  0.99630454  0.74486597  0.12410181  1
  O  O242  1  0.98029273  0.74744908  0.63399916  1
  O  O243  1  0.00613294  0.25952986  0.37639993  1
  O  O244  1  0.01618707  0.26322097  0.87973856  1
  O  O245  1  0.00441098  0.74819487  0.36215393  1
  O  O246  1  0.00356734  0.76010006  0.87153799  1
  O  O247  1  0.51294952  0.24904304  0.38082427  1
  O  O248  1  0.50296464  0.24535696  0.86336890  1
  O  O249  1  0.49159018  0.75852703  0.36453651  1
  O  O250  1  0.49633308  0.76046748  0.86872178  1
  O  O251  1  0.24054756  0.13560026  0.50021897  1
  O  O252  1  0.25071717  0.12246614  0.98669215  1
  O  O253  1  0.23749165  0.61318821  0.49406655  1
  O  O254  1  0.24795277  0.63341878  1.00041608  1
  O  O255  1  0.74554426  0.12914288  0.49415729  1
  O  O256  1  0.73822547  0.07378894  0.98757709  1
  O  O257  1  0.73337687  0.61787906  0.50023739  1
  O  O258  1  0.74280604  0.63560951  0.99680291  1
  O  O259  1  0.26177759  0.38160913  0.01038189  1
  O  O260  1  0.24105938  0.36759517  0.51104712  1
  O  O261  1  0.25330833  0.86811480  0.00376694  1
  O  O262  1  0.26025037  0.86692213  0.52091763  1
  O  O263  1  0.74267175  0.37127744  0.00776523  1
  O  O264  1  0.74889397  0.36925110  0.50382127  1
  O  O265  1  0.75947097  0.87466838  -0.00027720  1
  O  O266  1  0.76256723  0.87340348  0.50348288  1
  O  O267  1  0.13127830  0.50052248  0.23990424  1
  O  O268  1  0.12921211  0.49304478  0.74398775  1
  O  O269  1  0.13580508  1.00759845  0.23558763  1
  O  O270  1  0.12706624  0.98939247  0.73904940  1
  O  O271  1  0.62742188  0.49306857  0.24186610  1
  O  O272  1  0.62736443  0.49429097  0.74522721  1
  O  O273  1  0.62715264  0.98966180  0.24651199  1
  O  O274  1  0.61669313  0.99912226  0.73606857  1
  O  O275  1  0.37119916  0.00335292  0.26001288  1
  O  O276  1  0.37772755  0.00826629  0.76014767  1
  O  O277  1  0.36673109  0.50501443  0.25525080  1
  O  O278  1  0.37208552  0.50281189  0.75718727  1
  O  O279  1  0.86241119  -0.00917934  0.24882723  1
  O  O280  1  0.87311176  -0.00171756  0.73814203  1
  O  O281  1  0.86550562  0.50442866  0.25646687  1
  O  O282  1  0.85980231  0.50384157  0.74495817  1
  O  O283  1  0.11503914  0.37144080  0.37513859  1
  O  O284  1  0.12644933  0.36653785  0.87140736  1
  O  O285  1  0.19130073  0.85316427  0.36767819  1
  O  O286  1  0.11664747  0.87596598  0.86580384  1
  O  O287  1  0.62306791  0.36491487  0.36559453  1
  O  O288  1  0.62099247  0.36195510  0.86246567  1
  O  O289  1  0.61106899  0.88053573  0.37174064  1
  O  O290  1  0.61629858  0.88711369  0.87692791  1
  O  O291  1  0.38309814  0.13724547  0.12497002  1
  O  O292  1  0.37801741  0.13135958  0.63006473  1
  O  O293  1  0.37567410  0.62318660  0.14036303  1
  O  O294  1  0.38065195  0.62931436  0.63113813  1
  O  O295  1  0.87978059  0.13571622  0.12389746  1
  O  O296  1  0.89397046  0.12211696  0.61548670  1
  O  O297  1  0.87768344  0.64124091  0.13513423  1
  O  O298  1  0.86966061  0.63194169  0.63462292  1
  O  O299  1  0.25674712  0.26269903  0.12971853  1
  O  O300  1  0.25254227  0.25678273  0.61900418  1
  O  O301  1  0.25103597  0.75917364  0.11879144  1
  O  O302  1  0.26509328  0.75423842  0.63462298  1
  O  O303  1  0.75504467  0.25638788  0.12408296  1
  O  O304  1  0.74443344  0.25877007  0.61710843  1
  O  O305  1  0.76040191  0.75623936  0.11462300  1
  O  O306  1  0.76597925  0.74940538  0.63184834  1
  O  O307  1  0.24397948  0.25278216  0.38227329  1
  O  O308  1  0.23988431  0.24327122  0.87273583  1
  O  O309  1  0.27114394  0.72434002  0.38415061  1
  O  O310  1  0.24940847  0.74879767  0.88295049  1
  O  O311  1  0.74173334  0.24200217  0.37938883  1
  O  O312  1  0.73791557  0.24865299  0.87320064  1
  O  O313  1  0.76940566  0.70873889  0.29363174  1
  O  O314  1  0.75296427  0.74540398  0.88910896  1
  O  O315  1  0.00387558  0.11735868  0.01183039  1
  O  O316  1  0.01553315  0.12121920  0.50263827  1
  O  O317  1  -0.00230226  0.62341168  0.01461341  1
  O  O318  1  0.00578654  0.61185142  0.49608759  1
  O  O319  1  0.49805196  0.11491897  0.01379161  1
  O  O320  1  0.50521009  0.11795435  0.50629366  1
  O  O321  1  0.50544728  0.61904450  0.00165562  1
  O  O322  1  0.50635552  0.61260192  0.50691750  1
  O  O323  1  0.50543026  0.38757899  0.49960974  1
  O  O324  1  0.49113670  0.38975747  1.00401574  1
  O  O325  1  0.49562627  0.87841579  0.49463777  1
  O  O326  1  0.49618091  0.87967714  0.99424018  1
  O  O327  1  0.99359509  0.38490407  0.49029924  1
  O  O328  1  1.00368458  0.37890993  0.98980682  1
  O  O329  1  0.98103183  0.87677493  0.50636677  1
  O  O330  1  0.99723096  0.88118711  0.99188402  1
  O  O331  1  0.49173183  0.49553228  0.38276513  1
  O  O332  1  0.48844960  0.50380039  0.88174657  1
  O  O333  1  0.49209006  0.99331070  0.38156181  1
  O  O334  1  0.49504159  0.99707437  0.88368437  1
  O  O335  1  0.99185070  0.49566577  0.37982670  1
  O  O336  1  1.00227245  0.48257766  0.88375325  1
  O  O337  1  1.04062014  0.98878356  0.38562661  1
  O  O338  1  1.00742113  0.99583885  0.88795367  1
  O  O339  1  0.00864341  0.00556803  0.11984770  1
  O  O340  1  0.01190377  0.00838904  0.61609119  1
  O  O341  1  0.00522634  0.50533189  0.12559961  1
  O  O342  1  0.00771893  0.48858582  0.61693242  1
  O  O343  1  0.50419764  0.00566918  0.12130170  1
  O  O344  1  0.50381685  0.00423472  0.61923508  1
  O  O345  1  0.50889412  0.50261834  0.11932363  1
  O  O346  1  0.50504393  0.50307924  0.61976504  1
  O  O347  1  0.24659028  0.38680946  0.24242489  1
  O  O348  1  0.23926296  0.38058581  0.74332289  1
  O  O349  1  0.26014115  0.89394479  0.23351001  1
  O  O350  1  0.24425271  0.87569671  0.74335849  1
  O  O351  1  0.73726633  0.38215652  0.24345850  1
  O  O352  1  0.73609041  0.38588345  0.74215061  1
  O  O353  1  0.74100643  0.88462637  0.25361436  1
  O  O354  1  0.75020115  0.88652975  0.74375354  1
  O  O355  1  0.25775336  0.11629737  0.24870647  1
  O  O356  1  0.25740553  0.12416777  0.76021762  1
  O  O357  1  0.25417171  0.61508322  0.25616909  1
  O  O358  1  0.25838256  0.61595415  0.74954220  1
  O  O359  1  0.74943706  0.11026842  0.25917079  1
  O  O360  1  0.75400507  0.10918751  0.74129902  1
  O  O361  1  0.75429294  0.59514717  0.21443484  1
  O  O362  1  0.75286342  0.61741102  0.76157078  1
  O  O363  1  0.37434202  0.11290992  0.37632182  1
  O  O364  1  0.37056052  0.11984742  0.87196874  1
  O  O365  1  0.37263073  0.61024530  0.36577153  1
  O  O366  1  0.37314384  0.61575645  0.86787218  1
  O  O367  1  0.86603515  0.13114062  0.38137609  1
  O  O368  1  0.87276194  0.15887969  0.86573309  1
  O  O369  1  0.88035502  0.61621702  0.36459902  1
  O  O370  1  0.86264862  0.62957598  0.87024306  1
  O  O371  1  0.13141146  0.37883046  0.12592304  1
  O  O372  1  0.12935019  0.37835073  0.63369559  1
  O  O373  1  0.13950356  0.88627148  0.11892338  1
  O  O374  1  0.13152406  0.87964311  0.62865653  1
  O  O375  1  0.63080547  0.37733792  0.12858094  1
  O  O376  1  0.63364924  0.38512832  0.62831687  1
  O  O377  1  0.62561102  0.88646271  0.13639467  1
  O  O378  1  0.62577510  0.88281797  0.62659713  1
  O  O379  1  0.12404359  0.25332164  0.26414769  1
  O  O380  1  0.12923140  0.25948174  0.76199277  1
  O  O381  1  0.11233931  0.74085289  0.24472548  1
  O  O382  1  0.12216906  0.76198891  0.74703466  1
  O  O383  1  0.63055667  0.25579212  0.25882088  1
  O  O384  1  0.61649914  0.25745603  0.74991177  1
  O  O385  1  0.61426558  0.76545156  0.24606492  1
  O  O386  1  0.61430917  0.74981485  0.74657727  1
  O  O387  1  0.37474561  0.25200384  0.23831826  1
  O  O388  1  0.38126866  0.24729520  0.74554118  1
  O  O389  1  0.37718449  0.74221463  0.25185166  1
  O  O390  1  0.38560917  0.74372828  0.74565889  1
  O  O391  1  0.87393147  0.25781695  0.23242178  1
  O  O392  1  0.86959609  0.29899937  0.72005274  1
  O  O393  1  0.89594891  0.75383086  0.23820470  1
  O  O394  1  0.87466082  0.73763004  0.74586754  1
  O  O395  1  0.38330579  0.50396790  0.49155734  1
  O  O396  1  0.38113220  0.49473559  0.99329407  1
  O  O397  1  0.37770310  0.99195021  0.49477370  1
  O  O398  1  0.38525005  0.99924854  0.99178574  1
  O  O399  1  0.87881014  0.50154519  0.48960599  1
  O  O400  1  0.86466312  0.50093862  1.00572948  1
  O  O401  1  0.87411913  0.98539600  0.49696337  1
  O  O402  1  0.88899230  0.98666738  1.00987376  1
  O  O403  1  0.11956344  0.00391585  0.00995754  1
  O  O404  1  0.13952034  0.00933643  0.51273354  1
  O  O405  1  0.12658991  0.50113604  0.01331881  1
  O  O406  1  0.11458687  0.50454231  0.50855801  1
  O  O407  1  0.60852288  -0.01165431  0.01541630  1
  O  O408  1  0.62049313  0.00360744  0.50938638  1
  O  O409  1  0.61419337  0.50987161  0.00781953  1
  O  O410  1  0.61770536  0.50546378  0.50820591  1
  O  O411  1  0.36912857  0.37065368  0.11917220  1
  O  O412  1  0.35975886  0.36957793  0.63027789  1
  O  O413  1  0.36381052  0.87654717  0.11932350  1
  O  O414  1  0.37107335  0.86751018  0.62708346  1
  O  O415  1  0.85476852  0.37036862  0.12688483  1
  O  O416  1  0.85436765  0.39810923  0.60767581  1
  O  O417  1  0.87749304  0.86718717  0.11761714  1
  O  O418  1  0.87116819  0.86001649  0.61591444  1
  O  O419  1  0.12929641  0.13710493  0.38219796  1
  O  O420  1  0.13134480  0.13703706  0.87527523  1
  O  O421  1  0.13400195  0.61703262  0.38732102  1
  O  O422  1  0.12769292  0.62691474  0.87750183  1
  O  O423  1  0.63031384  0.12988947  0.38062022  1
  O  O424  1  0.62803437  0.13954243  0.86649293  1
  O  O425  1  0.62161686  0.62080393  0.38568815  1
  O  O426  1  0.63549683  0.62251846  0.88968726  1
