# generated using pymatgen
data_V85Zn86O256
_symmetry_space_group_name_H-M   'P 1'
_cell_length_a   16.91491687
_cell_length_b   16.93234068
_cell_length_c   16.93055149
_cell_angle_alpha   89.94165478
_cell_angle_beta   89.97077891
_cell_angle_gamma   90.02693317
_symmetry_Int_Tables_number   1
_chemical_formula_structural   V85Zn86O256
_chemical_formula_sum   'V85 Zn86 O256'
_cell_volume   4849.06092544
_cell_formula_units_Z   1
loop_
 _symmetry_equiv_pos_site_id
 _symmetry_equiv_pos_as_xyz
  1  'x, y, z'
loop_
 _atom_site_type_symbol
 _atom_site_label
 _atom_site_symmetry_multiplicity
 _atom_site_fract_x
 _atom_site_fract_y
 _atom_site_fract_z
 _atom_site_occupancy
  V  V0  1  0.00318170  0.12268059  0.12260298  1
  V  V1  1  0.49621485  0.48841160  -0.00185862  1
  V  V2  1  0.62112416  0.50137703  0.62674278  1
  V  V3  1  -0.00555029  0.49598603  0.49998472  1
  V  V4  1  0.12673172  0.75219802  0.36060747  1
  V  V5  1  0.37511080  0.10974931  0.25227696  1
  V  V6  1  0.49278306  0.24618190  0.75348388  1
  V  V7  1  0.25374828  0.10797292  0.37328438  1
  V  V8  1  0.00099965  0.75593198  0.74723601  1
  V  V9  1  0.26388085  0.62603114  0.87117288  1
  V  V10  1  -0.00323745  0.12405066  0.62310974  1
  V  V11  1  0.75344071  0.37519061  0.12505604  1
  V  V12  1  -0.00605255  -0.00322737  0.49525660  1
  V  V13  1  0.88569901  0.62606201  0.25424466  1
  V  V14  1  0.62166910  0.87581494  0.24802885  1
  V  V15  1  -0.00123123  0.62391740  0.62634379  1
  V  V16  1  0.86815753  0.87343635  0.49595685  1
  V  V17  1  0.86751156  0.12772522  0.74929287  1
  V  V18  1  0.13124431  0.49998930  0.12466519  1
  V  V19  1  0.62243958  0.37347967  0.25271277  1
  V  V20  1  -0.00607563  0.37451957  0.37744425  1
  V  V21  1  0.49903807  0.24716517  0.25266493  1
  V  V22  1  0.87479964  0.62500499  0.75084171  1
  V  V23  1  0.12866149  0.75176993  0.86839577  1
  V  V24  1  0.12982699  -0.00469511  0.13440616  1
  V  V25  1  0.62718229  0.63486788  0.50468968  1
  V  V26  1  0.62322537  0.62478116  -0.00127787  1
  V  V27  1  0.26003924  0.37671451  0.12095645  1
  V  V28  1  -0.00354952  0.24881405  0.74826385  1
  V  V29  1  0.25394915  0.25809140  0.50273568  1
  V  V30  1  0.37166739  0.75234377  0.63018825  1
  V  V31  1  0.75198086  0.50352018  0.25121554  1
  V  V32  1  0.50258422  0.12097547  0.11352310  1
  V  V33  1  0.00405192  0.62870940  0.12786022  1
  V  V34  1  0.74731791  0.37377282  0.60817964  1
  V  V35  1  0.37187172  0.25625279  0.62346658  1
  V  V36  1  0.62394424  0.00278247  0.11137594  1
  V  V37  1  0.49475689  0.62699057  0.63039286  1
  V  V38  1  0.00144274  0.37389331  0.87421250  1
  V  V39  1  0.25786900  0.25227359  -0.00139679  1
  V  V40  1  0.86505596  0.74931160  0.61924942  1
  V  V41  1  0.50001886  0.00874772  0.49077083  1
  V  V42  1  0.87817911  0.87358234  -0.00036942  1
  V  V43  1  0.74496651  -0.01115506  0.74851167  1
  V  V44  1  0.12443387  0.24399918  0.37431726  1
  V  V45  1  0.62635153  0.24499456  0.38828422  1
  V  V46  1  0.87513673  0.49864500  0.87559871  1
  V  V47  1  0.87600527  0.25031491  0.12550014  1
  V  V48  1  0.37953777  0.48344241  0.87619607  1
  V  V49  1  0.12628888  0.37292296  0.24542093  1
  V  V50  1  0.12860072  0.11897634  0.50184343  1
  V  V51  1  0.74621728  0.24001020  0.00188442  1
  V  V52  1  0.75130181  -0.00046413  0.25535275  1
  V  V53  1  0.49848270  0.62892158  0.12551394  1
  V  V54  1  0.25185374  0.87820791  0.13841241  1
  V  V55  1  0.87989445  0.75048494  0.12945411  1
  V  V56  1  0.12511817  0.49018148  0.62752972  1
  V  V57  1  0.25365525  0.49568972  0.74990981  1
  V  V58  1  0.62165060  0.37360271  0.75479693  1
  V  V59  1  0.37446819  0.88033552  0.49521708  1
  V  V60  1  0.75120813  0.62684203  0.38062592  1
  V  V61  1  0.12565485  0.24295444  0.87363356  1
  V  V62  1  0.75075045  0.87506940  0.12421886  1
  V  V63  1  0.36378722  0.62636773  0.25386240  1
  V  V64  1  0.50288008  0.89146129  0.87705915  1
  V  V65  1  0.49793872  0.75650080  0.75260778  1
  V  V66  1  0.37326506  0.88967037  -0.00791677  1
  V  V67  1  0.62791016  0.75561638  0.37945952  1
  V  V68  1  0.12770983  0.62581062  -0.00423627  1
  V  V69  1  0.62224666  0.24869946  0.87909276  1
  V  V70  1  0.61943619  0.00156320  0.62634171  1
  V  V71  1  0.25566094  -0.00262021  0.75285089  1
  V  V72  1  0.87572602  0.00012692  0.87331234  1
  V  V73  1  0.12579815  0.63182792  0.50149646  1
  V  V74  1  0.74936718  0.62423486  0.87582616  1
  V  V75  1  0.62421119  0.75369874  0.87030570  1
  V  V76  1  -0.00251246  0.87017498  0.36324090  1
  V  V77  1  0.24119001  0.87635121  0.62781972  1
  V  V78  1  0.74953367  0.12562914  0.38536934  1
  V  V79  1  0.27172484  0.12192633  0.86927419  1
  V  V80  1  0.62602889  0.50174640  0.12371427  1
  V  V81  1  0.00038793  0.24827608  0.24864680  1
  V  V82  1  0.87423478  0.12041813  0.25448636  1
  V  V83  1  0.86740467  0.25378824  0.61010222  1
  V  V84  1  0.00677563  0.87653547  0.87222032  1
  Zn  Zn85  1  0.87566290  0.37418371  -0.00074255  1
  Zn  Zn86  1  0.74557882  0.12167017  0.87967097  1
  Zn  Zn87  1  0.00113248  0.49816552  -0.00016117  1
  Zn  Zn88  1  0.86910570  0.49470344  0.37992473  1
  Zn  Zn89  1  0.75029176  0.74950461  0.00015579  1
  Zn  Zn90  1  0.12934755  0.36939292  0.74646735  1
  Zn  Zn91  1  0.74918232  0.49600908  0.75052461  1
  Zn  Zn92  1  0.47339561  0.50275675  0.49194786  1
  Zn  Zn93  1  0.29695067  0.45558633  0.30321586  1
  Zn  Zn94  1  0.24959113  0.75172813  0.49787032  1
  Zn  Zn95  1  0.13134789  0.12058720  -0.00036823  1
  Zn  Zn96  1  0.49344857  0.87817789  0.37150232  1
  Zn  Zn97  1  0.00386033  -0.00066052  -0.00114032  1
  Zn  Zn98  1  0.37543983  0.75313444  0.12106307  1
  Zn  Zn99  1  0.12022615  -0.00461809  0.63342559  1
  Zn  Zn100  1  0.46883450  0.38260929  0.38220984  1
  Zn  Zn101  1  0.29623375  0.57597501  0.41758517  1
  Zn  Zn102  1  0.25403348  0.75572269  -0.00367850  1
  Zn  Zn103  1  0.49855194  0.75047213  0.25099902  1
  Zn  Zn104  1  0.37881397  0.25120585  0.12174098  1
  Zn  Zn105  1  0.74107627  0.87013954  0.62015695  1
  Zn  Zn106  1  0.49709272  0.12627908  0.62412446  1
  Zn  Zn107  1  0.19176059  0.18408780  0.18597125  1
  Zn  Zn108  1  0.18928425  0.18328503  0.68709159  1
  Zn  Zn109  1  0.18915322  0.69360547  0.18319724  1
  Zn  Zn110  1  0.18878450  0.68296544  0.68911056  1
  Zn  Zn111  1  0.68548008  0.18557738  0.18919385  1
  Zn  Zn112  1  0.68381279  0.18748421  0.68290819  1
  Zn  Zn113  1  0.69043114  0.68961754  0.18917109  1
  Zn  Zn114  1  0.68582474  0.68815185  0.69365566  1
  Zn  Zn115  1  0.31006448  0.28975959  0.31145030  1
  Zn  Zn116  1  0.31232660  0.31263726  0.81141119  1
  Zn  Zn117  1  0.31350230  0.80574292  0.31293472  1
  Zn  Zn118  1  0.31574382  0.81842968  0.81240747  1
  Zn  Zn119  1  0.80921904  0.31001794  0.31451151  1
  Zn  Zn120  1  0.80664364  0.31318658  0.80963586  1
  Zn  Zn121  1  0.81294951  0.81086794  0.31235105  1
  Zn  Zn122  1  0.81509991  0.81083202  0.81272695  1
  Zn  Zn123  1  0.17730395  0.43452150  0.44059299  1
  Zn  Zn124  1  0.18887191  0.43606029  0.93660060  1
  Zn  Zn125  1  0.18238366  0.93163317  0.43936984  1
  Zn  Zn126  1  0.18717748  0.94309650  0.93837284  1
  Zn  Zn127  1  0.62112860  0.43640066  0.44105446  1
  Zn  Zn128  1  0.68662908  0.43403438  0.93837456  1
  Zn  Zn129  1  0.68297759  0.94274350  0.43932537  1
  Zn  Zn130  1  0.68990043  0.93496714  0.93478050  1
  Zn  Zn131  1  0.31365553  0.06429331  0.06216675  1
  Zn  Zn132  1  0.31707263  0.06512790  0.57004810  1
  Zn  Zn133  1  0.31433521  0.56340405  0.06057997  1
  Zn  Zn134  1  0.31304006  0.56214592  0.57819729  1
  Zn  Zn135  1  0.81551067  0.05900791  0.06547297  1
  Zn  Zn136  1  0.81213495  0.05750081  0.56510501  1
  Zn  Zn137  1  0.81477659  0.56340433  0.06051264  1
  Zn  Zn138  1  0.80860768  0.55954055  0.56143964  1
  Zn  Zn139  1  0.44087949  0.44191620  0.19096188  1
  Zn  Zn140  1  0.43658134  0.43473896  0.68878265  1
  Zn  Zn141  1  0.43870249  0.93753892  0.18166845  1
  Zn  Zn142  1  0.43409934  0.93832255  0.68839437  1
  Zn  Zn143  1  0.94072707  0.44222165  0.18933466  1
  Zn  Zn144  1  0.93353526  0.43364119  0.68700810  1
  Zn  Zn145  1  0.93823265  0.94044072  0.18743579  1
  Zn  Zn146  1  0.93338110  0.93687395  0.68414399  1
  Zn  Zn147  1  0.06218370  0.05617859  0.31402463  1
  Zn  Zn148  1  0.06454559  0.06119097  0.80742231  1
  Zn  Zn149  1  0.10059263  0.54948492  0.32681846  1
  Zn  Zn150  1  0.06430608  0.56304833  0.81106325  1
  Zn  Zn151  1  0.56478094  0.06281336  0.30979232  1
  Zn  Zn152  1  0.56734981  0.06894696  0.80957622  1
  Zn  Zn153  1  0.55986897  0.56655285  0.31135176  1
  Zn  Zn154  1  0.55687169  0.56478705  0.81110827  1
  Zn  Zn155  1  0.43486463  0.18817058  0.43572002  1
  Zn  Zn156  1  0.44076638  0.19441952  0.93672299  1
  Zn  Zn157  1  0.44166774  0.69349306  0.44182003  1
  Zn  Zn158  1  0.43833933  0.69255069  0.94284074  1
  Zn  Zn159  1  0.93655183  0.18439586  0.43562989  1
  Zn  Zn160  1  0.93406623  0.18782502  0.93833593  1
  Zn  Zn161  1  0.94197186  0.68945190  0.43781957  1
  Zn  Zn162  1  0.94045821  0.68833469  0.93956931  1
  Zn  Zn163  1  0.06722918  0.30969907  0.05736211  1
  Zn  Zn164  1  0.06136053  0.30809710  0.56039429  1
  Zn  Zn165  1  0.06731697  0.81267943  0.06087708  1
  Zn  Zn166  1  0.05776617  0.81359477  0.56109118  1
  Zn  Zn167  1  0.56451220  0.30911738  0.06644824  1
  Zn  Zn168  1  0.55344899  0.31635256  0.56624239  1
  Zn  Zn169  1  0.56129141  0.81461615  0.05603067  1
  Zn  Zn170  1  0.56005224  0.81934102  0.56351514  1
  O  O171  1  0.12026958  0.11546440  0.12399567  1
  O  O172  1  0.11541091  0.12520425  0.61613160  1
  O  O173  1  0.12268407  0.62022648  0.11904731  1
  O  O174  1  0.11618999  0.61745511  0.62127095  1
  O  O175  1  0.61198642  0.11701530  0.13074371  1
  O  O176  1  0.62203961  0.10924875  0.62549261  1
  O  O177  1  0.62103748  0.62031686  0.12081513  1
  O  O178  1  0.62045634  0.62336067  0.62276237  1
  O  O179  1  0.36123865  0.37800334  0.35569733  1
  O  O180  1  0.37376103  0.38519192  0.87976914  1
  O  O181  1  0.37422735  0.86643414  0.39072020  1
  O  O182  1  0.38673502  0.87713508  0.88389699  1
  O  O183  1  0.88900344  0.37582423  0.36664134  1
  O  O184  1  0.88071135  0.38213278  0.87392013  1
  O  O185  1  0.88655134  0.86564290  0.38167636  1
  O  O186  1  0.88611759  0.87746351  0.87963976  1
  O  O187  1  0.24198309  0.00899395  0.37818592  1
  O  O188  1  0.24883524  0.01354482  0.86692742  1
  O  O189  1  0.21654537  0.51041825  0.36467415  1
  O  O190  1  0.26149841  0.50586178  0.87410100  1
  O  O191  1  0.74058310  0.00845986  0.36132241  1
  O  O192  1  0.75569890  0.00165537  0.86654416  1
  O  O193  1  0.75021450  0.51550671  0.36725542  1
  O  O194  1  0.75814869  0.50445123  0.87470090  1
  O  O195  1  0.24207729  0.49184593  0.11825263  1
  O  O196  1  0.23825764  0.50345248  0.63857993  1
  O  O197  1  0.23973767  0.99185037  0.12092150  1
  O  O198  1  0.24723848  0.99389047  0.63355441  1
  O  O199  1  0.74769113  0.49367239  0.12868027  1
  O  O200  1  0.74353810  0.49079749  0.62974567  1
  O  O201  1  0.74438287  0.99529560  0.13464362  1
  O  O202  1  0.74034553  0.99727907  0.63170969  1
  O  O203  1  0.00938784  0.36933610  0.25218786  1
  O  O204  1  -0.00026491  0.36748348  0.76030496  1
  O  O205  1  -0.00540530  0.87753074  0.26440644  1
  O  O206  1  -0.00573634  0.86384538  0.75555876  1
  O  O207  1  0.50892227  0.36674589  0.24956929  1
  O  O208  1  0.51364706  0.36468700  0.74440569  1
  O  O209  1  0.50751673  0.87368157  0.25042223  1
  O  O210  1  0.49415487  0.86722887  0.76405697  1
  O  O211  1  0.49210594  0.12901051  0.24617614  1
  O  O212  1  0.50364963  0.14299525  0.74821733  1
  O  O213  1  0.49501390  0.62860448  0.24036127  1
  O  O214  1  0.50550515  0.64049901  0.73934037  1
  O  O215  1  0.99404638  0.12581209  0.24198680  1
  O  O216  1  0.98704005  0.12880011  0.74428235  1
  O  O217  1  0.98923080  0.61928999  0.24255084  1
  O  O218  1  0.99444291  0.63441972  0.74672705  1
  O  O219  1  0.36350947  0.24975929  0.00178065  1
  O  O220  1  0.36050232  0.25024384  0.50162605  1
  O  O221  1  0.37309178  0.76418846  0.00295400  1
  O  O222  1  0.37357628  0.75824138  0.51331117  1
  O  O223  1  0.86651504  0.25341748  0.00795255  1
  O  O224  1  0.87808885  0.24791943  0.51108183  1
  O  O225  1  0.87557561  0.75419327  0.01093596  1
  O  O226  1  0.88012825  0.75746663  0.50989605  1
  O  O227  1  0.12974764  0.23553971  0.49663164  1
  O  O228  1  0.13700464  0.24393317  0.99134516  1
  O  O229  1  0.12405141  0.74283886  0.49997936  1
  O  O230  1  0.12781372  0.74364575  0.98583287  1
  O  O231  1  0.61978712  0.25157537  0.48602144  1
  O  O232  1  0.63404181  0.25630580  0.99280413  1
  O  O233  1  0.62380097  0.74405805  0.49607637  1
  O  O234  1  0.62574482  0.74300217  0.98813911  1
  O  O235  1  0.50088414  0.23826599  0.13263448  1
  O  O236  1  0.49616652  0.24766942  0.63572678  1
  O  O237  1  0.50350494  0.73810096  0.12275734  1
  O  O238  1  0.49433890  0.74979142  0.63354104  1
  O  O239  1  0.99826956  0.24255704  0.12911766  1
  O  O240  1  0.99024209  0.24538095  0.62968189  1
  O  O241  1  0.99777618  0.73761397  0.12093851  1
  O  O242  1  0.99190672  0.74582653  0.63296715  1
  O  O243  1  0.00480843  0.25387770  0.36877503  1
  O  O244  1  0.00501118  0.25455230  0.87060998  1
  O  O245  1  0.00866122  0.76265458  0.37777826  1
  O  O246  1  0.00609407  0.75591508  0.86715776  1
  O  O247  1  0.50948633  0.25191510  0.36852215  1
  O  O248  1  0.50660563  0.25279817  0.86423554  1
  O  O249  1  0.51578954  0.75359202  0.37332152  1
  O  O250  1  0.50617625  0.75330559  0.86807917  1
  O  O251  1  0.24281808  0.12514578  0.49443930  1
  O  O252  1  0.25237450  0.12960641  0.98567884  1
  O  O253  1  0.23490846  0.62988294  0.50542893  1
  O  O254  1  0.24088250  0.62853680  0.99276582  1
  O  O255  1  0.75760742  0.11640246  0.48418195  1
  O  O256  1  0.75503125  0.13661011  1.00372815  1
  O  O257  1  0.74407151  0.62633238  0.49133010  1
  O  O258  1  0.74316275  0.62610214  0.99273196  1
  O  O259  1  0.24377282  0.36526705  0.00901233  1
  O  O260  1  0.23592336  0.35522073  0.49667559  1
  O  O261  1  0.26303410  0.87732393  -0.00363804  1
  O  O262  1  0.25631828  0.87574034  0.50997580  1
  O  O263  1  0.75110571  0.36956106  0.01416898  1
  O  O264  1  0.73655491  0.38342657  0.51207287  1
  O  O265  1  0.76104032  0.87290206  0.00554824  1
  O  O266  1  0.76401823  0.88293667  0.49696557  1
  O  O267  1  0.11894330  0.48844773  0.23279696  1
  O  O268  1  0.12939959  0.49640082  0.74339859  1
  O  O269  1  0.12363866  1.00141875  0.23377675  1
  O  O270  1  0.14278491  1.00816221  0.74636910  1
  O  O271  1  0.63223009  0.49307930  0.24238963  1
  O  O272  1  0.62266596  0.49526937  0.74236008  1
  O  O273  1  0.63052878  0.98978623  0.24228960  1
  O  O274  1  0.63356753  1.00235530  0.74113162  1
  O  O275  1  0.38031833  0.01095384  0.25011023  1
  O  O276  1  0.35709586  0.00421013  0.74370264  1
  O  O277  1  0.37683481  0.51936413  0.24790262  1
  O  O278  1  0.36988039  0.49658317  0.76446038  1
  O  O279  1  0.86461198  0.00867637  0.24488951  1
  O  O280  1  0.86826102  0.00785468  0.75295224  1
  O  O281  1  0.86962874  0.50872464  0.25346007  1
  O  O282  1  0.87555237  0.50563200  0.76109694  1
  O  O283  1  0.11544977  0.36478249  0.36360173  1
  O  O284  1  0.11782089  0.36245249  0.87429898  1
  O  O285  1  0.11163061  0.86238096  0.37918222  1
  O  O286  1  0.11463786  0.86814811  0.87812719  1
  O  O287  1  0.63940075  0.35841780  0.35878292  1
  O  O288  1  0.63078672  0.36440634  0.86621915  1
  O  O289  1  0.62649593  0.87017525  0.36669072  1
  O  O290  1  0.61232411  0.86740400  0.88182651  1
  O  O291  1  0.38491915  0.12378106  0.13449069  1
  O  O292  1  0.37933998  0.14521005  0.62149498  1
  O  O293  1  0.38279393  0.62831219  0.12997951  1
  O  O294  1  0.38431212  0.63774033  0.62770249  1
  O  O295  1  0.88277573  0.12870599  0.13455505  1
  O  O296  1  0.87645110  0.13259880  0.63041422  1
  O  O297  1  0.88393325  0.63088129  0.12892104  1
  O  O298  1  0.87862451  0.63033475  0.62930967  1
  O  O299  1  0.25156282  0.25631668  0.11529379  1
  O  O300  1  0.25314217  0.24523255  0.61117748  1
  O  O301  1  0.24727246  0.76855800  0.11816907  1
  O  O302  1  0.25611622  0.75725929  0.62932115  1
  O  O303  1  0.75381622  0.25630394  0.12207764  1
  O  O304  1  0.75226726  0.26340658  0.62421774  1
  O  O305  1  0.75988720  0.75722703  0.12278933  1
  O  O306  1  0.76096042  0.75132791  0.63236597  1
  O  O307  1  0.24153121  0.23459127  0.38661173  1
  O  O308  1  0.24551908  0.23978418  0.87705893  1
  O  O309  1  0.23158717  0.75645002  0.37843805  1
  O  O310  1  0.24397432  0.74407465  0.87015731  1
  O  O311  1  0.73762684  0.23961700  0.37035368  1
  O  O312  1  0.74545165  0.24953435  0.88669886  1
  O  O313  1  0.73828362  0.74004274  0.36775937  1
  O  O314  1  0.74291521  0.74444497  0.87551032  1
  O  O315  1  -0.00228310  0.12571721  0.01473817  1
  O  O316  1  0.00536130  0.11601220  0.50086088  1
  O  O317  1  0.01380502  0.62406015  0.00503065  1
  O  O318  1  0.00715173  0.61834685  0.50741473  1
  O  O319  1  0.49624484  0.13025702  0.01519809  1
  O  O320  1  0.49515196  0.11194548  0.49934623  1
  O  O321  1  0.50611543  0.61805136  0.00638482  1
  O  O322  1  0.50887770  0.62732721  0.51346955  1
  O  O323  1  0.51740489  0.38964577  0.49072738  1
  O  O324  1  0.50395849  0.38952766  1.01054265  1
  O  O325  1  0.49097111  0.88577674  0.49812259  1
  O  O326  1  0.49052723  0.87517729  0.98617831  1
  O  O327  1  1.00709079  0.38197685  0.48901228  1
  O  O328  1  0.99870354  0.37392501  0.98681709  1
  O  O329  1  0.99055580  0.88106914  0.49460077  1
  O  O330  1  0.99466174  0.87363481  0.99060111  1
  O  O331  1  0.52584732  0.48975060  0.38313445  1
  O  O332  1  0.48716443  0.50339249  0.88092061  1
  O  O333  1  0.50641800  0.99818057  0.38724278  1
  O  O334  1  0.50888474  0.98956067  0.86985319  1
  O  O335  1  1.00685946  0.49046594  0.38329357  1
  O  O336  1  0.99493624  0.49160348  0.87504868  1
  O  O337  1  1.00499547  0.98445769  0.38364315  1
  O  O338  1  0.99574331  0.99145880  0.87278229  1
  O  O339  1  0.01028196  0.00550333  0.12361641  1
  O  O340  1  0.00010830  0.00595302  0.61785532  1
  O  O341  1  0.00645339  0.51233883  0.12002314  1
  O  O342  1  0.00298699  0.50319651  0.62127291  1
  O  O343  1  0.50885396  0.01212532  0.12615501  1
  O  O344  1  0.50659940  0.00232450  0.62182039  1
  O  O345  1  0.50545770  0.51065671  0.11860880  1
  O  O346  1  0.50452209  0.51123167  0.62754749  1
  O  O347  1  0.23658741  0.36755557  0.24046563  1
  O  O348  1  0.24514926  0.38907867  0.75911676  1
  O  O349  1  0.25807909  0.87593938  0.23666213  1
  O  O350  1  0.25160005  0.88807388  0.74583665  1
  O  O351  1  0.74720195  0.37996522  0.24018584  1
  O  O352  1  0.73595206  0.37635047  0.74264783  1
  O  O353  1  0.74565746  0.88198792  0.24459967  1
  O  O354  1  0.75719020  0.88644548  0.74771056  1
  O  O355  1  0.26576429  0.12906894  0.25655242  1
  O  O356  1  0.25035881  0.12194030  0.76437996  1
  O  O357  1  0.26433300  0.62941216  0.24278684  1
  O  O358  1  0.24394150  0.61036496  0.76176035  1
  O  O359  1  0.75693058  0.11808780  0.25333214  1
  O  O360  1  0.75923984  0.11934758  0.74838638  1
  O  O361  1  0.76075532  0.62141623  0.25413730  1
  O  O362  1  0.75640893  0.62125284  0.75964358  1
  O  O363  1  0.36846750  0.12665295  0.36186392  1
  O  O364  1  0.36956962  0.12694925  0.87304728  1
  O  O365  1  0.37492233  0.63930904  0.36034290  1
  O  O366  1  0.36538558  0.62507968  0.87895032  1
  O  O367  1  0.86797020  0.13003355  0.36111497  1
  O  O368  1  0.87209425  0.11934417  0.86665668  1
  O  O369  1  0.87028417  0.62771119  0.36863123  1
  O  O370  1  0.87103534  0.61895243  0.87304968  1
  O  O371  1  0.12918989  0.38125746  0.12799413  1
  O  O372  1  0.11732524  0.38641714  0.62609212  1
  O  O373  1  0.13685021  0.88533995  0.12046235  1
  O  O374  1  0.13697307  0.87389747  0.62150361  1
  O  O375  1  0.63323375  0.37891585  0.13575405  1
  O  O376  1  0.63090268  0.38400829  0.63088355  1
  O  O377  1  0.62920146  0.88012575  0.12903389  1
  O  O378  1  0.62661699  0.89131742  0.62255803  1
  O  O379  1  0.11944152  0.25293743  0.25153068  1
  O  O380  1  0.11778898  0.24925301  0.75535758  1
  O  O381  1  0.12339423  0.74534212  0.26184932  1
  O  O382  1  0.11632164  0.74406358  0.76059036  1
  O  O383  1  0.61479083  0.25530130  0.25105933  1
  O  O384  1  0.61860774  0.25656743  0.75552185  1
  O  O385  1  0.62604828  0.76311057  0.25472720  1
  O  O386  1  0.61823336  0.75166974  0.76288834  1
  O  O387  1  0.38871857  0.23864160  0.24412500  1
  O  O388  1  0.38709843  0.25573207  0.74647663  1
  O  O389  1  0.37901742  0.74166949  0.24121743  1
  O  O390  1  0.38264215  0.75666982  0.73981389  1
  O  O391  1  0.88045953  0.24287094  0.24352285  1
  O  O392  1  0.87612792  0.24312520  0.74349421  1
  O  O393  1  0.87301707  0.74246532  0.23696157  1
  O  O394  1  0.88252607  0.74369566  0.74399970  1
  O  O395  1  0.36226739  0.51693530  0.49016074  1
  O  O396  1  0.38248893  0.50452591  0.98637433  1
  O  O397  1  0.38901088  0.99341559  0.50795057  1
  O  O398  1  0.37654458  0.98873070  1.00189571  1
  O  O399  1  0.88972270  0.50514156  0.49776576  1
  O  O400  1  0.87865380  0.49812233  0.98781531  1
  O  O401  1  0.88657267  0.99188273  0.50362657  1
  O  O402  1  0.87939962  0.99243821  0.99314267  1
  O  O403  1  0.12129531  0.00394527  0.01012267  1
  O  O404  1  0.11530309  0.00725542  0.50403441  1
  O  O405  1  0.12426569  0.50718451  0.00685567  1
  O  O406  1  0.11454922  0.50752172  0.51030488  1
  O  O407  1  0.63466269  -0.00119104  0.01235833  1
  O  O408  1  0.60902308  -0.00168698  0.50942154  1
  O  O409  1  0.61946850  0.50533750  0.00425718  1
  O  O410  1  0.63047680  0.51945493  0.51945037  1
  O  O411  1  0.36286646  0.37568355  0.13327097  1
  O  O412  1  0.37998756  0.35877719  0.62516771  1
  O  O413  1  0.36495108  0.87818197  0.11468010  1
  O  O414  1  0.36523233  0.87032244  0.61819021  1
  O  O415  1  0.86988806  0.37063392  0.12571209  1
  O  O416  1  0.85761055  0.36893355  0.62678492  1
  O  O417  1  0.87483029  0.86781401  0.12051318  1
  O  O418  1  0.87201203  0.86559246  0.61528576  1
  O  O419  1  0.12876884  0.12628699  0.38098018  1
  O  O420  1  0.12173585  0.13634229  0.87708151  1
  O  O421  1  0.11271232  0.64378802  0.38745930  1
  O  O422  1  0.13147742  0.63091645  0.88097713  1
  O  O423  1  0.63235399  0.13786616  0.36890121  1
  O  O424  1  0.62962844  0.14210107  0.87252783  1
  O  O425  1  0.63194742  0.63398334  0.38458205  1
  O  O426  1  0.63007162  0.63074697  0.87799857  1
