# generated using pymatgen
data_V85Zn86O256
_symmetry_space_group_name_H-M   'P 1'
_cell_length_a   16.91467189
_cell_length_b   16.91312990
_cell_length_c   16.91354701
_cell_angle_alpha   90.00628198
_cell_angle_beta   89.97553166
_cell_angle_gamma   89.99394017
_symmetry_Int_Tables_number   1
_chemical_formula_structural   V85Zn86O256
_chemical_formula_sum   'V85 Zn86 O256'
_cell_volume   4838.62775665
_cell_formula_units_Z   1
loop_
 _symmetry_equiv_pos_site_id
 _symmetry_equiv_pos_as_xyz
  1  'x, y, z'
loop_
 _atom_site_type_symbol
 _atom_site_label
 _atom_site_symmetry_multiplicity
 _atom_site_fract_x
 _atom_site_fract_y
 _atom_site_fract_z
 _atom_site_occupancy
  V  V0  1  -0.00007049  0.62437619  0.12581771  1
  V  V1  1  0.25152619  0.75002831  -0.00011127  1
  V  V2  1  0.62626030  0.00572284  0.12058177  1
  V  V3  1  0.24922877  0.75022397  0.51140089  1
  V  V4  1  0.12592698  0.62431027  -0.00081019  1
  V  V5  1  -0.05045279  0.05885655  0.55565708  1
  V  V6  1  0.62425889  0.74652058  0.87259235  1
  V  V7  1  -0.00067352  0.62360388  0.61094006  1
  V  V8  1  0.50225191  0.62761826  0.12871848  1
  V  V9  1  0.24738891  0.25627419  0.50379768  1
  V  V10  1  0.62430688  -0.00240508  0.62025499  1
  V  V11  1  -0.00963136  0.74634996  0.74728064  1
  V  V12  1  0.24965847  0.62396802  0.37986919  1
  V  V13  1  0.12574787  0.74578961  0.38133972  1
  V  V14  1  0.12051201  0.49732141  0.61403200  1
  V  V15  1  0.49548893  0.38017692  0.37219056  1
  V  V16  1  0.12207281  0.25197175  0.37313096  1
  V  V17  1  0.25130831  0.12341606  0.37413400  1
  V  V18  1  0.37572401  0.25673732  0.13043032  1
  V  V19  1  0.74279543  0.12554395  0.37425804  1
  V  V20  1  0.37431571  0.49508120  0.87614429  1
  V  V21  1  0.87477148  0.00849728  0.87198341  1
  V  V22  1  0.61602496  0.24702896  0.37381876  1
  V  V23  1  0.49909883  0.50492750  0.50530005  1
  V  V24  1  0.37605505  0.87619298  -0.00144353  1
  V  V25  1  0.86633814  0.50265023  0.38004202  1
  V  V26  1  0.50245432  0.25013510  0.75000177  1
  V  V27  1  0.12706544  0.49851319  0.12436916  1
  V  V28  1  0.00063565  0.38551227  0.37707239  1
  V  V29  1  0.38074917  0.75212007  0.13093313  1
  V  V30  1  0.50238076  0.00706427  -0.00340296  1
  V  V31  1  0.50005587  0.87064737  0.36703151  1
  V  V32  1  0.87809420  0.61057258  0.75105322  1
  V  V33  1  0.74921332  0.87560749  0.12608830  1
  V  V34  1  0.13113397  0.87069973  0.73716681  1
  V  V35  1  0.37421875  0.87754858  0.50369135  1
  V  V36  1  0.63083145  0.74281770  0.36712685  1
  V  V37  1  0.12735223  0.00459708  0.12629541  1
  V  V38  1  0.50100400  0.12906374  0.13088500  1
  V  V39  1  0.25295508  0.62420747  0.87238113  1
  V  V40  1  0.49996098  0.37237198  0.88184831  1
  V  V41  1  0.24963067  -0.00082189  0.74696988  1
  V  V42  1  0.87651306  0.87463377  -0.00141756  1
  V  V43  1  -0.00475919  0.49872049  -0.00833580  1
  V  V44  1  0.62155152  0.37304900  0.24827574  1
  V  V45  1  0.00161406  0.87337055  0.87375721  1
  V  V46  1  -0.00068029  0.87913149  0.38151614  1
  V  V47  1  0.49939069  0.87117518  0.86924025  1
  V  V48  1  0.00106705  0.13698605  0.12450418  1
  V  V49  1  0.86675468  0.62406519  0.25388694  1
  V  V50  1  0.62615344  0.24041716  0.88185979  1
  V  V51  1  0.00380224  0.00305931  -0.00076907  1
  V  V52  1  0.50343217  0.12542839  0.61736966  1
  V  V53  1  0.87487552  0.13340783  0.24611132  1
  V  V54  1  -0.00792485  0.23300887  0.74947453  1
  V  V55  1  0.62477144  0.62627160  0.50835893  1
  V  V56  1  0.87658723  0.75133133  0.12673032  1
  V  V57  1  0.75167945  0.24078709  0.00700327  1
  V  V58  1  0.37267685  0.38208587  0.49883712  1
  V  V59  1  0.38744668  0.62598617  0.74508131  1
  V  V60  1  0.75039719  0.00315750  0.74815080  1
  V  V61  1  0.37133480  0.25492064  0.62524794  1
  V  V62  1  0.24831462  0.49621350  0.74099178  1
  V  V63  1  0.12345327  0.36716042  0.75210533  1
  V  V64  1  0.74355719  0.25110145  0.50247506  1
  V  V65  1  0.13472719  0.13073731  -0.01220814  1
  V  V66  1  0.24993472  0.87565154  0.12538263  1
  V  V67  1  0.12643506  0.75060000  0.87290761  1
  V  V68  1  0.36831829  0.12625477  0.75631355  1
  V  V69  1  0.87078782  0.87077968  0.51176809  1
  V  V70  1  0.12493859  0.12031107  0.50560377  1
  V  V71  1  0.87752288  0.00219093  0.37281515  1
  V  V72  1  0.49748194  0.49801549  0.00295737  1
  V  V73  1  0.62790791  0.87123754  0.74510625  1
  V  V74  1  0.87297902  0.37289265  -0.00970322  1
  V  V75  1  0.25569005  0.25640548  -0.01241202  1
  V  V76  1  0.39431479  0.74869013  0.62800248  1
  V  V77  1  0.75509954  0.61552765  0.87689146  1
  V  V78  1  0.37849192  0.62638637  0.25689180  1
  V  V79  1  0.75095314  0.74846778  0.51499140  1
  V  V80  1  0.87725189  0.37788971  0.50455472  1
  V  V81  1  -0.00012651  0.74968830  0.25254738  1
  V  V82  1  0.12432456  0.87636282  0.25175603  1
  V  V83  1  0.25382748  0.49961663  0.25335699  1
  V  V84  1  0.76026933  0.37358451  0.12761288  1
  Zn  Zn85  1  0.37806830  0.00036229  0.37465715  1
  Zn  Zn86  1  0.87676815  0.24118739  0.62548916  1
  Zn  Zn87  1  0.74799440  -0.00019861  0.24956691  1
  Zn  Zn88  1  0.37934521  0.12659294  0.25331992  1
  Zn  Zn89  1  0.50305019  0.00244364  0.49648730  1
  Zn  Zn90  1  0.61850174  0.87056835  0.24483250  1
  Zn  Zn91  1  0.74580111  0.50217679  0.25153513  1
  Zn  Zn92  1  0.36997493  0.00297330  0.87554478  1
  Zn  Zn93  1  -0.00401651  0.25802783  0.24661318  1
  Zn  Zn94  1  0.00051539  0.37066239  0.87235641  1
  Zn  Zn95  1  0.74997152  0.74764137  -0.00163008  1
  Zn  Zn96  1  0.74935421  0.37691873  0.62847490  1
  Zn  Zn97  1  0.74760338  0.12357242  0.87647510  1
  Zn  Zn98  1  0.25465428  0.37733056  0.12068826  1
  Zn  Zn99  1  0.12573736  0.37557019  0.24886934  1
  Zn  Zn100  1  0.63093362  0.37412365  0.74933271  1
  Zn  Zn101  1  0.75014601  0.49367989  0.75050187  1
  Zn  Zn102  1  0.62604243  0.49841725  0.62884502  1
  Zn  Zn103  1  0.62555685  0.49902826  0.12557635  1
  Zn  Zn104  1  0.25314357  0.00087825  0.25279129  1
  Zn  Zn105  1  0.62735296  0.62378810  0.00053374  1
  Zn  Zn106  1  0.12689249  -0.00349537  0.61887129  1
  Zn  Zn107  1  0.19089853  0.19109258  0.18631238  1
  Zn  Zn108  1  0.18714372  0.18627046  0.68728636  1
  Zn  Zn109  1  0.18941783  0.68757485  0.19036114  1
  Zn  Zn110  1  0.18403517  0.68007747  0.68772287  1
  Zn  Zn111  1  0.68465704  0.18930875  0.18838021  1
  Zn  Zn112  1  0.68697930  0.18563178  0.68825632  1
  Zn  Zn113  1  0.68776881  0.68881021  0.18460752  1
  Zn  Zn114  1  0.68788964  0.68327514  0.69113787  1
  Zn  Zn115  1  0.31185214  0.31281959  0.31254030  1
  Zn  Zn116  1  0.31062184  0.31706750  0.80874448  1
  Zn  Zn117  1  0.31228724  0.81299450  0.31437357  1
  Zn  Zn118  1  0.31406312  0.81302477  0.80771848  1
  Zn  Zn119  1  0.80957243  0.31433325  0.31529854  1
  Zn  Zn120  1  0.81426367  0.30651852  0.81182073  1
  Zn  Zn121  1  0.80952678  0.81297676  0.31590042  1
  Zn  Zn122  1  0.80832793  0.81102927  0.81182272  1
  Zn  Zn123  1  0.18977514  0.43794880  0.43556385  1
  Zn  Zn124  1  0.18741519  0.43567369  0.93399422  1
  Zn  Zn125  1  0.19006098  0.93665629  0.44089442  1
  Zn  Zn126  1  0.18981891  0.94023733  0.93239355  1
  Zn  Zn127  1  0.68602504  0.43679744  0.43982361  1
  Zn  Zn128  1  0.68390476  0.43303446  0.93783541  1
  Zn  Zn129  1  0.68827218  0.93137204  0.43601672  1
  Zn  Zn130  1  0.68704445  0.93629621  0.93719435  1
  Zn  Zn131  1  0.31507414  0.06624019  0.06288008  1
  Zn  Zn132  1  0.31164035  0.06336111  0.56593474  1
  Zn  Zn133  1  0.31577262  0.56319411  0.06311596  1
  Zn  Zn134  1  0.31257831  0.56486718  0.56349012  1
  Zn  Zn135  1  0.81624909  0.06208391  0.06296179  1
  Zn  Zn136  1  0.78494809  0.06039695  0.55848833  1
  Zn  Zn137  1  0.81239158  0.55919676  0.06376914  1
  Zn  Zn138  1  0.81182714  0.56397033  0.56441306  1
  Zn  Zn139  1  0.43692851  0.43836757  0.19027873  1
  Zn  Zn140  1  0.44037167  0.43561462  0.68766582  1
  Zn  Zn141  1  0.43685079  0.94268619  0.18917761  1
  Zn  Zn142  1  0.43709892  0.93670088  0.68652581  1
  Zn  Zn143  1  0.93798166  0.43926829  0.18789568  1
  Zn  Zn144  1  0.94152486  0.43461365  0.68398753  1
  Zn  Zn145  1  0.93891651  0.94273273  0.18935614  1
  Zn  Zn146  1  0.93609786  0.93285232  0.69413363  1
  Zn  Zn147  1  0.06222268  0.06555279  0.31375049  1
  Zn  Zn148  1  0.06665477  0.05812142  0.81084586  1
  Zn  Zn149  1  0.06227175  0.56307699  0.31369844  1
  Zn  Zn150  1  0.06564904  0.56034340  0.80921272  1
  Zn  Zn151  1  0.56265900  0.05661780  0.30855138  1
  Zn  Zn152  1  0.55985967  0.06175525  0.80815552  1
  Zn  Zn153  1  0.56202272  0.56051700  0.31670465  1
  Zn  Zn154  1  0.56596520  0.55996714  0.81285064  1
  Zn  Zn155  1  0.43540285  0.19093815  0.43850422  1
  Zn  Zn156  1  0.43487697  0.18792335  0.94112994  1
  Zn  Zn157  1  0.44115818  0.69051938  0.43855404  1
  Zn  Zn158  1  0.43936189  0.68616868  0.93807886  1
  Zn  Zn159  1  0.93239722  0.19762616  0.43064797  1
  Zn  Zn160  1  0.94103164  0.19359545  0.93629042  1
  Zn  Zn161  1  0.93179701  0.68933895  0.43680370  1
  Zn  Zn162  1  0.93669756  0.68559541  0.93520953  1
  Zn  Zn163  1  0.06746140  0.31444543  0.05707963  1
  Zn  Zn164  1  0.05910403  0.31229330  0.56647458  1
  Zn  Zn165  1  0.06344528  0.81317008  0.06243171  1
  Zn  Zn166  1  0.05769145  0.80694472  0.56106957  1
  Zn  Zn167  1  0.56421037  0.31170402  0.06317950  1
  Zn  Zn168  1  0.56259805  0.31551897  0.56168035  1
  Zn  Zn169  1  0.56274094  0.81331072  0.05676674  1
  Zn  Zn170  1  0.56333136  0.81483563  0.55673407  1
  O  O171  1  0.12089817  0.11936362  0.12019738  1
  O  O172  1  0.12597859  0.12614923  0.60884377  1
  O  O173  1  0.12191035  0.61794183  0.12037025  1
  O  O174  1  0.11125872  0.61097830  0.63026268  1
  O  O175  1  0.61737904  0.11748017  0.12550251  1
  O  O176  1  0.61480883  0.11337320  0.63072588  1
  O  O177  1  0.61616482  0.62295446  0.12358971  1
  O  O178  1  0.62451518  0.62654008  0.61200086  1
  O  O179  1  0.38477008  0.36696792  0.38445795  1
  O  O180  1  0.38161053  0.38810441  0.86910605  1
  O  O181  1  0.38330672  0.87207548  0.38340411  1
  O  O182  1  0.38287033  0.87417427  0.87973011  1
  O  O183  1  0.88142257  0.38253042  0.38056306  1
  O  O184  1  0.87639762  0.37447820  0.88716959  1
  O  O185  1  0.87929205  0.88480937  0.38121902  1
  O  O186  1  0.88073326  0.87861250  0.88323193  1
  O  O187  1  0.25151760  0.01022215  0.37529371  1
  O  O188  1  0.25339775  -0.00357963  0.85722382  1
  O  O189  1  0.24535845  0.51110318  0.36606279  1
  O  O190  1  0.25765501  0.50321232  0.86699297  1
  O  O191  1  0.75829396  0.00665751  0.37530405  1
  O  O192  1  0.75782407  0.00149353  0.87237703  1
  O  O193  1  0.76236893  0.49552675  0.37172093  1
  O  O194  1  0.74423834  0.51227450  0.87646670  1
  O  O195  1  0.24388454  0.50037173  0.12971172  1
  O  O196  1  0.23816266  0.50857157  0.63408890  1
  O  O197  1  0.23995972  0.99683898  0.12512992  1
  O  O198  1  0.24628567  1.00201880  0.63815813  1
  O  O199  1  0.74578018  0.48913058  0.12792090  1
  O  O200  1  0.74703470  0.49857872  0.62903052  1
  O  O201  1  0.74343633  0.99374675  0.12268790  1
  O  O202  1  0.73902909  0.99544393  0.63520731  1
  O  O203  1  0.00346707  0.37548881  0.25843222  1
  O  O204  1  0.01153446  0.37286102  0.75215294  1
  O  O205  1  0.00264483  0.87047483  0.26053320  1
  O  O206  1  0.00769413  0.86488592  0.75510752  1
  O  O207  1  0.50588254  0.37929239  0.26065381  1
  O  O208  1  0.49660352  0.36163903  0.76048255  1
  O  O209  1  0.49751061  0.87476095  0.26231146  1
  O  O210  1  0.50737647  0.88124661  0.76349447  1
  O  O211  1  0.50061212  0.12303887  0.23509980  1
  O  O212  1  0.49211186  0.13522188  0.74164719  1
  O  O213  1  0.49185658  0.61781929  0.23960155  1
  O  O214  1  0.48608377  0.62108908  0.75555352  1
  O  O215  1  0.99406340  0.12821954  0.24178945  1
  O  O216  1  1.00926743  0.13463171  0.74923126  1
  O  O217  1  0.99328985  0.63084057  0.24405734  1
  O  O218  1  0.99422817  0.63019945  0.74980362  1
  O  O219  1  0.36106380  0.24413948  0.00976855  1
  O  O220  1  0.36677251  0.25815538  0.50684725  1
  O  O221  1  0.37040929  0.75479957  0.00935487  1
  O  O222  1  0.37037458  0.75295350  0.51244856  1
  O  O223  1  0.86630733  0.25928263  -0.00083753  1
  O  O224  1  0.86303862  0.25859822  0.49897118  1
  O  O225  1  0.87970951  0.76243056  0.00562536  1
  O  O226  1  0.85985846  0.75679802  0.49500663  1
  O  O227  1  0.12993638  0.24734925  0.49260484  1
  O  O228  1  0.13867148  0.23903831  1.00304282  1
  O  O229  1  0.13344106  0.75636538  0.48885640  1
  O  O230  1  0.13042916  0.74372209  0.99508381  1
  O  O231  1  0.63557733  0.25513121  0.49007653  1
  O  O232  1  0.63714335  0.25518821  0.99303106  1
  O  O233  1  0.63434086  0.74645091  0.49460317  1
  O  O234  1  0.62806349  0.74858886  0.98695284  1
  O  O235  1  0.48618438  0.24232404  0.11380187  1
  O  O236  1  0.49463312  0.24492384  0.63239299  1
  O  O237  1  0.49146471  0.74263043  0.11976765  1
  O  O238  1  0.49240752  0.74732414  0.62279242  1
  O  O239  1  1.00784508  0.24042057  0.12606661  1
  O  O240  1  0.99601277  0.25223511  0.64120951  1
  O  O241  1  0.99585928  0.74635768  0.13179948  1
  O  O242  1  1.00799931  0.73308058  0.63467626  1
  O  O243  1  0.00755960  0.26115930  0.37132405  1
  O  O244  1  -0.00020868  0.25223370  0.85745910  1
  O  O245  1  0.00695817  0.75551807  0.37123145  1
  O  O246  1  0.00702481  0.75311049  0.86807314  1
  O  O247  1  0.51082802  0.25769451  0.38148761  1
  O  O248  1  0.50264799  0.25500482  0.87225493  1
  O  O249  1  0.51606173  0.75938874  0.38213633  1
  O  O250  1  0.50795105  0.75929869  0.88034790  1
  O  O251  1  0.24346884  0.13270504  0.49157023  1
  O  O252  1  0.24028937  0.13297427  1.00218002  1
  O  O253  1  0.25819730  0.63260336  0.48610031  1
  O  O254  1  0.24655648  0.62965163  0.99347188  1
  O  O255  1  0.74950070  0.13456002  0.48248278  1
  O  O256  1  0.75544230  0.13680118  1.00098641  1
  O  O257  1  0.74415727  0.63987546  0.50086961  1
  O  O258  1  0.75097349  0.62685389  0.99316446  1
  O  O259  1  0.24461844  0.36094522  0.00115004  1
  O  O260  1  0.25894127  0.36732686  0.49469008  1
  O  O261  1  0.25490990  0.87103340  0.00543086  1
  O  O262  1  0.26436604  0.86389562  0.49412193  1
  O  O263  1  0.75711345  0.36984928  0.00690994  1
  O  O264  1  0.75821836  0.36642764  0.49895749  1
  O  O265  1  0.76025440  0.87438146  0.00905131  1
  O  O266  1  0.75808987  0.86300944  0.49818597  1
  O  O267  1  0.13582416  0.50407689  0.24082761  1
  O  O268  1  0.13214499  0.49277444  0.74220799  1
  O  O269  1  0.12550063  0.99538803  0.24236379  1
  O  O270  1  0.13062509  0.98837428  0.74593429  1
  O  O271  1  0.62645277  0.48820501  0.25178455  1
  O  O272  1  0.62719670  0.49429736  0.74799856  1
  O  O273  1  0.62791252  0.99285273  0.23482764  1
  O  O274  1  0.62952356  0.99155785  0.74382969  1
  O  O275  1  0.37042849  0.00703018  0.25435986  1
  O  O276  1  0.36855723  0.00878536  0.74779405  1
  O  O277  1  0.36237973  0.51155559  0.24411175  1
  O  O278  1  0.36783369  0.50488859  0.75182983  1
  O  O279  1  0.87241573  0.01014568  0.25799319  1
  O  O280  1  0.86515060  -0.00867421  0.76096638  1
  O  O281  1  0.87423771  0.50899894  0.25715550  1
  O  O282  1  0.87919429  0.50812024  0.75152922  1
  O  O283  1  0.11756091  0.36974039  0.37500009  1
  O  O284  1  0.12330414  0.37945832  0.85682990  1
  O  O285  1  0.11709100  0.87059990  0.37178675  1
  O  O286  1  0.11915114  0.86854783  0.86893755  1
  O  O287  1  0.61699524  0.36822912  0.36986745  1
  O  O288  1  0.61473591  0.36249011  0.87348698  1
  O  O289  1  0.61795495  0.86583570  0.37126750  1
  O  O290  1  0.61880770  0.86816595  0.86913517  1
  O  O291  1  0.38225871  0.13466931  0.12740642  1
  O  O292  1  0.38060207  0.13707355  0.63175418  1
  O  O293  1  0.38041610  0.63367189  0.13346108  1
  O  O294  1  0.37270754  0.63824453  0.63131145  1
  O  O295  1  0.88858237  0.11765287  0.13367769  1
  O  O296  1  0.88188184  0.11446833  0.60703999  1
  O  O297  1  0.88129044  0.63140326  0.13139335  1
  O  O298  1  0.89173353  0.62022890  0.63377498  1
  O  O299  1  0.26106975  0.25273748  0.11790487  1
  O  O300  1  0.25629359  0.24645869  0.61238984  1
  O  O301  1  0.25608979  0.75503758  0.11891780  1
  O  O302  1  0.24707793  0.74237850  0.61271088  1
  O  O303  1  0.74474558  0.25925013  0.11757882  1
  O  O304  1  0.75469074  0.24400695  0.61452214  1
  O  O305  1  0.75845607  0.75795850  0.12103079  1
  O  O306  1  0.74618828  0.75147431  0.61415375  1
  O  O307  1  0.24247077  0.24599180  0.38452426  1
  O  O308  1  0.25847383  0.25163552  0.88819578  1
  O  O309  1  0.24271574  0.74419124  0.38147759  1
  O  O310  1  0.24730349  0.74526155  0.88034691  1
  O  O311  1  0.73967408  0.24366388  0.37904129  1
  O  O312  1  0.74248210  0.24470899  0.88369648  1
  O  O313  1  0.73441791  0.75519115  0.38228970  1
  O  O314  1  0.74313052  0.73998123  0.87722901  1
  O  O315  1  0.01110556  0.12342084  0.00622340  1
  O  O316  1  0.00324874  0.12393285  0.49467044  1
  O  O317  1  0.00441548  0.61884901  0.00602864  1
  O  O318  1  -0.00194072  0.63168290  0.51231886  1
  O  O319  1  0.49411370  0.11181654  0.00752119  1
  O  O320  1  0.49490711  0.12484493  0.51335905  1
  O  O321  1  0.49941148  0.61755722  0.01218153  1
  O  O322  1  0.50785692  0.61567134  0.49447856  1
  O  O323  1  0.49161521  0.37954292  0.49204846  1
  O  O324  1  0.49981187  0.38014309  0.98943686  1
  O  O325  1  0.48892394  0.87594337  0.49155080  1
  O  O326  1  0.49481720  0.88507433  0.99167334  1
  O  O327  1  0.98902357  0.36818467  0.49041344  1
  O  O328  1  0.99340259  0.38055724  0.99799328  1
  O  O329  1  0.99056885  0.86667618  0.48701687  1
  O  O330  1  0.99633853  0.88227916  0.99552203  1
  O  O331  1  0.50119823  0.48803787  0.38673365  1
  O  O332  1  0.49372601  0.49232663  0.88101718  1
  O  O333  1  0.50097438  0.98929331  0.37875601  1
  O  O334  1  0.49898434  0.99343636  0.88202643  1
  O  O335  1  0.99403123  0.49071767  0.37293249  1
  O  O336  1  1.00659438  0.50008132  0.88932886  1
  O  O337  1  0.98845952  0.99319746  0.37112434  1
  O  O338  1  0.99470577  0.99322127  0.87908447  1
  O  O339  1  0.01205193  0.00675477  0.11909978  1
  O  O340  1  0.00153790  0.00300079  0.62382871  1
  O  O341  1  0.00924743  0.50556401  0.11842500  1
  O  O342  1  0.01075539  0.50957274  0.62507104  1
  O  O343  1  0.50665225  0.00613365  0.11748013  1
  O  O344  1  0.50556437  0.00885773  0.62486954  1
  O  O345  1  0.49791146  0.50665802  0.11768837  1
  O  O346  1  0.50140665  0.49427965  0.60983987  1
  O  O347  1  0.24818917  0.38622358  0.24837749  1
  O  O348  1  0.23845674  0.38387224  0.74836206  1
  O  O349  1  0.24250669  0.87565415  0.24301709  1
  O  O350  1  0.23950681  0.87918968  0.75026039  1
  O  O351  1  0.74346396  0.37514033  0.24254290  1
  O  O352  1  0.75101295  0.37429289  0.74878986  1
  O  O353  1  0.75340087  0.87721331  0.23552031  1
  O  O354  1  0.73678525  0.88496311  0.75820340  1
  O  O355  1  0.24592489  0.12641975  0.26541640  1
  O  O356  1  0.25775184  0.11865937  0.74710493  1
  O  O357  1  0.25768681  0.62178615  0.25865057  1
  O  O358  1  0.25597943  0.61593160  0.75640670  1
  O  O359  1  0.75649616  0.12373781  0.25716958  1
  O  O360  1  0.74528034  0.10863100  0.75507625  1
  O  O361  1  0.76312122  0.62459402  0.24502010  1
  O  O362  1  0.76238149  0.62394106  0.75754492  1
  O  O363  1  0.36559797  0.12662393  0.37496721  1
  O  O364  1  0.38244354  0.12423958  0.85963862  1
  O  O365  1  0.36990532  0.63546678  0.36241917  1
  O  O366  1  0.37134664  0.61638472  0.86842862  1
  O  O367  1  0.86899986  0.11860642  0.36842008  1
  O  O368  1  0.87687342  0.11029718  0.88333264  1
  O  O369  1  0.88214950  0.61517258  0.36591062  1
  O  O370  1  0.86681051  0.62831010  0.86584323  1
  O  O371  1  0.12688705  0.38852226  0.12596328  1
  O  O372  1  0.11887083  0.38930875  0.63436515  1
  O  O373  1  0.12882619  0.88382433  0.12944322  1
  O  O374  1  0.11796924  0.87322047  0.63426517  1
  O  O375  1  0.63016676  0.37588608  0.13401437  1
  O  O376  1  0.62848418  0.37545375  0.62866635  1
  O  O377  1  0.63388227  0.87839788  0.12399689  1
  O  O378  1  0.61261114  0.88008195  0.63870255  1
  O  O379  1  0.12562403  0.25225912  0.26301476  1
  O  O380  1  0.12105931  0.26333111  0.74175263  1
  O  O381  1  0.12087370  0.75655760  0.25897802  1
  O  O382  1  0.12021762  0.75414389  0.75495681  1
  O  O383  1  0.62720282  0.26282670  0.25961983  1
  O  O384  1  0.61528542  0.24884061  0.75797211  1
  O  O385  1  0.62898379  0.75068228  0.26247191  1
  O  O386  1  0.62985762  0.75708657  0.76132637  1
  O  O387  1  0.37031780  0.24666030  0.23507372  1
  O  O388  1  0.37790068  0.24586591  0.74322007  1
  O  O389  1  0.36938962  0.74347352  0.23773127  1
  O  O390  1  0.37136447  0.74262128  0.73527732  1
  O  O391  1  0.87594024  0.23746907  0.25653235  1
  O  O392  1  0.88611196  0.24203744  0.74654924  1
  O  O393  1  0.88007542  0.74454716  0.24850314  1
  O  O394  1  0.88721724  0.74686278  0.75310545  1
  O  O395  1  0.37838839  0.48873136  0.50539127  1
  O  O396  1  0.38517121  0.50496506  0.98957717  1
  O  O397  1  0.37607838  0.99034821  0.50093008  1
  O  O398  1  0.38097267  0.99346683  0.99825733  1
  O  O399  1  0.87205028  0.49170827  0.49200581  1
  O  O400  1  0.88626602  0.48929191  1.00782681  1
  O  O401  1  0.87935616  0.99868768  0.49748141  1
  O  O402  1  0.88256597  0.98985745  0.99551753  1
  O  O403  1  0.12483742  0.01045067  0.00586336  1
  O  O404  1  0.12531445  0.00970835  0.50044692  1
  O  O405  1  0.12189501  0.50563573  0.00638655  1
  O  O406  1  0.13082727  0.49618107  0.51530988  1
  O  O407  1  0.61680581  -0.00586748  0.01018439  1
  O  O408  1  0.62599110  -0.00927048  0.51540291  1
  O  O409  1  0.60977337  0.50070083  0.00067398  1
  O  O410  1  0.61794558  0.51057373  0.49805209  1
  O  O411  1  0.37637746  0.36144748  0.12635701  1
  O  O412  1  0.38011689  0.36186556  0.61792786  1
  O  O413  1  0.37152613  0.86887828  0.12088634  1
  O  O414  1  0.37978578  0.85958451  0.61943418  1
  O  O415  1  0.86415889  0.37665716  0.12121084  1
  O  O416  1  0.87486962  0.37300632  0.61290176  1
  O  O417  1  0.87210959  0.87365485  0.11850355  1
  O  O418  1  0.88268471  0.87660421  0.61065835  1
  O  O419  1  0.12810331  0.13350600  0.38397174  1
  O  O420  1  0.12440079  0.12063247  0.89012307  1
  O  O421  1  0.13405248  0.63567079  0.37008889  1
  O  O422  1  0.13250207  0.63020515  0.87907940  1
  O  O423  1  0.63096515  0.13274792  0.36517012  1
  O  O424  1  0.62070208  0.13640981  0.87406422  1
  O  O425  1  0.62093771  0.63841617  0.38260700  1
  O  O426  1  0.63190666  0.63239552  0.87643787  1
