# generated using pymatgen
data_V85Zn86O256
_symmetry_space_group_name_H-M   'P 1'
_cell_length_a   16.93113989
_cell_length_b   16.92692449
_cell_length_c   16.92284666
_cell_angle_alpha   90.05293942
_cell_angle_beta   90.07906413
_cell_angle_gamma   90.05214691
_symmetry_Int_Tables_number   1
_chemical_formula_structural   V85Zn86O256
_chemical_formula_sum   'V85 Zn86 O256'
_cell_volume   4849.94590767
_cell_formula_units_Z   1
loop_
 _symmetry_equiv_pos_site_id
 _symmetry_equiv_pos_as_xyz
  1  'x, y, z'
loop_
 _atom_site_type_symbol
 _atom_site_label
 _atom_site_symmetry_multiplicity
 _atom_site_fract_x
 _atom_site_fract_y
 _atom_site_fract_z
 _atom_site_occupancy
  V  V0  1  0.62860677  0.50670806  0.12679150  1
  V  V1  1  0.24988143  0.24969505  0.49978721  1
  V  V2  1  0.87589424  0.11286094  0.25547759  1
  V  V3  1  0.36515924  0.62679047  0.75158978  1
  V  V4  1  0.62257418  0.74439254  0.88105187  1
  V  V5  1  0.25810966  0.73950689  0.00194988  1
  V  V6  1  0.38261380  0.63121643  0.23557785  1
  V  V7  1  -0.01314920  0.00107104  0.49328693  1
  V  V8  1  0.51183569  0.37326991  0.87212688  1
  V  V9  1  0.12448439  0.12111679  0.50013913  1
  V  V10  1  0.62421157  0.87098510  0.74997435  1
  V  V11  1  0.86581722  0.49927381  0.37268960  1
  V  V12  1  0.10647532  0.62119239  0.00241991  1
  V  V13  1  0.24928794  0.62522228  0.37019013  1
  V  V14  1  0.62907049  0.49198221  0.63149138  1
  V  V15  1  0.74767148  0.62172381  0.88077280  1
  V  V16  1  0.87533693  0.62311074  0.75090962  1
  V  V17  1  -0.00144381  0.12748009  0.62552558  1
  V  V18  1  0.49810309  0.87360057  0.36522057  1
  V  V19  1  0.63454957  0.37810339  0.25020371  1
  V  V20  1  0.37581456  0.25068679  0.62678081  1
  V  V21  1  0.12534710  0.62158597  0.49352327  1
  V  V22  1  0.50304913  0.50652236  0.50192327  1
  V  V23  1  0.75192801  0.11293984  0.37268542  1
  V  V24  1  0.11845495  0.24867555  0.36779484  1
  V  V25  1  0.62410899  -0.00310471  0.62361896  1
  V  V26  1  0.00577057  0.87587878  0.87062538  1
  V  V27  1  0.12442658  0.37440209  0.75006039  1
  V  V28  1  0.37604358  0.37628353  0.50041312  1
  V  V29  1  0.88010822  0.62143541  0.24561929  1
  V  V30  1  0.37624611  -0.00004327  0.87380402  1
  V  V31  1  0.36952856  0.50042681  0.87529537  1
  V  V32  1  0.49839016  0.74799745  0.74876212  1
  V  V33  1  -0.00508869  0.36941675  0.36815636  1
  V  V34  1  0.51230504  0.25425740  0.75218254  1
  V  V35  1  0.36988627  0.13041225  0.23709709  1
  V  V36  1  0.50133611  0.37470780  0.37364698  1
  V  V37  1  0.88660607  0.74876747  0.13065434  1
  V  V38  1  0.87394330  0.25003148  0.13243948  1
  V  V39  1  0.12680905  0.12035917  0.00429284  1
  V  V40  1  0.11819760  0.74675085  0.36131530  1
  V  V41  1  0.74787922  0.37097794  0.11942249  1
  V  V42  1  0.49625759  0.25142546  0.24524271  1
  V  V43  1  0.74566295  0.74663505  0.00848095  1
  V  V44  1  0.23884070  0.87277542  0.62605450  1
  V  V45  1  0.74858039  0.48874023  0.75211043  1
  V  V46  1  0.86100679  0.25168428  0.62312914  1
  V  V47  1  0.00411222  0.38312576  0.88354162  1
  V  V48  1  0.24820512  0.49833715  0.24709322  1
  V  V49  1  0.11989708  0.87912182  0.24288739  1
  V  V50  1  0.37694009  0.50271630  0.37439621  1
  V  V51  1  0.50468827  0.50417995  0.00357433  1
  V  V52  1  0.75227939  0.13738419  0.87574909  1
  V  V53  1  0.25014104  0.12479518  0.37437346  1
  V  V54  1  0.74884282  0.62802285  0.37935086  1
  V  V55  1  0.37261464  0.00131624  0.37423565  1
  V  V56  1  0.13222246  0.74638937  0.87341579  1
  V  V57  1  0.63561280  0.25274291  0.37874507  1
  V  V58  1  -0.00191290  0.49565651  0.49720641  1
  V  V59  1  0.24107092  -0.00408753  0.74991328  1
  V  V60  1  0.00223390  0.13066114  0.13008261  1
  V  V61  1  -0.00615342  0.87790504  0.36910382  1
  V  V62  1  0.75098472  -0.00407098  0.75273945  1
  V  V63  1  0.50039391  0.12584196  0.62444279  1
  V  V64  1  0.25209011  0.36708950  0.12558146  1
  V  V65  1  0.74270158  0.88994562  0.13830170  1
  V  V66  1  0.12691603  0.24782191  0.87708599  1
  V  V67  1  0.62769827  0.15059404  -0.01147165  1
  V  V68  1  0.37714305  0.36687170  0.00217475  1
  V  V69  1  0.63009400  0.75925900  0.37508074  1
  V  V70  1  0.00179779  -0.00068212  0.00855470  1
  V  V71  1  0.12422712  0.49875294  0.62315717  1
  V  V72  1  0.51218981  0.00584575  -0.00185009  1
  V  V73  1  0.24834677  0.75206212  0.49671002  1
  V  V74  1  0.63190528  0.13077309  0.50300163  1
  V  V75  1  0.37504015  0.12528271  0.75008773  1
  V  V76  1  0.87327829  0.87335221  0.00068371  1
  V  V77  1  0.24931441  0.37585940  0.62513526  1
  V  V78  1  0.87719502  0.37520994  0.00227942  1
  V  V79  1  0.37656802  0.87659431  0.00663866  1
  V  V80  1  0.87574884  0.00037865  0.87569285  1
  V  V81  1  0.86076666  0.37112415  0.50334360  1
  V  V82  1  0.24554025  0.88006244  0.12190589  1
  V  V83  1  0.54335324  0.10683372  0.15145537  1
  V  V84  1  0.00236612  0.75133906  0.74968355  1
  Zn  Zn85  1  0.24665658  0.50504794  0.75352876  1
  Zn  Zn86  1  0.24576833  0.00190963  0.24358222  1
  Zn  Zn87  1  0.11704854  0.37270125  0.24287984  1
  Zn  Zn88  1  0.11387559  0.49568603  0.11211713  1
  Zn  Zn89  1  0.87930434  0.50158295  0.88357655  1
  Zn  Zn90  1  -0.00030931  0.24889048  0.75056864  1
  Zn  Zn91  1  0.63786168  0.63236490  0.50801266  1
  Zn  Zn92  1  0.49994395  0.62713944  0.62464399  1
  Zn  Zn93  1  0.25603400  0.24432849  0.00442217  1
  Zn  Zn94  1  0.50392527  0.75271675  0.23597875  1
  Zn  Zn95  1  0.24998634  0.12507810  0.87556272  1
  Zn  Zn96  1  0.11804573  -0.00648226  0.62739294  1
  Zn  Zn97  1  0.74658150  0.86359247  0.61209491  1
  Zn  Zn98  1  0.50096477  0.87455371  0.87643023  1
  Zn  Zn99  1  0.49974854  -0.00180960  0.49836211  1
  Zn  Zn100  1  0.86320611  0.74712656  0.61911526  1
  Zn  Zn101  1  0.87672761  0.12550331  0.75069507  1
  Zn  Zn102  1  0.56037800  0.66862389  0.06978151  1
  Zn  Zn103  1  0.37383698  0.87541466  0.49868885  1
  Zn  Zn104  1  0.86836807  0.86445064  0.49682965  1
  Zn  Zn105  1  -0.00071967  0.62314744  0.62504931  1
  Zn  Zn106  1  0.37390585  0.75154947  0.62335528  1
  Zn  Zn107  1  0.18539623  0.18739526  0.18644634  1
  Zn  Zn108  1  0.18708759  0.18548336  0.68831108  1
  Zn  Zn109  1  0.19042550  0.68860023  0.18062464  1
  Zn  Zn110  1  0.18312143  0.68818166  0.68402678  1
  Zn  Zn111  1  0.69083123  0.18343717  0.19166636  1
  Zn  Zn112  1  0.68905444  0.18404079  0.69240627  1
  Zn  Zn113  1  0.69623756  0.69194775  0.19899076  1
  Zn  Zn114  1  0.68513630  0.67958039  0.68987343  1
  Zn  Zn115  1  0.31208537  0.31219919  0.31289232  1
  Zn  Zn116  1  0.31387153  0.31396061  0.81456789  1
  Zn  Zn117  1  0.31106161  0.81195540  0.30745091  1
  Zn  Zn118  1  0.31145468  0.81561346  0.81460237  1
  Zn  Zn119  1  0.81398861  0.30698811  0.30927153  1
  Zn  Zn120  1  0.82027586  0.31333576  0.81098497  1
  Zn  Zn121  1  0.80951629  0.81225396  0.31150100  1
  Zn  Zn122  1  0.81267391  0.80933119  0.80986006  1
  Zn  Zn123  1  0.18695358  0.43545013  0.43171050  1
  Zn  Zn124  1  0.18984459  0.43823910  0.94028620  1
  Zn  Zn125  1  0.18265535  0.93541649  0.43361698  1
  Zn  Zn126  1  0.18766295  0.93658428  0.93694520  1
  Zn  Zn127  1  0.68567316  0.44189278  0.44031149  1
  Zn  Zn128  1  0.69019926  0.43531057  0.94317765  1
  Zn  Zn129  1  0.68798124  0.93673446  0.43690106  1
  Zn  Zn130  1  0.69040611  0.93358344  0.93759463  1
  Zn  Zn131  1  0.31276596  0.05918850  0.05972680  1
  Zn  Zn132  1  0.31119949  0.05897992  0.56345291  1
  Zn  Zn133  1  0.31164172  0.55318788  0.06283979  1
  Zn  Zn134  1  0.31307965  0.56537993  0.56419416  1
  Zn  Zn135  1  0.81125915  0.06837570  0.05848632  1
  Zn  Zn136  1  0.80890026  0.06026805  0.56382933  1
  Zn  Zn137  1  0.81175681  0.55782831  0.06537293  1
  Zn  Zn138  1  0.81242185  0.56201982  0.56552659  1
  Zn  Zn139  1  0.43858503  0.44048271  0.18565092  1
  Zn  Zn140  1  0.43947105  0.43948846  0.68922091  1
  Zn  Zn141  1  0.43540873  0.94289283  0.18686613  1
  Zn  Zn142  1  0.43322342  0.93259188  0.68511562  1
  Zn  Zn143  1  0.93622099  0.43971477  0.18486124  1
  Zn  Zn144  1  0.93690454  0.43574655  0.68921368  1
  Zn  Zn145  1  0.93403709  0.93520017  0.18602523  1
  Zn  Zn146  1  0.93434041  0.93450073  0.68345315  1
  Zn  Zn147  1  0.06117788  0.05950661  0.30918083  1
  Zn  Zn148  1  0.06104583  0.06306574  0.81417222  1
  Zn  Zn149  1  0.04608743  0.54789133  0.28121516  1
  Zn  Zn150  1  0.06601390  0.56494646  0.81604644  1
  Zn  Zn151  1  0.56167791  0.06469769  0.32052450  1
  Zn  Zn152  1  0.56413574  0.06471183  0.81227133  1
  Zn  Zn153  1  0.56582335  0.56566116  0.31140314  1
  Zn  Zn154  1  0.55995595  0.56224561  0.81298609  1
  Zn  Zn155  1  0.44114803  0.18679999  0.43569858  1
  Zn  Zn156  1  0.44180609  0.18768317  0.93660710  1
  Zn  Zn157  1  0.43726165  0.69028281  0.43076233  1
  Zn  Zn158  1  0.43285623  0.68633531  0.93426069  1
  Zn  Zn159  1  0.93322027  0.18709526  0.43903916  1
  Zn  Zn160  1  0.93776461  0.19268833  0.94166918  1
  Zn  Zn161  1  0.93903553  0.68507245  0.43374624  1
  Zn  Zn162  1  0.93428746  0.69027980  0.93621831  1
  Zn  Zn163  1  0.06369260  0.30884394  0.06259830  1
  Zn  Zn164  1  0.05849578  0.31040590  0.55762296  1
  Zn  Zn165  1  0.06562147  0.80936391  0.05826494  1
  Zn  Zn166  1  0.03850837  0.79874192  0.54700736  1
  Zn  Zn167  1  0.55905446  0.31115306  0.06643518  1
  Zn  Zn168  1  0.56424829  0.31448615  0.56315134  1
  Zn  Zn169  1  0.56416834  0.83100308  0.06890826  1
  Zn  Zn170  1  0.55966828  0.81373117  0.55631208  1
  O  O171  1  0.11607224  0.12664470  0.11765122  1
  O  O172  1  0.11744959  0.12359031  0.61622050  1
  O  O173  1  0.13072277  0.62610033  0.10485438  1
  O  O174  1  0.12351455  0.61382565  0.61482014  1
  O  O175  1  0.63688388  0.13621227  0.09637528  1
  O  O176  1  0.62134171  0.11964769  0.62041324  1
  O  O177  1  0.63856633  0.61149639  0.13269276  1
  O  O178  1  0.61828047  0.61346003  0.62285016  1
  O  O179  1  0.38106658  0.38152906  0.38053043  1
  O  O180  1  0.38254173  0.38179975  0.88217045  1
  O  O181  1  0.37726722  0.88505125  0.37298295  1
  O  O182  1  0.37601384  0.88743501  0.88384928  1
  O  O183  1  0.87668670  0.37837139  0.38077002  1
  O  O184  1  0.88725996  0.37220912  0.88517987  1
  O  O185  1  0.89081077  0.86394355  0.37460037  1
  O  O186  1  0.88427080  0.87779419  0.88182605  1
  O  O187  1  0.25562982  0.00729092  0.37280658  1
  O  O188  1  0.25745757  -0.00005579  0.86698067  1
  O  O189  1  0.26123221  0.50334629  0.37150257  1
  O  O190  1  0.26510041  0.49345647  0.87247273  1
  O  O191  1  0.73351461  0.01531401  0.36649749  1
  O  O192  1  0.75725014  0.00463824  0.87041782  1
  O  O193  1  0.76071879  0.50500823  0.37777888  1
  O  O194  1  0.75048992  0.50693189  0.87232008  1
  O  O195  1  0.24336409  0.48969521  0.13298194  1
  O  O196  1  0.24210290  0.49203765  0.62468338  1
  O  O197  1  0.25027017  0.98563763  0.12262851  1
  O  O198  1  0.24677476  0.99264604  0.63279839  1
  O  O199  1  0.74106068  0.48425438  0.12271407  1
  O  O200  1  0.73814447  0.50510257  0.63558280  1
  O  O201  1  0.76533477  0.98662788  0.12139993  1
  O  O202  1  0.73704515  1.00105530  0.63538035  1
  O  O203  1  -0.00333886  0.37090850  0.26498665  1
  O  O204  1  0.01247795  0.37243478  0.75614117  1
  O  O205  1  0.00721924  0.87850391  0.25457379  1
  O  O206  1  -0.00311265  0.86810216  0.76076879  1
  O  O207  1  0.50520315  0.36732276  0.25319406  1
  O  O208  1  0.49528699  0.36932405  0.76347669  1
  O  O209  1  0.49356264  0.87681121  0.25988946  1
  O  O210  1  0.50303574  0.86406196  0.75328667  1
  O  O211  1  0.48533077  0.13322682  0.25134172  1
  O  O212  1  0.49452046  0.13302881  0.74506719  1
  O  O213  1  0.48501984  0.62319001  0.25220009  1
  O  O214  1  0.49160793  0.63651843  0.75145333  1
  O  O215  1  0.99032185  0.12210868  0.24277468  1
  O  O216  1  0.99840731  0.12558464  0.73999648  1
  O  O217  1  0.97690716  0.63907687  0.26586528  1
  O  O218  1  0.99172213  0.63019335  0.75392758  1
  O  O219  1  0.37597066  0.26185360  -0.00423588  1
  O  O220  1  0.37202841  0.25594583  0.50526481  1
  O  O221  1  0.36523008  0.76119115  -0.00897126  1
  O  O222  1  0.35834449  0.74789199  0.49660891  1
  O  O223  1  0.88145905  0.26107494  0.01688885  1
  O  O224  1  0.87661335  0.25681528  0.51317831  1
  O  O225  1  0.86603821  0.75098854  0.01084754  1
  O  O226  1  0.92125316  0.75757152  0.51738704  1
  O  O227  1  0.12890201  0.23892739  0.49282757  1
  O  O228  1  0.12707747  0.23741561  0.99353940  1
  O  O229  1  0.13167818  0.74114651  0.49045754  1
  O  O230  1  0.13426355  0.73923325  0.99314372  1
  O  O231  1  0.62047056  0.24348068  0.49240158  1
  O  O232  1  0.62039163  0.24878871  0.98862786  1
  O  O233  1  0.61311211  0.74386610  0.48104175  1
  O  O234  1  0.63027720  0.74780559  0.99689582  1
  O  O235  1  0.51548317  0.23009141  0.14155502  1
  O  O236  1  0.49387276  0.24779697  0.63160001  1
  O  O237  1  0.50805111  0.75135815  0.12240532  1
  O  O238  1  0.49657849  0.75028899  0.63390626  1
  O  O239  1  0.99481901  0.23671822  0.12400460  1
  O  O240  1  0.99651938  0.23704519  0.62301549  1
  O  O241  1  0.98468438  0.75115776  0.11941388  1
  O  O242  1  1.01712343  0.74421770  0.64638338  1
  O  O243  1  0.00756482  0.25653612  0.38479730  1
  O  O244  1  0.01242488  0.25824086  0.87433794  1
  O  O245  1  0.01500249  0.75846150  0.37772691  1
  O  O246  1  0.00687407  0.75681012  0.86949100  1
  O  O247  1  0.50923215  0.25608097  0.36704361  1
  O  O248  1  0.49574297  0.26436400  0.86677413  1
  O  O249  1  0.50448058  0.75878174  0.36720661  1
  O  O250  1  0.50730674  0.75086526  0.87064182  1
  O  O251  1  0.24254258  0.12976585  0.49632884  1
  O  O252  1  0.24165354  0.12503319  0.99778159  1
  O  O253  1  0.24411430  0.62946562  0.49145603  1
  O  O254  1  0.25985841  0.63888428  1.00124558  1
  O  O255  1  0.73913922  0.12142272  0.49282997  1
  O  O256  1  0.73950622  0.12497842  0.98667989  1
  O  O257  1  0.75598207  0.62329741  0.48685372  1
  O  O258  1  0.75651391  0.63141305  0.98972161  1
  O  O259  1  0.25926060  0.37327558  0.00750864  1
  O  O260  1  0.25506153  0.36880075  0.50411225  1
  O  O261  1  0.25686017  0.87029246  0.00388101  1
  O  O262  1  0.24837081  0.86638356  0.50241861  1
  O  O263  1  0.75981726  0.37066366  0.00820615  1
  O  O264  1  0.76164185  0.37808059  0.49817267  1
  O  O265  1  0.75700502  0.86383610  0.00360247  1
  O  O266  1  0.75533676  0.87754277  0.49859427  1
  O  O267  1  0.14569350  0.49050975  0.26911723  1
  O  O268  1  0.12656392  0.49325228  0.74376397  1
  O  O269  1  0.12872259  0.98471374  0.25216325  1
  O  O270  1  0.13749223  1.00389986  0.74974716  1
  O  O271  1  0.61662029  0.48773311  0.24153022  1
  O  O272  1  0.63112605  0.50414549  0.74032048  1
  O  O273  1  0.61563244  1.07247233  0.22162482  1
  O  O274  1  0.62986765  0.99317040  0.74562130  1
  O  O275  1  0.37054168  0.01173491  0.25870984  1
  O  O276  1  0.37015964  0.00477423  0.75686414  1
  O  O277  1  0.36781120  0.50568704  0.25519283  1
  O  O278  1  0.37413600  0.50824439  0.75684586  1
  O  O279  1  0.87730901  0.01420322  0.24843019  1
  O  O280  1  0.86691703  0.00141884  0.75621410  1
  O  O281  1  0.87307633  0.51302122  0.25735269  1
  O  O282  1  0.86855928  0.50617687  0.75359590  1
  O  O283  1  0.11357232  0.36415209  0.37750582  1
  O  O284  1  0.12229057  0.36977561  0.87047314  1
  O  O285  1  0.11936168  0.86647736  0.36294054  1
  O  O286  1  0.11267228  0.86479101  0.88415654  1
  O  O287  1  0.62183561  0.37149821  0.36965231  1
  O  O288  1  0.61011698  0.38064871  0.87752623  1
  O  O289  1  0.61629273  0.86583799  0.37486587  1
  O  O290  1  0.62472483  0.86078110  0.87047073  1
  O  O291  1  0.36660807  0.12564510  0.13693104  1
  O  O292  1  0.38113382  0.12936678  0.62887249  1
  O  O293  1  0.37273586  0.61707246  0.13735980  1
  O  O294  1  0.37907238  0.62831486  0.63537135  1
  O  O295  1  0.87964196  0.13114571  0.13262464  1
  O  O296  1  0.88023814  0.13449704  0.62368824  1
  O  O297  1  0.86804248  0.63234469  0.13720297  1
  O  O298  1  0.87949827  0.62496022  0.63795778  1
  O  O299  1  0.24785852  0.26232001  0.12446843  1
  O  O300  1  0.25510582  0.25507076  0.61946229  1
  O  O301  1  0.25005560  0.76083583  0.10751876  1
  O  O302  1  0.24808066  0.75540918  0.61501784  1
  O  O303  1  0.75788163  0.26136530  0.13180698  1
  O  O304  1  0.76236284  0.24537370  0.62815814  1
  O  O305  1  0.75212973  0.75614781  0.11734798  1
  O  O306  1  0.75113236  0.75229977  0.64041182  1
  O  O307  1  0.24265136  0.24490709  0.38223003  1
  O  O308  1  0.23817137  0.24957142  0.87730501  1
  O  O309  1  0.24109662  0.74630813  0.37898440  1
  O  O310  1  0.24177499  0.75874202  0.88867422  1
  O  O311  1  0.73878650  0.24324015  0.37223538  1
  O  O312  1  0.75672797  0.23633287  0.86579454  1
  O  O313  1  0.73813414  0.74618938  0.37551100  1
  O  O314  1  0.74358767  0.74329932  0.88495564  1
  O  O315  1  0.00556788  0.11832420  0.00714244  1
  O  O316  1  0.00612180  0.11898010  0.50354855  1
  O  O317  1  0.00737991  0.62645405  -0.00073788  1
  O  O318  1  0.00657318  0.60769350  0.49672577  1
  O  O319  1  0.51701589  0.12405805  -0.00137352  1
  O  O320  1  0.51062311  0.12398085  0.50712971  1
  O  O321  1  0.49815846  0.60969897  -0.00681328  1
  O  O322  1  0.49440961  0.61201391  0.49808401  1
  O  O323  1  0.49592399  0.38546513  0.49446373  1
  O  O324  1  0.49498776  0.37977926  0.99227005  1
  O  O325  1  0.49319054  0.87862155  0.48486920  1
  O  O326  1  0.49253794  0.88799051  0.99752245  1
  O  O327  1  0.99239261  0.38262249  0.49150478  1
  O  O328  1  0.99605347  0.37263975  0.99373222  1
  O  O329  1  1.00914861  0.89082811  0.48586908  1
  O  O330  1  0.99510103  0.88217503  0.99558396  1
  O  O331  1  0.49642872  0.49440918  0.38154293  1
  O  O332  1  0.49362532  0.48939462  0.87956143  1
  O  O333  1  0.49155470  0.99505502  0.37438482  1
  O  O334  1  0.49278966  1.00049997  0.87988270  1
  O  O335  1  0.98711854  0.49043949  0.37845706  1
  O  O336  1  1.00030403  0.48622763  0.87080397  1
  O  O337  1  1.00258876  0.99171913  0.38125760  1
  O  O338  1  0.99564240  0.99283985  0.88161089  1
  O  O339  1  -0.00670006  0.00829661  0.11286953  1
  O  O340  1  0.00005668  0.01091067  0.61675333  1
  O  O341  1  0.02011018  0.51018921  0.17173586  1
  O  O342  1  0.00637162  0.49722081  0.61523982  1
  O  O343  1  0.49610680  0.01656778  0.11575495  1
  O  O344  1  0.50983176  0.00506547  0.62750759  1
  O  O345  1  0.51181243  0.49491947  0.11475113  1
  O  O346  1  0.50840193  0.50084923  0.61891023  1
  O  O347  1  0.25330508  0.38065606  0.24183282  1
  O  O348  1  0.23872262  0.37558040  0.74457751  1
  O  O349  1  0.24384065  0.87531251  0.23769296  1
  O  O350  1  0.25376098  0.88417414  0.74090120  1
  O  O351  1  0.73875931  0.37181927  0.24597150  1
  O  O352  1  0.75491175  0.38953350  0.75728148  1
  O  O353  1  0.75269196  0.87638995  0.23799338  1
  O  O354  1  0.74299927  0.88621461  0.75550537  1
  O  O355  1  0.25326153  0.12526450  0.25675507  1
  O  O356  1  0.25824519  0.11642963  0.75030757  1
  O  O357  1  0.25700778  0.61772321  0.25154470  1
  O  O358  1  0.26089707  0.62560494  0.74585846  1
  O  O359  1  0.76817909  0.13106706  0.25816534  1
  O  O360  1  0.75075141  0.11153631  0.75868659  1
  O  O361  1  0.76575673  0.63011343  0.26788035  1
  O  O362  1  0.75813534  0.61770200  0.76409784  1
  O  O363  1  0.36779768  0.12146240  0.36934358  1
  O  O364  1  0.37426457  0.11564358  0.87101535  1
  O  O365  1  0.36730859  0.61821619  0.36739082  1
  O  O366  1  0.37887908  0.61305413  0.86468298  1
  O  O367  1  0.86845457  0.12799039  0.36497573  1
  O  O368  1  0.87039161  0.12009604  0.87569381  1
  O  O369  1  0.86980543  0.61732565  0.37173688  1
  O  O370  1  0.86808730  0.62233720  0.86861743  1
  O  O371  1  0.13301140  0.37671023  0.12561993  1
  O  O372  1  0.12702873  0.37780704  0.63085040  1
  O  O373  1  0.13154239  0.86930379  0.13016469  1
  O  O374  1  0.13646806  0.87552714  0.61699617  1
  O  O375  1  0.63100081  0.37675305  0.13200439  1
  O  O376  1  0.62255338  0.39216020  0.62289556  1
  O  O377  1  0.64279299  0.88839127  0.12284427  1
  O  O378  1  0.62344102  0.88240891  0.63030886  1
  O  O379  1  0.12738709  0.25191645  0.26425768  1
  O  O380  1  0.12424803  0.25668888  0.75726181  1
  O  O381  1  0.13269135  0.75842780  0.25433513  1
  O  O382  1  0.12170766  0.74178543  0.76628025  1
  O  O383  1  0.61907263  0.25770660  0.25991685  1
  O  O384  1  0.61160706  0.24795862  0.74514585  1
  O  O385  1  0.61977272  0.74166358  0.26940506  1
  O  O386  1  0.61597936  0.75237538  0.75899514  1
  O  O387  1  0.38545989  0.24399698  0.25589086  1
  O  O388  1  0.37946631  0.24416602  0.74470882  1
  O  O389  1  0.37503812  0.73432999  0.25024834  1
  O  O390  1  0.38060818  0.74414107  0.75311738  1
  O  O391  1  0.87870138  0.24264642  0.23867389  1
  O  O392  1  0.88067054  0.24822311  0.73585002  1
  O  O393  1  0.86962481  0.74319198  0.23547877  1
  O  O394  1  0.88637567  0.74017093  0.75336231  1
  O  O395  1  0.38138316  0.49470278  0.49593613  1
  O  O396  1  0.38307118  0.49075678  0.99287668  1
  O  O397  1  0.37588006  1.00327300  0.48540243  1
  O  O398  1  0.38402500  0.99734755  0.99132418  1
  O  O399  1  0.88117666  0.49236828  0.49571677  1
  O  O400  1  0.87475442  0.48366966  1.00287847  1
  O  O401  1  0.88532223  1.00156774  0.49960207  1
  O  O402  1  0.88347757  0.99639655  0.99317189  1
  O  O403  1  0.11617950  0.01164524  -0.00747681  1
  O  O404  1  0.12097574  0.01282994  0.49893947  1
  O  O405  1  0.12749850  0.51652890  -0.00389269  1
  O  O406  1  0.11781186  0.50004071  0.50139403  1
  O  O407  1  0.61346379  0.00174362  -0.00921346  1
  O  O408  1  0.62173790  0.00895880  0.50970709  1
  O  O409  1  0.61718026  0.49494995  0.01196291  1
  O  O410  1  0.61853440  0.50449394  0.51014609  1
  O  O411  1  0.36800255  0.38125406  0.11384278  1
  O  O412  1  0.36992274  0.37128530  0.62060690  1
  O  O413  1  0.36926704  0.88191876  0.11173643  1
  O  O414  1  0.36117547  0.87237887  0.61810240  1
  O  O415  1  0.86941240  0.37010827  0.12417401  1
  O  O416  1  0.88052185  0.36047187  0.61831098  1
  O  O417  1  0.86989987  0.86174935  0.12038672  1
  O  O418  1  0.86912662  0.87004087  0.61994199  1
  O  O419  1  0.12908092  0.13017566  0.37990097  1
  O  O420  1  0.12524157  0.13278087  0.88200456  1
  O  O421  1  0.13142672  0.63119492  0.37356082  1
  O  O422  1  0.12472856  0.63419647  0.88859768  1
  O  O423  1  0.62946037  0.13542187  0.38522720  1
  O  O424  1  0.63507693  0.12507529  0.88209041  1
  O  O425  1  0.63483448  0.62856024  0.37936297  1
  O  O426  1  0.63241805  0.63565543  0.87114076  1
