# generated using pymatgen
data_V85Zn86O256
_symmetry_space_group_name_H-M   'P 1'
_cell_length_a   16.93413028
_cell_length_b   16.93828074
_cell_length_c   16.94264868
_cell_angle_alpha   90.05275839
_cell_angle_beta   90.01356771
_cell_angle_gamma   90.01110052
_symmetry_Int_Tables_number   1
_chemical_formula_structural   V85Zn86O256
_chemical_formula_sum   'V85 Zn86 O256'
_cell_volume   4859.74323958
_cell_formula_units_Z   1
loop_
 _symmetry_equiv_pos_site_id
 _symmetry_equiv_pos_as_xyz
  1  'x, y, z'
loop_
 _atom_site_type_symbol
 _atom_site_label
 _atom_site_symmetry_multiplicity
 _atom_site_fract_x
 _atom_site_fract_y
 _atom_site_fract_z
 _atom_site_occupancy
  V  V0  1  0.50690373  0.37480924  0.87306115  1
  V  V1  1  0.12147403  -0.00221028  0.63000897  1
  V  V2  1  0.12594276  0.37577614  0.24943915  1
  V  V3  1  0.74593314  0.25094188  0.50097335  1
  V  V4  1  0.00734866  0.62491245  0.62651790  1
  V  V5  1  0.88263849  0.75360290  0.62854669  1
  V  V6  1  0.37272874  0.25089973  0.62390424  1
  V  V7  1  0.25164541  0.88138274  0.12767041  1
  V  V8  1  0.25046551  0.24929602  0.49700946  1
  V  V9  1  0.24782423  0.87500742  0.62286447  1
  V  V10  1  0.74991987  0.62538782  0.87427960  1
  V  V11  1  -0.00416354  0.87287641  0.85950984  1
  V  V12  1  0.48957846  0.36844446  0.37258635  1
  V  V13  1  0.12249600  0.62813014  0.00383173  1
  V  V14  1  0.87080727  0.38161446  0.50581663  1
  V  V15  1  0.62468100  0.87962567  0.25460890  1
  V  V16  1  0.48165423  0.52401278  0.46217412  1
  V  V17  1  -0.01201119  0.12809313  0.12177723  1
  V  V18  1  0.76117687  0.37245833  0.12477021  1
  V  V19  1  0.74738889  0.50171594  0.25094931  1
  V  V20  1  0.25091343  0.75294204  0.00087660  1
  V  V21  1  0.87173756  0.88060204  0.49483017  1
  V  V22  1  -0.00536433  0.36971673  0.86783884  1
  V  V23  1  0.62458336  0.62463224  -0.00012661  1
  V  V24  1  0.62071486  0.75500599  0.37752336  1
  V  V25  1  0.88083719  0.74947421  0.11889078  1
  V  V26  1  0.37825679  0.75207478  0.62652645  1
  V  V27  1  0.49564670  0.62823113  0.12651135  1
  V  V28  1  0.39277345  -0.00492464  0.37650501  1
  V  V29  1  0.75781292  0.24376017  0.00066893  1
  V  V30  1  0.38158590  0.88934429  -0.00147874  1
  V  V31  1  0.24666712  0.10956065  0.37203329  1
  V  V32  1  0.62767977  -0.00424772  0.62997670  1
  V  V33  1  0.61805665  0.12165476  0.00200014  1
  V  V34  1  0.24828791  0.37626062  0.12318225  1
  V  V35  1  0.49751244  0.75747179  0.25285236  1
  V  V36  1  0.12386278  0.24698910  0.37247115  1
  V  V37  1  0.50095456  0.75490786  0.75438890  1
  V  V38  1  0.37087852  0.11746469  0.24922905  1
  V  V39  1  0.25110489  0.11995088  0.87410644  1
  V  V40  1  0.76489384  0.12174149  0.37852253  1
  V  V41  1  -0.00230629  0.50272500  0.00055927  1
  V  V42  1  0.24660550  0.50023172  0.74219303  1
  V  V43  1  0.50591779  0.61043287  0.63535796  1
  V  V44  1  0.74833242  0.87796166  0.63879097  1
  V  V45  1  0.00921272  0.50108011  0.50460610  1
  V  V46  1  0.12766486  0.87504679  0.25238295  1
  V  V47  1  0.73866588  0.49731439  0.74694656  1
  V  V48  1  0.12104502  0.24596374  0.86312326  1
  V  V49  1  0.12311492  0.75687100  0.86362353  1
  V  V50  1  0.37578969  0.24795429  0.12553051  1
  V  V51  1  0.26049702  0.51302414  0.26007976  1
  V  V52  1  0.12242305  0.12432030  0.00046765  1
  V  V53  1  0.24650439  0.24963778  -0.00273604  1
  V  V54  1  0.37488411  0.62491073  0.75456479  1
  V  V55  1  0.88019504  0.62871809  0.75081592  1
  V  V56  1  0.62291657  0.75236621  0.87108456  1
  V  V57  1  0.37621812  0.75040381  0.12866321  1
  V  V58  1  0.12143043  0.37958594  0.74389704  1
  V  V59  1  0.37488868  0.37415241  -0.00307148  1
  V  V60  1  -0.00926472  -0.01285845  0.00116994  1
  V  V61  1  0.73078362  0.38020695  0.62736894  1
  V  V62  1  0.12410223  0.00119990  0.13005994  1
  V  V63  1  0.87392572  0.49918083  0.87368097  1
  V  V64  1  0.62594131  0.24503441  0.37093671  1
  V  V65  1  0.62521730  0.61973189  0.50881733  1
  V  V66  1  0.00075546  -0.00193406  0.49751061  1
  V  V67  1  0.62336246  0.37366934  0.24766334  1
  V  V68  1  -0.00280521  0.87296266  0.37122331  1
  V  V69  1  0.62382515  0.50049194  0.12518304  1
  V  V70  1  0.12146954  0.50524949  0.12723286  1
  V  V71  1  0.38985348  0.87979232  0.50067316  1
  V  V72  1  0.24890494  0.62423868  0.87579357  1
  V  V73  1  0.49785768  0.89321081  0.87465431  1
  V  V74  1  0.76021317  -0.00153733  0.25338849  1
  V  V75  1  0.13300538  0.74129236  0.37776238  1
  V  V76  1  0.74731986  0.62527170  0.37552920  1
  V  V77  1  0.37681352  0.12094372  0.75307671  1
  V  V78  1  0.50082859  0.11760359  0.61862065  1
  V  V79  1  0.50445535  0.25289695  0.74714889  1
  V  V80  1  0.75115353  0.75120376  0.50048273  1
  V  V81  1  0.87581831  0.50522023  0.37706281  1
  V  V82  1  0.24919033  -0.00556203  0.75402138  1
  V  V83  1  0.62977006  0.24085861  0.87248825  1
  V  V84  1  -0.00735048  0.25088965  0.24629267  1
  Zn  Zn85  1  -0.00089977  0.13574258  0.63884220  1
  Zn  Zn86  1  0.87665156  0.13132386  0.75847376  1
  Zn  Zn87  1  0.50017604  0.24508577  0.24506314  1
  Zn  Zn88  1  0.00308568  0.73582802  0.24523189  1
  Zn  Zn89  1  0.62312819  0.00041134  0.12662316  1
  Zn  Zn90  1  0.86290183  -0.00095501  0.87081354  1
  Zn  Zn91  1  0.87972824  0.25034646  0.63527609  1
  Zn  Zn92  1  0.75456835  0.75627044  0.00065146  1
  Zn  Zn93  1  0.37257769  0.49757533  0.87624770  1
  Zn  Zn94  1  0.13724531  0.61739838  0.50215844  1
  Zn  Zn95  1  0.49270416  0.11268051  0.11834079  1
  Zn  Zn96  1  0.88279706  0.62293561  0.24130895  1
  Zn  Zn97  1  0.12432464  0.12210523  0.50110424  1
  Zn  Zn98  1  0.24397365  0.37715259  0.62029120  1
  Zn  Zn99  1  0.49667227  0.49898959  0.00037972  1
  Zn  Zn100  1  0.87676064  0.12451009  0.25327175  1
  Zn  Zn101  1  -0.00137841  0.37500259  0.37659746  1
  Zn  Zn102  1  0.75374437  0.87600028  0.12221893  1
  Zn  Zn103  1  0.62002895  0.11552917  0.49394634  1
  Zn  Zn104  1  0.37332398  0.38093664  0.49773490  1
  Zn  Zn105  1  0.87737160  0.37231369  0.00158647  1
  Zn  Zn106  1  0.25735111  0.74607296  0.49449044  1
  Zn  Zn107  1  0.18711612  0.18555607  0.18821170  1
  Zn  Zn108  1  0.18493071  0.18210208  0.68532411  1
  Zn  Zn109  1  0.18821977  0.68942278  0.18956445  1
  Zn  Zn110  1  0.19116369  0.68911317  0.68497011  1
  Zn  Zn111  1  0.69262158  0.18533745  0.18484297  1
  Zn  Zn112  1  0.68393660  0.19128270  0.68284204  1
  Zn  Zn113  1  0.69060504  0.69117754  0.18750150  1
  Zn  Zn114  1  0.69135824  0.69033353  0.68953945  1
  Zn  Zn115  1  0.30773868  0.30928929  0.30864788  1
  Zn  Zn116  1  0.31053536  0.31109553  0.81064285  1
  Zn  Zn117  1  0.31263740  0.81865552  0.31155427  1
  Zn  Zn118  1  0.31477026  0.81522846  0.81516327  1
  Zn  Zn119  1  0.81151022  0.31555343  0.31706859  1
  Zn  Zn120  1  0.80908934  0.30204644  0.80760692  1
  Zn  Zn121  1  0.81433916  0.80803492  0.30717240  1
  Zn  Zn122  1  0.81425504  0.81431770  0.81710229  1
  Zn  Zn123  1  0.19037575  0.43605229  0.43366563  1
  Zn  Zn124  1  0.18456355  0.43753625  0.93262172  1
  Zn  Zn125  1  0.18808767  0.92999888  0.44239362  1
  Zn  Zn126  1  0.18449721  0.93714089  0.94029909  1
  Zn  Zn127  1  0.67764988  0.43978642  0.43743345  1
  Zn  Zn128  1  0.68796031  0.43520168  0.93812949  1
  Zn  Zn129  1  0.68435002  0.94133660  0.44157666  1
  Zn  Zn130  1  0.67976450  0.93186049  0.93946760  1
  Zn  Zn131  1  0.30895446  0.06178858  0.06200591  1
  Zn  Zn132  1  0.31178223  0.06171108  0.55965922  1
  Zn  Zn133  1  0.31012947  0.56250379  0.06684188  1
  Zn  Zn134  1  0.31546723  0.56694201  0.56472815  1
  Zn  Zn135  1  0.80799165  0.05891370  0.06058758  1
  Zn  Zn136  1  0.81309972  0.06362874  0.56969208  1
  Zn  Zn137  1  0.81146773  0.56604722  0.06251858  1
  Zn  Zn138  1  0.81333107  0.56361218  0.56668972  1
  Zn  Zn139  1  0.43814520  0.43587709  0.18692038  1
  Zn  Zn140  1  0.43123365  0.43438289  0.69008384  1
  Zn  Zn141  1  0.44049037  0.93867542  0.18993831  1
  Zn  Zn142  1  0.43739014  0.93943018  0.69133606  1
  Zn  Zn143  1  0.94030689  0.44423862  0.19091846  1
  Zn  Zn144  1  0.93259548  0.43945200  0.68765619  1
  Zn  Zn145  1  0.93646881  0.93051892  0.18594161  1
  Zn  Zn146  1  0.93124695  0.94781526  0.68816971  1
  Zn  Zn147  1  0.05710247  0.06034460  0.31241941  1
  Zn  Zn148  1  0.05632786  0.05773071  0.81088048  1
  Zn  Zn149  1  0.06307804  0.56138087  0.31450330  1
  Zn  Zn150  1  0.06226623  0.56272365  0.81437807  1
  Zn  Zn151  1  0.56256348  0.06497241  0.30594774  1
  Zn  Zn152  1  0.71506991  0.05654196  0.80307249  1
  Zn  Zn153  1  0.55080749  0.57185108  0.31312634  1
  Zn  Zn154  1  0.55984095  0.56068637  0.81630728  1
  Zn  Zn155  1  0.43409735  0.18571090  0.43526360  1
  Zn  Zn156  1  0.43833092  0.18686220  0.93296304  1
  Zn  Zn157  1  0.44064679  0.69440451  0.44112921  1
  Zn  Zn158  1  0.43630520  0.69110155  0.94262714  1
  Zn  Zn159  1  0.94494131  0.19841081  0.46323519  1
  Zn  Zn160  1  0.93704826  0.18289333  0.92923507  1
  Zn  Zn161  1  0.94170770  0.68959602  0.43825739  1
  Zn  Zn162  1  0.93927526  0.69082476  0.94001188  1
  Zn  Zn163  1  0.06013399  0.31301040  0.05963929  1
  Zn  Zn164  1  0.06143060  0.31308308  0.56014731  1
  Zn  Zn165  1  0.06248271  0.81026579  0.06429170  1
  Zn  Zn166  1  0.06355301  0.81340193  0.56172260  1
  Zn  Zn167  1  0.56327619  0.30841651  0.06055172  1
  Zn  Zn168  1  0.55667156  0.31503839  0.55550206  1
  Zn  Zn169  1  0.58009792  0.82556439  0.05242067  1
  Zn  Zn170  1  0.56581549  0.81072162  0.56817908  1
  O  O171  1  0.11883745  0.11679951  0.12184194  1
  O  O172  1  0.11933241  0.11383141  0.61962303  1
  O  O173  1  0.13043430  0.61947421  0.11253859  1
  O  O174  1  0.11044975  0.63282185  0.62603758  1
  O  O175  1  0.62041247  0.13080416  0.11216344  1
  O  O176  1  0.61131013  0.12489985  0.61891288  1
  O  O177  1  0.61967744  0.62312414  0.11670001  1
  O  O178  1  0.61973830  0.63121126  0.61926723  1
  O  O179  1  0.38607545  0.36606667  0.37160609  1
  O  O180  1  0.38210164  0.37048199  0.88327485  1
  O  O181  1  0.37322060  0.88850461  0.38248082  1
  O  O182  1  0.38678856  0.87095434  0.88597553  1
  O  O183  1  0.87170494  0.38994330  0.38551338  1
  O  O184  1  0.88160479  0.38167879  0.87640076  1
  O  O185  1  0.88427290  0.86466958  0.38380364  1
  O  O186  1  0.89277377  0.87360190  0.87588268  1
  O  O187  1  0.24789680  0.00841614  0.37833282  1
  O  O188  1  0.24094563  0.00612340  0.86575951  1
  O  O189  1  0.24933088  0.49817611  0.35944500  1
  O  O190  1  0.25016018  0.50781816  0.86721740  1
  O  O191  1  0.74625056  0.01270180  0.37019797  1
  O  O192  1  0.74959239  -0.01935434  0.87312841  1
  O  O193  1  0.75285932  0.50615720  0.37308066  1
  O  O194  1  0.75560037  0.50335769  0.86934325  1
  O  O195  1  0.23720314  0.49388856  0.12844453  1
  O  O196  1  0.25438296  0.49718708  0.63825716  1
  O  O197  1  0.24044531  0.98896813  0.12191734  1
  O  O198  1  0.24369364  0.99448945  0.62952279  1
  O  O199  1  0.74261223  0.49293028  0.12928843  1
  O  O200  1  0.75111209  0.48936532  0.63107722  1
  O  O201  1  0.74366151  0.99755286  0.13607469  1
  O  O202  1  0.74629239  0.98358584  0.61990650  1
  O  O203  1  0.01050887  0.37050888  0.25082807  1
  O  O204  1  0.00608877  0.38455966  0.75971256  1
  O  O205  1  0.01140870  0.87157719  0.25543721  1
  O  O206  1  0.00122033  0.87877471  0.76147498  1
  O  O207  1  0.50740421  0.36731942  0.25235101  1
  O  O208  1  0.48965140  0.36206237  0.75919081  1
  O  O209  1  0.50581281  0.86401585  0.25461387  1
  O  O210  1  0.49105457  0.86639276  0.76250972  1
  O  O211  1  0.48357509  0.12789470  0.24854234  1
  O  O212  1  0.48842555  0.13922625  0.73442878  1
  O  O213  1  0.50685834  0.64111869  0.23315081  1
  O  O214  1  0.49471954  0.63198539  0.75090881  1
  O  O215  1  0.99758297  0.13266533  0.24204227  1
  O  O216  1  1.00039035  0.13034291  0.75177359  1
  O  O217  1  0.99732164  0.62108059  0.24963059  1
  O  O218  1  0.98828157  0.61784610  0.74354254  1
  O  O219  1  0.36763977  0.25706003  0.00398840  1
  O  O220  1  0.36356773  0.24971520  0.50370762  1
  O  O221  1  0.36914981  0.75933637  0.01151167  1
  O  O222  1  0.37787693  0.75939837  0.50767831  1
  O  O223  1  0.86088959  0.25244442  -0.00388523  1
  O  O224  1  0.85398856  0.26793138  0.48860874  1
  O  O225  1  0.87216146  0.74812270  0.01073233  1
  O  O226  1  0.87097871  0.75707583  0.50831816  1
  O  O227  1  0.13589361  0.24905900  0.48945881  1
  O  O228  1  0.12985919  0.24504593  0.99200274  1
  O  O229  1  0.12762289  0.75323519  0.48497810  1
  O  O230  1  0.13084055  0.74301685  0.99618090  1
  O  O231  1  0.63334568  0.25270492  0.48908457  1
  O  O232  1  0.63282490  0.24483189  0.99348040  1
  O  O233  1  0.62874608  0.74203890  0.49547447  1
  O  O234  1  0.61205427  0.73195319  0.98610920  1
  O  O235  1  0.48385955  0.24761356  0.12263039  1
  O  O236  1  0.49281836  0.24729909  0.62854557  1
  O  O237  1  0.49277656  0.74758738  0.12837327  1
  O  O238  1  0.49832723  0.74604865  0.64094629  1
  O  O239  1  1.00643658  0.24041456  0.13338028  1
  O  O240  1  0.98462852  0.23450400  0.57490958  1
  O  O241  1  0.98766883  0.75198582  0.12537727  1
  O  O242  1  0.98898991  0.74501095  0.62053249  1
  O  O243  1  0.01171615  0.25154404  0.37196882  1
  O  O244  1  0.00963649  0.26288093  0.88687047  1
  O  O245  1  0.01186673  0.75882398  0.37403414  1
  O  O246  1  0.01187623  0.76167624  0.87948605  1
  O  O247  1  0.50781481  0.25289677  0.37256669  1
  O  O248  1  0.50732433  0.25388612  0.86567057  1
  O  O249  1  0.50911964  0.74924144  0.36559214  1
  O  O250  1  0.50339230  0.74642643  0.86484144  1
  O  O251  1  0.24715644  0.13143032  0.48942296  1
  O  O252  1  0.24297260  0.12906774  0.99392470  1
  O  O253  1  0.24836775  0.63353750  0.50941686  1
  O  O254  1  0.24319866  0.63071422  0.99476517  1
  O  O255  1  0.74677719  0.13554919  0.49484489  1
  O  O256  1  0.74173080  0.13965189  1.00685630  1
  O  O257  1  0.74215731  0.62909786  0.49830857  1
  O  O258  1  0.73955803  0.62700093  0.99157307  1
  O  O259  1  0.25369939  0.36976012  0.00229173  1
  O  O260  1  0.25334875  0.36654783  0.50065267  1
  O  O261  1  0.25622382  0.87073926  0.00705753  1
  O  O262  1  0.26210580  0.87036829  0.50955411  1
  O  O263  1  0.75093944  0.36867540  0.01073605  1
  O  O264  1  0.74947104  0.37741202  0.50841232  1
  O  O265  1  0.69905526  0.85707127  0.01938202  1
  O  O266  1  0.75761275  0.86802206  0.50245735  1
  O  O267  1  0.13086332  0.49279159  0.24325884  1
  O  O268  1  0.13290565  0.49131765  0.75596174  1
  O  O269  1  0.11806778  0.99307769  0.23697556  1
  O  O270  1  0.13413842  1.00052946  0.73777238  1
  O  O271  1  0.62808446  0.49292357  0.24489409  1
  O  O272  1  0.63969383  0.50577265  0.75577306  1
  O  O273  1  0.63546999  0.99325331  0.25563954  1
  O  O274  1  0.63099171  1.01252336  0.72942447  1
  O  O275  1  0.37422918  0.00377121  0.26538614  1
  O  O276  1  0.36625432  0.01439805  0.74395864  1
  O  O277  1  0.35817997  0.49489477  0.24105030  1
  O  O278  1  0.36540408  0.50661926  0.75499642  1
  O  O279  1  0.86440385  -0.00074842  0.24931073  1
  O  O280  1  0.87258949  0.00963279  0.75532730  1
  O  O281  1  0.86677492  0.50093325  0.26041934  1
  O  O282  1  0.86533137  0.50819328  0.75577407  1
  O  O283  1  0.12418280  0.36576603  0.36511371  1
  O  O284  1  0.11798540  0.36678996  0.86489676  1
  O  O285  1  0.12126996  0.86767088  0.36754624  1
  O  O286  1  0.11893346  0.86201744  0.87892192  1
  O  O287  1  0.62444374  0.36191235  0.36273490  1
  O  O288  1  0.61041479  0.36743811  0.88228860  1
  O  O289  1  0.63053668  0.86245887  0.37204829  1
  O  O290  1  0.60567865  0.86254446  0.87602652  1
  O  O291  1  0.37076012  0.12979025  0.13151668  1
  O  O292  1  0.38117923  0.13276680  0.62667236  1
  O  O293  1  0.38270572  0.63700817  0.11824410  1
  O  O294  1  0.38735745  0.63214808  0.63633162  1
  O  O295  1  0.88586574  0.12184798  0.12631053  1
  O  O296  1  0.87996822  0.13194038  0.62411578  1
  O  O297  1  0.86899876  0.63947967  0.12534791  1
  O  O298  1  0.88142767  0.63434799  0.63170513  1
  O  O299  1  0.25690394  0.25485021  0.11887401  1
  O  O300  1  0.25532106  0.24692535  0.61478608  1
  O  O301  1  0.25558273  0.76119732  0.12249764  1
  O  O302  1  0.26121129  0.76093288  0.63011825  1
  O  O303  1  0.74691542  0.25978915  0.11210352  1
  O  O304  1  0.74759068  0.26585954  0.61479086  1
  O  O305  1  0.76104048  0.75268187  0.12469108  1
  O  O306  1  0.75783470  0.75916987  0.61938561  1
  O  O307  1  0.24134934  0.24112983  0.37826945  1
  O  O308  1  0.24011635  0.24291794  0.87822400  1
  O  O309  1  0.23712627  0.75573246  0.37336364  1
  O  O310  1  0.24011119  0.74752699  0.88011380  1
  O  O311  1  0.74181471  0.24383559  0.37839395  1
  O  O312  1  0.73850938  0.26644932  0.89088805  1
  O  O313  1  0.74463664  0.74229775  0.38137850  1
  O  O314  1  0.74005835  0.74610164  0.87756723  1
  O  O315  1  0.00603014  0.11676883  0.00634669  1
  O  O316  1  0.00438180  0.10106880  0.48303547  1
  O  O317  1  0.00930080  0.61206580  -0.00775254  1
  O  O318  1  0.00312889  0.61781864  0.50870832  1
  O  O319  1  0.51330963  0.13287473  -0.00035800  1
  O  O320  1  0.49809825  0.13264927  0.51509976  1
  O  O321  1  0.50347005  0.62093296  0.01004612  1
  O  O322  1  0.50720717  0.62477008  0.51977177  1
  O  O323  1  0.49554513  0.38229065  0.48530899  1
  O  O324  1  0.49064809  0.37404848  0.99358784  1
  O  O325  1  0.48945756  0.87275613  0.50869619  1
  O  O326  1  0.49345994  0.87227024  0.98689893  1
  O  O327  1  0.98898716  0.38578255  0.49841718  1
  O  O328  1  0.99953269  0.38668679  0.99183023  1
  O  O329  1  0.99318093  0.87899052  0.49263588  1
  O  O330  1  1.00508133  0.88626856  0.99896872  1
  O  O331  1  0.51889158  0.47451888  0.36791859  1
  O  O332  1  0.49412840  0.48940535  0.87801685  1
  O  O333  1  0.49090243  1.00388975  0.37658277  1
  O  O334  1  0.50183639  0.98772619  0.86809877  1
  O  O335  1  0.99058058  0.49832962  0.38447922  1
  O  O336  1  0.99507899  0.49200465  0.88176679  1
  O  O337  1  1.00659394  0.98108650  0.37969072  1
  O  O338  1  1.00984042  0.98345579  0.88785939  1
  O  O339  1  0.00388294  0.00402950  0.11661825  1
  O  O340  1  0.00931567  -0.00736549  0.61472684  1
  O  O341  1  0.01339885  0.49486253  0.11633394  1
  O  O342  1  -0.00859251  0.51134533  0.61534256  1
  O  O343  1  0.50856306  0.00125377  0.13007050  1
  O  O344  1  0.50337825  0.01368092  0.62964943  1
  O  O345  1  0.50544497  0.50919846  0.12528790  1
  O  O346  1  0.50184196  0.51055092  0.64060186  1
  O  O347  1  0.23815164  0.37669319  0.24261638  1
  O  O348  1  0.24118534  0.38324390  0.75020794  1
  O  O349  1  0.23713425  0.87422439  0.24189858  1
  O  O350  1  0.26050788  0.88869885  0.74336132  1
  O  O351  1  0.74293937  0.37924728  0.24400173  1
  O  O352  1  0.75034774  0.38203855  0.73436276  1
  O  O353  1  0.74251094  0.88340262  0.25498813  1
  O  O354  1  0.75222502  0.86804635  0.73645417  1
  O  O355  1  0.26073816  0.12827734  0.25810142  1
  O  O356  1  0.25574893  0.11586522  0.75330536  1
  O  O357  1  0.24915948  0.61231915  0.24589464  1
  O  O358  1  0.25349875  0.61862549  0.75512580  1
  O  O359  1  0.75551363  0.11950858  0.25873040  1
  O  O360  1  0.75419387  0.14644770  0.75428129  1
  O  O361  1  0.74813361  0.61704276  0.25956812  1
  O  O362  1  0.75968189  0.61893558  0.75432260  1
  O  O363  1  0.36807332  0.11356328  0.37001070  1
  O  O364  1  0.36567755  0.13152766  0.86386566  1
  O  O365  1  0.44644811  0.59438508  0.38836471  1
  O  O366  1  0.36582515  0.62590927  0.87282525  1
  O  O367  1  0.86590096  0.13407233  0.37904584  1
  O  O368  1  0.87176486  0.11420937  0.87718981  1
  O  O369  1  0.86754385  0.61575495  0.38020657  1
  O  O370  1  0.87147534  0.62226182  0.86824275  1
  O  O371  1  0.12850301  0.38188164  0.12984949  1
  O  O372  1  0.12363484  0.36686193  0.63932454  1
  O  O373  1  0.13116869  0.87983777  0.13117647  1
  O  O374  1  0.13979527  0.87844322  0.62194460  1
  O  O375  1  0.62851734  0.37738436  0.13451705  1
  O  O376  1  0.63241459  0.37715553  0.62000326  1
  O  O377  1  0.62124982  0.87316540  0.14969061  1
  O  O378  1  0.63928069  0.87850822  0.62480298  1
  O  O379  1  0.11858903  0.25612615  0.25469101  1
  O  O380  1  0.12980342  0.25564210  0.75959489  1
  O  O381  1  0.12370007  0.75657181  0.25951632  1
  O  O382  1  0.12829113  0.74580704  0.76582301  1
  O  O383  1  0.62447229  0.25522570  0.25365885  1
  O  O384  1  0.61342974  0.25022059  0.75805220  1
  O  O385  1  0.61934346  0.75562296  0.25991013  1
  O  O386  1  0.61737179  0.74331929  0.76251474  1
  O  O387  1  0.37307300  0.24149768  0.23996834  1
  O  O388  1  0.37582363  0.24154276  0.74061515  1
  O  O389  1  0.38160626  0.75838788  0.23884723  1
  O  O390  1  0.38151161  0.74435809  0.74787174  1
  O  O391  1  0.89026070  0.25421584  0.25712585  1
  O  O392  1  0.88641898  0.25304486  0.74869523  1
  O  O393  1  0.88017629  0.74433608  0.24016396  1
  O  O394  1  0.87030894  0.74031946  0.74163478  1
  O  O395  1  0.39121585  0.49864255  0.50887544  1
  O  O396  1  0.37180583  0.48493829  1.00126679  1
  O  O397  1  0.37264385  0.99538220  0.48574248  1
  O  O398  1  0.37223138  0.98850931  1.00259131  1
  O  O399  1  0.87964329  0.49786364  0.49527511  1
  O  O400  1  0.88277356  0.50004962  0.99411745  1
  O  O401  1  0.88166414  0.98575522  0.50436298  1
  O  O402  1  0.88879989  0.99910282  1.00070495  1
  O  O403  1  0.11726777  0.00398586  0.01197011  1
  O  O404  1  0.11899259  -0.00512099  0.51063101  1
  O  O405  1  0.11992996  0.50700130  0.00553415  1
  O  O406  1  0.11317676  0.49761400  0.49567554  1
  O  O407  1  0.62958574  0.02064296  0.00039148  1
  O  O408  1  0.62637204  0.00302139  0.51663492  1
  O  O409  1  0.62241493  0.50885041  0.00538184  1
  O  O410  1  0.60618838  0.51714247  0.48949594  1
  O  O411  1  0.36937959  0.36660252  0.11737592  1
  O  O412  1  0.37091003  0.36033432  0.62344117  1
  O  O413  1  0.36785689  0.87178034  0.12112877  1
  O  O414  1  0.36928047  0.87433051  0.61912701  1
  O  O415  1  0.86398204  0.38172068  0.12613887  1
  O  O416  1  0.86765340  0.37527720  0.61337197  1
  O  O417  1  0.87029856  0.85935045  0.12757075  1
  O  O418  1  0.86700751  0.86926116  0.61922840  1
  O  O419  1  0.13111287  0.13059424  0.37146038  1
  O  O420  1  0.12902588  0.13104912  0.87993709  1
  O  O421  1  0.12294818  0.63878482  0.37880151  1
  O  O422  1  0.12846155  0.63495643  0.88391115  1
  O  O423  1  0.62861482  0.13533271  0.37477669  1
  O  O424  1  0.62880469  0.13847011  0.88690661  1
  O  O425  1  0.62871930  0.63641930  0.38270360  1
  O  O426  1  0.62998909  0.62815462  0.88121912  1
