# generated using pymatgen
data_V85Zn86O256
_symmetry_space_group_name_H-M   'P 1'
_cell_length_a   16.91550021
_cell_length_b   16.91569552
_cell_length_c   16.91017342
_cell_angle_alpha   89.99341649
_cell_angle_beta   90.00234338
_cell_angle_gamma   89.99023324
_symmetry_Int_Tables_number   1
_chemical_formula_structural   V85Zn86O256
_chemical_formula_sum   'V85 Zn86 O256'
_cell_volume   4838.63381471
_cell_formula_units_Z   1
loop_
 _symmetry_equiv_pos_site_id
 _symmetry_equiv_pos_as_xyz
  1  'x, y, z'
loop_
 _atom_site_type_symbol
 _atom_site_label
 _atom_site_symmetry_multiplicity
 _atom_site_fract_x
 _atom_site_fract_y
 _atom_site_fract_z
 _atom_site_occupancy
  V  V0  1  0.36628098  0.24764876  0.11992085  1
  V  V1  1  0.50126639  0.25190614  0.75342713  1
  V  V2  1  0.62582351  0.24828463  0.37014634  1
  V  V3  1  -0.00711257  0.38222246  0.87531085  1
  V  V4  1  0.00238174  0.74301592  0.24310140  1
  V  V5  1  -0.00595333  0.24683898  0.75117134  1
  V  V6  1  0.26076686  0.75456160  0.49954075  1
  V  V7  1  0.50151501  0.37971248  0.87383479  1
  V  V8  1  0.75906480  0.12378389  0.37068971  1
  V  V9  1  0.25853732  0.87780011  0.62193647  1
  V  V10  1  0.12921213  0.62267892  0.50760663  1
  V  V11  1  0.62430979  0.61764462  0.49644614  1
  V  V12  1  0.86726285  0.25298303  0.13744999  1
  V  V13  1  0.86970810  0.62967337  0.25561151  1
  V  V14  1  0.24896486  0.13041810  0.88058944  1
  V  V15  1  0.62539555  0.12280810  0.49850794  1
  V  V16  1  0.24956342  0.62389463  0.37529699  1
  V  V17  1  0.49723114  0.37124149  0.37208293  1
  V  V18  1  0.37464429  0.87523745  0.00243379  1
  V  V19  1  0.63289729  0.00159128  0.62967648  1
  V  V20  1  0.36202326  0.37420282  -0.00277570  1
  V  V21  1  0.50398370  0.87724538  0.87546557  1
  V  V22  1  -0.00669311  0.12369271  0.62808038  1
  V  V23  1  0.12346939  0.87453238  0.24867514  1
  V  V24  1  0.62808127  0.37232930  0.75185371  1
  V  V25  1  0.87505161  0.74209214  0.11837891  1
  V  V26  1  0.12601944  0.74936921  0.37577792  1
  V  V27  1  0.49822991  0.87022904  0.38129908  1
  V  V28  1  0.00059209  0.74924921  0.74814358  1
  V  V29  1  0.25012458  0.00073856  0.75109443  1
  V  V30  1  0.74905187  0.74269624  0.49667264  1
  V  V31  1  -0.01077837  0.50759351  0.00209284  1
  V  V32  1  -0.00248120  0.00313885  0.00062015  1
  V  V33  1  0.49693970  0.12959278  0.62423086  1
  V  V34  1  0.50002783  0.63698592  0.12744761  1
  V  V35  1  0.10820622  0.37381026  0.25158140  1
  V  V36  1  0.63558391  0.87722068  0.75008276  1
  V  V37  1  0.87427163  0.50327284  0.37751209  1
  V  V38  1  0.00749473  0.49578156  0.49805982  1
  V  V39  1  0.37210603  0.50930574  0.87703639  1
  V  V40  1  0.86881807  0.87418952  -0.00046108  1
  V  V41  1  0.37243534  0.13489452  0.74766177  1
  V  V42  1  0.54837035  0.45923026  0.05185894  1
  V  V43  1  0.37027756  0.35501140  0.50328404  1
  V  V44  1  0.75810484  0.49952562  0.75086814  1
  V  V45  1  0.11839967  0.50607399  0.12535545  1
  V  V46  1  0.63366359  0.74990368  0.87848607  1
  V  V47  1  0.12712601  0.62306946  -0.00568371  1
  V  V48  1  0.74847720  0.37573775  0.61380266  1
  V  V49  1  0.62466192  0.74365741  0.36704796  1
  V  V50  1  0.24955556  -0.00005890  0.25107065  1
  V  V51  1  0.63044433  0.12289968  0.01146161  1
  V  V52  1  0.12873610  0.12990603  0.50152962  1
  V  V53  1  0.10843544  0.25511240  0.37325148  1
  V  V54  1  0.25075878  0.13704115  0.37621372  1
  V  V55  1  0.00057280  0.87399143  0.37497067  1
  V  V56  1  0.37955358  0.12333211  0.24449069  1
  V  V57  1  0.12636262  0.25516764  0.88031542  1
  V  V58  1  0.25224146  0.74448943  -0.00516483  1
  V  V59  1  0.87244752  0.87405712  0.49901596  1
  V  V60  1  0.50182687  0.74693504  0.74950024  1
  V  V61  1  0.74605571  0.87413809  0.12325852  1
  V  V62  1  0.00200794  0.87523992  0.87492107  1
  V  V63  1  0.50177857  0.24616918  0.24416357  1
  V  V64  1  0.00219512  -0.00166226  0.49986606  1
  V  V65  1  -0.00780008  0.13284235  0.13843299  1
  V  V66  1  0.12559942  0.13333348  0.00399443  1
  V  V67  1  0.37126471  0.49713379  0.38179731  1
  V  V68  1  0.74374388  0.12736855  0.86072975  1
  V  V69  1  0.61865608  0.87666278  0.24712658  1
  V  V70  1  0.25415154  0.36202970  0.62527280  1
  V  V71  1  0.86788927  0.37316637  0.00131065  1
  V  V72  1  0.24709839  0.49653932  0.24900409  1
  V  V73  1  0.62749245  0.62778054  0.00472553  1
  V  V74  1  0.87144920  0.00785246  0.86128036  1
  V  V75  1  0.75194868  0.00068820  0.24598077  1
  V  V76  1  0.37762319  0.00435586  0.87710856  1
  V  V77  1  0.75693299  0.62253580  0.87836977  1
  V  V78  1  0.12125366  0.00262101  0.12590303  1
  V  V79  1  0.50527845  0.00519098  0.01444897  1
  V  V80  1  0.12405161  0.37854562  0.74382648  1
  V  V81  1  0.37554082  -0.00357407  0.38324441  1
  V  V82  1  -0.00023794  0.61932750  0.62560791  1
  V  V83  1  0.24730497  0.50835749  0.74548309  1
  V  V84  1  0.88156779  0.37362779  0.49746870  1
  Zn  Zn85  1  0.49751865  0.62231386  0.62311332  1
  Zn  Zn86  1  0.75222406  0.50863160  0.25027136  1
  Zn  Zn87  1  0.87781545  0.00289644  0.36956502  1
  Zn  Zn88  1  0.37133518  0.62991449  0.75103491  1
  Zn  Zn89  1  0.24178756  0.37097489  0.12079641  1
  Zn  Zn90  1  0.12655524  -0.00049158  0.62533234  1
  Zn  Zn91  1  0.67268022  0.40967519  0.18525312  1
  Zn  Zn92  1  0.12782247  0.87436353  0.74964597  1
  Zn  Zn93  1  0.87182144  0.24702619  0.62739642  1
  Zn  Zn94  1  0.37979627  0.75141156  0.62390423  1
  Zn  Zn95  1  0.49603125  -0.00516701  0.50570999  1
  Zn  Zn96  1  0.74724547  0.24988526  -0.00195385  1
  Zn  Zn97  1  0.37957525  0.62708578  0.25219070  1
  Zn  Zn98  1  0.87647737  0.62166752  0.75260666  1
  Zn  Zn99  1  0.75227079  0.24769936  0.49974392  1
  Zn  Zn100  1  0.87260999  0.74745744  0.62462262  1
  Zn  Zn101  1  0.37231025  0.75205083  0.13174312  1
  Zn  Zn102  1  0.62193302  0.50074092  0.62666029  1
  Zn  Zn103  1  0.24764825  0.87390956  0.12404336  1
  Zn  Zn104  1  0.12891374  0.74471879  0.87263802  1
  Zn  Zn105  1  0.49766805  0.49703126  0.50189092  1
  Zn  Zn106  1  0.75238118  0.87623523  0.62528871  1
  Zn  Zn107  1  0.18541461  0.18939208  0.19175769  1
  Zn  Zn108  1  0.18080611  0.18789062  0.69126580  1
  Zn  Zn109  1  0.19302831  0.68546750  0.18299864  1
  Zn  Zn110  1  0.18744405  0.69121050  0.68552313  1
  Zn  Zn111  1  0.68986664  0.18726439  0.18809648  1
  Zn  Zn112  1  0.68518387  0.19191932  0.68622283  1
  Zn  Zn113  1  0.68975758  0.68947044  0.18446272  1
  Zn  Zn114  1  0.68713463  0.68649053  0.68358047  1
  Zn  Zn115  1  0.30959766  0.31336870  0.30865475  1
  Zn  Zn116  1  0.31111359  0.31521363  0.81348000  1
  Zn  Zn117  1  0.31479085  0.81264903  0.31172231  1
  Zn  Zn118  1  0.31506774  0.81437933  0.81545098  1
  Zn  Zn119  1  0.81440815  0.31587622  0.31632263  1
  Zn  Zn120  1  0.81163757  0.31029048  0.81383179  1
  Zn  Zn121  1  0.80978190  0.81270569  0.31243284  1
  Zn  Zn122  1  0.81585521  0.81074012  0.81348092  1
  Zn  Zn123  1  0.18675338  0.43223131  0.44079562  1
  Zn  Zn124  1  0.18599986  0.44199384  0.93339675  1
  Zn  Zn125  1  0.18892069  0.93874675  0.43790036  1
  Zn  Zn126  1  0.18754265  0.93964105  0.93891951  1
  Zn  Zn127  1  0.67228370  0.45150952  0.38891293  1
  Zn  Zn128  1  0.69104672  0.43692179  0.93093016  1
  Zn  Zn129  1  0.68618132  0.93720497  0.43523639  1
  Zn  Zn130  1  0.69014889  0.94335527  0.93670104  1
  Zn  Zn131  1  0.31078614  0.06221747  0.06377026  1
  Zn  Zn132  1  0.31144854  0.06804264  0.56377981  1
  Zn  Zn133  1  0.31356802  0.56059840  0.06252228  1
  Zn  Zn134  1  0.31473858  0.56131157  0.56824030  1
  Zn  Zn135  1  0.81291629  0.06087749  0.06300748  1
  Zn  Zn136  1  0.81285045  0.06066300  0.55908359  1
  Zn  Zn137  1  0.80218430  0.55401902  0.06942058  1
  Zn  Zn138  1  0.81287183  0.56154653  0.56187568  1
  Zn  Zn139  1  0.42983077  0.43328322  0.19209452  1
  Zn  Zn140  1  0.43417000  0.44048508  0.68568628  1
  Zn  Zn141  1  0.43758585  0.93549147  0.19044053  1
  Zn  Zn142  1  0.44114144  0.93934194  0.68949399  1
  Zn  Zn143  1  0.93010627  0.43926185  0.18575032  1
  Zn  Zn144  1  0.93754237  0.43732908  0.68282702  1
  Zn  Zn145  1  0.93485483  0.93623528  0.18638992  1
  Zn  Zn146  1  0.93912369  0.93517822  0.68462488  1
  Zn  Zn147  1  0.06284198  0.06432614  0.31529302  1
  Zn  Zn148  1  0.06237274  0.06393339  0.81431333  1
  Zn  Zn149  1  0.05973653  0.56288101  0.31536957  1
  Zn  Zn150  1  0.06278960  0.56051173  0.81417346  1
  Zn  Zn151  1  0.56381477  0.05826286  0.31001160  1
  Zn  Zn152  1  0.56425581  0.06243390  0.81340288  1
  Zn  Zn153  1  0.55943800  0.56149554  0.30691388  1
  Zn  Zn154  1  0.56693924  0.56024509  0.81371544  1
  Zn  Zn155  1  0.43833844  0.18235297  0.43452289  1
  Zn  Zn156  1  0.44234476  0.18858229  0.93701587  1
  Zn  Zn157  1  0.44138569  0.68559455  0.43375694  1
  Zn  Zn158  1  0.44503544  0.68708009  0.94162285  1
  Zn  Zn159  1  0.93788759  0.18758283  0.44177243  1
  Zn  Zn160  1  0.93606586  0.18928337  0.93983972  1
  Zn  Zn161  1  0.94040367  0.68823217  0.43864943  1
  Zn  Zn162  1  0.93944529  0.68815031  0.93817951  1
  Zn  Zn163  1  0.05524124  0.31650244  0.06495977  1
  Zn  Zn164  1  0.06587353  0.31034148  0.56385558  1
  Zn  Zn165  1  0.06173341  0.81140669  0.06045328  1
  Zn  Zn166  1  0.06911504  0.81195759  0.56572787  1
  Zn  Zn167  1  0.55190191  0.28805827  0.05436108  1
  Zn  Zn168  1  0.56185802  0.31122902  0.56086016  1
  Zn  Zn169  1  0.56485842  0.81309004  0.06060034  1
  Zn  Zn170  1  0.56565220  0.81047292  0.56151544  1
  O  O171  1  0.11466469  0.12493384  0.12188297  1
  O  O172  1  0.11810777  0.12484238  0.61615590  1
  O  O173  1  0.12722447  0.61207764  0.11635402  1
  O  O174  1  0.12014915  0.62873245  0.61350770  1
  O  O175  1  0.62896203  0.12253417  0.11108949  1
  O  O176  1  0.61952310  0.12012228  0.61893400  1
  O  O177  1  0.61463809  0.63313768  0.11771053  1
  O  O178  1  0.62267218  0.62113917  0.61197464  1
  O  O179  1  0.37538291  0.37689926  0.38311898  1
  O  O180  1  0.38084444  0.37934869  0.88118329  1
  O  O181  1  0.38417319  0.88494305  0.36877155  1
  O  O182  1  0.38156033  0.88312205  0.88691634  1
  O  O183  1  0.87772248  0.38274682  0.39062943  1
  O  O184  1  0.88682738  0.36950359  0.88182356  1
  O  O185  1  0.88241327  0.87328449  0.38511790  1
  O  O186  1  0.88224044  0.88310145  0.88007007  1
  O  O187  1  0.25459001  0.00704404  0.36619942  1
  O  O188  1  0.25639568  0.00852793  0.87053487  1
  O  O189  1  0.25289633  0.50154936  0.37054939  1
  O  O190  1  0.25965392  0.49223909  0.85957614  1
  O  O191  1  0.75103966  0.00749776  0.36827628  1
  O  O192  1  0.76407227  0.00913277  0.87511344  1
  O  O193  1  0.77249859  0.50731336  0.38312034  1
  O  O194  1  0.74750174  0.51061513  0.86391277  1
  O  O195  1  0.24185976  0.49642967  0.13333418  1
  O  O196  1  0.25363870  0.48902314  0.64101370  1
  O  O197  1  0.24327346  1.00069899  0.13740483  1
  O  O198  1  0.25051437  0.99687842  0.63373673  1
  O  O199  1  0.73292161  0.50124378  0.13606217  1
  O  O200  1  0.74648775  0.49182210  0.63127049  1
  O  O201  1  0.75577395  0.98625258  0.13144429  1
  O  O202  1  0.73736848  0.99896919  0.62126133  1
  O  O203  1  0.00901245  0.38133308  0.25020443  1
  O  O204  1  0.00698731  0.37359003  0.75524886  1
  O  O205  1  0.00452347  0.86742502  0.25516320  1
  O  O206  1  0.00288867  0.86796624  0.75611301  1
  O  O207  1  0.48979361  0.36299016  0.26413202  1
  O  O208  1  0.50460836  0.36918791  0.75251655  1
  O  O209  1  0.51193422  0.88104640  0.25847669  1
  O  O210  1  0.50900514  0.86749368  0.75733669  1
  O  O211  1  0.48930245  0.13050229  0.25601156  1
  O  O212  1  0.49399571  0.13274189  0.74764305  1
  O  O213  1  0.49922361  0.62219398  0.23244996  1
  O  O214  1  0.50553097  0.63876203  0.75237829  1
  O  O215  1  1.00014865  0.12114120  0.23666019  1
  O  O216  1  1.00802918  0.13408467  0.74098292  1
  O  O217  1  0.99555579  0.63868317  0.25141898  1
  O  O218  1  1.00061423  0.62913981  0.74385682  1
  O  O219  1  0.38291526  0.25729821  0.00910216  1
  O  O220  1  0.37223841  0.25541512  0.49456014  1
  O  O221  1  0.37032281  0.75917851  -0.00097168  1
  O  O222  1  0.36344513  0.74689130  0.49751673  1
  O  O223  1  0.87462128  0.25812131  0.00822211  1
  O  O224  1  0.87409414  0.25932464  0.50355772  1
  O  O225  1  0.88174686  0.76087829  0.00723910  1
  O  O226  1  0.86717207  0.75551376  0.49874772  1
  O  O227  1  0.12141140  0.24317286  0.48630229  1
  O  O228  1  0.11805339  0.24564777  0.99375251  1
  O  O229  1  0.13374484  0.74209585  0.49485463  1
  O  O230  1  0.13048024  0.74066969  0.99922550  1
  O  O231  1  0.62491224  0.23568239  0.49417741  1
  O  O232  1  0.62603384  0.22844138  0.99464941  1
  O  O233  1  0.63146702  0.74101697  0.49200719  1
  O  O234  1  0.62356241  0.74232192  0.98971695  1
  O  O235  1  0.48536428  0.24807019  0.13823669  1
  O  O236  1  0.50480264  0.23789324  0.63606489  1
  O  O237  1  0.49562096  0.74022497  0.12045661  1
  O  O238  1  0.49990520  0.75148586  0.63544006  1
  O  O239  1  0.99102405  0.23836822  0.12420609  1
  O  O240  1  1.00123168  0.24172677  0.63368014  1
  O  O241  1  0.99015637  0.75701150  0.13359792  1
  O  O242  1  1.00150163  0.73990110  0.63156798  1
  O  O243  1  0.01025739  0.24479175  0.37215277  1
  O  O244  1  0.00800755  0.25590109  0.87011306  1
  O  O245  1  0.00801487  0.75578623  0.36785730  1
  O  O246  1  0.00195707  0.75919560  0.86809270  1
  O  O247  1  0.50393101  0.25062805  0.36531288  1
  O  O248  1  0.49543640  0.26163478  0.86218022  1
  O  O249  1  0.50916982  0.75895749  0.37508526  1
  O  O250  1  0.51218995  0.75721808  0.87126358  1
  O  O251  1  0.23754726  0.12062122  0.49173844  1
  O  O252  1  0.23437968  0.12120972  0.99772016  1
  O  O253  1  0.24489916  0.63004061  0.49685757  1
  O  O254  1  0.24207167  0.63235921  1.00325467  1
  O  O255  1  0.74176496  0.12475710  0.49138640  1
  O  O256  1  0.73917844  0.11884245  0.99433798  1
  O  O257  1  0.74397847  0.63523720  0.50225622  1
  O  O258  1  0.73715838  0.61912434  0.99246836  1
  O  O259  1  0.25838159  0.37410701  -0.00223030  1
  O  O260  1  0.25326587  0.37624979  0.51734470  1
  O  O261  1  0.25950130  0.87342764  0.00181817  1
  O  O262  1  0.24690408  0.86666611  0.50724503  1
  O  O263  1  0.76346425  0.37211287  -0.00931523  1
  O  O264  1  0.75717423  0.37569805  0.50932255  1
  O  O265  1  0.76043458  0.88068539  0.00529353  1
  O  O266  1  0.75802522  0.86899022  0.49954333  1
  O  O267  1  0.12609265  0.49539409  0.24449705  1
  O  O268  1  0.13706300  0.49153581  0.75628125  1
  O  O269  1  0.13130947  0.99745665  0.24659403  1
  O  O270  1  0.14012534  1.00262087  0.75218519  1
  O  O271  1  0.63550439  0.48576414  0.28113047  1
  O  O272  1  0.63449264  0.48805095  0.74887622  1
  O  O273  1  0.63691657  0.98816697  0.25398556  1
  O  O274  1  0.61953477  0.98997175  0.74178062  1
  O  O275  1  0.36771126  0.00592257  0.25521579  1
  O  O276  1  0.36713991  0.01048236  0.75644277  1
  O  O277  1  0.36365608  0.50011644  0.26201811  1
  O  O278  1  0.36353571  0.50190937  0.75741187  1
  O  O279  1  0.85944288  -0.00880124  0.25350758  1
  O  O280  1  0.87944123  -0.00324022  0.76293622  1
  O  O281  1  0.88209110  0.51327095  0.25940863  1
  O  O282  1  0.86276335  0.49922438  0.74692106  1
  O  O283  1  0.12619237  0.36165885  0.37060678  1
  O  O284  1  0.11584380  0.37052982  0.86858700  1
  O  O285  1  0.12067284  0.86972705  0.36880295  1
  O  O286  1  0.11062396  0.87885985  0.87530243  1
  O  O287  1  0.61034988  0.35432040  0.38865948  1
  O  O288  1  0.61471160  0.37757853  0.86597803  1
  O  O289  1  0.61733266  0.86838604  0.36790514  1
  O  O290  1  0.62521112  0.87001840  0.87001255  1
  O  O291  1  0.36939186  0.13021137  0.13637370  1
  O  O292  1  0.38362627  0.12150562  0.63549027  1
  O  O293  1  0.38946867  0.62590406  0.12050899  1
  O  O294  1  0.37880576  0.63103506  0.63141258  1
  O  O295  1  0.88490865  0.13616528  0.11984032  1
  O  O296  1  0.88892288  0.12526417  0.61826527  1
  O  O297  1  0.87064578  0.63824517  0.12976473  1
  O  O298  1  0.88535869  0.62729956  0.62750160  1
  O  O299  1  0.26115250  0.25230959  0.13131739  1
  O  O300  1  0.24797383  0.26274607  0.63389470  1
  O  O301  1  0.24977732  0.75470704  0.10982828  1
  O  O302  1  0.25291545  0.75923439  0.61709539  1
  O  O303  1  0.76289524  0.24580427  0.11992881  1
  O  O304  1  0.75238423  0.25950014  0.62229906  1
  O  O305  1  0.76160592  0.76391374  0.12823861  1
  O  O306  1  0.75076481  0.75461305  0.61291349  1
  O  O307  1  0.24412086  0.23899718  0.37046046  1
  O  O308  1  0.23469047  0.24667051  0.86996993  1
  O  O309  1  0.24378546  0.74625715  0.38253243  1
  O  O310  1  0.24602539  0.75815323  0.88878582  1
  O  O311  1  0.74149000  0.24163021  0.37566534  1
  O  O312  1  0.75836091  0.23092159  0.87879648  1
  O  O313  1  0.73830202  0.75638250  0.38511723  1
  O  O314  1  0.74004458  0.74242137  0.86936892  1
  O  O315  1  0.00912637  0.12161703  0.00645914  1
  O  O316  1  0.00945100  0.11889766  0.50572259  1
  O  O317  1  0.00630847  0.61427590  -0.00279900  1
  O  O318  1  0.00921147  0.62085735  0.50778541  1
  O  O319  1  0.51196272  0.11287782  -0.00620891  1
  O  O320  1  0.50550261  0.12304173  0.50842026  1
  O  O321  1  0.51270639  0.62129039  0.01113812  1
  O  O322  1  0.50971255  0.62133926  0.50001259  1
  O  O323  1  0.48779907  0.37085153  0.49108152  1
  O  O324  1  0.49466054  0.37883212  0.99196178  1
  O  O325  1  0.50537855  0.87746227  0.48683936  1
  O  O326  1  0.49643103  0.88663097  0.99643450  1
  O  O327  1  0.99583229  0.38516046  0.51042153  1
  O  O328  1  0.99161307  0.38438632  0.99232109  1
  O  O329  1  0.99689862  0.87786663  0.49583086  1
  O  O330  1  0.99217432  0.88167990  0.99259571  1
  O  O331  1  0.48766460  0.48761882  0.37654212  1
  O  O332  1  0.48901787  0.48711387  0.86469751  1
  O  O333  1  0.49094774  0.99377267  0.37689947  1
  O  O334  1  0.49403029  0.99482350  0.88002895  1
  O  O335  1  0.99444821  0.50430344  0.39088937  1
  O  O336  1  1.00149276  0.49184268  0.88500841  1
  O  O337  1  0.99925390  0.99309696  0.38056610  1
  O  O338  1  0.99053924  0.99649026  0.87907718  1
  O  O339  1  -0.00013712  0.01160118  0.12075896  1
  O  O340  1  0.00481179  0.00574798  0.61933108  1
  O  O341  1  0.00687109  0.49639557  0.11466861  1
  O  O342  1  0.00060679  0.51188050  0.61739073  1
  O  O343  1  0.49690219  0.00057986  0.11270380  1
  O  O344  1  0.50836087  0.01186575  0.62566346  1
  O  O345  1  0.49374847  0.50677452  0.12593795  1
  O  O346  1  0.50400001  0.50025845  0.61959433  1
  O  O347  1  0.23946867  0.38610847  0.25019896  1
  O  O348  1  0.24391863  0.38025244  0.74240034  1
  O  O349  1  0.24201365  0.88472951  0.24924874  1
  O  O350  1  0.25075917  0.88536312  0.74683336  1
  O  O351  1  0.75333039  0.38811910  0.25988659  1
  O  O352  1  0.74478492  0.37860535  0.74483459  1
  O  O353  1  0.74171453  0.87989383  0.24335370  1
  O  O354  1  0.73951606  0.87054568  0.74811477  1
  O  O355  1  0.25467427  0.11815707  0.25774468  1
  O  O356  1  0.25582590  0.12199638  0.75573632  1
  O  O357  1  0.24360078  0.61027655  0.25785201  1
  O  O358  1  0.24700588  0.61238032  0.74705564  1
  O  O359  1  0.74370872  0.11390399  0.25841899  1
  O  O360  1  0.74476311  0.12656587  0.76087190  1
  O  O361  1  0.76558916  0.63168234  0.25189514  1
  O  O362  1  0.74944143  0.61649682  0.75594879  1
  O  O363  1  0.36682244  0.11821677  0.36599176  1
  O  O364  1  0.36909563  0.12405091  0.87043397  1
  O  O365  1  0.36811620  0.61360465  0.37555288  1
  O  O366  1  0.38252544  0.61251780  0.87567324  1
  O  O367  1  0.86257032  0.12480433  0.37988070  1
  O  O368  1  0.86866303  0.11312026  0.87831857  1
  O  O369  1  0.88514192  0.61986959  0.36592951  1
  O  O370  1  0.86083209  0.63164191  0.87483218  1
  O  O371  1  0.12361205  0.38312491  0.13263859  1
  O  O372  1  0.13426640  0.37192410  0.63692010  1
  O  O373  1  0.12288486  0.88475957  0.13054804  1
  O  O374  1  0.13976284  0.87917516  0.62927797  1
  O  O375  1  0.60009751  0.38029379  0.10565947  1
  O  O376  1  0.63292351  0.37588403  0.62909156  1
  O  O377  1  0.63326103  0.86896256  0.13313358  1
  O  O378  1  0.62460399  0.88414981  0.63263734  1
  O  O379  1  0.12629855  0.25869850  0.26267327  1
  O  O380  1  0.11503098  0.25954367  0.75884138  1
  O  O381  1  0.12018432  0.75311381  0.25164335  1
  O  O382  1  0.11516329  0.75157436  0.75361318  1
  O  O383  1  0.61514549  0.24516708  0.25606902  1
  O  O384  1  0.61708471  0.26324488  0.74822548  1
  O  O385  1  0.63204863  0.75998508  0.25923086  1
  O  O386  1  0.62057513  0.75755354  0.75578581  1
  O  O387  1  0.37903953  0.24118694  0.24567300  1
  O  O388  1  0.38057885  0.24073590  0.75361597  1
  O  O389  1  0.35970799  0.73865203  0.24412930  1
  O  O390  1  0.38685500  0.74973221  0.75411194  1
  O  O391  1  0.87227513  0.25232748  0.23655171  1
  O  O392  1  0.89012369  0.25591058  0.74790283  1
  O  O393  1  0.88345805  0.74745394  0.24482352  1
  O  O394  1  0.88865461  0.74841447  0.74749162  1
  O  O395  1  0.37036235  0.49043996  0.49034268  1
  O  O396  1  0.37002040  0.48922071  0.98947934  1
  O  O397  1  0.37417646  1.00642301  0.48676731  1
  O  O398  1  0.38502419  0.99795640  0.99732116  1
  O  O399  1  0.88659008  0.49569329  0.49756472  1
  O  O400  1  0.88181931  0.49196114  1.00958224  1
  O  O401  1  0.88359589  0.99118486  0.49602533  1
  O  O402  1  0.88107542  0.99249143  0.99306159  1
  O  O403  1  0.11772522  0.00821798  0.00719739  1
  O  O404  1  0.11809087  0.00931339  0.49888240  1
  O  O405  1  0.11884373  0.50449312  0.00648879  1
  O  O406  1  0.11981493  0.50883220  0.49641586  1
  O  O407  1  0.61288213  0.00568487  -0.00230402  1
  O  O408  1  0.62178643  0.00993409  0.50529029  1
  O  O409  1  0.61998129  0.50738023  -0.00815874  1
  O  O410  1  0.62731796  0.51236008  0.48641580  1
  O  O411  1  0.37048504  0.36733987  0.11547985  1
  O  O412  1  0.36329799  0.37304733  0.61881444  1
  O  O413  1  0.37447814  0.87590958  0.11329819  1
  O  O414  1  0.36385245  0.87576313  0.62999536  1
  O  O415  1  0.88211370  0.36026698  0.11663601  1
  O  O416  1  0.86786543  0.37461980  0.61511131  1
  O  O417  1  0.87013801  0.86783341  0.11596806  1
  O  O418  1  0.87553152  0.87216605  0.61141526  1
  O  O419  1  0.13059162  0.13497446  0.37937846  1
  O  O420  1  0.12711867  0.13445044  0.88464067  1
  O  O421  1  0.13005131  0.63009519  0.38490872  1
  O  O422  1  0.12349721  0.62381726  0.88931861  1
  O  O423  1  0.62873349  0.13091056  0.38097631  1
  O  O424  1  0.64083915  0.11522672  0.88108728  1
  O  O425  1  0.61754763  0.63797583  0.37814152  1
  O  O426  1  0.63164609  0.63259765  0.88153702  1
