# generated using pymatgen
data_V85Zn86O256
_symmetry_space_group_name_H-M   'P 1'
_cell_length_a   16.92746033
_cell_length_b   16.92672778
_cell_length_c   16.91957019
_cell_angle_alpha   90.05525468
_cell_angle_beta   89.98636050
_cell_angle_gamma   89.91727237
_symmetry_Int_Tables_number   1
_chemical_formula_structural   V85Zn86O256
_chemical_formula_sum   'V85 Zn86 O256'
_cell_volume   4847.89800347
_cell_formula_units_Z   1
loop_
 _symmetry_equiv_pos_site_id
 _symmetry_equiv_pos_as_xyz
  1  'x, y, z'
loop_
 _atom_site_type_symbol
 _atom_site_label
 _atom_site_symmetry_multiplicity
 _atom_site_fract_x
 _atom_site_fract_y
 _atom_site_fract_z
 _atom_site_occupancy
  V  V0  1  0.49915419  0.00337333  0.51155931  1
  V  V1  1  0.87188121  0.75090103  0.12331604  1
  V  V2  1  0.61848644  0.62589776  0.50300350  1
  V  V3  1  0.50240655  0.11805227  0.12284593  1
  V  V4  1  0.62252190  0.12496325  0.51074164  1
  V  V5  1  0.74932486  0.12443517  0.87573557  1
  V  V6  1  0.25032092  -0.00050457  0.74388882  1
  V  V7  1  0.87615880  0.88104250  0.48815190  1
  V  V8  1  0.87667786  -0.00068667  0.87755242  1
  V  V9  1  0.88080728  0.50364266  0.37526854  1
  V  V10  1  0.36572549  0.37109866  0.50126645  1
  V  V11  1  0.24169586  0.50024223  0.24996746  1
  V  V12  1  0.74881889  -0.00017959  0.75057611  1
  V  V13  1  0.74881668  0.75181322  0.50077165  1
  V  V14  1  0.75397145  0.12087013  0.37901384  1
  V  V15  1  0.49822261  0.73789165  0.74266089  1
  V  V16  1  0.88042560  0.37286847  -0.02266250  1
  V  V17  1  0.85642504  0.26802697  0.15449603  1
  V  V18  1  0.37357079  0.62600514  0.24609690  1
  V  V19  1  0.12322054  0.49479539  0.61652316  1
  V  V20  1  0.37137517  0.49928547  0.37434266  1
  V  V21  1  0.12522547  0.87450795  0.74324415  1
  V  V22  1  0.88409470  0.12329059  0.74500469  1
  V  V23  1  0.12635661  0.62261851  -0.00408112  1
  V  V24  1  0.75469909  0.49734236  0.75540788  1
  V  V25  1  0.23591525  0.87924884  0.12779756  1
  V  V26  1  0.24792684  0.37512838  0.12925427  1
  V  V27  1  0.87438477  0.87366463  0.00094361  1
  V  V28  1  0.13101230  0.25608629  0.38278877  1
  V  V29  1  0.11434192  0.49157557  0.12599521  1
  V  V30  1  0.88116549  0.11866076  0.25939676  1
  V  V31  1  0.24932379  0.12633507  0.87503062  1
  V  V32  1  0.87212911  0.24831977  0.62143338  1
  V  V33  1  0.75100569  0.00685193  0.24652703  1
  V  V34  1  0.50133088  0.25167809  0.24790365  1
  V  V35  1  0.62253246  0.37582185  0.74406833  1
  V  V36  1  -0.00065095  0.61885588  0.61975302  1
  V  V37  1  0.00477614  0.75375465  0.25977413  1
  V  V38  1  0.50122770  0.87726985  0.37315542  1
  V  V39  1  0.62719732  0.12174330  0.00840916  1
  V  V40  1  0.00619713  0.38125584  0.38714850  1
  V  V41  1  0.75365439  0.25561025  -0.00136942  1
  V  V42  1  0.13152284  0.74723561  0.87064268  1
  V  V43  1  0.00184874  0.87550932  0.87525985  1
  V  V44  1  0.61879412  0.25554295  0.87583632  1
  V  V45  1  -0.00272628  0.62331148  0.12427000  1
  V  V46  1  0.25182414  0.74421736  -0.00021693  1
  V  V47  1  0.25156728  0.13020891  0.38265085  1
  V  V48  1  0.37682900  0.00042704  0.37412522  1
  V  V49  1  0.87835941  0.74866543  0.62554460  1
  V  V50  1  -0.00677684  0.00604543  0.48511560  1
  V  V51  1  -0.00157555  0.25408594  0.75212805  1
  V  V52  1  0.12316335  0.13049670  0.50830690  1
  V  V53  1  0.37023369  0.24637930  0.62233222  1
  V  V54  1  0.62874108  0.74494611  0.87761226  1
  V  V55  1  0.12588626  0.11605351  0.00570860  1
  V  V56  1  0.37465896  0.24975800  0.12388280  1
  V  V57  1  0.37748280  -0.00208588  0.87639154  1
  V  V58  1  0.00287575  0.12290161  0.13063282  1
  V  V59  1  0.74652974  0.87880595  0.12028382  1
  V  V60  1  0.49832373  0.37493364  0.36990517  1
  V  V61  1  0.37376461  0.12439314  0.25021734  1
  V  V62  1  0.01100086  0.26083534  0.25355311  1
  V  V63  1  0.63080277  0.62343100  0.00816191  1
  V  V64  1  0.49828441  0.25300002  0.74765624  1
  V  V65  1  0.86461274  0.38413390  0.50572187  1
  V  V66  1  0.74770418  0.87481526  0.62584925  1
  V  V67  1  0.12248632  0.37710127  0.75963667  1
  V  V68  1  0.00118654  0.74887204  0.74629937  1
  V  V69  1  0.75051474  0.62282241  0.36984142  1
  V  V70  1  0.37676354  0.87133886  0.00133126  1
  V  V71  1  0.50833238  0.49105752  -0.00234224  1
  V  V72  1  0.62542974  0.75292274  0.37433323  1
  V  V73  1  0.36673524  0.49964626  0.87530774  1
  V  V74  1  0.49481095  0.50235304  0.50702684  1
  V  V75  1  0.63361944  0.49371485  0.61722473  1
  V  V76  1  -0.00424647  0.49566804  -0.01664703  1
  V  V77  1  0.38403400  0.12284575  0.74516265  1
  V  V78  1  0.62422874  0.88233687  0.24422075  1
  V  V79  1  0.12576835  0.63409889  0.49768357  1
  V  V80  1  0.37155184  0.86837906  0.50449115  1
  V  V81  1  0.24490139  0.63802525  0.37783768  1
  V  V82  1  0.62306468  0.24798553  0.37660999  1
  V  V83  1  0.24638823  0.25087506  -0.00034056  1
  V  V84  1  0.11206584  0.00120329  0.62505000  1
  Zn  Zn85  1  0.62303259  0.87207248  0.75334850  1
  Zn  Zn86  1  0.50415572  0.62075694  0.12618627  1
  Zn  Zn87  1  0.68304448  0.45757229  0.18684590  1
  Zn  Zn88  1  0.50054885  0.74955483  0.24569213  1
  Zn  Zn89  1  0.74339716  0.25633721  0.50731637  1
  Zn  Zn90  1  0.50718254  -0.00607369  0.00200990  1
  Zn  Zn91  1  0.87945077  0.61563193  0.75553998  1
  Zn  Zn92  1  0.10821988  0.87774674  0.29139916  1
  Zn  Zn93  1  0.24575799  0.37085982  0.62584047  1
  Zn  Zn94  1  0.62104342  0.00274432  0.63191054  1
  Zn  Zn95  1  0.11719838  0.25236146  0.87858472  1
  Zn  Zn96  1  0.37287629  0.72912085  0.61372878  1
  Zn  Zn97  1  0.24023391  0.00176193  0.24436050  1
  Zn  Zn98  1  0.75823013  0.62456523  0.87829897  1
  Zn  Zn99  1  0.38095650  0.37211068  -0.00562242  1
  Zn  Zn100  1  0.36393023  0.62220681  0.74863098  1
  Zn  Zn101  1  0.86944451  0.62204392  0.24484505  1
  Zn  Zn102  1  0.24629013  0.50285034  0.75178499  1
  Zn  Zn103  1  0.24513761  0.86718587  0.61745278  1
  Zn  Zn104  1  0.00383297  -0.00218573  0.00822353  1
  Zn  Zn105  1  0.37660426  0.74868787  0.12498850  1
  Zn  Zn106  1  0.50102796  0.86884402  0.87513566  1
  Zn  Zn107  1  0.18644641  0.18612771  0.19050101  1
  Zn  Zn108  1  0.18842416  0.18884080  0.68932882  1
  Zn  Zn109  1  0.18437099  0.68926998  0.18564661  1
  Zn  Zn110  1  0.19648589  0.68394762  0.68176416  1
  Zn  Zn111  1  0.68523944  0.28289873  0.18835710  1
  Zn  Zn112  1  0.69158866  0.18920983  0.68822968  1
  Zn  Zn113  1  0.68870492  0.69373662  0.18658120  1
  Zn  Zn114  1  0.68410361  0.68265500  0.68797715  1
  Zn  Zn115  1  0.31076189  0.31354395  0.31046902  1
  Zn  Zn116  1  0.31192897  0.31881708  0.81429720  1
  Zn  Zn117  1  0.31204706  0.81364078  0.31105619  1
  Zn  Zn118  1  0.31273264  0.80984606  0.80882167  1
  Zn  Zn119  1  0.82011026  0.30580828  0.32902334  1
  Zn  Zn120  1  0.80610008  0.31227222  0.80637070  1
  Zn  Zn121  1  0.81288875  0.81069199  0.30727713  1
  Zn  Zn122  1  0.81215707  0.80878454  0.81305518  1
  Zn  Zn123  1  0.18688739  0.44356105  0.44020035  1
  Zn  Zn124  1  0.18694214  0.43536924  0.93972370  1
  Zn  Zn125  1  0.19083880  0.94698062  0.43361471  1
  Zn  Zn126  1  0.19118355  0.93451933  0.93577339  1
  Zn  Zn127  1  0.67344305  0.45136412  0.39759603  1
  Zn  Zn128  1  0.68798739  0.43448984  0.93774540  1
  Zn  Zn129  1  0.68766540  0.94109904  0.43686951  1
  Zn  Zn130  1  0.68656301  0.93515698  0.93713762  1
  Zn  Zn131  1  0.31328445  0.05970197  0.06228947  1
  Zn  Zn132  1  0.31050318  0.06103909  0.56333157  1
  Zn  Zn133  1  0.31375304  0.55845204  0.05927705  1
  Zn  Zn134  1  0.30768707  0.56250228  0.56804247  1
  Zn  Zn135  1  0.81674567  0.06910301  0.06879900  1
  Zn  Zn136  1  0.81163262  0.06382526  0.56415575  1
  Zn  Zn137  1  0.80915384  0.55650217  0.05866102  1
  Zn  Zn138  1  0.80954701  0.56299737  0.55995343  1
  Zn  Zn139  1  0.43735396  0.43997409  0.18225373  1
  Zn  Zn140  1  0.43781042  0.43865822  0.68775891  1
  Zn  Zn141  1  0.43332134  0.93708423  0.18524185  1
  Zn  Zn142  1  0.44059202  0.92962232  0.69135533  1
  Zn  Zn143  1  0.88205554  0.44912923  0.17206736  1
  Zn  Zn144  1  0.93935098  0.43409139  0.68555297  1
  Zn  Zn145  1  0.93882120  0.93819543  0.19144571  1
  Zn  Zn146  1  0.93565682  0.93505853  0.68380226  1
  Zn  Zn147  1  0.06993386  0.06421214  0.31333437  1
  Zn  Zn148  1  0.06334508  0.06387969  0.81621970  1
  Zn  Zn149  1  0.05966838  0.56428404  0.31277281  1
  Zn  Zn150  1  0.06814725  0.56609054  0.80691629  1
  Zn  Zn151  1  0.56461791  0.06493403  0.31278854  1
  Zn  Zn152  1  0.56317152  0.06419208  0.81717577  1
  Zn  Zn153  1  0.56240069  0.56006424  0.30920184  1
  Zn  Zn154  1  0.56169742  0.55928173  0.81699500  1
  Zn  Zn155  1  0.43891928  0.18697279  0.44152013  1
  Zn  Zn156  1  0.43729669  0.18726947  0.93572392  1
  Zn  Zn157  1  0.43796787  0.68683418  0.42902772  1
  Zn  Zn158  1  0.44334712  0.67997920  0.93417303  1
  Zn  Zn159  1  0.94017273  0.19030163  0.44107845  1
  Zn  Zn160  1  0.93875606  0.18523502  0.93670696  1
  Zn  Zn161  1  0.93823884  0.68801022  0.44212650  1
  Zn  Zn162  1  0.93774973  0.68790459  0.93612747  1
  Zn  Zn163  1  0.05574737  0.31173013  0.06298862  1
  Zn  Zn164  1  0.05538813  0.31011960  0.56808411  1
  Zn  Zn165  1  0.05931804  0.80845536  0.06211468  1
  Zn  Zn166  1  0.08372074  0.83472258  0.50545004  1
  Zn  Zn167  1  0.56662639  0.31691481  0.06577861  1
  Zn  Zn168  1  0.55446149  0.31347039  0.56305878  1
  Zn  Zn169  1  0.56130946  0.80577028  0.06253082  1
  Zn  Zn170  1  0.55908091  0.81439368  0.56450411  1
  O  O171  1  0.11734951  0.12824608  0.11836090  1
  O  O172  1  0.13283938  0.11883648  0.61481133  1
  O  O173  1  0.11765252  0.61705445  0.11450755  1
  O  O174  1  0.11863550  0.61559102  0.61659828  1
  O  O175  1  0.61550367  0.13303174  0.11090268  1
  O  O176  1  0.63010234  0.12314585  0.61485430  1
  O  O177  1  0.62917132  0.62765475  0.11340883  1
  O  O178  1  0.62705550  0.61677504  0.60848316  1
  O  O179  1  0.37820834  0.37813528  0.38108837  1
  O  O180  1  0.37550464  0.38796239  0.87922409  1
  O  O181  1  0.37982319  0.88326723  0.38063283  1
  O  O182  1  0.37247011  0.88098619  0.88549658  1
  O  O183  1  0.88362251  0.38313300  0.38667084  1
  O  O184  1  0.87615265  0.37159260  0.87877410  1
  O  O185  1  0.86680543  0.87187057  0.38927420  1
  O  O186  1  0.87900900  0.87754598  0.88247758  1
  O  O187  1  0.26467326  0.01141329  0.37571627  1
  O  O188  1  0.26027698  0.00446715  0.86807834  1
  O  O189  1  0.25216239  0.50410868  0.36439198  1
  O  O190  1  0.26235828  0.49776264  0.88037959  1
  O  O191  1  0.74453115  0.01313281  0.36594797  1
  O  O192  1  0.75652953  0.00193029  0.86707311  1
  O  O193  1  0.76690444  0.51443625  0.38759708  1
  O  O194  1  0.74371379  0.49952111  0.85794748  1
  O  O195  1  0.24014410  0.49244859  0.12833405  1
  O  O196  1  0.23539127  0.49168651  0.62603400  1
  O  O197  1  0.25308963  0.98409376  0.12447550  1
  O  O198  1  0.24132376  0.99676531  0.63250993  1
  O  O199  1  0.77940821  0.49502477  0.14591741  1
  O  O200  1  0.73713370  0.50043483  0.62816450  1
  O  O201  1  0.75588552  0.99604143  0.13819602  1
  O  O202  1  0.74933604  0.99240454  0.63454084  1
  O  O203  1  -0.00196476  0.36014572  0.26483159  1
  O  O204  1  0.00745354  0.36597673  0.74767238  1
  O  O205  1  -0.00245445  0.85943806  0.24832471  1
  O  O206  1  0.00598077  0.86916910  0.75297318  1
  O  O207  1  0.48892053  0.37054194  0.26282211  1
  O  O208  1  0.51200507  0.36701731  0.74784420  1
  O  O209  1  0.50802496  0.87892580  0.25373957  1
  O  O210  1  0.50429246  0.86228513  0.75592874  1
  O  O211  1  0.49411426  0.12917817  0.24237429  1
  O  O212  1  0.48866502  0.12877070  0.75279624  1
  O  O213  1  0.48863891  0.62176331  0.24971582  1
  O  O214  1  0.50375521  0.63610785  0.75162224  1
  O  O215  1  0.99892471  0.13067515  0.24935654  1
  O  O216  1  0.98793291  0.12665435  0.75225460  1
  O  O217  1  0.99924365  0.63215741  0.23656423  1
  O  O218  1  0.99999415  0.63270242  0.73960316  1
  O  O219  1  0.36276299  0.24894978  0.00445082  1
  O  O220  1  0.38194482  0.25743838  0.51064414  1
  O  O221  1  0.36751129  0.75325447  -0.00376631  1
  O  O222  1  0.38531578  0.76498953  0.49707784  1
  O  O223  1  0.86965915  0.25942720  -0.00639381  1
  O  O224  1  0.87261321  0.25902645  0.50615246  1
  O  O225  1  0.88110049  0.76556663  0.00722230  1
  O  O226  1  0.87144783  0.75928177  0.50996702  1
  O  O227  1  0.11892640  0.24166553  0.49665808  1
  O  O228  1  0.13340130  0.24305923  1.00115899  1
  O  O229  1  0.12985282  0.73168960  0.51323755  1
  O  O230  1  0.13047382  0.74212248  0.99319962  1
  O  O231  1  0.62170595  0.24122632  0.49787758  1
  O  O232  1  0.63246509  0.24662666  0.99176390  1
  O  O233  1  0.62599763  0.74495191  0.49548776  1
  O  O234  1  0.62315589  0.73551691  0.98979162  1
  O  O235  1  0.49334331  0.24199590  0.12899823  1
  O  O236  1  0.48889521  0.25078510  0.63911780  1
  O  O237  1  0.49497400  0.74051152  0.12823462  1
  O  O238  1  0.49686198  0.75271721  0.63879716  1
  O  O239  1  1.00207037  0.24392546  0.14319340  1
  O  O240  1  0.98464716  0.24886247  0.63779087  1
  O  O241  1  0.99063507  0.74237446  0.12824980  1
  O  O242  1  0.99053863  0.74010403  0.62883699  1
  O  O243  1  0.01293307  0.25440715  0.37183743  1
  O  O244  1  0.00014031  0.24181583  0.85828338  1
  O  O245  1  -0.00542576  0.74201647  0.35832648  1
  O  O246  1  0.01281784  0.75672877  0.86994515  1
  O  O247  1  0.50286297  0.25452677  0.36979775  1
  O  O248  1  0.50701125  0.24441912  0.86222475  1
  O  O249  1  0.50902719  0.75871501  0.36943142  1
  O  O250  1  0.51307817  0.74715693  0.86812689  1
  O  O251  1  0.24204162  0.12179545  0.48987197  1
  O  O252  1  0.24396140  0.13109890  0.99840344  1
  O  O253  1  0.23665918  0.61452712  0.48977027  1
  O  O254  1  0.24181282  0.63579816  1.00623823  1
  O  O255  1  0.74116901  0.12496420  0.49435834  1
  O  O256  1  0.74520505  0.12914799  0.99375365  1
  O  O257  1  0.74261498  0.63439976  0.49267276  1
  O  O258  1  0.73572690  0.61521360  0.99557064  1
  O  O259  1  0.24787144  0.36589316  0.01188455  1
  O  O260  1  0.26259297  0.37700016  0.49962101  1
  O  O261  1  0.25489403  0.86506805  0.00667770  1
  O  O262  1  0.27002923  0.88460153  0.49863171  1
  O  O263  1  0.76500508  0.36723080  -0.00616909  1
  O  O264  1  0.76483399  0.37514863  0.49011096  1
  O  O265  1  0.75728441  0.88258330  0.01301521  1
  O  O266  1  0.75456406  0.87306404  0.50731141  1
  O  O267  1  0.13344687  0.50659157  0.24017922  1
  O  O268  1  0.12086648  0.49006957  0.73987688  1
  O  O269  1  0.12996526  0.98615065  0.26431811  1
  O  O270  1  0.13143802  0.99814067  0.74361051  1
  O  O271  1  0.64134556  0.48603246  0.28769403  1
  O  O272  1  0.62712475  0.49297342  0.73939257  1
  O  O273  1  0.63350128  0.99072505  0.25288047  1
  O  O274  1  0.63540621  0.99887456  0.75213947  1
  O  O275  1  0.37199580  0.00586084  0.25868369  1
  O  O276  1  0.36973381  0.00408334  0.75313848  1
  O  O277  1  0.36132662  0.50483540  0.25264324  1
  O  O278  1  0.37542727  0.49507088  0.76387255  1
  O  O279  1  0.87056836  0.01156798  0.25107243  1
  O  O280  1  0.86807471  0.00508921  0.75343378  1
  O  O281  1  0.88744816  0.50572315  0.27038513  1
  O  O282  1  0.85780999  0.49541205  0.74035600  1
  O  O283  1  0.11974929  0.36789555  0.38469418  1
  O  O284  1  0.12547722  0.37255273  0.86440590  1
  O  O285  1  0.12354336  0.86625876  0.40272263  1
  O  O286  1  0.12090201  0.86917228  0.86675391  1
  O  O287  1  0.61154444  0.35601199  0.38654300  1
  O  O288  1  0.62890097  0.36108564  0.86649943  1
  O  O289  1  0.62103661  0.87277091  0.36829673  1
  O  O290  1  0.62437826  0.85969687  0.87727843  1
  O  O291  1  0.37968572  0.13100687  0.12866913  1
  O  O292  1  0.37054321  0.13012935  0.63462644  1
  O  O293  1  0.36815914  0.62369697  0.13840127  1
  O  O294  1  0.37891281  0.61712305  0.63186612  1
  O  O295  1  0.88151944  0.14276995  0.13984809  1
  O  O296  1  0.87055892  0.13251093  0.63488055  1
  O  O297  1  0.88088743  0.63442302  0.12057714  1
  O  O298  1  0.88143518  0.63177124  0.62351144  1
  O  O299  1  0.25242468  0.25598131  0.12146050  1
  O  O300  1  0.26505511  0.25226778  0.63103880  1
  O  O301  1  0.25133025  0.75885005  0.11568339  1
  O  O302  1  0.26277767  0.75744727  0.63117460  1
  O  O303  1  0.75726390  0.23765031  0.10501750  1
  O  O304  1  0.76415616  0.25057198  0.62482606  1
  O  O305  1  0.76378532  0.76244309  0.12946370  1
  O  O306  1  0.75458621  0.75542746  0.62120201  1
  O  O307  1  0.23985949  0.24578952  0.37284697  1
  O  O308  1  0.24854360  0.24483718  0.88443652  1
  O  O309  1  0.25319565  0.73683313  0.37331351  1
  O  O310  1  0.23759085  0.75674797  0.88271022  1
  O  O311  1  0.73958293  0.23908168  0.38102875  1
  O  O312  1  0.74328630  0.24378863  0.88080565  1
  O  O313  1  0.74394902  0.74757650  0.38231696  1
  O  O314  1  0.73343621  0.74618319  0.86640263  1
  O  O315  1  0.00837643  0.12721266  0.01100767  1
  O  O316  1  0.00699890  0.11539693  0.50057293  1
  O  O317  1  0.00565494  0.61980146  0.00834610  1
  O  O318  1  0.01197633  0.62770287  0.50718534  1
  O  O319  1  0.50684527  0.12521809  0.00643537  1
  O  O320  1  0.50920317  0.11443529  0.49655374  1
  O  O321  1  0.51504129  0.61507503  0.00162668  1
  O  O322  1  0.50688620  0.61422053  0.48859040  1
  O  O323  1  0.48883801  0.38092206  0.48951079  1
  O  O324  1  0.50154742  0.38593227  1.00190443  1
  O  O325  1  0.49453402  0.88471042  0.49209094  1
  O  O326  1  0.49139830  0.87507272  0.99771094  1
  O  O327  1  0.98874472  0.36797227  0.49045288  1
  O  O328  1  0.99129673  0.37935962  0.99271359  1
  O  O329  1  0.98762179  0.89559025  0.50902205  1
  O  O330  1  0.99374835  0.87854975  0.99509014  1
  O  O331  1  0.49082319  0.49060846  0.38233629  1
  O  O332  1  0.49494973  0.49971442  0.89128747  1
  O  O333  1  0.49080116  0.99835030  0.38040103  1
  O  O334  1  0.48657233  0.99774324  0.87479297  1
  O  O335  1  0.99859051  0.49084732  0.37787887  1
  O  O336  1  1.00395851  0.50830484  0.88537196  1
  O  O337  1  0.99723393  1.00538926  0.38703766  1
  O  O338  1  0.99324398  0.99319734  0.87710798  1
  O  O339  1  -0.00816720  0.01791900  0.12647341  1
  O  O340  1  0.00976555  0.00326116  0.62666762  1
  O  O341  1  0.00144487  0.50669294  0.11922648  1
  O  O342  1  0.00438466  0.51232066  0.62940389  1
  O  O343  1  0.49448197  0.01424265  0.12265511  1
  O  O344  1  0.50145478  -0.00455614  0.61535886  1
  O  O345  1  0.49354960  0.50429342  0.10683485  1
  O  O346  1  0.50955754  0.49246806  0.61031250  1
  O  O347  1  0.25044294  0.38265746  0.23759664  1
  O  O348  1  0.23697819  0.37823299  0.74775621  1
  O  O349  1  0.25047462  0.87195369  0.23343545  1
  O  O350  1  0.24458110  0.88752241  0.75120532  1
  O  O351  1  0.78603638  0.32818306  0.22330808  1
  O  O352  1  0.73632539  0.38475494  0.74868536  1
  O  O353  1  0.74586305  0.88447986  0.24180357  1
  O  O354  1  0.74983165  0.88330541  0.74355059  1
  O  O355  1  0.25556711  0.12394902  0.26185708  1
  O  O356  1  0.25671853  0.11484627  0.75479892  1
  O  O357  1  0.25143307  0.61933177  0.25567136  1
  O  O358  1  0.24673859  0.61683352  0.75507680  1
  O  O359  1  0.76209206  0.11852401  0.25953025  1
  O  O360  1  0.75746755  0.11677246  0.75595745  1
  O  O361  1  0.75136743  0.63562508  0.26567752  1
  O  O362  1  0.74846858  0.60669825  0.74653530  1
  O  O363  1  0.36965537  0.12140410  0.37307808  1
  O  O364  1  0.36901558  0.11714387  0.86803147  1
  O  O365  1  0.36566299  0.61793403  0.36603354  1
  O  O366  1  0.38156365  0.60576569  0.87225554  1
  O  O367  1  0.86618263  0.13059204  0.37259007  1
  O  O368  1  0.86855972  0.11755788  0.86907253  1
  O  O369  1  0.86891837  0.61946265  0.37954292  1
  O  O370  1  0.87059268  0.63505307  0.86715089  1
  O  O371  1  0.12721162  0.38599569  0.12121743  1
  O  O372  1  0.12176389  0.38079509  0.63022806  1
  O  O373  1  0.13684826  0.87435194  0.11669734  1
  O  O374  1  0.12565601  0.88570854  0.62412823  1
  O  O375  1  0.63053958  0.36913491  0.13970027  1
  O  O376  1  0.62193286  0.38152145  0.62935437  1
  O  O377  1  0.63448915  0.87095852  0.13073837  1
  O  O378  1  0.63779198  0.87678398  0.62601808  1
  O  O379  1  0.11695638  0.24607682  0.26320114  1
  O  O380  1  0.11566902  0.25729775  0.74856059  1
  O  O381  1  0.10871302  0.75347300  0.24574194  1
  O  O382  1  0.12116260  0.75435853  0.75497418  1
  O  O383  1  0.61250016  0.23963392  0.26454004  1
  O  O384  1  0.61867785  0.25400724  0.75338629  1
  O  O385  1  0.62633517  0.76525138  0.25609626  1
  O  O386  1  0.61650907  0.74766373  0.75728021  1
  O  O387  1  0.38041021  0.24347608  0.24493044  1
  O  O388  1  0.38082054  0.24300425  0.74806110  1
  O  O389  1  0.37709980  0.73989682  0.24970424  1
  O  O390  1  0.39070198  0.74536369  0.75746794  1
  O  O391  1  0.89649451  0.23708507  0.26081856  1
  O  O392  1  0.87746831  0.24285166  0.74475353  1
  O  O393  1  0.88358402  0.74645807  0.23998983  1
  O  O394  1  0.88016061  0.75314706  0.73624302  1
  O  O395  1  0.37915035  0.49273240  0.49430288  1
  O  O396  1  0.38345175  0.49716916  0.99181649  1
  O  O397  1  0.38341116  0.99632712  0.49362335  1
  O  O398  1  0.37596789  0.99131382  0.99110764  1
  O  O399  1  0.87699926  0.48958388  0.49763769  1
  O  O400  1  0.88243371  0.48149940  1.00053898  1
  O  O401  1  0.88552961  0.99798655  0.50402951  1
  O  O402  1  0.87692072  0.99206629  0.99688600  1
  O  O403  1  0.12522937  0.01227242  -0.00565656  1
  O  O404  1  0.11300181  0.00941147  0.50657127  1
  O  O405  1  0.11738374  0.50497434  0.00607723  1
  O  O406  1  0.12140749  0.50584243  0.51185437  1
  O  O407  1  0.62308001  0.01500527  -0.01001779  1
  O  O408  1  0.61613220  0.00719293  0.50204060  1
  O  O409  1  0.61774304  0.50633930  -0.00395333  1
  O  O410  1  0.61772033  0.50540274  0.49931640  1
  O  O411  1  0.36519883  0.36720855  0.12097291  1
  O  O412  1  0.37474146  0.36751490  0.61713538  1
  O  O413  1  0.36831351  0.87275371  0.11192086  1
  O  O414  1  0.37786000  0.87790070  0.60848658  1
  O  O415  1  0.89397819  0.35314425  0.11118164  1
  O  O416  1  0.87807651  0.36914783  0.61075255  1
  O  O417  1  0.87057966  0.87164488  0.11892910  1
  O  O418  1  0.86376965  0.86906642  0.61856632  1
  O  O419  1  0.13311652  0.13377863  0.38696697  1
  O  O420  1  0.13253133  0.12866480  0.88372213  1
  O  O421  1  0.12884135  0.62105915  0.38867646  1
  O  O422  1  0.12035794  0.63303987  0.88774684  1
  O  O423  1  0.62946171  0.13197869  0.38566903  1
  O  O424  1  0.63060333  0.13655842  0.88045267  1
  O  O425  1  0.63182081  0.63312417  0.38364428  1
  O  O426  1  0.62918213  0.63139872  0.88298642  1
