# generated using pymatgen
data_V85Zn86O256
_symmetry_space_group_name_H-M   'P 1'
_cell_length_a   16.96024476
_cell_length_b   16.96056671
_cell_length_c   16.94351403
_cell_angle_alpha   90.01215371
_cell_angle_beta   89.93222895
_cell_angle_gamma   89.96387395
_symmetry_Int_Tables_number   1
_chemical_formula_structural   V85Zn86O256
_chemical_formula_sum   'V85 Zn86 O256'
_cell_volume   4873.88818285
_cell_formula_units_Z   1
loop_
 _symmetry_equiv_pos_site_id
 _symmetry_equiv_pos_as_xyz
  1  'x, y, z'
loop_
 _atom_site_type_symbol
 _atom_site_label
 _atom_site_symmetry_multiplicity
 _atom_site_fract_x
 _atom_site_fract_y
 _atom_site_fract_z
 _atom_site_occupancy
  V  V0  1  0.62864393  0.37660812  0.25294849  1
  V  V1  1  0.49935590  0.50154047  0.50518984  1
  V  V2  1  0.37126609  0.38226858  0.00490340  1
  V  V3  1  0.24826013  0.74422234  0.00713788  1
  V  V4  1  -0.00276438  0.26451930  0.24593133  1
  V  V5  1  0.12220406  0.12446661  0.49546693  1
  V  V6  1  0.87736481  0.87089404  0.01041137  1
  V  V7  1  0.24706189  0.12543131  0.37224705  1
  V  V8  1  0.74123972  0.26542716  0.52000207  1
  V  V9  1  0.11550313  0.75028656  0.36202477  1
  V  V10  1  0.87695159  0.00241408  0.37162956  1
  V  V11  1  0.49948272  0.86769061  0.35830197  1
  V  V12  1  0.36933412  0.87323963  0.00497726  1
  V  V13  1  0.87899290  -0.00469109  0.87559579  1
  V  V14  1  0.62223329  0.74808388  0.36276340  1
  V  V15  1  0.50067303  0.37526906  0.38146724  1
  V  V16  1  0.75305255  0.74879661  0.00149200  1
  V  V17  1  0.11692688  0.26593501  0.36810308  1
  V  V18  1  0.00121799  0.87228826  0.87595906  1
  V  V19  1  0.37282118  0.62721754  0.75132911  1
  V  V20  1  0.87230157  0.87745571  0.49805366  1
  V  V21  1  0.87604286  0.50351747  0.87606895  1
  V  V22  1  0.12476206  0.50872025  0.12580261  1
  V  V23  1  0.37491331  -0.00036060  0.37269087  1
  V  V24  1  0.50589702  -0.00275072  0.00285141  1
  V  V25  1  -0.00557623  0.87038014  0.36000934  1
  V  V26  1  0.50264871  -0.00822674  0.49816530  1
  V  V27  1  0.88257002  0.12373430  0.75023571  1
  V  V28  1  0.24156166  0.76578325  0.50146932  1
  V  V29  1  0.73287447  0.88030019  0.12692870  1
  V  V30  1  0.37259454  0.37794456  0.50224666  1
  V  V31  1  0.36971906  0.24572889  0.62630895  1
  V  V32  1  0.12876847  -0.00650013  0.61752662  1
  V  V33  1  0.37777823  0.12258485  0.75271459  1
  V  V34  1  0.87753847  0.74530681  0.62145092  1
  V  V35  1  0.50593516  0.75736320  0.74906881  1
  V  V36  1  0.88142702  0.37355193  0.48974806  1
  V  V37  1  0.37202895  0.12489675  0.25019143  1
  V  V38  1  -0.00587519  0.63824892  0.12608616  1
  V  V39  1  0.49810057  0.62863298  0.62335149  1
  V  V40  1  0.00014304  0.50338282  0.48814589  1
  V  V41  1  0.24792419  0.49432061  0.74954566  1
  V  V42  1  0.74816728  0.74874350  0.49165732  1
  V  V43  1  0.74931693  -0.00537441  0.74879123  1
  V  V44  1  0.62536738  0.75700427  0.86867338  1
  V  V45  1  0.62742774  0.12568759  0.50419965  1
  V  V46  1  0.37392205  0.25241733  0.12752781  1
  V  V47  1  0.74780259  0.12387677  0.87608856  1
  V  V48  1  0.87711551  0.37242144  0.00214881  1
  V  V49  1  0.37530570  0.75291244  0.13654006  1
  V  V50  1  0.24084375  0.37646585  0.13195884  1
  V  V51  1  0.87179690  0.63635270  0.25217121  1
  V  V52  1  0.50042757  0.25154743  0.25342361  1
  V  V53  1  0.00308529  0.74719441  0.74324448  1
  V  V54  1  0.88186499  0.25763477  0.62884473  1
  V  V55  1  0.12633940  0.74376566  0.88098018  1
  V  V56  1  0.50842181  0.12092934  0.12714906  1
  V  V57  1  0.75399531  0.12879012  0.37667954  1
  V  V58  1  0.25063020  -0.00663965  0.74518365  1
  V  V59  1  0.01461024  0.00318375  0.00753649  1
  V  V60  1  0.00644093  0.37300818  0.87079742  1
  V  V61  1  0.54683527  0.44380098  -0.05384412  1
  V  V62  1  0.24726616  0.62765031  0.37977487  1
  V  V63  1  0.37065787  0.50099613  0.87988378  1
  V  V64  1  0.62835394  0.62433131  0.49583804  1
  V  V65  1  0.36643170  0.76011907  0.62520160  1
  V  V66  1  0.61604378  0.62862706  -0.00275633  1
  V  V67  1  0.24470050  0.25225874  0.49871453  1
  V  V68  1  0.37524568  -0.00346999  0.87852941  1
  V  V69  1  0.49482818  0.12133909  0.62065063  1
  V  V70  1  0.12314257  0.24115937  0.87301959  1
  V  V71  1  0.24603590  0.24164983  0.00193900  1
  V  V72  1  0.11407866  0.50628715  0.62931107  1
  V  V73  1  0.61975669  0.49824548  0.12613648  1
  V  V74  1  0.74599025  0.86896983  0.62533655  1
  V  V75  1  0.62640849  0.25117184  0.38109051  1
  V  V76  1  0.74529863  0.24716080  -0.00149940  1
  V  V77  1  0.00716839  0.50546610  0.00105418  1
  V  V78  1  0.12852016  0.87243390  0.74534808  1
  V  V79  1  0.00265699  0.12727743  0.62588033  1
  V  V80  1  0.19014750  -0.05986037  0.19995140  1
  V  V81  1  0.24582818  0.49949538  0.25492382  1
  V  V82  1  0.87492829  0.62594304  0.74781975  1
  V  V83  1  0.49993885  0.62819604  0.13496560  1
  V  V84  1  0.62796836  -0.00406238  0.62428746  1
  Zn  Zn85  1  0.75857143  0.47571646  0.73809418  1
  Zn  Zn86  1  0.63428255  0.46802960  0.63094814  1
  Zn  Zn87  1  0.24402814  0.62281813  0.87977875  1
  Zn  Zn88  1  0.37704634  0.62681103  0.25546603  1
  Zn  Zn89  1  0.74979350  0.37622497  0.12252023  1
  Zn  Zn90  1  0.53174143  0.29470168  0.79274703  1
  Zn  Zn91  1  0.24479473  0.37726324  0.62541785  1
  Zn  Zn92  1  0.87681784  0.12771364  0.24707613  1
  Zn  Zn93  1  0.74029754  0.00850006  0.23502950  1
  Zn  Zn94  1  0.00706040  0.12631839  0.12501151  1
  Zn  Zn95  1  0.12400648  0.36712238  0.74768227  1
  Zn  Zn96  1  0.74681788  0.62108063  0.87619965  1
  Zn  Zn97  1  0.62813937  0.12130914  0.00284627  1
  Zn  Zn98  1  0.86833675  0.50171036  0.36894154  1
  Zn  Zn99  1  0.36874588  0.87838962  0.50197282  1
  Zn  Zn100  1  0.50227492  0.87733288  0.87247740  1
  Zn  Zn101  1  0.37382717  0.50425053  0.37658776  1
  Zn  Zn102  1  0.87563572  0.24474786  0.12325117  1
  Zn  Zn103  1  -0.00016293  -0.00110571  0.49701258  1
  Zn  Zn104  1  0.24649232  0.11816341  0.88268750  1
  Zn  Zn105  1  0.11620125  0.63110007  0.50572673  1
  Zn  Zn106  1  0.74983508  0.50801410  0.25536185  1
  Zn  Zn107  1  0.18385203  0.18763606  0.18442572  1
  Zn  Zn108  1  0.18959159  0.18135856  0.69058195  1
  Zn  Zn109  1  0.18847847  0.68655174  0.18765342  1
  Zn  Zn110  1  0.18936347  0.68373134  0.68774066  1
  Zn  Zn111  1  0.69079266  0.19244251  0.18817080  1
  Zn  Zn112  1  0.68868199  0.29607410  0.70130948  1
  Zn  Zn113  1  0.69165866  0.68919832  0.18056059  1
  Zn  Zn114  1  0.68919807  0.61686758  0.68433528  1
  Zn  Zn115  1  0.31089454  0.31473426  0.31477609  1
  Zn  Zn116  1  0.34287766  0.29493994  0.83262097  1
  Zn  Zn117  1  0.31055851  0.81112953  0.31712029  1
  Zn  Zn118  1  0.31187152  0.81215657  0.81560217  1
  Zn  Zn119  1  0.81180127  0.31364060  0.31520530  1
  Zn  Zn120  1  0.83091725  0.30205788  0.81710759  1
  Zn  Zn121  1  0.80979174  0.81101279  0.30696137  1
  Zn  Zn122  1  0.81204461  0.81041128  0.81289715  1
  Zn  Zn123  1  0.18499651  0.44202309  0.44204257  1
  Zn  Zn124  1  0.18796484  0.43420045  0.93979825  1
  Zn  Zn125  1  0.17318335  0.94767499  0.40180492  1
  Zn  Zn126  1  0.19017578  0.92887104  0.93550306  1
  Zn  Zn127  1  0.69014399  0.44209642  0.44141995  1
  Zn  Zn128  1  0.71398742  0.39873700  0.88707589  1
  Zn  Zn129  1  0.67164169  0.95275794  0.39880189  1
  Zn  Zn130  1  0.68836400  0.93561336  0.93783501  1
  Zn  Zn131  1  0.31025237  0.05836590  0.07020211  1
  Zn  Zn132  1  0.30814823  0.05927294  0.55786530  1
  Zn  Zn133  1  0.31225973  0.56694429  0.06606574  1
  Zn  Zn134  1  0.30776013  0.56751886  0.56393239  1
  Zn  Zn135  1  0.82083371  0.06040712  0.06315027  1
  Zn  Zn136  1  0.81321297  0.06470873  0.56166997  1
  Zn  Zn137  1  0.81055783  0.56200180  0.06503839  1
  Zn  Zn138  1  0.81614287  0.56337500  0.55660741  1
  Zn  Zn139  1  0.43688699  0.44220504  0.19040066  1
  Zn  Zn140  1  0.43303128  0.43809647  0.69080093  1
  Zn  Zn141  1  0.42958588  0.93967039  0.18597263  1
  Zn  Zn142  1  0.43845181  0.93647691  0.68783929  1
  Zn  Zn143  1  0.93618759  0.44207569  0.18808922  1
  Zn  Zn144  1  0.94104442  0.43747207  0.68828211  1
  Zn  Zn145  1  0.92986129  0.94131153  0.18697712  1
  Zn  Zn146  1  0.94086212  0.93487718  0.68430386  1
  Zn  Zn147  1  0.08048132  0.07838712  0.27308740  1
  Zn  Zn148  1  0.06449643  0.05981138  0.81291326  1
  Zn  Zn149  1  0.06117835  0.56715360  0.30713633  1
  Zn  Zn150  1  0.05965184  0.56504218  0.81120569  1
  Zn  Zn151  1  0.56309726  0.06249793  0.31038589  1
  Zn  Zn152  1  0.59846558  0.12100109  0.77104619  1
  Zn  Zn153  1  0.56338670  0.56081369  0.31536383  1
  Zn  Zn154  1  0.56429323  0.56704304  0.80640772  1
  Zn  Zn155  1  0.43732401  0.18749682  0.44131113  1
  Zn  Zn156  1  0.43898989  0.18529405  0.94003215  1
  Zn  Zn157  1  0.43261906  0.69152671  0.43871372  1
  Zn  Zn158  1  0.43734492  0.68798416  0.94004425  1
  Zn  Zn159  1  0.94006958  0.19100623  0.43691340  1
  Zn  Zn160  1  0.94113866  0.18345485  0.94067427  1
  Zn  Zn161  1  0.93706111  0.68392548  0.43528182  1
  Zn  Zn162  1  0.94060406  0.68748246  0.93964228  1
  Zn  Zn163  1  0.06488485  0.31573287  0.06085285  1
  Zn  Zn164  1  0.06202116  0.31646172  0.56300891  1
  Zn  Zn165  1  0.07078540  0.82232379  0.06854038  1
  Zn  Zn166  1  0.05871417  0.81524954  0.55636178  1
  Zn  Zn167  1  0.56648268  0.30430081  0.06687973  1
  Zn  Zn168  1  0.54610618  0.32378581  0.60295412  1
  Zn  Zn169  1  0.55773622  0.81006604  0.06173303  1
  Zn  Zn170  1  0.56437090  0.81038328  0.56066377  1
  O  O171  1  0.11388425  0.10696382  0.16209062  1
  O  O172  1  0.11990604  0.11621824  0.61969243  1
  O  O173  1  0.11505158  0.61509363  0.12915415  1
  O  O174  1  0.12597933  0.61032913  0.62437453  1
  O  O175  1  0.61234664  0.12822901  0.12802973  1
  O  O176  1  0.61533476  0.11568982  0.61146938  1
  O  O177  1  0.61866275  0.61877908  0.11803228  1
  O  O178  1  0.60605646  0.63877533  0.60932754  1
  O  O179  1  0.38045435  0.37526246  0.38928023  1
  O  O180  1  0.36758497  0.39352247  0.88853460  1
  O  O181  1  0.38421036  0.88148463  0.37752986  1
  O  O182  1  0.37745718  0.87998592  0.88356497  1
  O  O183  1  0.87870817  0.37479035  0.38717865  1
  O  O184  1  0.88730491  0.38060869  0.88456146  1
  O  O185  1  0.87234520  0.88194249  0.38019392  1
  O  O186  1  0.88180779  0.87968495  0.87973455  1
  O  O187  1  0.26314139  0.01648732  0.38541500  1
  O  O188  1  0.25813624  -0.00151623  0.86940267  1
  O  O189  1  0.24755972  0.50858671  0.37176405  1
  O  O190  1  0.25399490  0.50388090  0.87028234  1
  O  O191  1  0.76477103  0.01992445  0.39355427  1
  O  O192  1  0.76098431  -0.00157809  0.86890621  1
  O  O193  1  0.75292554  0.49757486  0.37016978  1
  O  O194  1  0.76814091  0.50178111  0.87300888  1
  O  O195  1  0.24379716  0.49750254  0.13285136  1
  O  O196  1  0.23973320  0.50034856  0.63170926  1
  O  O197  1  0.25139621  1.00126530  0.14541020  1
  O  O198  1  0.24053144  1.00125104  0.63093223  1
  O  O199  1  0.73242382  0.49559331  0.12197383  1
  O  O200  1  0.74493308  0.52031001  0.63174074  1
  O  O201  1  0.74926619  0.98651215  0.11925160  1
  O  O202  1  0.74995678  0.99213209  0.63055558  1
  O  O203  1  -0.00144421  0.36493519  0.24844256  1
  O  O204  1  0.00153548  0.37742946  0.76682728  1
  O  O205  1  -0.01420254  0.87449291  0.26090839  1
  O  O206  1  0.00636000  0.86497697  0.75460846  1
  O  O207  1  0.50880250  0.37265514  0.25876345  1
  O  O208  1  0.51629079  0.36924764  0.70902785  1
  O  O209  1  0.49639417  0.87772225  0.26053112  1
  O  O210  1  0.49761716  0.86187144  0.75132266  1
  O  O211  1  0.49284135  0.12956128  0.24734945  1
  O  O212  1  0.48296369  0.11671775  0.73893693  1
  O  O213  1  0.49850124  0.61945778  0.23945985  1
  O  O214  1  0.49111019  0.63355814  0.74004265  1
  O  O215  1  0.99188871  0.14716751  0.25918416  1
  O  O216  1  0.99152760  0.11517610  0.74204484  1
  O  O217  1  0.99082254  0.62287320  0.23327403  1
  O  O218  1  0.99073819  0.63903420  0.75262604  1
  O  O219  1  0.36725008  0.26252061  0.01047862  1
  O  O220  1  0.36284278  0.25526259  0.50417936  1
  O  O221  1  0.36887505  0.75604888  0.00740594  1
  O  O222  1  0.36241230  0.75413346  0.50820350  1
  O  O223  1  0.87322608  0.25730461  0.00087007  1
  O  O224  1  0.87160470  0.25832207  0.50877726  1
  O  O225  1  0.86546433  0.75900659  -0.00948937  1
  O  O226  1  0.86858261  0.75304151  0.50314472  1
  O  O227  1  0.12840951  0.24657498  0.49104266  1
  O  O228  1  0.13575202  0.25583361  0.98907169  1
  O  O229  1  0.12865318  0.74773586  0.49609810  1
  O  O230  1  0.13583537  0.76080111  0.99218187  1
  O  O231  1  0.63075668  0.24170570  0.49838956  1
  O  O232  1  0.63941479  0.24477883  1.00055080  1
  O  O233  1  0.63165869  0.74367897  0.49223012  1
  O  O234  1  0.62857535  0.74308700  0.99150031  1
  O  O235  1  0.49367272  0.24258887  0.13332567  1
  O  O236  1  0.47809921  0.23328115  0.60779048  1
  O  O237  1  0.48963458  0.74055874  0.12258591  1
  O  O238  1  0.49084740  0.74728118  0.62975119  1
  O  O239  1  1.00324214  0.25242231  0.13543732  1
  O  O240  1  0.99799176  0.23593389  0.62083673  1
  O  O241  1  1.00663760  0.73541767  0.11335014  1
  O  O242  1  0.99149142  0.75685361  0.63220179  1
  O  O243  1  0.01187770  0.25584385  0.37128063  1
  O  O244  1  0.01631444  0.25581483  0.88350994  1
  O  O245  1  0.00810761  0.75376400  0.37667913  1
  O  O246  1  0.00690960  0.75526187  0.86891100  1
  O  O247  1  0.50531563  0.25605332  0.37436703  1
  O  O248  1  0.45235166  0.26085877  0.86142815  1
  O  O249  1  0.50159729  0.76143887  0.37667241  1
  O  O250  1  0.50559594  0.74961508  0.86621371  1
  O  O251  1  0.24405813  0.13451070  0.49152570  1
  O  O252  1  0.25690165  0.13805318  1.00528676  1
  O  O253  1  0.24456324  0.63177252  0.48960393  1
  O  O254  1  0.25319022  0.63885688  0.99760403  1
  O  O255  1  0.74226096  0.13679021  0.50085279  1
  O  O256  1  0.75299912  0.12799587  0.99388853  1
  O  O257  1  0.73986796  0.63640694  0.50210224  1
  O  O258  1  0.73898655  0.63195475  0.99980346  1
  O  O259  1  0.25699540  0.36882406  0.01109803  1
  O  O260  1  0.25565830  0.36935119  0.50113572  1
  O  O261  1  0.26255876  0.86333474  -0.00341195  1
  O  O262  1  0.24694619  0.86632024  0.48811418  1
  O  O263  1  0.76023876  0.36320246  -0.01026003  1
  O  O264  1  0.76348541  0.36732355  0.49739926  1
  O  O265  1  0.75723043  0.86914604  0.00453094  1
  O  O266  1  0.76073316  0.86869449  0.50648900  1
  O  O267  1  0.13674559  0.50369167  0.24325943  1
  O  O268  1  0.12845406  0.50056434  0.74199398  1
  O  O269  1  0.14029517  0.98417370  0.28441528  1
  O  O270  1  0.13307065  0.99495858  0.74140413  1
  O  O271  1  0.62572748  0.49284138  0.24361639  1
  O  O272  1  0.63882985  0.52016391  0.73787465  1
  O  O273  1  0.64456672  0.99214481  0.29097916  1
  O  O274  1  0.63985791  1.01347219  0.73786078  1
  O  O275  1  0.38089457  0.01104301  0.26418145  1
  O  O276  1  0.36943645  0.00122160  0.75703066  1
  O  O277  1  0.36137081  0.50312326  0.25482362  1
  O  O278  1  0.36847903  0.50507764  0.75841213  1
  O  O279  1  0.86263221  0.00431369  0.25964578  1
  O  O280  1  0.87526861  -0.00065727  0.75884202  1
  O  O281  1  0.87140646  0.51058107  0.24849917  1
  O  O282  1  0.87736244  0.50930999  0.75502648  1
  O  O283  1  0.13179425  0.36283083  0.37830587  1
  O  O284  1  0.12121235  0.36585502  0.87307771  1
  O  O285  1  0.10761604  0.85813866  0.38170350  1
  O  O286  1  0.12073981  0.86398919  0.86473760  1
  O  O287  1  0.61896291  0.37009993  0.37308115  1
  O  O288  1  0.60021023  0.38238636  0.88690728  1
  O  O289  1  0.60549258  0.86109160  0.38221227  1
  O  O290  1  0.62185648  0.86170542  0.87767771  1
  O  O291  1  0.38171468  0.13206763  0.13541145  1
  O  O292  1  0.37341743  0.12700071  0.62779041  1
  O  O293  1  0.38444602  0.63228219  0.12775279  1
  O  O294  1  0.38210997  0.63578904  0.62759435  1
  O  O295  1  0.88537924  0.12690381  0.12791170  1
  O  O296  1  0.88506801  0.12904684  0.63092798  1
  O  O297  1  0.88866938  0.62272648  0.12745587  1
  O  O298  1  0.87429110  0.63906142  0.63041444  1
  O  O299  1  0.25127646  0.25925308  0.12325226  1
  O  O300  1  0.24931814  0.24835940  0.61159135  1
  O  O301  1  0.25979840  0.74313126  0.11822674  1
  O  O302  1  0.25504132  0.74606262  0.61536153  1
  O  O303  1  0.75409818  0.25522104  0.11447728  1
  O  O304  1  0.76693732  0.24359422  0.62160320  1
  O  O305  1  0.74405989  0.76149405  0.10774762  1
  O  O306  1  0.75922599  0.75884162  0.61342637  1
  O  O307  1  0.24371996  0.24611129  0.38318134  1
  O  O308  1  0.24575960  0.24686161  0.88681973  1
  O  O309  1  0.23757204  0.74522500  0.38190258  1
  O  O310  1  0.24228951  0.74704372  0.88200190  1
  O  O311  1  0.74665503  0.24374872  0.38817606  1
  O  O312  1  0.76364750  0.23336151  0.88529041  1
  O  O313  1  0.73927496  0.75930799  0.38486177  1
  O  O314  1  0.74156172  0.74997471  0.88369294  1
  O  O315  1  0.00330074  0.10738284  0.00056120  1
  O  O316  1  0.00658142  0.12302275  0.50631929  1
  O  O317  1  -0.00429258  0.61276435  0.00944007  1
  O  O318  1  -0.00245945  0.60872597  0.50130404  1
  O  O319  1  0.50037829  0.11871156  0.00977269  1
  O  O320  1  0.50624224  0.11150249  0.49896365  1
  O  O321  1  0.51100332  0.62923571  0.01020040  1
  O  O322  1  0.50028934  0.61945574  0.50462668  1
  O  O323  1  0.49118156  0.38393397  0.50487363  1
  O  O324  1  0.49302963  0.37918329  1.00756886  1
  O  O325  1  0.49705511  0.88460977  0.49831602  1
  O  O326  1  0.48864070  0.88171545  0.99880761  1
  O  O327  1  0.99298704  0.38957226  0.50595732  1
  O  O328  1  0.99623059  0.38457392  0.99222101  1
  O  O329  1  0.98328933  0.87435984  0.49118627  1
  O  O330  1  0.99417237  0.87886100  0.99506838  1
  O  O331  1  0.49736096  0.49434981  0.38912645  1
  O  O332  1  0.49335150  0.50323760  0.87931037  1
  O  O333  1  0.49375458  0.98932684  0.38118309  1
  O  O334  1  0.48245453  0.99832306  0.88683493  1
  O  O335  1  1.00372462  0.50116660  0.38641548  1
  O  O336  1  0.99609878  0.49496733  0.88164783  1
  O  O337  1  0.98385214  0.99123545  0.37653259  1
  O  O338  1  0.99639891  0.99175246  0.88078417  1
  O  O339  1  -0.00469819  -0.00496344  0.10870370  1
  O  O340  1  0.00829268  0.00905820  0.62105007  1
  O  O341  1  0.00912794  0.50348695  0.11747045  1
  O  O342  1  0.01126720  0.50023450  0.62147113  1
  O  O343  1  0.48992397  0.01035301  0.11633298  1
  O  O344  1  0.50466503  0.00107332  0.61657370  1
  O  O345  1  0.51101971  0.50741140  0.12763094  1
  O  O346  1  0.49689566  0.51200911  0.61554421  1
  O  O347  1  0.25444220  0.38379077  0.24257185  1
  O  O348  1  0.25108259  0.39012281  0.75000326  1
  O  O349  1  0.25198140  0.87703205  0.24874979  1
  O  O350  1  0.24552098  0.88522885  0.75237595  1
  O  O351  1  0.73576174  0.37136570  0.24836623  1
  O  O352  1  0.74637991  0.36756095  0.77601049  1
  O  O353  1  0.75233723  0.87164370  0.22752648  1
  O  O354  1  0.75762504  0.88498076  0.74036618  1
  O  O355  1  0.26525309  0.13875596  0.26055339  1
  O  O356  1  0.25965778  0.10888832  0.75136503  1
  O  O357  1  0.24982120  0.61912422  0.26360024  1
  O  O358  1  0.25678148  0.61439997  0.75356928  1
  O  O359  1  0.75322041  0.12978292  0.26320357  1
  O  O360  1  0.77027548  0.10797747  0.75964677  1
  O  O361  1  0.76768591  0.62483186  0.23513925  1
  O  O362  1  0.77064175  0.64087131  0.75974375  1
  O  O363  1  0.37140940  0.12046543  0.37029730  1
  O  O364  1  0.36909687  0.11413774  0.86756243  1
  O  O365  1  0.36324385  0.62552233  0.37539764  1
  O  O366  1  0.37456478  0.61457817  0.87256470  1
  O  O367  1  0.86886994  0.12093679  0.37882806  1
  O  O368  1  0.87664823  0.11337009  0.86946964  1
  O  O369  1  0.88209030  0.62303456  0.35632090  1
  O  O370  1  0.87943767  0.61667358  0.86872767  1
  O  O371  1  0.13650606  0.38676090  0.12159174  1
  O  O372  1  0.12604865  0.38668869  0.63010537  1
  O  O373  1  0.12791221  0.88640138  0.14004809  1
  O  O374  1  0.11774737  0.88776532  0.62736686  1
  O  O375  1  0.62194158  0.38069281  0.13532815  1
  O  O376  1  0.65284291  0.35683507  0.60932371  1
  O  O377  1  0.63394240  0.87507087  0.11798032  1
  O  O378  1  0.63886412  0.87863433  0.61928445  1
  O  O379  1  0.11600373  0.25448711  0.26203281  1
  O  O380  1  0.13587616  0.25039729  0.76764938  1
  O  O381  1  0.12582377  0.74720579  0.26385690  1
  O  O382  1  0.11986473  0.75296879  0.75212758  1
  O  O383  1  0.61910222  0.25676004  0.25863022  1
  O  O384  1  0.61734270  0.23028866  0.75620757  1
  O  O385  1  0.62999260  0.73890813  0.26387311  1
  O  O386  1  0.61301625  0.73750373  0.75914665  1
  O  O387  1  0.38231918  0.24650759  0.24826105  1
  O  O388  1  0.35515422  0.23593836  0.73259074  1
  O  O389  1  0.37031809  0.74772255  0.24016838  1
  O  O390  1  0.37742606  0.74515083  0.74371046  1
  O  O391  1  0.88546944  0.25530429  0.24739149  1
  O  O392  1  0.88090879  0.23566357  0.74127391  1
  O  O393  1  0.87452560  0.73649915  0.24894797  1
  O  O394  1  0.88432940  0.74876186  0.74165432  1
  O  O395  1  0.37844120  0.49285848  0.50235114  1
  O  O396  1  0.36955070  0.49136601  0.99775712  1
  O  O397  1  0.38361644  0.99970181  0.49054282  1
  O  O398  1  0.37492632  0.99219308  0.99639531  1
  O  O399  1  0.88654624  0.49345020  0.49830443  1
  O  O400  1  0.88223892  0.49436702  0.99283150  1
  O  O401  1  0.87696772  0.99129317  0.49710533  1
  O  O402  1  0.88263500  0.99018841  0.98768050  1
  O  O403  1  0.11264643  -0.00981896  -0.00576527  1
  O  O404  1  0.12441720  0.00588585  0.50135417  1
  O  O405  1  0.11741182  0.49770749  0.00805338  1
  O  O406  1  0.11413632  0.50194436  0.51067048  1
  O  O407  1  0.60867686  -0.00058896  -0.00538528  1
  O  O408  1  0.61945333  0.00519748  0.49949018  1
  O  O409  1  0.61387237  0.50229716  0.00115461  1
  O  O410  1  0.61583292  0.50721033  0.50763854  1
  O  O411  1  0.36690780  0.37369980  0.12207321  1
  O  O412  1  0.36712106  0.36473748  0.61559781  1
  O  O413  1  0.37919899  0.86478872  0.11716583  1
  O  O414  1  0.37480888  0.86391913  0.62336593  1
  O  O415  1  0.87298735  0.37802303  0.10984115  1
  O  O416  1  0.88350526  0.36177004  0.62264075  1
  O  O417  1  0.86861193  0.87636140  0.11173459  1
  O  O418  1  0.86962721  0.86692293  0.61772990  1
  O  O419  1  0.13565643  0.13621083  0.37498855  1
  O  O420  1  0.12805349  0.13633177  0.87352178  1
  O  O421  1  0.12651519  0.63640792  0.37835948  1
  O  O422  1  0.12280071  0.63976759  0.87155728  1
  O  O423  1  0.63150319  0.13243703  0.38756472  1
  O  O424  1  0.64606458  0.11251806  0.87932900  1
  O  O425  1  0.61428864  0.63270352  0.38913792  1
  O  O426  1  0.62511921  0.63311007  0.88346296  1
