# generated using pymatgen
data_V85Zn86O256
_symmetry_space_group_name_H-M   'P 1'
_cell_length_a   16.92025616
_cell_length_b   16.93060702
_cell_length_c   16.92776167
_cell_angle_alpha   89.96533158
_cell_angle_beta   89.97636402
_cell_angle_gamma   90.01862090
_symmetry_Int_Tables_number   1
_chemical_formula_structural   V85Zn86O256
_chemical_formula_sum   'V85 Zn86 O256'
_cell_volume   4849.29784699
_cell_formula_units_Z   1
loop_
 _symmetry_equiv_pos_site_id
 _symmetry_equiv_pos_as_xyz
  1  'x, y, z'
loop_
 _atom_site_type_symbol
 _atom_site_label
 _atom_site_symmetry_multiplicity
 _atom_site_fract_x
 _atom_site_fract_y
 _atom_site_fract_z
 _atom_site_occupancy
  V  V0  1  0.50543477  0.75788758  0.74708621  1
  V  V1  1  0.24819484  0.24886719  0.50671165  1
  V  V2  1  0.37952629  0.49655841  0.87487681  1
  V  V3  1  0.61991918  0.62123088  0.49771809  1
  V  V4  1  0.12696764  0.49207492  0.62263015  1
  V  V5  1  0.48791592  0.12390396  0.62937607  1
  V  V6  1  0.74869725  0.49169077  0.75102472  1
  V  V7  1  0.37260424  0.87672771  0.00920186  1
  V  V8  1  0.24467876  0.01063341  0.74630457  1
  V  V9  1  0.24292356  0.48912300  0.23467872  1
  V  V10  1  0.37433203  0.75117808  0.62461961  1
  V  V11  1  0.12756655  0.87228060  0.24197583  1
  V  V12  1  0.25226198  0.75578985  0.01175469  1
  V  V13  1  0.87322648  0.75749549  0.12794991  1
  V  V14  1  0.87406478  0.87684100  0.50013174  1
  V  V15  1  0.25087957  0.62725936  0.87466742  1
  V  V16  1  -0.00763512  0.87980726  0.87467502  1
  V  V17  1  0.62635162  -0.00455732  0.63601670  1
  V  V18  1  0.61984750  0.62542559  -0.00302715  1
  V  V19  1  0.00267135  0.37951361  0.87024035  1
  V  V20  1  0.05758555  0.45621947  0.05602833  1
  V  V21  1  0.87525750  0.74973537  0.62539559  1
  V  V22  1  0.74889379  0.24829294  0.50115512  1
  V  V23  1  0.25110452  0.49316004  0.74510422  1
  V  V24  1  0.87227466  0.11186410  0.75124953  1
  V  V25  1  0.01496022  0.00209933  0.50069158  1
  V  V26  1  0.62613504  0.49991765  0.11955450  1
  V  V27  1  0.12835832  0.25199622  0.36640660  1
  V  V28  1  0.24896123  0.75023021  0.49839870  1
  V  V29  1  -0.00006881  0.24823162  0.74958283  1
  V  V30  1  0.37797389  0.00335080  0.86600096  1
  V  V31  1  -0.00006274  0.87242086  0.36845711  1
  V  V32  1  0.51011604  0.38163300  0.86483365  1
  V  V33  1  0.44415038  0.44249519  0.04957289  1
  V  V34  1  0.50055855  0.24713237  0.75082165  1
  V  V35  1  0.75137193  0.25059573  -0.00442404  1
  V  V36  1  0.62180035  0.24983500  0.37803125  1
  V  V37  1  0.00240666  0.63149584  0.12699601  1
  V  V38  1  0.62747358  0.75836412  0.87032820  1
  V  V39  1  0.87973161  0.62802093  0.25251236  1
  V  V40  1  0.87331322  0.24771344  0.12819327  1
  V  V41  1  0.75321414  0.62128188  0.37546895  1
  V  V42  1  0.75180625  0.11063804  0.87104259  1
  V  V43  1  0.87279013  0.37612829  0.49600657  1
  V  V44  1  0.25600054  -0.00526766  0.25024400  1
  V  V45  1  0.62383977  0.49452664  0.62667123  1
  V  V46  1  0.49631079  0.38913416  0.38409567  1
  V  V47  1  0.37340174  0.63007531  0.24962980  1
  V  V48  1  0.62492383  0.37617587  0.25232118  1
  V  V49  1  0.13233366  0.00154088  0.12233313  1
  V  V50  1  0.87635412  0.62289637  0.75058262  1
  V  V51  1  0.12386091  0.62418563  0.49935445  1
  V  V52  1  0.37558266  0.62709179  0.75025559  1
  V  V53  1  -0.00601612  0.00314409  -0.00053519  1
  V  V54  1  0.62596028  -0.01503760  0.12540947  1
  V  V55  1  0.49963577  0.62144523  0.62084954  1
  V  V56  1  0.12571050  0.75437932  0.87163932  1
  V  V57  1  0.12218876  0.74757826  0.36835943  1
  V  V58  1  0.87524900  0.24696909  0.62552452  1
  V  V59  1  0.50015361  0.87705608  0.37020518  1
  V  V60  1  0.49948588  0.24920327  0.25320440  1
  V  V61  1  0.62340765  0.75353665  0.36518799  1
  V  V62  1  0.74634195  0.87800710  0.63898512  1
  V  V63  1  0.12983806  0.24844088  0.87482106  1
  V  V64  1  0.74902901  0.75655128  0.00504545  1
  V  V65  1  0.37522870  0.12393182  0.25445077  1
  V  V66  1  0.87437830  0.00303180  0.37485452  1
  V  V67  1  0.00238938  0.37517129  0.36985925  1
  V  V68  1  0.62439665  0.12212532  0.50283631  1
  V  V69  1  0.25853318  0.25961071  0.00809553  1
  V  V70  1  0.49366199  0.63665699  0.12216981  1
  V  V71  1  0.37231774  0.87940111  0.49419746  1
  V  V72  1  0.37090982  0.38582266  0.50437202  1
  V  V73  1  0.11996541  0.62754968  0.00071116  1
  V  V74  1  0.49592882  0.00125137  0.49569255  1
  V  V75  1  0.25430814  0.61355788  0.37411152  1
  V  V76  1  0.50368968  0.12626793  0.12424988  1
  V  V77  1  0.74560958  -0.01181518  0.24797203  1
  V  V78  1  0.01189909  0.11995441  0.62131722  1
  V  V79  1  0.75307987  0.50099699  0.25161601  1
  V  V80  1  0.24647723  0.12172016  0.37667313  1
  V  V81  1  0.74864722  0.75094625  0.49968288  1
  V  V82  1  0.87769067  0.50141707  0.88426303  1
  V  V83  1  -0.00474848  0.49931701  0.49624753  1
  V  V84  1  0.24158113  0.87824456  0.62649910  1
  Zn  Zn85  1  0.12218724  0.88026537  0.74726745  1
  Zn  Zn86  1  0.87578764  0.37791240  0.00336680  1
  Zn  Zn87  1  0.63041519  0.25269575  0.86815982  1
  Zn  Zn88  1  0.50010780  0.87770335  0.87035452  1
  Zn  Zn89  1  0.00076103  0.75158786  0.74971313  1
  Zn  Zn90  1  0.49917115  0.00147153  -0.00276059  1
  Zn  Zn91  1  0.37513795  0.25991818  0.12429424  1
  Zn  Zn92  1  0.00052504  0.62463927  0.62449324  1
  Zn  Zn93  1  0.13086507  0.37128723  0.74353334  1
  Zn  Zn94  1  0.74774857  0.12348106  0.37279116  1
  Zn  Zn95  1  0.62587689  0.12378245  -0.00175908  1
  Zn  Zn96  1  0.74383966  0.37006136  0.62914034  1
  Zn  Zn97  1  0.36982957  0.25419078  0.63144820  1
  Zn  Zn98  1  0.87025381  0.88055379  0.00143349  1
  Zn  Zn99  1  0.87382230  0.12434098  0.24971125  1
  Zn  Zn100  1  0.00084490  0.12335114  0.12879817  1
  Zn  Zn101  1  0.75034034  0.37386269  0.12421372  1
  Zn  Zn102  1  0.25951128  0.13049180  0.87585302  1
  Zn  Zn103  1  0.74980537  0.62525175  0.87581731  1
  Zn  Zn104  1  0.00160325  0.24776897  0.25016411  1
  Zn  Zn105  1  0.49493920  0.75879058  0.24458719  1
  Zn  Zn106  1  0.13004484  0.12311716  -0.00087626  1
  Zn  Zn107  1  0.18980505  0.18705192  0.18613513  1
  Zn  Zn108  1  0.18718112  0.18670216  0.68864845  1
  Zn  Zn109  1  0.18582910  0.68326428  0.18858700  1
  Zn  Zn110  1  0.18671890  0.68458297  0.68651545  1
  Zn  Zn111  1  0.69068614  0.18242804  0.18978355  1
  Zn  Zn112  1  0.68326269  0.18563546  0.69019428  1
  Zn  Zn113  1  0.68640843  0.68757615  0.18545482  1
  Zn  Zn114  1  0.68996064  0.68398720  0.68813730  1
  Zn  Zn115  1  0.31474686  0.31249851  0.31559339  1
  Zn  Zn116  1  0.31954099  0.31391920  0.81626670  1
  Zn  Zn117  1  0.31151805  0.80896232  0.31171190  1
  Zn  Zn118  1  0.31271870  0.81754499  0.81401441  1
  Zn  Zn119  1  0.81174097  0.31186252  0.31445216  1
  Zn  Zn120  1  0.81672296  0.31121686  0.81443403  1
  Zn  Zn121  1  0.81288796  0.81069379  0.31174062  1
  Zn  Zn122  1  0.81314960  0.81092976  0.81451413  1
  Zn  Zn123  1  0.18671486  0.43337884  0.43702473  1
  Zn  Zn124  1  0.19545918  0.43336820  0.93084882  1
  Zn  Zn125  1  0.18931388  0.93643396  0.43056692  1
  Zn  Zn126  1  0.18923738  0.93838119  0.93447865  1
  Zn  Zn127  1  0.68690773  0.43859817  0.44008876  1
  Zn  Zn128  1  0.69053208  0.43833116  0.93888465  1
  Zn  Zn129  1  0.68663425  0.93676477  0.44024358  1
  Zn  Zn130  1  0.68561786  0.93692396  0.93929264  1
  Zn  Zn131  1  0.31347861  0.06657679  0.06061955  1
  Zn  Zn132  1  0.30847632  0.06252656  0.56022790  1
  Zn  Zn133  1  0.30513456  0.57035107  0.06581911  1
  Zn  Zn134  1  0.31100979  0.56302098  0.56202779  1
  Zn  Zn135  1  0.80934977  0.06414855  0.06326645  1
  Zn  Zn136  1  0.81308567  0.06084650  0.56390551  1
  Zn  Zn137  1  0.80943211  0.56999452  0.06459559  1
  Zn  Zn138  1  0.81075246  0.56097446  0.56330371  1
  Zn  Zn139  1  0.42634954  0.44016724  0.21942178  1
  Zn  Zn140  1  0.43791903  0.43736448  0.68651262  1
  Zn  Zn141  1  0.43737669  0.94143489  0.18615725  1
  Zn  Zn142  1  0.43315303  0.93907202  0.68311089  1
  Zn  Zn143  1  0.93106298  0.43616099  0.19107984  1
  Zn  Zn144  1  0.93718859  0.43614767  0.68506334  1
  Zn  Zn145  1  0.94062725  0.94081078  0.18770961  1
  Zn  Zn146  1  0.93996171  0.93598689  0.68540304  1
  Zn  Zn147  1  0.06435935  0.06390137  0.31021567  1
  Zn  Zn148  1  0.06167349  0.06370237  0.81310975  1
  Zn  Zn149  1  0.06418763  0.55791223  0.31097997  1
  Zn  Zn150  1  0.06294527  0.56335652  0.81108871  1
  Zn  Zn151  1  0.56465007  0.05996708  0.31237012  1
  Zn  Zn152  1  0.56341839  0.06621021  0.81257779  1
  Zn  Zn153  1  0.56302986  0.56625577  0.30811749  1
  Zn  Zn154  1  0.56348197  0.56695609  0.80939331  1
  Zn  Zn155  1  0.43249673  0.19031064  0.43918924  1
  Zn  Zn156  1  0.43881640  0.19016422  0.93805277  1
  Zn  Zn157  1  0.43617801  0.68861383  0.43599494  1
  Zn  Zn158  1  0.43783303  0.69176426  0.93675528  1
  Zn  Zn159  1  0.94127735  0.18592383  0.43801065  1
  Zn  Zn160  1  0.93584703  0.18519247  0.93807938  1
  Zn  Zn161  1  0.93749675  0.68736058  0.43631243  1
  Zn  Zn162  1  0.93885223  0.69035443  0.93918128  1
  Zn  Zn163  1  0.06394295  0.29430126  0.06137676  1
  Zn  Zn164  1  0.06390826  0.30933469  0.55781090  1
  Zn  Zn165  1  0.06003553  0.81309942  0.06036622  1
  Zn  Zn166  1  0.06034910  0.81310116  0.55772237  1
  Zn  Zn167  1  0.56965077  0.30605955  0.06396924  1
  Zn  Zn168  1  0.55680470  0.31106766  0.56365677  1
  Zn  Zn169  1  0.55776766  0.81417352  0.05513212  1
  Zn  Zn170  1  0.56356758  0.81223983  0.55901110  1
  O  O171  1  0.12321893  0.11472254  0.12396141  1
  O  O172  1  0.11109263  0.12651659  0.62782764  1
  O  O173  1  0.11469364  0.62763427  0.11652886  1
  O  O174  1  0.12195816  0.61657939  0.61657463  1
  O  O175  1  0.61394606  0.11978655  0.12693919  1
  O  O176  1  0.61799943  0.11754175  0.61561755  1
  O  O177  1  0.61464186  0.61723727  0.12053012  1
  O  O178  1  0.61882843  0.62020811  0.61686095  1
  O  O179  1  0.38939151  0.37260211  0.38463123  1
  O  O180  1  0.38796447  0.39010497  0.87582316  1
  O  O181  1  0.38075018  0.86772099  0.38829752  1
  O  O182  1  0.37663296  0.88852315  0.87943905  1
  O  O183  1  0.88158524  0.36775764  0.39002584  1
  O  O184  1  0.88554252  0.38259444  0.87938244  1
  O  O185  1  0.88244255  0.88174666  0.37716662  1
  O  O186  1  0.88845724  0.86947643  0.87819465  1
  O  O187  1  0.24721732  0.00980510  0.36485394  1
  O  O188  1  0.25859166  0.00265295  0.86242748  1
  O  O189  1  0.24452049  0.51238329  0.37627398  1
  O  O190  1  0.25993628  0.50730813  0.86888447  1
  O  O191  1  0.75591377  -0.00194791  0.36750011  1
  O  O192  1  0.74992011  0.01160725  0.87833865  1
  O  O193  1  0.74206062  0.51283639  0.36738946  1
  O  O194  1  0.75827111  0.50284356  0.86782345  1
  O  O195  1  0.24951689  0.50011612  0.13443360  1
  O  O196  1  0.24091310  0.50584307  0.63383674  1
  O  O197  1  0.24046274  1.00336312  0.13307812  1
  O  O198  1  0.25624507  0.99412057  0.63780833  1
  O  O199  1  0.74183449  0.50084582  0.13255628  1
  O  O200  1  0.74226018  0.49756874  0.63274106  1
  O  O201  1  0.73701330  1.00186454  0.13428606  1
  O  O202  1  0.73989989  0.98958769  0.61891566  1
  O  O203  1  -0.00871252  0.37470440  0.26676080  1
  O  O204  1  0.00155712  0.36749997  0.75573831  1
  O  O205  1  0.00931743  0.88102313  0.26233431  1
  O  O206  1  0.00370354  0.87370009  0.75729300  1
  O  O207  1  0.50440873  0.37078854  0.26435705  1
  O  O208  1  0.50117425  0.37264705  0.76070529  1
  O  O209  1  0.49121609  0.87778193  0.26595054  1
  O  O210  1  0.49436574  0.86108677  0.74467040  1
  O  O211  1  0.49385777  0.12811621  0.24835859  1
  O  O212  1  0.50067807  0.13201296  0.74071753  1
  O  O213  1  0.49097680  0.62450324  0.24022897  1
  O  O214  1  0.49380305  0.63539165  0.74111362  1
  O  O215  1  0.99341971  0.12725083  0.24904866  1
  O  O216  1  0.99244585  0.12919001  0.74364208  1
  O  O217  1  0.99006620  0.61762863  0.24263983  1
  O  O218  1  0.98847436  0.62617992  0.74645889  1
  O  O219  1  0.36419646  0.24974594  0.00351956  1
  O  O220  1  0.36314877  0.25827788  0.50183817  1
  O  O221  1  0.36608424  0.76469189  -0.00766919  1
  O  O222  1  0.36865515  0.75680428  0.50649647  1
  O  O223  1  0.86651534  0.25165158  0.00662175  1
  O  O224  1  0.86921060  0.25255331  0.50669258  1
  O  O225  1  0.86552632  0.74757451  0.00922820  1
  O  O226  1  0.86959918  0.75446495  0.50655182  1
  O  O227  1  0.14198136  0.25560618  0.49017823  1
  O  O228  1  0.13723579  0.24704137  0.99118668  1
  O  O229  1  0.12867733  0.74471001  0.49079929  1
  O  O230  1  0.13047776  0.74566111  0.99033051  1
  O  O231  1  0.62776168  0.24198956  0.49876930  1
  O  O232  1  0.63949053  0.24562871  0.99740052  1
  O  O233  1  0.63012124  0.73881821  0.49308029  1
  O  O234  1  0.62979582  0.74509678  0.99314205  1
  O  O235  1  0.49953539  0.24365269  0.13356145  1
  O  O236  1  0.49841320  0.23964624  0.63119844  1
  O  O237  1  0.50591816  0.74055605  0.12743202  1
  O  O238  1  0.49704286  0.74174754  0.62802454  1
  O  O239  1  0.98953185  0.24645951  0.12877090  1
  O  O240  1  0.99356909  0.24212293  0.62602362  1
  O  O241  1  0.99206814  0.73806077  0.12099768  1
  O  O242  1  0.98689600  0.75026306  0.62426355  1
  O  O243  1  0.01029945  0.25619077  0.37736715  1
  O  O244  1  0.00620719  0.26100292  0.87339273  1
  O  O245  1  0.00902794  0.75991529  0.38018137  1
  O  O246  1  0.00913900  0.75793785  0.87477044  1
  O  O247  1  0.50608572  0.25580394  0.37235436  1
  O  O248  1  0.50140488  0.26348792  0.87028867  1
  O  O249  1  0.50741575  0.75863272  0.37461373  1
  O  O250  1  0.50771896  0.75105091  0.86360766  1
  O  O251  1  0.25653938  0.13707691  0.49017024  1
  O  O252  1  0.24900929  0.13634978  0.99565966  1
  O  O253  1  0.24435363  0.63056356  0.49315610  1
  O  O254  1  0.23968737  0.63272173  0.99327002  1
  O  O255  1  0.74024680  0.12897956  0.49896667  1
  O  O256  1  0.75189759  0.13079313  0.98681123  1
  O  O257  1  0.74526804  0.62971070  0.49206033  1
  O  O258  1  0.73624600  0.63521087  0.99987532  1
  O  O259  1  0.25016960  0.35917357  -0.00341065  1
  O  O260  1  0.26299382  0.36418132  0.49251805  1
  O  O261  1  0.26123473  0.86875944  -0.00501838  1
  O  O262  1  0.25509660  0.87258573  0.50386952  1
  O  O263  1  0.75352988  0.36616972  0.00218156  1
  O  O264  1  0.75669783  0.36884156  0.50309217  1
  O  O265  1  0.75208377  0.86204284  -0.00321551  1
  O  O266  1  0.75668210  0.86725315  0.50432655  1
  O  O267  1  0.14333653  0.50338479  0.25243032  1
  O  O268  1  0.13342204  0.50025751  0.74145421  1
  O  O269  1  0.13384876  0.99185093  0.24369948  1
  O  O270  1  0.14092444  0.99975708  0.75377768  1
  O  O271  1  0.63226403  0.49862409  0.23962556  1
  O  O272  1  0.63686816  0.50979348  0.73996974  1
  O  O273  1  0.63536810  1.00049579  0.24106506  1
  O  O274  1  0.61878112  1.00085168  0.73504056  1
  O  O275  1  0.36362891  0.00676911  0.24682092  1
  O  O276  1  0.36607439  -0.00431089  0.75964943  1
  O  O277  1  0.35798074  0.51854426  0.25449643  1
  O  O278  1  0.37023416  0.50632086  0.75560243  1
  O  O279  1  0.86530063  -0.00138782  0.25635254  1
  O  O280  1  0.87599030  0.01294743  0.74233590  1
  O  O281  1  0.86037967  0.51061637  0.24565054  1
  O  O282  1  0.87068527  0.50536253  0.75619009  1
  O  O283  1  0.11440711  0.36580381  0.37952393  1
  O  O284  1  0.11920803  0.36671298  0.87058156  1
  O  O285  1  0.11890464  0.86684915  0.36666041  1
  O  O286  1  0.11807482  0.86728683  0.87311286  1
  O  O287  1  0.61472805  0.37060040  0.37575016  1
  O  O288  1  0.61288033  0.37727865  0.87852973  1
  O  O289  1  0.61381127  0.86464378  0.38470313  1
  O  O290  1  0.62129334  0.86274103  0.87756876  1
  O  O291  1  0.38805251  0.12313755  0.13609574  1
  O  O292  1  0.38574025  0.12647609  0.62005078  1
  O  O293  1  0.38491530  0.62238266  0.13058684  1
  O  O294  1  0.38234915  0.63022018  0.62725307  1
  O  O295  1  0.87520485  0.13645284  0.12512327  1
  O  O296  1  0.87847467  0.13407556  0.62990408  1
  O  O297  1  0.88127140  0.63266537  0.13221616  1
  O  O298  1  0.87515863  0.63249261  0.63087186  1
  O  O299  1  0.25314614  0.25151554  0.11372314  1
  O  O300  1  0.24962406  0.24586246  0.61136133  1
  O  O301  1  0.24458177  0.74572214  0.11047658  1
  O  O302  1  0.25443368  0.75608271  0.61929003  1
  O  O303  1  0.75529618  0.24948657  0.11739627  1
  O  O304  1  0.75611183  0.24988822  0.62054711  1
  O  O305  1  0.75817231  0.74495578  0.11745942  1
  O  O306  1  0.75846170  0.75394708  0.62059177  1
  O  O307  1  0.24563955  0.24396584  0.38067002  1
  O  O308  1  0.24606252  0.25057251  0.87955358  1
  O  O309  1  0.24025182  0.74327084  0.38150670  1
  O  O310  1  0.24290054  0.74544473  0.87878479  1
  O  O311  1  0.73995229  0.24831521  0.38329514  1
  O  O312  1  0.75022578  0.24612547  0.88155198  1
  O  O313  1  0.74229642  0.74205866  0.37837795  1
  O  O314  1  0.74309025  0.74581116  0.88090909  1
  O  O315  1  0.00601084  0.11660294  0.00031211  1
  O  O316  1  -0.00374413  0.11364784  0.50866537  1
  O  O317  1  0.01213864  0.62591573  0.00550159  1
  O  O318  1  0.00435523  0.61608792  0.49945099  1
  O  O319  1  0.50292174  0.12339116  0.00957478  1
  O  O320  1  0.50350661  0.11824652  0.50451907  1
  O  O321  1  0.51076501  0.63138654  0.00602084  1
  O  O322  1  0.50745813  0.62972331  0.50786266  1
  O  O323  1  0.48926866  0.37266454  0.49070804  1
  O  O324  1  0.50229723  0.37850386  0.99401366  1
  O  O325  1  0.49167027  0.88178483  0.49466528  1
  O  O326  1  0.48584928  0.87813176  0.99339114  1
  O  O327  1  0.99256471  0.37998841  0.49403472  1
  O  O328  1  1.00352901  0.38530336  0.99574377  1
  O  O329  1  0.99413780  0.88226541  0.49022393  1
  O  O330  1  0.99855267  0.88299481  0.99192224  1
  O  O331  1  0.50570083  0.48771091  0.37268300  1
  O  O332  1  0.49664921  0.49217931  0.86980394  1
  O  O333  1  0.50526600  0.99319416  0.38753763  1
  O  O334  1  0.49110345  0.99810348  0.87327149  1
  O  O335  1  1.00483918  0.49217943  0.38824032  1
  O  O336  1  0.99428127  0.48832287  0.86824508  1
  O  O337  1  0.99347298  0.99385740  0.38062594  1
  O  O338  1  1.00718171  0.99161798  0.88527370  1
  O  O339  1  0.01294162  -0.00052032  0.11766579  1
  O  O340  1  -0.00461508  0.00646883  0.61237955  1
  O  O341  1  -0.00726171  0.50907812  0.11881234  1
  O  O342  1  0.00638520  0.50056464  0.61380315  1
  O  O343  1  0.51249637  0.00658035  0.12638339  1
  O  O344  1  0.50409918  0.00453530  0.61545572  1
  O  O345  1  0.50198296  0.50159526  0.11603194  1
  O  O346  1  0.50735964  0.51394732  0.63224828  1
  O  O347  1  0.26143740  0.39063097  0.25278588  1
  O  O348  1  0.25165081  0.38944370  0.75552682  1
  O  O349  1  0.24167384  0.88363771  0.25759765  1
  O  O350  1  0.24810015  0.88391722  0.74091140  1
  O  O351  1  0.74322000  0.38517165  0.25234698  1
  O  O352  1  0.75707729  0.38718849  0.74813470  1
  O  O353  1  0.75094082  0.88833340  0.25347110  1
  O  O354  1  0.75218844  0.87050331  0.73816291  1
  O  O355  1  0.25769121  0.11862861  0.25523740  1
  O  O356  1  0.25285538  0.11400436  0.75072516  1
  O  O357  1  0.25476517  0.62266626  0.25753852  1
  O  O358  1  0.25662920  0.61753685  0.75558951  1
  O  O359  1  0.75323996  0.11105610  0.25542033  1
  O  O360  1  0.75675879  0.12886807  0.76211239  1
  O  O361  1  0.75446286  0.61970409  0.25675354  1
  O  O362  1  0.76285635  0.61551200  0.75092732  1
  O  O363  1  0.36626769  0.13097547  0.36195468  1
  O  O364  1  0.37774568  0.10781665  0.88019108  1
  O  O365  1  0.36412283  0.63077383  0.36870471  1
  O  O366  1  0.37410237  0.61554309  0.87180537  1
  O  O367  1  0.87318184  0.11106795  0.37797802  1
  O  O368  1  0.86339639  0.12898414  0.86465138  1
  O  O369  1  0.86492248  0.63028730  0.36677592  1
  O  O370  1  0.87641479  0.61872093  0.86810992  1
  O  O371  1  0.10611883  0.39255503  0.11325914  1
  O  O372  1  0.12164012  0.38728933  0.62400313  1
  O  O373  1  0.12002700  0.87795603  0.13736461  1
  O  O374  1  0.13795692  0.86884026  0.62388716  1
  O  O375  1  0.62530704  0.38422838  0.13244054  1
  O  O376  1  0.62217319  0.39088183  0.61683663  1
  O  O377  1  0.61812422  0.88629976  0.12485148  1
  O  O378  1  0.63405095  0.88243011  0.61728853  1
  O  O379  1  0.12642907  0.24974583  0.26168312  1
  O  O380  1  0.11970073  0.25288030  0.75565863  1
  O  O381  1  0.12956175  0.75622210  0.26024062  1
  O  O382  1  0.12400019  0.74923385  0.76055482  1
  O  O383  1  0.62097085  0.25635279  0.25766654  1
  O  O384  1  0.61011034  0.25065598  0.75042140  1
  O  O385  1  0.62109035  0.74500105  0.26204450  1
  O  O386  1  0.61790618  0.74176344  0.75754916  1
  O  O387  1  0.38141394  0.24395841  0.24534281  1
  O  O388  1  0.39051392  0.25810363  0.74698228  1
  O  O389  1  0.37627239  0.73790099  0.25051742  1
  O  O390  1  0.37968316  0.74549513  0.74431234  1
  O  O391  1  0.87278162  0.24794655  0.24181849  1
  O  O392  1  0.88155882  0.24464429  0.74118706  1
  O  O393  1  0.86943996  0.73747525  0.24305332  1
  O  O394  1  0.87548275  0.74084207  0.74264240  1
  O  O395  1  0.36793592  0.48540480  0.49994166  1
  O  O396  1  0.37744324  0.50210436  0.99595022  1
  O  O397  1  0.38283077  0.99155090  0.50328530  1
  O  O398  1  0.37286669  0.99061668  0.99019945  1
  O  O399  1  0.88239258  0.48944882  0.50649065  1
  O  O400  1  0.86846979  0.50359934  0.98728855  1
  O  O401  1  0.87773855  0.99313002  0.49113323  1
  O  O402  1  0.88901094  0.99813092  1.01020849  1
  O  O403  1  0.12164908  -0.00099266  0.00796406  1
  O  O404  1  0.11415344  -0.00535457  0.49490437  1
  O  O405  1  0.12679082  0.50727670  -0.00450664  1
  O  O406  1  0.11978903  0.50404753  0.50575292  1
  O  O407  1  0.62402602  0.00193232  0.01381200  1
  O  O408  1  0.61671362  0.00706713  0.50561579  1
  O  O409  1  0.63132938  0.50920015  0.01130066  1
  O  O410  1  0.63097632  0.51466712  0.50813506  1
  O  O411  1  0.39438242  0.38522962  0.11788824  1
  O  O412  1  0.38207658  0.37356662  0.60890890  1
  O  O413  1  0.37708398  0.88057935  0.10877996  1
  O  O414  1  0.36480775  0.87037372  0.61437514  1
  O  O415  1  0.87232375  0.36422647  0.12256370  1
  O  O416  1  0.87574951  0.36166175  0.61570060  1
  O  O417  1  0.88351685  0.86049999  0.12574733  1
  O  O418  1  0.86820225  0.86758080  0.62062177  1
  O  O419  1  0.13876673  0.13256142  0.37152031  1
  O  O420  1  0.12664938  0.14009931  0.87266235  1
  O  O421  1  0.12898954  0.63217691  0.37926514  1
  O  O422  1  0.12776931  0.63225621  0.88115277  1
  O  O423  1  0.62277579  0.12947995  0.38809230  1
  O  O424  1  0.63889617  0.12756326  0.87554918  1
  O  O425  1  0.62934750  0.63120244  0.38073929  1
  O  O426  1  0.62488095  0.63349924  0.88325344  1
