# generated using pymatgen
data_V85Zn86O256
_symmetry_space_group_name_H-M   'P 1'
_cell_length_a   16.95310707
_cell_length_b   16.94830744
_cell_length_c   16.95688191
_cell_angle_alpha   89.96133091
_cell_angle_beta   90.07761454
_cell_angle_gamma   90.05096143
_symmetry_Int_Tables_number   1
_chemical_formula_structural   V85Zn86O256
_chemical_formula_sum   'V85 Zn86 O256'
_cell_volume   4872.15353117
_cell_formula_units_Z   1
loop_
 _symmetry_equiv_pos_site_id
 _symmetry_equiv_pos_as_xyz
  1  'x, y, z'
loop_
 _atom_site_type_symbol
 _atom_site_label
 _atom_site_symmetry_multiplicity
 _atom_site_fract_x
 _atom_site_fract_y
 _atom_site_fract_z
 _atom_site_occupancy
  V  V0  1  0.25547364  0.01407480  0.75054356  1
  V  V1  1  0.61858144  0.37199420  0.74821298  1
  V  V2  1  0.51022718  0.62682850  0.13304287  1
  V  V3  1  0.24596602  0.37971747  0.62518035  1
  V  V4  1  0.74495363  0.37688619  0.62195456  1
  V  V5  1  0.75185944  0.12139492  0.37726888  1
  V  V6  1  0.75122789  0.74869745  0.49713291  1
  V  V7  1  0.25141926  0.51024807  0.74512801  1
  V  V8  1  0.61948369  0.24600896  0.86747780  1
  V  V9  1  0.75131708  0.87535396  0.62216038  1
  V  V10  1  0.61396020  0.50155632  0.62372196  1
  V  V11  1  0.75515060  0.49957277  0.24348011  1
  V  V12  1  0.24400152  0.62945520  0.87761084  1
  V  V13  1  0.75317962  0.00083919  0.74675836  1
  V  V14  1  0.61539445  0.24772808  0.37088895  1
  V  V15  1  0.75651502  0.62276376  0.36829468  1
  V  V16  1  0.00300381  -0.01461056  -0.00352105  1
  V  V17  1  0.87189036  0.25430128  0.11060890  1
  V  V18  1  0.87281549  0.37702056  0.49801567  1
  V  V19  1  0.74248710  0.24797738  0.49707375  1
  V  V20  1  0.00055926  0.87442366  0.37693840  1
  V  V21  1  0.75364959  0.77045158  0.00283247  1
  V  V22  1  0.62702724  0.12799577  0.00049458  1
  V  V23  1  0.24506200  0.75329120  0.00272512  1
  V  V24  1  0.00169663  0.12495343  0.62451605  1
  V  V25  1  0.87625031  0.87565829  0.49928042  1
  V  V26  1  0.12259595  0.24916488  0.37390664  1
  V  V27  1  -0.00898971  0.24804005  0.24901976  1
  V  V28  1  0.25315726  0.26152084  0.01206064  1
  V  V29  1  0.37429386  0.11618714  0.24505324  1
  V  V30  1  0.13007220  0.37485523  0.24536007  1
  V  V31  1  0.75113836  0.13118854  0.87365485  1
  V  V32  1  -0.00294612  0.49144149  0.00349621  1
  V  V33  1  0.00281947  0.12264394  0.12725792  1
  V  V34  1  0.13671280  0.00089654  0.12765099  1
  V  V35  1  -0.00113277  0.37531585  0.37482720  1
  V  V36  1  0.00255382  0.49938217  0.50304811  1
  V  V37  1  0.63125620  0.37470678  0.24452849  1
  V  V38  1  0.87562109  0.76167264  0.12295697  1
  V  V39  1  0.50126631  0.01201094  0.48996633  1
  V  V40  1  0.12641126  0.62291434  0.50715895  1
  V  V41  1  0.88051418  -0.01330928  0.87528302  1
  V  V42  1  0.00004438  0.00026810  0.50075001  1
  V  V43  1  0.74857532  0.62557591  0.88183918  1
  V  V44  1  0.25172857  0.24551789  0.50230904  1
  V  V45  1  0.50182067  -0.00972271  -0.00140472  1
  V  V46  1  0.87529514  0.62415861  0.75140268  1
  V  V47  1  0.00193083  0.62134462  0.62948846  1
  V  V48  1  0.13332224  0.87755884  0.75969780  1
  V  V49  1  0.75100300  0.37606177  0.10757666  1
  V  V50  1  0.49076905  0.64129092  0.63507501  1
  V  V51  1  0.13580078  0.50043810  0.12388805  1
  V  V52  1  0.44397560  0.29923061  0.18532245  1
  V  V53  1  0.81729556  0.06711992  0.20007136  1
  V  V54  1  0.62554428  0.86891675  0.75028328  1
  V  V55  1  -0.00409563  0.74236539  0.25185498  1
  V  V56  1  0.49674237  0.12498943  0.63136001  1
  V  V57  1  0.62336731  0.62587828  0.49892502  1
  V  V58  1  0.87316158  0.49093828  0.88063068  1
  V  V59  1  0.74766140  0.50162619  0.74833042  1
  V  V60  1  0.46830773  0.84931638  0.84107498  1
  V  V61  1  0.00322384  0.25221013  0.75070405  1
  V  V62  1  0.25138592  0.11862227  0.37060203  1
  V  V63  1  0.12787911  0.12729475  -0.00522175  1
  V  V64  1  0.50060645  0.12080053  0.12979670  1
  V  V65  1  0.37720235  0.74707694  0.13449820  1
  V  V66  1  0.87716910  0.12463374  0.75018825  1
  V  V67  1  0.62692717  0.00695881  0.61518656  1
  V  V68  1  0.13364707  0.87844740  0.25242341  1
  V  V69  1  0.62244232  0.74759572  0.36158933  1
  V  V70  1  0.64079651  0.88462828  0.24613138  1
  V  V71  1  0.49158937  0.37164672  0.87112395  1
  V  V72  1  0.37399588  0.50797842  0.87311126  1
  V  V73  1  0.87707149  0.74880390  0.62608611  1
  V  V74  1  0.50595263  0.50456768  -0.00029210  1
  V  V75  1  0.25505533  0.75719347  0.51553681  1
  V  V76  1  0.37570034  0.38267305  0.49535894  1
  V  V77  1  0.12502160  0.12576445  0.50017518  1
  V  V78  1  0.50134938  0.87251236  0.36833023  1
  V  V79  1  0.87242848  0.25134270  0.62402261  1
  V  V80  1  0.12271503  0.38570390  0.74912879  1
  V  V81  1  -0.00750651  0.62012982  0.12916105  1
  V  V82  1  0.00436058  0.75653993  0.76853043  1
  V  V83  1  0.25608043  0.61826111  0.37574765  1
  V  V84  1  0.12762185  0.74895515  0.37784884  1
  Zn  Zn85  1  0.62184709  0.75107165  0.87696743  1
  Zn  Zn86  1  0.37123315  0.37855488  0.00855225  1
  Zn  Zn87  1  0.37740531  0.00768785  0.87596880  1
  Zn  Zn88  1  0.12929243  0.25508195  0.87496541  1
  Zn  Zn89  1  -0.00328679  0.37202281  0.88003686  1
  Zn  Zn90  1  0.37845828  0.87093823  0.49713491  1
  Zn  Zn91  1  0.37415524  0.87818938  0.00795499  1
  Zn  Zn92  1  0.38567647  0.62307686  0.26125035  1
  Zn  Zn93  1  0.43325975  0.18581191  0.79232220  1
  Zn  Zn94  1  0.87288898  0.00348488  0.37077859  1
  Zn  Zn95  1  0.25609685  0.49389799  0.25262328  1
  Zn  Zn96  1  0.26450751  0.13474830  0.87674250  1
  Zn  Zn97  1  0.63673066  -0.00306391  0.12375312  1
  Zn  Zn98  1  0.49060405  0.50872952  0.48942362  1
  Zn  Zn99  1  0.62818915  0.62587454  0.00234879  1
  Zn  Zn100  1  0.36996616  -0.00571545  0.37079233  1
  Zn  Zn101  1  0.12076745  0.62751476  -0.00131961  1
  Zn  Zn102  1  0.87817572  0.50396542  0.36945529  1
  Zn  Zn103  1  0.49547780  0.37814739  0.36872222  1
  Zn  Zn104  1  0.13216799  -0.01146053  0.62336898  1
  Zn  Zn105  1  0.37600965  0.24819794  0.62960453  1
  Zn  Zn106  1  0.25561747  0.87736696  0.13103130  1
  Zn  Zn107  1  0.18722180  0.18800397  0.18866937  1
  Zn  Zn108  1  0.18719742  0.18864542  0.68659890  1
  Zn  Zn109  1  0.18505508  0.68632894  0.18802501  1
  Zn  Zn110  1  0.18176893  0.69011521  0.69259015  1
  Zn  Zn111  1  0.68315541  0.19754065  0.18263847  1
  Zn  Zn112  1  0.68457344  0.18684093  0.68694028  1
  Zn  Zn113  1  0.69371816  0.69039370  0.18548785  1
  Zn  Zn114  1  0.68679716  0.68610552  0.68610959  1
  Zn  Zn115  1  0.30892403  0.30944581  0.31661755  1
  Zn  Zn116  1  0.30703302  0.31631591  0.81495461  1
  Zn  Zn117  1  0.31357697  0.80661588  0.31635189  1
  Zn  Zn118  1  0.30270468  0.81727365  0.81980950  1
  Zn  Zn119  1  0.81143813  0.31083868  0.31064843  1
  Zn  Zn120  1  0.80906837  0.31196011  0.80974877  1
  Zn  Zn121  1  0.81598507  0.81068032  0.31226755  1
  Zn  Zn122  1  0.81056800  0.80834370  0.81123123  1
  Zn  Zn123  1  0.18357077  0.43610381  0.44076545  1
  Zn  Zn124  1  0.18531802  0.43855206  0.93613091  1
  Zn  Zn125  1  0.18705043  0.93795897  0.44038652  1
  Zn  Zn126  1  0.19042515  0.93824461  0.93531806  1
  Zn  Zn127  1  0.68091454  0.43891318  0.43238012  1
  Zn  Zn128  1  0.68272709  0.43773675  0.93222064  1
  Zn  Zn129  1  0.68679190  0.93702723  0.43387535  1
  Zn  Zn130  1  0.68638783  0.94334992  0.93121857  1
  Zn  Zn131  1  0.31540923  0.06801420  0.06041896  1
  Zn  Zn132  1  0.35805178  0.00383602  0.61524246  1
  Zn  Zn133  1  0.31792696  0.56663159  0.06071561  1
  Zn  Zn134  1  0.31265799  0.56565496  0.56527502  1
  Zn  Zn135  1  0.81684525  0.06425458  0.03927720  1
  Zn  Zn136  1  0.81347602  0.06472761  0.55868462  1
  Zn  Zn137  1  0.81557334  0.56282654  0.06474487  1
  Zn  Zn138  1  0.81160187  0.56131676  0.56095721  1
  Zn  Zn139  1  0.43783023  0.46219046  0.19139930  1
  Zn  Zn140  1  0.43076202  0.43554621  0.68731365  1
  Zn  Zn141  1  0.44457267  0.93629735  0.18799142  1
  Zn  Zn142  1  0.43190513  0.82533202  0.67060820  1
  Zn  Zn143  1  0.93475633  0.43329894  0.18636423  1
  Zn  Zn144  1  0.93488098  0.43821067  0.68766702  1
  Zn  Zn145  1  0.95206755  0.93242040  0.18574511  1
  Zn  Zn146  1  0.94268300  0.93483848  0.68777357  1
  Zn  Zn147  1  0.06162277  0.06215958  0.31176277  1
  Zn  Zn148  1  0.06541424  0.05937761  0.81387873  1
  Zn  Zn149  1  0.06726959  0.56097068  0.31410058  1
  Zn  Zn150  1  0.06223356  0.56161270  0.81628064  1
  Zn  Zn151  1  0.56770055  0.06426553  0.30807302  1
  Zn  Zn152  1  0.56304043  0.04687589  0.81258446  1
  Zn  Zn153  1  0.56829669  0.55528430  0.31160226  1
  Zn  Zn154  1  0.56127474  0.56466899  0.81192860  1
  Zn  Zn155  1  0.43378860  0.18796764  0.43835004  1
  Zn  Zn156  1  0.43655780  0.18984418  0.95770582  1
  Zn  Zn157  1  0.43927114  0.69163795  0.44245241  1
  Zn  Zn158  1  0.43128225  0.68852699  0.94591499  1
  Zn  Zn159  1  0.93125206  0.18667264  0.43577444  1
  Zn  Zn160  1  0.94303758  0.18053208  0.93525744  1
  Zn  Zn161  1  0.93845260  0.68638206  0.43875217  1
  Zn  Zn162  1  0.93156035  0.68033026  0.94466731  1
  Zn  Zn163  1  0.06494297  0.31236177  0.06441772  1
  Zn  Zn164  1  0.06467976  0.31338455  0.56508632  1
  Zn  Zn165  1  0.06611996  0.81055018  0.06736087  1
  Zn  Zn166  1  0.06582211  0.81043099  0.56995379  1
  Zn  Zn167  1  0.57241977  0.31797650  0.04991033  1
  Zn  Zn168  1  0.55981175  0.30968848  0.55870321  1
  Zn  Zn169  1  0.56864980  0.80702880  0.06925354  1
  Zn  Zn170  1  0.56733395  0.81831308  0.55316246  1
  O  O171  1  0.11897697  0.11929943  0.11933043  1
  O  O172  1  0.11486403  0.12753872  0.61627969  1
  O  O173  1  0.11275491  0.61527602  0.12706569  1
  O  O174  1  0.11640301  0.62881306  0.61514416  1
  O  O175  1  0.62157273  0.12597342  0.11601062  1
  O  O176  1  0.62203483  0.11246042  0.62597450  1
  O  O177  1  0.61339827  0.63422344  0.12244683  1
  O  O178  1  0.61933341  0.62015359  0.61682894  1
  O  O179  1  0.37466196  0.36670376  0.39163993  1
  O  O180  1  0.37993771  0.38799250  0.87836216  1
  O  O181  1  0.38431206  0.87507991  0.37617438  1
  O  O182  1  0.37550180  0.88413335  0.88809465  1
  O  O183  1  0.88125295  0.37469970  0.38210983  1
  O  O184  1  0.87399119  0.38714833  0.86781895  1
  O  O185  1  0.88302331  0.87750649  0.38142236  1
  O  O186  1  0.86912999  0.88844911  0.86735472  1
  O  O187  1  0.24979981  0.01473130  0.38143734  1
  O  O188  1  0.25118067  0.00993154  0.86821336  1
  O  O189  1  0.24092166  0.51635559  0.38108325  1
  O  O190  1  0.25603407  0.50632586  0.86914801  1
  O  O191  1  0.75083138  0.01586007  0.38082734  1
  O  O192  1  0.75789552  0.01181809  0.86702980  1
  O  O193  1  0.75081632  0.50737414  0.36655505  1
  O  O194  1  0.75401672  0.50565539  0.86893169  1
  O  O195  1  0.23831240  0.50827579  0.12552215  1
  O  O196  1  0.25205520  0.49494993  0.63373924  1
  O  O197  1  0.23954126  1.00166019  0.12269140  1
  O  O198  1  0.24417528  1.01133966  0.64476694  1
  O  O199  1  0.75577604  0.48653513  0.12877670  1
  O  O200  1  0.73810351  0.49699453  0.62846920  1
  O  O201  1  0.76063312  1.01601586  0.13203272  1
  O  O202  1  0.74624465  0.99605729  0.62541263  1
  O  O203  1  0.00666273  0.36803685  0.25558739  1
  O  O204  1  0.00608231  0.36921077  0.74666954  1
  O  O205  1  0.01183066  0.86508135  0.25961382  1
  O  O206  1  -0.00176088  0.85936357  0.75465139  1
  O  O207  1  0.50423673  0.36794304  0.24043785  1
  O  O208  1  0.50465106  0.38426688  0.76280206  1
  O  O209  1  0.51365425  0.88091261  0.26330746  1
  O  O210  1  0.51953058  0.88435775  0.74557707  1
  O  O211  1  0.49578827  0.12501456  0.23760034  1
  O  O212  1  0.50744028  0.11646791  0.73603577  1
  O  O213  1  0.50578446  0.62122892  0.23700226  1
  O  O214  1  0.50661068  0.62840947  0.73321333  1
  O  O215  1  1.00501201  0.13223910  0.23686412  1
  O  O216  1  0.99815121  0.13242685  0.74423736  1
  O  O217  1  1.00539849  0.63236924  0.24611575  1
  O  O218  1  0.99820019  0.63126367  0.74503224  1
  O  O219  1  0.35928414  0.25858789  0.00531994  1
  O  O220  1  0.36513771  0.25657299  0.50625659  1
  O  O221  1  0.36383141  0.75273522  0.01572332  1
  O  O222  1  0.35840843  0.75071593  0.50017720  1
  O  O223  1  0.88096696  0.23917101  0.01232089  1
  O  O224  1  0.86611608  0.25749733  0.50558309  1
  O  O225  1  0.86285535  0.74869389  0.00704833  1
  O  O226  1  0.87129405  0.75551628  0.50513469  1
  O  O227  1  0.12886669  0.24650746  0.49350738  1
  O  O228  1  0.12991905  0.24419853  0.99894313  1
  O  O229  1  0.12925106  0.74315975  0.49595575  1
  O  O230  1  0.13987316  0.74482488  1.01154762  1
  O  O231  1  0.63679384  0.25815415  0.48925946  1
  O  O232  1  0.61965472  0.23627334  0.98291126  1
  O  O233  1  0.63350320  0.74233301  0.49112388  1
  O  O234  1  0.64321236  0.74961566  0.99974611  1
  O  O235  1  0.50347113  0.24606475  0.11991390  1
  O  O236  1  0.50300489  0.22823173  0.61585773  1
  O  O237  1  0.48914911  0.73802814  0.12040234  1
  O  O238  1  0.50402158  0.74613369  0.62007536  1
  O  O239  1  0.99411284  0.24231672  0.13004401  1
  O  O240  1  0.99439497  0.24677034  0.63378667  1
  O  O241  1  0.99727101  0.74137848  0.13354075  1
  O  O242  1  0.99361711  0.73721301  0.63127160  1
  O  O243  1  0.00231808  0.25281769  0.36758735  1
  O  O244  1  -0.00179172  0.25174249  0.86085876  1
  O  O245  1  0.00949853  0.75082615  0.37170700  1
  O  O246  1  -0.00634917  0.74019766  0.86544605  1
  O  O247  1  0.51236445  0.25480685  0.38194405  1
  O  O248  1  0.50212369  0.25619765  0.87513334  1
  O  O249  1  0.51174117  0.75761148  0.38027956  1
  O  O250  1  0.50486375  0.76777079  0.89552939  1
  O  O251  1  0.24263974  0.13815676  0.49185296  1
  O  O252  1  0.24230043  0.13639556  1.00003361  1
  O  O253  1  0.24234137  0.63174354  0.49606393  1
  O  O254  1  0.24878749  0.63179549  0.99350843  1
  O  O255  1  0.75370314  0.13784353  0.49194002  1
  O  O256  1  0.74023762  0.12550442  0.98575176  1
  O  O257  1  0.74098691  0.62820269  0.49383027  1
  O  O258  1  0.74930266  0.62310215  0.99040808  1
  O  O259  1  0.24827644  0.36664922  0.00158904  1
  O  O260  1  0.25408378  0.36802346  0.50464011  1
  O  O261  1  0.25018703  0.86809167  0.00773397  1
  O  O262  1  0.24594026  0.85915559  0.49763478  1
  O  O263  1  0.74486420  0.37820897  0.00869282  1
  O  O264  1  0.75283835  0.37154053  0.50362589  1
  O  O265  1  0.74937565  0.86871456  -0.00409515  1
  O  O266  1  0.75575373  0.86897149  0.50264651  1
  O  O267  1  0.12850873  0.49149240  0.24364844  1
  O  O268  1  0.12992256  0.49165009  0.75132787  1
  O  O269  1  0.11823393  0.99049071  0.24124592  1
  O  O270  1  0.12968710  0.99114976  0.74953116  1
  O  O271  1  0.63824758  0.48383641  0.24984051  1
  O  O272  1  0.62901831  0.49525798  0.74181225  1
  O  O273  1  0.63155143  0.98907393  0.24672752  1
  O  O274  1  0.63686729  0.99120536  0.73928224  1
  O  O275  1  0.37874819  0.01200831  0.25197024  1
  O  O276  1  0.35564856  0.00083531  0.75228425  1
  O  O277  1  0.36629643  0.51144834  0.25551302  1
  O  O278  1  0.36175712  0.49703320  0.75861380  1
  O  O279  1  0.87871690  0.00087160  0.24911073  1
  O  O280  1  0.87320186  0.00618737  0.75246771  1
  O  O281  1  0.86125947  0.49358030  0.25251664  1
  O  O282  1  0.86749824  0.50602766  0.75532635  1
  O  O283  1  0.11670191  0.36849473  0.37050376  1
  O  O284  1  0.11818736  0.37550171  0.86365125  1
  O  O285  1  0.12020362  0.86756054  0.37270791  1
  O  O286  1  0.12057358  0.87962325  0.86037898  1
  O  O287  1  0.62552002  0.36497417  0.36315720  1
  O  O288  1  0.61673452  0.36419203  0.86930626  1
  O  O289  1  0.62345134  0.86648445  0.36583921  1
  O  O290  1  0.63119552  0.87458298  0.85627007  1
  O  O291  1  0.38552451  0.12665575  0.13289210  1
  O  O292  1  0.39447670  0.11791659  0.62330532  1
  O  O293  1  0.38641552  0.63385828  0.12766769  1
  O  O294  1  0.39277562  0.62545534  0.62179112  1
  O  O295  1  0.87717226  0.12525940  0.13133180  1
  O  O296  1  0.88147340  0.13197813  0.62942200  1
  O  O297  1  0.88787584  0.63346649  0.12421465  1
  O  O298  1  0.88007455  0.62865961  0.63106307  1
  O  O299  1  0.24096585  0.25165670  0.11099848  1
  O  O300  1  0.24839593  0.25722652  0.61575019  1
  O  O301  1  0.26069700  0.74759620  0.12329435  1
  O  O302  1  0.24486313  0.74546758  0.61393855  1
  O  O303  1  0.75975065  0.26308449  0.12509418  1
  O  O304  1  0.75057594  0.25558903  0.61610659  1
  O  O305  1  0.76073886  0.74827710  0.11196814  1
  O  O306  1  0.75710398  0.75355237  0.61792898  1
  O  O307  1  0.24146579  0.24168157  0.38237589  1
  O  O308  1  0.24602141  0.25128872  0.88840550  1
  O  O309  1  0.23824376  0.74143990  0.38411901  1
  O  O310  1  0.25461525  0.74072922  0.88766275  1
  O  O311  1  0.74520141  0.24393929  0.38067244  1
  O  O312  1  0.74081859  0.23784458  0.86613044  1
  O  O313  1  0.74464711  0.74184928  0.37813005  1
  O  O314  1  0.75270206  0.74304244  0.88777596  1
  O  O315  1  0.00859492  0.11995399  0.01205263  1
  O  O316  1  0.00218561  0.11884795  0.50296170  1
  O  O317  1  0.00148693  0.61382253  0.00998045  1
  O  O318  1  0.00533744  0.61900573  0.50783332  1
  O  O319  1  0.50830847  0.11573217  0.01095159  1
  O  O320  1  0.50452953  0.11548424  0.49937685  1
  O  O321  1  0.50357965  0.62045858  0.00699739  1
  O  O322  1  0.51043486  0.62621715  0.50835850  1
  O  O323  1  0.48142185  0.37573938  0.50568585  1
  O  O324  1  0.49904752  0.38277542  0.98698121  1
  O  O325  1  0.50603087  0.88653151  0.48350240  1
  O  O326  1  0.50525842  0.88901020  1.01683390  1
  O  O327  1  0.99587557  0.38251017  0.49828121  1
  O  O328  1  1.00206868  0.38664765  0.99986358  1
  O  O329  1  0.99840537  0.88124103  0.49681721  1
  O  O330  1  1.00916808  0.88634884  1.00398087  1
  O  O331  1  0.50960729  0.49045773  0.37961395  1
  O  O332  1  0.49157791  0.49799788  0.87869061  1
  O  O333  1  0.50597540  0.99689404  0.38034235  1
  O  O334  1  0.49964554  0.98136037  0.88267680  1
  O  O335  1  0.99841984  0.49493841  0.38348357  1
  O  O336  1  0.98956737  0.49974906  0.88386817  1
  O  O337  1  0.99880757  0.99678203  0.38660946  1
  O  O338  1  0.99180682  1.00637511  0.88443971  1
  O  O339  1  0.00947962  0.00695063  0.11792984  1
  O  O340  1  -0.00056577  0.00631730  0.61382410  1
  O  O341  1  0.00169871  0.50431918  0.12122432  1
  O  O342  1  -0.00601789  0.51315393  0.61983427  1
  O  O343  1  0.50873112  0.00856157  0.12037003  1
  O  O344  1  0.51135301  0.01191741  0.60766488  1
  O  O345  1  0.50097929  0.51715281  0.11496732  1
  O  O346  1  0.50770482  0.50551929  0.62266179  1
  O  O347  1  0.23457460  0.37325765  0.25747930  1
  O  O348  1  0.24036684  0.38619634  0.74290318  1
  O  O349  1  0.23725789  0.86926963  0.25375192  1
  O  O350  1  0.23780302  0.88512851  0.75417307  1
  O  O351  1  0.74556179  0.37949721  0.24177447  1
  O  O352  1  0.74003044  0.38059977  0.74128942  1
  O  O353  1  0.73966532  0.87548403  0.25715905  1
  O  O354  1  0.74554005  0.87940817  0.74085711  1
  O  O355  1  0.26026661  0.13297313  0.25844869  1
  O  O356  1  0.23967248  0.11864611  0.75986228  1
  O  O357  1  0.24131902  0.62646008  0.27159280  1
  O  O358  1  0.24299226  0.61707444  0.75700800  1
  O  O359  1  0.75429985  0.12858588  0.25290791  1
  O  O360  1  0.75698010  0.12004162  0.75242801  1
  O  O361  1  0.74352143  0.61433237  0.25673647  1
  O  O362  1  0.75469360  0.62125464  0.75743265  1
  O  O363  1  0.36706592  0.12677411  0.36551892  1
  O  O364  1  0.38349697  0.12684350  0.87734956  1
  O  O365  1  0.35916672  0.63304232  0.38016414  1
  O  O366  1  0.36583817  0.61467459  0.88004105  1
  O  O367  1  0.86206279  0.12415404  0.37101773  1
  O  O368  1  0.86780693  0.12090906  0.86771538  1
  O  O369  1  0.86028044  0.62476558  0.38101117  1
  O  O370  1  0.86526750  0.61473611  0.87003304  1
  O  O371  1  0.11695062  0.38688637  0.13560303  1
  O  O372  1  0.13738647  0.37417594  0.63075906  1
  O  O373  1  0.12728477  0.88356708  0.13640833  1
  O  O374  1  0.11138593  0.87648337  0.64859137  1
  O  O375  1  0.64109261  0.36662561  0.12874732  1
  O  O376  1  0.62386416  0.38257770  0.62690351  1
  O  O377  1  0.62773770  0.87516312  0.14213069  1
  O  O378  1  0.63288653  0.88363246  0.62929507  1
  O  O379  1  0.11369254  0.25608622  0.25285230  1
  O  O380  1  0.11706857  0.26181096  0.74958991  1
  O  O381  1  0.11730699  0.75454307  0.25990947  1
  O  O382  1  0.11224058  0.75898910  0.75391523  1
  O  O383  1  0.62809215  0.26260593  0.25796014  1
  O  O384  1  0.62404935  0.25470429  0.75891686  1
  O  O385  1  0.63092097  0.75755435  0.25877720  1
  O  O386  1  0.63233283  0.76526288  0.74978995  1
  O  O387  1  0.38170940  0.24659693  0.24817453  1
  O  O388  1  0.37350837  0.26314076  0.74180924  1
  O  O389  1  0.37097409  0.74113468  0.23928259  1
  O  O390  1  0.40367265  0.78975182  0.77370149  1
  O  O391  1  0.88763992  0.25522900  0.24024277  1
  O  O392  1  0.88110794  0.24616676  0.74257811  1
  O  O393  1  0.88914157  0.75183785  0.24534742  1
  O  O394  1  0.88393579  0.74311936  0.74636944  1
  O  O395  1  0.37138207  0.48641333  0.50199140  1
  O  O396  1  0.38530025  0.49710654  0.99428414  1
  O  O397  1  0.39573328  1.00235520  0.49053149  1
  O  O398  1  0.38768718  1.00018903  1.00200054  1
  O  O399  1  0.88538499  0.49552334  0.49821956  1
  O  O400  1  0.88246696  0.50299639  0.99091168  1
  O  O401  1  0.88371332  0.99353977  0.49829720  1
  O  O402  1  0.88951681  0.99952008  0.98812597  1
  O  O403  1  0.12174293  0.00835886  0.00738122  1
  O  O404  1  0.11737981  0.00581291  0.50406222  1
  O  O405  1  0.11694996  0.50156711  0.00907145  1
  O  O406  1  0.11120250  0.50714104  0.49996232  1
  O  O407  1  0.62233917  0.01067876  0.00124195  1
  O  O408  1  0.61823290  -0.00429468  0.50586282  1
  O  O409  1  0.61021821  0.50348883  -0.00874873  1
  O  O410  1  0.62585068  0.51047766  0.50840790  1
  O  O411  1  0.38991528  0.36688962  0.13216880  1
  O  O412  1  0.36138791  0.37459602  0.61460861  1
  O  O413  1  0.37567291  0.86227824  0.13086268  1
  O  O414  1  0.37728001  0.89354617  0.60734959  1
  O  O415  1  0.86347523  0.36665585  0.12177364  1
  O  O416  1  0.86595576  0.37084152  0.61922564  1
  O  O417  1  0.88475581  0.86106807  0.12781744  1
  O  O418  1  0.87117649  0.86916012  0.61947036  1
  O  O419  1  0.12972401  0.13026747  0.37877709  1
  O  O420  1  0.11963711  0.12953380  0.88968123  1
  O  O421  1  0.12790757  0.63196136  0.38947849  1
  O  O422  1  0.13888963  0.61911154  0.87928108  1
  O  O423  1  0.63697574  0.13772921  0.36464566  1
  O  O424  1  0.62915958  0.12753055  0.87596159  1
  O  O425  1  0.63256927  0.63113680  0.38064572  1
  O  O426  1  0.63540428  0.63039818  0.87350115  1
