# generated using pymatgen
data_V85Zn86O256
_symmetry_space_group_name_H-M   'P 1'
_cell_length_a   16.94120190
_cell_length_b   16.95833806
_cell_length_c   16.94745300
_cell_angle_alpha   90.06774766
_cell_angle_beta   90.06812448
_cell_angle_gamma   89.96984110
_symmetry_Int_Tables_number   1
_chemical_formula_structural   V85Zn86O256
_chemical_formula_sum   'V85 Zn86 O256'
_cell_volume   4868.90470416
_cell_formula_units_Z   1
loop_
 _symmetry_equiv_pos_site_id
 _symmetry_equiv_pos_as_xyz
  1  'x, y, z'
loop_
 _atom_site_type_symbol
 _atom_site_label
 _atom_site_symmetry_multiplicity
 _atom_site_fract_x
 _atom_site_fract_y
 _atom_site_fract_z
 _atom_site_occupancy
  V  V0  1  0.61883347  0.75165279  0.87897776  1
  V  V1  1  0.12629388  0.75181305  0.87462836  1
  V  V2  1  0.36985028  0.00305162  0.87371376  1
  V  V3  1  -0.00046576  0.62324548  0.62357434  1
  V  V4  1  0.74884491  0.39496041  0.12643883  1
  V  V5  1  0.37008947  0.87754883  0.00144555  1
  V  V6  1  0.37045760  0.75940137  0.12788328  1
  V  V7  1  0.86519580  -0.00018904  0.37034407  1
  V  V8  1  0.25236719  0.37287317  0.62474149  1
  V  V9  1  0.12457664  0.87562114  0.74889710  1
  V  V10  1  0.81665770  0.45485937  0.81919243  1
  V  V11  1  0.75577930  0.25095369  0.01257292  1
  V  V12  1  0.00131832  0.75327681  0.75067427  1
  V  V13  1  -0.00063748  0.12700414  0.62357913  1
  V  V14  1  0.12783209  -0.00409660  0.11901233  1
  V  V15  1  -0.00023796  0.62825587  0.13191135  1
  V  V16  1  0.87401532  0.62271929  0.75477479  1
  V  V17  1  0.38392121  0.86743289  0.49925212  1
  V  V18  1  -0.01388768  -0.01710299  -0.01366370  1
  V  V19  1  0.49734474  0.87634484  0.87344690  1
  V  V20  1  0.62114064  0.00851733  0.62750735  1
  V  V21  1  0.13451707  0.50097749  0.12881014  1
  V  V22  1  0.49970277  0.76239572  0.25580675  1
  V  V23  1  0.62769354  0.87456355  0.74244958  1
  V  V24  1  0.49505826  0.75052694  0.74697391  1
  V  V25  1  0.38018145  0.12588490  0.74834792  1
  V  V26  1  0.74342809  0.13778676  0.38617631  1
  V  V27  1  0.76098919  0.11780402  0.87952737  1
  V  V28  1  0.62877068  0.00032281  0.13147868  1
  V  V29  1  0.50653074  0.37083843  0.37306460  1
  V  V30  1  0.12541289  0.49679615  0.62355739  1
  V  V31  1  0.12699474  0.36358826  0.75482034  1
  V  V32  1  -0.00135172  -0.00167165  0.49563993  1
  V  V33  1  0.86653142  0.12435818  0.24719492  1
  V  V34  1  0.24956906  0.74947909  0.50409445  1
  V  V35  1  0.11997890  0.87213843  0.24743445  1
  V  V36  1  0.63193388  0.39818424  0.24892852  1
  V  V37  1  0.36952912  0.50196184  0.37071177  1
  V  V38  1  0.86500241  0.75124844  0.62470710  1
  V  V39  1  0.86821457  0.87501713  0.50307898  1
  V  V40  1  0.75827882  -0.00471439  0.74980072  1
  V  V41  1  0.36861301  0.62889215  0.25106629  1
  V  V42  1  0.37898853  0.24699193  0.62385199  1
  V  V43  1  -0.00437295  0.24907660  0.24403596  1
  V  V44  1  0.11833565  0.74853892  0.37323020  1
  V  V45  1  0.51462339  0.25122552  0.24310003  1
  V  V46  1  0.86413024  0.24510503  0.62392716  1
  V  V47  1  0.37188508  0.49588712  0.88162919  1
  V  V48  1  0.50654436  0.63113225  0.12608242  1
  V  V49  1  0.62707096  0.62909469  0.00307201  1
  V  V50  1  0.50172686  0.49974210  0.00511614  1
  V  V51  1  0.62881252  0.62543543  0.50061239  1
  V  V52  1  -0.00403775  0.37347230  0.37795657  1
  V  V53  1  0.88059306  0.37710597  0.01109236  1
  V  V54  1  0.86931719  0.61906337  0.25173594  1
  V  V55  1  0.00450201  0.37323634  0.87723147  1
  V  V56  1  0.49552567  0.62649456  0.62520428  1
  V  V57  1  0.13151552  0.38069067  0.25137691  1
  V  V58  1  0.85944984  0.36965828  0.50112438  1
  V  V59  1  0.12540843  0.24600251  0.37355516  1
  V  V60  1  0.62648388  0.12534209  0.00081625  1
  V  V61  1  0.50361336  0.00272588  0.49456965  1
  V  V62  1  0.74849541  0.62491507  0.87274883  1
  V  V63  1  0.37612418  0.13298719  0.25478682  1
  V  V64  1  0.37336851  0.62805123  0.74929365  1
  V  V65  1  0.25245623  0.24716958  0.49495668  1
  V  V66  1  0.62854823  0.49328025  0.63879871  1
  V  V67  1  0.49929517  0.00155475  -0.00050618  1
  V  V68  1  0.12067678  0.12744698  -0.01328245  1
  V  V69  1  0.25081643  -0.00476371  0.24965500  1
  V  V70  1  0.50054613  0.37520821  0.87592678  1
  V  V71  1  -0.00323451  0.50602855  -0.00471229  1
  V  V72  1  0.25093390  0.49895505  0.75064744  1
  V  V73  1  0.86491371  0.49729525  0.37306526  1
  V  V74  1  -0.00270831  0.12317133  0.12223667  1
  V  V75  1  0.49890104  0.50094453  0.49834248  1
  V  V76  1  0.50497937  0.25173410  0.74817163  1
  V  V77  1  0.75332118  0.87582227  0.13309640  1
  V  V78  1  0.62436195  0.75947766  0.37721199  1
  V  V79  1  0.24782046  0.75401050  0.00365342  1
  V  V80  1  0.62809574  0.25445535  0.87587516  1
  V  V81  1  0.78701376  0.77144675  -0.02018092  1
  V  V82  1  0.12909919  -0.00207035  0.61985579  1
  V  V83  1  0.87892967  0.75419240  0.13790905  1
  V  V84  1  0.49000741  0.13040504  0.11970393  1
  Zn  Zn85  1  0.35333618  0.34649587  0.05878895  1
  Zn  Zn86  1  0.24487731  0.62196690  0.37324581  1
  Zn  Zn87  1  0.74691940  0.37402574  0.64146049  1
  Zn  Zn88  1  0.25270764  0.25504917  -0.00486528  1
  Zn  Zn89  1  0.12722086  0.12279825  0.49768326  1
  Zn  Zn90  1  0.00293529  0.24424397  0.75362128  1
  Zn  Zn91  1  0.87973239  0.11801080  0.75353431  1
  Zn  Zn92  1  0.37504090  0.37325607  0.49234971  1
  Zn  Zn93  1  0.62415382  0.14800256  0.51314557  1
  Zn  Zn94  1  0.74422269  0.62291008  0.36764702  1
  Zn  Zn95  1  0.12477136  0.62591592  -0.00027797  1
  Zn  Zn96  1  0.12599006  0.62309546  0.49762342  1
  Zn  Zn97  1  0.24917533  0.62477199  0.87666756  1
  Zn  Zn98  1  0.37999462  -0.00220959  0.37363571  1
  Zn  Zn99  1  0.62547295  0.88236804  0.25692308  1
  Zn  Zn100  1  0.74737421  0.75301516  0.50144060  1
  Zn  Zn101  1  0.25478908  0.87061213  0.62374740  1
  Zn  Zn102  1  -0.00545419  0.86912388  0.37029300  1
  Zn  Zn103  1  0.25767795  0.12511383  0.37535508  1
  Zn  Zn104  1  -0.00233374  0.49761197  0.49940031  1
  Zn  Zn105  1  0.25153581  0.00000835  0.74604471  1
  Zn  Zn106  1  0.24262670  0.13178208  0.86751690  1
  Zn  Zn107  1  0.19255352  0.18345980  0.18438294  1
  Zn  Zn108  1  0.19151914  0.18349819  0.68486739  1
  Zn  Zn109  1  0.18664361  0.68969232  0.18725382  1
  Zn  Zn110  1  0.18772267  0.68535182  0.68522715  1
  Zn  Zn111  1  0.68707335  0.18777290  0.18620482  1
  Zn  Zn112  1  0.68911527  0.18326240  0.69544382  1
  Zn  Zn113  1  0.69120846  0.69481461  0.18799175  1
  Zn  Zn114  1  0.68397085  0.68304183  0.69032475  1
  Zn  Zn115  1  0.33803491  0.34028705  0.26090365  1
  Zn  Zn116  1  0.31158850  0.31147381  0.82133429  1
  Zn  Zn117  1  0.30677624  0.81536367  0.31982537  1
  Zn  Zn118  1  0.30828381  0.81346956  0.81179697  1
  Zn  Zn119  1  0.81004086  0.31078967  0.30757971  1
  Zn  Zn120  1  0.82215537  0.29158812  0.81902878  1
  Zn  Zn121  1  0.80891748  0.81005010  0.31455854  1
  Zn  Zn122  1  0.81173691  0.81144972  0.80922311  1
  Zn  Zn123  1  0.18831867  0.43322858  0.43680878  1
  Zn  Zn124  1  0.18781767  0.43446486  0.94422170  1
  Zn  Zn125  1  0.19139563  0.93411913  0.43322019  1
  Zn  Zn126  1  0.18385039  0.93719691  0.93615526  1
  Zn  Zn127  1  0.68424710  0.43736762  0.43920109  1
  Zn  Zn128  1  0.68139820  0.43629438  0.94853334  1
  Zn  Zn129  1  0.68894119  0.94153497  0.44065998  1
  Zn  Zn130  1  0.68757475  0.93764411  0.93843305  1
  Zn  Zn131  1  0.30697427  0.06818057  0.06124751  1
  Zn  Zn132  1  0.31918971  0.06256527  0.56031725  1
  Zn  Zn133  1  0.31450950  0.56845411  0.06330810  1
  Zn  Zn134  1  0.31226162  0.56389325  0.56014807  1
  Zn  Zn135  1  0.81524116  0.05855297  0.06350393  1
  Zn  Zn136  1  0.80658256  0.05952924  0.56422000  1
  Zn  Zn137  1  0.81698517  0.57149592  0.05612284  1
  Zn  Zn138  1  0.81098443  0.55723084  0.56427386  1
  Zn  Zn139  1  0.45156564  0.45036883  0.19055213  1
  Zn  Zn140  1  0.43903739  0.43528413  0.69034712  1
  Zn  Zn141  1  0.43684148  0.94228794  0.18666189  1
  Zn  Zn142  1  0.43726305  0.93629150  0.68209241  1
  Zn  Zn143  1  0.94278716  0.44149652  0.18810970  1
  Zn  Zn144  1  0.94215226  0.43026762  0.68242449  1
  Zn  Zn145  1  0.93988932  0.94038244  0.18533844  1
  Zn  Zn146  1  0.94066584  0.93543207  0.68354995  1
  Zn  Zn147  1  0.06098030  0.06144524  0.31033841  1
  Zn  Zn148  1  0.05545409  0.05162416  0.81052979  1
  Zn  Zn149  1  0.05635340  0.56252689  0.31268111  1
  Zn  Zn150  1  0.06334221  0.56092325  0.81237846  1
  Zn  Zn151  1  0.56228299  0.06474270  0.31328222  1
  Zn  Zn152  1  0.56373019  0.06538755  0.81322897  1
  Zn  Zn153  1  0.55637490  0.57131776  0.31466666  1
  Zn  Zn154  1  0.55952439  0.56265260  0.81575825  1
  Zn  Zn155  1  0.46176271  0.19638517  0.44395820  1
  Zn  Zn156  1  0.42992984  0.19353554  0.93827428  1
  Zn  Zn157  1  0.43846060  0.69005827  0.43659132  1
  Zn  Zn158  1  0.43373791  0.68634534  0.93877501  1
  Zn  Zn159  1  0.93370127  0.18698149  0.43803158  1
  Zn  Zn160  1  0.94223490  0.19160599  0.94405905  1
  Zn  Zn161  1  0.93658761  0.68553331  0.43744374  1
  Zn  Zn162  1  0.93893349  0.69875147  0.93508107  1
  Zn  Zn163  1  0.10407869  0.29361649  0.08380776  1
  Zn  Zn164  1  0.06094742  0.30969214  0.56103592  1
  Zn  Zn165  1  0.06122727  0.81255250  0.06609908  1
  Zn  Zn166  1  0.05997504  0.81240153  0.55961149  1
  Zn  Zn167  1  0.56572298  0.31672812  0.06377244  1
  Zn  Zn168  1  0.56286592  0.31663739  0.56261615  1
  Zn  Zn169  1  0.56177423  0.81672876  0.06456139  1
  Zn  Zn170  1  0.56014242  0.81238859  0.56446767  1
  O  O171  1  0.11277628  0.11404196  0.11539646  1
  O  O172  1  0.11748434  0.11648157  0.62138140  1
  O  O173  1  0.11724273  0.61760115  0.12709402  1
  O  O174  1  0.11593899  0.61475686  0.62507677  1
  O  O175  1  0.61944644  0.11815633  0.11861989  1
  O  O176  1  0.62654667  0.11493670  0.62715934  1
  O  O177  1  0.61474686  0.64090951  0.11878339  1
  O  O178  1  0.61506669  0.61563862  0.62126007  1
  O  O179  1  0.38721916  0.38746307  0.36373260  1
  O  O180  1  0.38416799  0.38936513  0.87067664  1
  O  O181  1  0.37026518  0.87985964  0.39277493  1
  O  O182  1  0.37912149  0.88320719  0.87773574  1
  O  O183  1  0.87642828  0.37803394  0.38078214  1
  O  O184  1  0.87612218  0.38441285  0.87976517  1
  O  O185  1  0.87531241  0.88266779  0.37940821  1
  O  O186  1  0.86198585  0.80584527  0.90995376  1
  O  O187  1  0.25101267  0.00691694  0.36478049  1
  O  O188  1  0.26157679  0.00107454  0.87148539  1
  O  O189  1  0.26541511  0.50084804  0.38268663  1
  O  O190  1  0.25725986  0.50311955  0.87014585  1
  O  O191  1  0.76182927  0.00925020  0.37993152  1
  O  O192  1  0.74457062  0.00826065  0.86816401  1
  O  O193  1  0.76085015  0.50298859  0.38154606  1
  O  O194  1  0.74782766  0.50770671  0.88202394  1
  O  O195  1  0.23320644  0.50932752  0.12097574  1
  O  O196  1  0.24505828  0.49301496  0.62844352  1
  O  O197  1  0.23565661  1.00575708  0.13119254  1
  O  O198  1  0.23766087  1.00107972  0.62102978  1
  O  O199  1  0.75072637  0.49361111  0.11258236  1
  O  O200  1  0.73297918  0.49803886  0.62655942  1
  O  O201  1  0.74048530  0.98943012  0.11690741  1
  O  O202  1  0.73689536  1.00087937  0.63745059  1
  O  O203  1  0.00191716  0.36769034  0.26094711  1
  O  O204  1  0.01034806  0.37514988  0.75791855  1
  O  O205  1  0.01502341  0.88283899  0.25375333  1
  O  O206  1  0.01242217  0.86581658  0.74310699  1
  O  O207  1  0.51864951  0.37341893  0.25162665  1
  O  O208  1  0.49905882  0.36803386  0.76678922  1
  O  O209  1  0.50229025  0.86568288  0.24508189  1
  O  O210  1  0.50437911  0.86919392  0.75457513  1
  O  O211  1  0.49772001  0.13355406  0.24209637  1
  O  O212  1  0.48963998  0.13614243  0.75606538  1
  O  O213  1  0.49316696  0.63989965  0.24211744  1
  O  O214  1  0.49273505  0.62888929  0.74451980  1
  O  O215  1  0.99398103  0.13089885  0.24240949  1
  O  O216  1  0.99880241  0.12023220  0.73680877  1
  O  O217  1  0.98622675  0.62119077  0.24213069  1
  O  O218  1  0.99378982  0.62890750  0.74131802  1
  O  O219  1  0.37051278  0.24268549  0.01539929  1
  O  O220  1  0.37238900  0.25111560  0.50741977  1
  O  O221  1  0.36838149  0.75584411  0.00770292  1
  O  O222  1  0.36908010  0.75991269  0.49630888  1
  O  O223  1  0.86729237  0.26427436  -0.00326224  1
  O  O224  1  0.87806370  0.25760638  0.51119089  1
  O  O225  1  0.87604555  0.72827898  0.02845535  1
  O  O226  1  0.87380560  0.75544327  0.50776883  1
  O  O227  1  0.13356153  0.24903616  0.49253907  1
  O  O228  1  0.10439762  0.22687897  0.98773902  1
  O  O229  1  0.13069838  0.74875828  0.49271895  1
  O  O230  1  0.13070845  0.75150902  0.99208722  1
  O  O231  1  0.56936513  0.24027188  0.48427119  1
  O  O232  1  0.63355201  0.24501619  0.99574541  1
  O  O233  1  0.62449213  0.74342562  0.49618020  1
  O  O234  1  0.61481082  0.74669810  0.98667740  1
  O  O235  1  0.50789370  0.24067821  0.12936309  1
  O  O236  1  0.49289132  0.26188375  0.64207113  1
  O  O237  1  0.49136294  0.74785944  0.13054584  1
  O  O238  1  0.50451286  0.73775426  0.63409135  1
  O  O239  1  1.00900215  0.23908677  0.13445153  1
  O  O240  1  0.99406213  0.23940966  0.62547053  1
  O  O241  1  0.99640755  0.73715945  0.12598726  1
  O  O242  1  0.99486778  0.74050563  0.63295432  1
  O  O243  1  0.00483052  0.25470385  0.37027669  1
  O  O244  1  -0.00923372  0.26828348  0.87157748  1
  O  O245  1  0.01323107  0.75032708  0.38103856  1
  O  O246  1  0.01006090  0.74544768  0.85770648  1
  O  O247  1  0.48790278  0.26855635  0.35513777  1
  O  O248  1  0.50581957  0.25742605  0.87185417  1
  O  O249  1  0.50910965  0.74767709  0.36623066  1
  O  O250  1  0.50133935  0.75378993  0.86754548  1
  O  O251  1  0.25039623  0.13562833  0.49921904  1
  O  O252  1  0.22818176  0.12105119  0.99670264  1
  O  O253  1  0.24830887  0.63338858  0.49639179  1
  O  O254  1  0.24791479  0.63975345  0.99810475  1
  O  O255  1  0.74165662  0.12669245  0.49197528  1
  O  O256  1  0.74773275  0.13157956  0.99849235  1
  O  O257  1  0.73538174  0.62439299  0.50395448  1
  O  O258  1  0.74990486  0.64119933  0.98674690  1
  O  O259  1  0.26243633  0.37461577  -0.00328278  1
  O  O260  1  0.25469786  0.36285992  0.50383523  1
  O  O261  1  0.25588085  0.86376404  -0.00632364  1
  O  O262  1  0.25796912  0.86650510  0.50154209  1
  O  O263  1  0.75642286  0.37018309  0.00861773  1
  O  O264  1  0.75729476  0.37457414  0.50348687  1
  O  O265  1  0.74390240  0.86350135  0.00744514  1
  O  O266  1  0.76386642  0.87415469  0.49952686  1
  O  O267  1  0.11917339  0.49548343  0.23996567  1
  O  O268  1  0.13096134  0.49363438  0.73923519  1
  O  O269  1  0.13144460  0.99642566  0.24258751  1
  O  O270  1  0.12579451  0.99075523  0.73970702  1
  O  O271  1  0.62328384  0.49656974  0.25157626  1
  O  O272  1  0.61783217  0.50272522  0.73688888  1
  O  O273  1  0.61899485  1.00027242  0.23554271  1
  O  O274  1  0.62870908  0.99267852  0.74614654  1
  O  O275  1  0.36836666  0.00758213  0.25165993  1
  O  O276  1  0.37767284  0.00732652  0.75495313  1
  O  O277  1  0.38708677  0.51842800  0.26101601  1
  O  O278  1  0.37174617  0.50812086  0.75706508  1
  O  O279  1  0.88253949  0.01088883  0.26050411  1
  O  O280  1  0.86290169  -0.00421507  0.74420687  1
  O  O281  1  0.87699306  0.50482299  0.26098468  1
  O  O282  1  0.87926723  0.50673747  0.74968388  1
  O  O283  1  0.11375572  0.36767940  0.37279987  1
  O  O284  1  0.11659525  0.38264029  0.86525598  1
  O  O285  1  0.12161706  0.86752730  0.36718194  1
  O  O286  1  0.13047651  0.86215873  0.86324587  1
  O  O287  1  0.61995889  0.38238704  0.36137601  1
  O  O288  1  0.61886781  0.36198989  0.88335664  1
  O  O289  1  0.63167318  0.86406267  0.37617650  1
  O  O290  1  0.61657937  0.86823904  0.86887019  1
  O  O291  1  0.38776839  0.11372879  0.13212913  1
  O  O292  1  0.37498000  0.13857863  0.63171469  1
  O  O293  1  0.38343272  0.63855128  0.13180396  1
  O  O294  1  0.38776447  0.61628982  0.63326936  1
  O  O295  1  0.88719375  0.11879324  0.13288777  1
  O  O296  1  0.88062369  0.12941253  0.62337220  1
  O  O297  1  0.88140858  0.62633445  0.13649886  1
  O  O298  1  0.87942040  0.62744190  0.63455913  1
  O  O299  1  0.21176960  0.25748946  0.10623314  1
  O  O300  1  0.25813800  0.25435497  0.61777963  1
  O  O301  1  0.25878766  0.74892308  0.11705632  1
  O  O302  1  0.24381436  0.74902298  0.60917694  1
  O  O303  1  0.74677014  0.25809765  0.11473799  1
  O  O304  1  0.75974159  0.25269579  0.63495125  1
  O  O305  1  0.76092442  0.76016348  0.11745181  1
  O  O306  1  0.76169205  0.74282782  0.62637899  1
  O  O307  1  0.24033179  0.24647615  0.38373369  1
  O  O308  1  0.24960071  0.24352158  0.88008022  1
  O  O309  1  0.23825522  0.74786092  0.38554952  1
  O  O310  1  0.24341769  0.74709969  0.88172458  1
  O  O311  1  0.75528651  0.23624558  0.37609688  1
  O  O312  1  0.74277337  0.24185316  0.88630092  1
  O  O313  1  0.74043267  0.74304041  0.38001478  1
  O  O314  1  0.73354345  0.74341937  0.87706916  1
  O  O315  1  0.00303196  0.11301327  0.00482148  1
  O  O316  1  0.00025634  0.11688732  0.50844283  1
  O  O317  1  0.00197866  0.62003210  0.00457384  1
  O  O318  1  -0.00076594  0.62174062  0.51431701  1
  O  O319  1  0.50566500  0.12151324  0.00478846  1
  O  O320  1  0.49833912  0.10309639  0.50511014  1
  O  O321  1  0.50441260  0.62378177  0.00815469  1
  O  O322  1  0.50644572  0.62122125  0.50797071  1
  O  O323  1  0.49633128  0.38661005  0.48859567  1
  O  O324  1  0.50163764  0.38601621  0.99416587  1
  O  O325  1  0.48984216  0.87879933  0.50221791  1
  O  O326  1  0.49141793  0.88169291  0.99329584  1
  O  O327  1  0.99183618  0.37237616  0.48855122  1
  O  O328  1  0.99145259  0.38365134  0.99324157  1
  O  O329  1  0.98885834  0.88273775  0.49615966  1
  O  O330  1  1.00149759  0.88452294  1.00261165  1
  O  O331  1  0.49476722  0.49752584  0.38259289  1
  O  O332  1  0.49485324  0.49303749  0.88201906  1
  O  O333  1  0.50554429  0.99770423  0.38967610  1
  O  O334  1  0.49097563  0.99685980  0.87968113  1
  O  O335  1  0.98962879  0.48926249  0.37862193  1
  O  O336  1  1.00476302  0.49244546  0.88519966  1
  O  O337  1  0.99042958  1.00413664  0.38655942  1
  O  O338  1  0.99542804  0.99306617  0.88594895  1
  O  O339  1  0.00974637  0.00582795  0.11862659  1
  O  O340  1  0.00788591  0.00473071  0.61357847  1
  O  O341  1  0.00481601  0.51299297  0.11743067  1
  O  O342  1  0.00856475  0.50476944  0.62375324  1
  O  O343  1  0.50712846  0.00751228  0.11686690  1
  O  O344  1  0.51370928  -0.00850901  0.61654321  1
  O  O345  1  0.50137039  0.51871073  0.11659282  1
  O  O346  1  0.50680762  0.50308262  0.61809482  1
  O  O347  1  0.22934285  0.37341698  0.26297806  1
  O  O348  1  0.24446835  0.38063383  0.74617665  1
  O  O349  1  0.24206998  0.88924799  0.25419866  1
  O  O350  1  0.23962254  0.87651076  0.74292783  1
  O  O351  1  0.73955258  0.37578862  0.24273683  1
  O  O352  1  0.76651652  0.38230354  0.76255308  1
  O  O353  1  0.74526469  0.87116095  0.23748234  1
  O  O354  1  0.73991714  0.88232924  0.75935431  1
  O  O355  1  0.25927885  0.11785021  0.24965212  1
  O  O356  1  0.26416098  0.12085199  0.74898914  1
  O  O357  1  0.26480033  0.63207737  0.25191682  1
  O  O358  1  0.25799829  0.61783621  0.74922558  1
  O  O359  1  0.76354466  0.13114384  0.25228940  1
  O  O360  1  0.75371056  0.11341587  0.76255251  1
  O  O361  1  0.76300341  0.62776848  0.24894604  1
  O  O362  1  0.75584278  0.62704662  0.76296394  1
  O  O363  1  0.38163643  0.12257744  0.36621491  1
  O  O364  1  0.37607077  0.11617069  0.86680682  1
  O  O365  1  0.37616644  0.62065470  0.36745372  1
  O  O366  1  0.37576933  0.61343788  0.86714119  1
  O  O367  1  0.86589499  0.11908716  0.36978574  1
  O  O368  1  0.86379661  0.13215231  0.87676772  1
  O  O369  1  0.87426308  0.61527356  0.37005346  1
  O  O370  1  0.86816493  0.62954589  0.86260403  1
  O  O371  1  0.11173967  0.39472893  0.13763845  1
  O  O372  1  0.12990948  0.37959134  0.63092510  1
  O  O373  1  0.12352523  0.88334126  0.13367221  1
  O  O374  1  0.12520158  0.88264630  0.62868270  1
  O  O375  1  0.63375716  0.37877817  0.13852079  1
  O  O376  1  0.62669105  0.38783941  0.62464943  1
  O  O377  1  0.63218697  0.88350187  0.12613163  1
  O  O378  1  0.62398042  0.87666513  0.63926203  1
  O  O379  1  0.11428426  0.25620087  0.25833139  1
  O  O380  1  0.12424324  0.26064090  0.74286695  1
  O  O381  1  0.13244366  0.76149722  0.25811413  1
  O  O382  1  0.12034140  0.75470460  0.75231878  1
  O  O383  1  0.61653667  0.25414182  0.24923432  1
  O  O384  1  0.61678251  0.24442784  0.76272114  1
  O  O385  1  0.61686521  0.75233070  0.25988359  1
  O  O386  1  0.61854135  0.75565349  0.75898739  1
  O  O387  1  0.38484522  0.23531969  0.24418635  1
  O  O388  1  0.38239952  0.24441222  0.74523751  1
  O  O389  1  0.37930764  0.75165494  0.24584336  1
  O  O390  1  0.37673473  0.73570376  0.75560185  1
  O  O391  1  0.88813108  0.24173757  0.25441882  1
  O  O392  1  0.88325709  0.24050071  0.73896210  1
  O  O393  1  0.87381680  0.74169979  0.24379549  1
  O  O394  1  0.88283215  0.74379460  0.74237911  1
  O  O395  1  0.38623502  0.49982354  0.49389283  1
  O  O396  1  0.38760195  0.50989196  0.99307729  1
  O  O397  1  0.38804270  0.99135465  0.49923323  1
  O  O398  1  0.37688842  0.99834728  0.99257761  1
  O  O399  1  0.87634375  0.48843762  0.49635404  1
  O  O400  1  0.88782118  0.49533817  1.00244294  1
  O  O401  1  0.87989611  0.99353518  0.49679073  1
  O  O402  1  0.88720769  0.99612316  1.00281763  1
  O  O403  1  0.11618832  0.00263427  0.00460368  1
  O  O404  1  0.11693766  -0.00123367  0.50259118  1
  O  O405  1  0.11524041  0.50249930  0.01179178  1
  O  O406  1  0.12390220  0.49774121  0.51213613  1
  O  O407  1  0.61837915  0.00607358  0.00606888  1
  O  O408  1  0.61576056  -0.00514956  0.51075226  1
  O  O409  1  0.61074683  0.51371245  -0.00477897  1
  O  O410  1  0.61408399  0.50711597  0.50527932  1
  O  O411  1  0.37281885  0.38027769  0.15973193  1
  O  O412  1  0.36950029  0.36485015  0.62546948  1
  O  O413  1  0.37837987  0.86644379  0.11874697  1
  O  O414  1  0.37118058  0.87846117  0.60755833  1
  O  O415  1  0.86989225  0.38097452  0.11667507  1
  O  O416  1  0.87093482  0.36623038  0.61791385  1
  O  O417  1  0.86914349  0.86607485  0.13230409  1
  O  O418  1  0.88137760  0.86207007  0.61668742  1
  O  O419  1  0.12286814  0.13723157  0.37559110  1
  O  O420  1  0.12226819  0.11167116  0.88355710  1
  O  O421  1  0.12489439  0.63048146  0.37584862  1
  O  O422  1  0.12716709  0.63772434  0.87375318  1
  O  O423  1  0.64391044  0.12086952  0.37081270  1
  O  O424  1  0.63232220  0.13361682  0.88337344  1
  O  O425  1  0.62402843  0.63352651  0.38537212  1
  O  O426  1  0.62935760  0.63237268  0.87844923  1
