# generated using pymatgen
data_V85Zn86O256
_symmetry_space_group_name_H-M   'P 1'
_cell_length_a   16.94042407
_cell_length_b   16.92737477
_cell_length_c   16.93633958
_cell_angle_alpha   90.02010031
_cell_angle_beta   89.93437706
_cell_angle_gamma   89.88116555
_symmetry_Int_Tables_number   1
_chemical_formula_structural   V85Zn86O256
_chemical_formula_sum   'V85 Zn86 O256'
_cell_volume   4856.59841833
_cell_formula_units_Z   1
loop_
 _symmetry_equiv_pos_site_id
 _symmetry_equiv_pos_as_xyz
  1  'x, y, z'
loop_
 _atom_site_type_symbol
 _atom_site_label
 _atom_site_symmetry_multiplicity
 _atom_site_fract_x
 _atom_site_fract_y
 _atom_site_fract_z
 _atom_site_occupancy
  V  V0  1  0.37431083  0.24728476  0.62754588  1
  V  V1  1  0.00468816  0.00096372  0.00042717  1
  V  V2  1  0.63233939  0.12325909  0.49431509  1
  V  V3  1  0.12037877  0.73738975  0.87833380  1
  V  V4  1  0.62654911  0.74907116  0.37415736  1
  V  V5  1  0.88318794  -0.00248763  0.87702951  1
  V  V6  1  0.50043663  0.24665461  0.25084634  1
  V  V7  1  -0.00126718  0.50433407  0.01393043  1
  V  V8  1  0.86731062  0.25844709  0.12938089  1
  V  V9  1  0.50845245  0.75127444  0.75121542  1
  V  V10  1  0.74644654  0.63197398  0.86658993  1
  V  V11  1  0.12218339  0.61916584  0.01911831  1
  V  V12  1  0.00283580  0.24959124  0.75107057  1
  V  V13  1  0.37219569  0.87239590  0.50373250  1
  V  V14  1  0.24998519  0.87326492  0.12591896  1
  V  V15  1  0.12782539  0.39079528  0.24614323  1
  V  V16  1  0.50133530  0.25162165  0.74828952  1
  V  V17  1  0.73414767  0.74617014  -0.00257994  1
  V  V18  1  0.76014624  0.75329330  0.49764668  1
  V  V19  1  0.87437620  0.74143340  0.63000052  1
  V  V20  1  0.37428470  -0.00075221  0.37396387  1
  V  V21  1  0.37563124  0.37317524  0.49787986  1
  V  V22  1  0.44099096  0.18680249  0.07745561  1
  V  V23  1  0.76064868  0.50320484  0.74706180  1
  V  V24  1  0.50104975  0.74350728  0.24628439  1
  V  V25  1  0.49809687  -0.00000289  0.50371122  1
  V  V26  1  0.37417935  0.87459131  -0.01823693  1
  V  V27  1  0.12271498  0.87765318  0.25165565  1
  V  V28  1  -0.00297079  0.13010821  0.12480446  1
  V  V29  1  0.12707134  0.49975949  0.62724426  1
  V  V30  1  0.49315406  0.38893082  0.87389340  1
  V  V31  1  0.49829450  0.50347848  0.50632433  1
  V  V32  1  0.12723011  0.37161339  0.75512420  1
  V  V33  1  0.12257918  -0.00352008  0.62752448  1
  V  V34  1  0.12254420  0.00871409  0.12684312  1
  V  V35  1  0.87951528  0.49226792  0.37076215  1
  V  V36  1  0.62727278  0.50742961  0.11280218  1
  V  V37  1  0.49139864  0.51549766  0.00310129  1
  V  V38  1  0.49910966  0.87318834  0.37450830  1
  V  V39  1  0.74951042  0.87631337  0.12527348  1
  V  V40  1  0.61482141  0.00111383  0.12598016  1
  V  V41  1  0.00340309  0.49258558  0.49459248  1
  V  V42  1  0.00052380  0.74602771  0.24851398  1
  V  V43  1  0.86776551  0.37951633  -0.00050519  1
  V  V44  1  0.86874873  0.37563327  0.50729420  1
  V  V45  1  0.62431570  -0.00335356  0.62906180  1
  V  V46  1  0.87629842  0.62482773  0.24764836  1
  V  V47  1  0.63056519  0.49750722  0.62332877  1
  V  V48  1  0.25822004  -0.00334463  0.75489273  1
  V  V49  1  0.24979342  0.12172875  0.88629471  1
  V  V50  1  0.63311267  0.37671771  0.74587896  1
  V  V51  1  0.37438877  0.12905902  0.24972582  1
  V  V52  1  0.88135731  0.87114295  -0.00260098  1
  V  V53  1  0.50389778  0.37317634  0.37307805  1
  V  V54  1  0.37466577  0.62135371  0.24142575  1
  V  V55  1  0.24962990  0.62403283  0.36945157  1
  V  V56  1  0.62426687  0.87424242  0.24670494  1
  V  V57  1  0.12461184  0.62560934  0.49865038  1
  V  V58  1  0.75114985  0.62416222  0.37194247  1
  V  V59  1  -0.00731902  0.87559919  0.38230115  1
  V  V60  1  0.12792917  0.24598361  0.89224363  1
  V  V61  1  0.24851503  0.24818661  0.50015258  1
  V  V62  1  0.25329439  0.50440223  0.76873658  1
  V  V63  1  0.49577813  -0.00650353  -0.01164090  1
  V  V64  1  0.12029930  0.12378831  0.50040630  1
  V  V65  1  0.75219114  -0.00104318  0.75322894  1
  V  V66  1  0.12148286  0.87324986  0.76425146  1
  V  V67  1  0.87878588  0.74609544  0.12257268  1
  V  V68  1  -0.00471441  0.74493046  0.75610542  1
  V  V69  1  0.62723173  0.25402825  0.87551501  1
  V  V70  1  0.38448671  0.74922136  0.12004062  1
  V  V71  1  0.62228545  0.62769856  0.50407081  1
  V  V72  1  0.75226561  0.12980052  0.87821577  1
  V  V73  1  0.75931111  0.87660482  0.62213923  1
  V  V74  1  0.37369239  0.49886619  0.36875906  1
  V  V75  1  0.24882923  0.74260472  -0.00154562  1
  V  V76  1  0.24905311  0.37298139  0.62587146  1
  V  V77  1  0.24804256  0.86653515  0.62972650  1
  V  V78  1  0.86836531  0.00497681  0.38531933  1
  V  V79  1  0.75193514  0.00805210  0.25100367  1
  V  V80  1  0.87692634  0.12680080  0.75178412  1
  V  V81  1  0.25965994  0.37073798  0.12259293  1
  V  V82  1  0.74772561  0.49101451  0.24322188  1
  V  V83  1  0.62623761  0.12960714  0.00732353  1
  V  V84  1  0.24676307  0.12586440  0.37383809  1
  Zn  Zn85  1  -0.00359588  0.62194007  0.62885111  1
  Zn  Zn86  1  0.11455629  0.26318429  0.37455537  1
  Zn  Zn87  1  0.37334947  0.37269719  0.00006573  1
  Zn  Zn88  1  0.00289405  0.26032429  0.25333047  1
  Zn  Zn89  1  0.00308277  0.38080790  0.88074773  1
  Zn  Zn90  1  0.62950583  0.87082817  0.76774478  1
  Zn  Zn91  1  0.39851016  0.72731455  0.61961539  1
  Zn  Zn92  1  0.25317126  0.74581386  0.50136377  1
  Zn  Zn93  1  0.88022172  0.50719596  0.87246662  1
  Zn  Zn94  1  -0.00056964  0.12445346  0.62645559  1
  Zn  Zn95  1  0.74983654  0.25158835  0.50119206  1
  Zn  Zn96  1  0.24918952  0.00086465  0.24960079  1
  Zn  Zn97  1  0.49929408  0.12117140  0.62906928  1
  Zn  Zn98  1  -0.00479187  -0.00521351  0.50491051  1
  Zn  Zn99  1  0.38599581  0.61325481  0.74990031  1
  Zn  Zn100  1  0.86766590  0.25749971  0.63179198  1
  Zn  Zn101  1  0.63405852  0.24228023  0.36966429  1
  Zn  Zn102  1  0.12544861  0.75155129  0.37649345  1
  Zn  Zn103  1  0.74730555  0.26004009  0.00428587  1
  Zn  Zn104  1  0.37553617  0.11823879  0.75176746  1
  Zn  Zn105  1  0.62800858  0.37242707  0.24263118  1
  Zn  Zn106  1  0.87345251  0.13158924  0.25693208  1
  Zn  Zn107  1  0.18661769  0.19684993  0.18587334  1
  Zn  Zn108  1  0.18786390  0.18270437  0.69061694  1
  Zn  Zn109  1  0.18990714  0.68841474  0.18932996  1
  Zn  Zn110  1  0.18678492  0.68510380  0.68945047  1
  Zn  Zn111  1  0.68728831  0.18863131  0.18753492  1
  Zn  Zn112  1  0.68992675  0.18702829  0.68104964  1
  Zn  Zn113  1  0.68757059  0.68300775  0.18147489  1
  Zn  Zn114  1  0.68238336  0.68797385  0.68590302  1
  Zn  Zn115  1  0.30603227  0.31190787  0.30603894  1
  Zn  Zn116  1  0.30974021  0.30986909  0.81654343  1
  Zn  Zn117  1  0.31067022  0.80893436  0.31274331  1
  Zn  Zn118  1  0.32859276  0.76735144  0.82278322  1
  Zn  Zn119  1  0.81273436  0.31048808  0.31966819  1
  Zn  Zn120  1  0.81481878  0.31728585  0.81693389  1
  Zn  Zn121  1  0.81413240  0.81727164  0.31161899  1
  Zn  Zn122  1  0.81159331  0.81347921  0.81433155  1
  Zn  Zn123  1  0.18992007  0.43840285  0.43339930  1
  Zn  Zn124  1  0.18914366  0.43498447  0.95328187  1
  Zn  Zn125  1  0.18646805  0.93826363  0.43812860  1
  Zn  Zn126  1  0.18868737  0.93526516  0.93907976  1
  Zn  Zn127  1  0.68922302  0.43745559  0.43242504  1
  Zn  Zn128  1  0.68659616  0.44583245  0.93199227  1
  Zn  Zn129  1  0.68805327  0.93618393  0.43804087  1
  Zn  Zn130  1  0.69760581  0.94565377  0.94609131  1
  Zn  Zn131  1  0.30894619  0.05387234  0.06018957  1
  Zn  Zn132  1  0.30908296  0.06012988  0.56633869  1
  Zn  Zn133  1  0.30721258  0.55568078  0.06376844  1
  Zn  Zn134  1  0.31037699  0.56176543  0.56341543  1
  Zn  Zn135  1  0.81369952  0.06611401  0.06527516  1
  Zn  Zn136  1  0.81286548  0.06538866  0.56625355  1
  Zn  Zn137  1  0.81111301  0.56644816  0.06025915  1
  Zn  Zn138  1  0.81114376  0.56184857  0.55978739  1
  Zn  Zn139  1  0.43864958  0.43597150  0.18161161  1
  Zn  Zn140  1  0.43618559  0.43897391  0.68705624  1
  Zn  Zn141  1  0.43620974  0.93494000  0.18350957  1
  Zn  Zn142  1  0.43793967  0.92116598  0.69417855  1
  Zn  Zn143  1  0.94190488  0.43584212  0.18853008  1
  Zn  Zn144  1  0.94428033  0.43659932  0.68707112  1
  Zn  Zn145  1  0.93637373  0.93656215  0.19041157  1
  Zn  Zn146  1  0.93931894  0.93086537  0.69034374  1
  Zn  Zn147  1  0.05422706  0.07072374  0.31535708  1
  Zn  Zn148  1  0.06625255  0.06380544  0.81496519  1
  Zn  Zn149  1  0.06257799  0.56084557  0.30939513  1
  Zn  Zn150  1  0.06257181  0.56214394  0.81687117  1
  Zn  Zn151  1  0.55918953  0.06187965  0.31179008  1
  Zn  Zn152  1  0.56655959  0.06413987  0.81320405  1
  Zn  Zn153  1  0.56268641  0.56115716  0.31111078  1
  Zn  Zn154  1  0.56864795  0.57134805  0.81305510  1
  Zn  Zn155  1  0.44008344  0.18595219  0.43696350  1
  Zn  Zn156  1  0.44186112  0.18067346  0.91507275  1
  Zn  Zn157  1  0.43692983  0.68628310  0.43514168  1
  Zn  Zn158  1  0.43200555  0.67753149  0.92432571  1
  Zn  Zn159  1  0.93679334  0.18837000  0.43824356  1
  Zn  Zn160  1  0.94117418  0.19074253  0.94174367  1
  Zn  Zn161  1  0.93987874  0.68282738  0.43617818  1
  Zn  Zn162  1  0.93630498  0.68213308  0.93513422  1
  Zn  Zn163  1  0.06181175  0.31993374  0.07182985  1
  Zn  Zn164  1  0.05894057  0.31130741  0.56374700  1
  Zn  Zn165  1  0.06178266  0.81341376  0.06443601  1
  Zn  Zn166  1  0.06083142  0.80964468  0.56560748  1
  Zn  Zn167  1  0.56841726  0.32821653  0.05941691  1
  Zn  Zn168  1  0.56400385  0.31263932  0.56307719  1
  Zn  Zn169  1  0.56202295  0.81616749  -0.07176053  1
  Zn  Zn170  1  0.56732922  0.81436534  0.56685210  1
  O  O171  1  0.11892281  0.11370234  0.12999375  1
  O  O172  1  0.12476943  0.11519365  0.61854062  1
  O  O173  1  0.12181029  0.62939555  0.11738916  1
  O  O174  1  0.12629462  0.61536186  0.61577617  1
  O  O175  1  0.62929474  0.11841830  0.11457102  1
  O  O176  1  0.62176634  0.11097326  0.61639358  1
  O  O177  1  0.61890594  0.60717772  0.13290003  1
  O  O178  1  0.62920741  0.61708007  0.60957304  1
  O  O179  1  0.38273264  0.38042841  0.37624093  1
  O  O180  1  0.39109782  0.36868782  0.87447230  1
  O  O181  1  0.37730918  0.87787641  0.38507042  1
  O  O182  1  0.36060627  0.86709629  0.88410625  1
  O  O183  1  0.87631010  0.38805619  0.38441472  1
  O  O184  1  0.88232541  0.37973337  0.88584275  1
  O  O185  1  0.88374526  0.88617933  0.37159785  1
  O  O186  1  0.87137411  0.88574155  0.88517454  1
  O  O187  1  0.25731288  0.00877521  0.37411553  1
  O  O188  1  0.23854556  0.01121847  0.86719798  1
  O  O189  1  0.26739360  0.50741600  0.37959363  1
  O  O190  1  0.24235837  0.49327937  0.86629543  1
  O  O191  1  0.76155634  -0.00895626  0.36803620  1
  O  O192  1  0.76600200  0.01089231  0.87485769  1
  O  O193  1  0.75752209  0.50625565  0.36611176  1
  O  O194  1  0.75435180  0.51000873  0.86339261  1
  O  O195  1  0.24567394  0.47661488  0.11296218  1
  O  O196  1  0.23783959  0.48932075  0.62559654  1
  O  O197  1  0.23884774  0.99258972  0.12819020  1
  O  O198  1  0.23885575  0.99110652  0.63243037  1
  O  O199  1  0.73943670  0.50715276  0.13000387  1
  O  O200  1  0.73889020  0.50520667  0.63052875  1
  O  O201  1  0.74468944  0.99576055  0.13130684  1
  O  O202  1  0.74673671  0.99351115  0.63070021  1
  O  O203  1  0.01827984  0.37777912  0.24646980  1
  O  O204  1  0.01175439  0.36881794  0.75452123  1
  O  O205  1  0.00540113  0.86749403  0.25856085  1
  O  O206  1  0.01207350  0.86008697  0.74516727  1
  O  O207  1  0.49748378  0.36257920  0.25626709  1
  O  O208  1  0.50859929  0.37371391  0.75725768  1
  O  O209  1  0.50330190  0.86436788  0.25388081  1
  O  O210  1  0.51524673  0.86497056  0.74949484  1
  O  O211  1  0.49307456  0.13684129  0.25223595  1
  O  O212  1  0.49770908  0.13594549  0.74992915  1
  O  O213  1  0.49110184  0.63715646  0.25754095  1
  O  O214  1  0.50202007  0.63923350  0.75292025  1
  O  O215  1  0.99202640  0.11829629  0.23229435  1
  O  O216  1  0.99465860  0.13215956  0.75133154  1
  O  O217  1  0.99370316  0.63879153  0.25653878  1
  O  O218  1  1.00851743  0.63870939  0.74668561  1
  O  O219  1  0.39324045  0.24053698  0.00724245  1
  O  O220  1  0.37190978  0.25297327  0.50745818  1
  O  O221  1  0.36653965  0.75254109  0.00557203  1
  O  O222  1  0.37620749  0.75749431  0.50470095  1
  O  O223  1  0.87469592  0.26109874  0.00941407  1
  O  O224  1  0.88118844  0.26735253  0.50107049  1
  O  O225  1  0.87548863  0.75656028  0.00695587  1
  O  O226  1  0.86442732  0.74475352  0.50437811  1
  O  O227  1  0.12915679  0.24185763  0.49845673  1
  O  O228  1  0.11470600  0.25154425  0.98928155  1
  O  O229  1  0.12402121  0.73543112  0.49926933  1
  O  O230  1  0.12638931  0.74094980  0.99931513  1
  O  O231  1  0.61737840  0.23041517  0.50233606  1
  O  O232  1  0.62572515  0.24659970  0.99766238  1
  O  O233  1  0.63325546  0.74341213  0.49448805  1
  O  O234  1  0.63712729  0.75794201  1.00345963  1
  O  O235  1  0.50301510  0.25120090  0.12995314  1
  O  O236  1  0.49366947  0.25063705  0.63524538  1
  O  O237  1  0.48572412  0.75132148  0.13327866  1
  O  O238  1  0.51045202  0.74876087  0.63572325  1
  O  O239  1  0.99015027  0.24414223  0.12663785  1
  O  O240  1  0.99650772  0.24823623  0.64003760  1
  O  O241  1  0.98991113  0.75728738  0.13599978  1
  O  O242  1  0.98990797  0.74705923  0.63118201  1
  O  O243  1  0.00791249  0.22393135  0.36232343  1
  O  O244  1  0.01214910  0.24984441  0.86707652  1
  O  O245  1  -0.00067638  0.75821600  0.36823789  1
  O  O246  1  0.00602012  0.74823099  0.86936958  1
  O  O247  1  0.50339739  0.25668869  0.36842980  1
  O  O248  1  0.50784247  0.25916531  0.86249015  1
  O  O249  1  0.50529955  0.75563976  0.36799852  1
  O  O250  1  0.49832970  0.75085601  0.86221713  1
  O  O251  1  0.24107684  0.12739649  0.49564961  1
  O  O252  1  0.24928078  0.11657404  0.98550677  1
  O  O253  1  0.24215401  0.62305347  0.48905593  1
  O  O254  1  0.23449413  0.63078108  1.00685825  1
  O  O255  1  0.73389659  0.11758854  0.50029251  1
  O  O256  1  0.74166913  0.12823346  0.99544980  1
  O  O257  1  0.74307007  0.63148142  0.49123495  1
  O  O258  1  0.74957398  0.64233183  0.99637422  1
  O  O259  1  0.25837844  0.36681428  0.00674743  1
  O  O260  1  0.25637638  0.36777020  0.50500759  1
  O  O261  1  0.25430621  0.86882735  0.00917597  1
  O  O262  1  0.25605212  0.87237829  0.50642953  1
  O  O263  1  0.76314463  0.38092780  -0.00551889  1
  O  O264  1  0.76679030  0.38414929  0.50004239  1
  O  O265  1  0.76280815  0.86712940  0.00714143  1
  O  O266  1  0.74608449  0.86428983  0.50796624  1
  O  O267  1  0.12898338  0.49150881  0.25130277  1
  O  O268  1  0.12879731  0.48948729  0.74498116  1
  O  O269  1  0.12206992  0.99366293  0.24430218  1
  O  O270  1  0.12793540  0.99087383  0.74578253  1
  O  O271  1  0.63388213  0.49873638  0.24583222  1
  O  O272  1  0.63162737  0.49560938  0.74043008  1
  O  O273  1  0.62889857  0.99711506  0.24428739  1
  O  O274  1  0.63455671  1.00328981  0.74286213  1
  O  O275  1  0.37678089  0.01091527  0.25364430  1
  O  O276  1  0.36119392  -0.00464718  0.74396156  1
  O  O277  1  0.38737736  0.50993524  0.25695267  1
  O  O278  1  0.35796465  0.49365420  0.75098242  1
  O  O279  1  0.86531703  0.00028818  0.25794168  1
  O  O280  1  0.87455766  0.00461531  0.75924229  1
  O  O281  1  0.87077696  0.50428651  0.25395149  1
  O  O282  1  0.86354691  0.49445235  0.74561657  1
  O  O283  1  0.13853293  0.37521531  0.35800597  1
  O  O284  1  0.12655358  0.36187918  0.87119938  1
  O  O285  1  0.11900684  0.87626967  0.36441896  1
  O  O286  1  0.12477758  0.86826426  0.86724320  1
  O  O287  1  0.61083318  0.37769378  0.37244882  1
  O  O288  1  0.61638148  0.37243554  0.86705741  1
  O  O289  1  0.61935076  0.86861047  0.36824372  1
  O  O290  1  0.63351783  0.88650139  0.87981661  1
  O  O291  1  0.37402759  0.12516384  0.12965861  1
  O  O292  1  0.37584617  0.13524392  0.62732512  1
  O  O293  1  0.36600268  0.63136052  0.13566991  1
  O  O294  1  0.36666138  0.62101091  0.63623378  1
  O  O295  1  0.87949737  0.14002618  0.12548639  1
  O  O296  1  0.87850792  0.12252438  0.64162771  1
  O  O297  1  0.87020398  0.63921236  0.13070382  1
  O  O298  1  0.87409667  0.63712458  0.62140637  1
  O  O299  1  0.24677544  0.26568854  0.12164224  1
  O  O300  1  0.25608428  0.25266059  0.62163365  1
  O  O301  1  0.25534621  0.75517113  0.11714467  1
  O  O302  1  0.24635487  0.76071357  0.62409507  1
  O  O303  1  0.76336349  0.24952301  0.12360512  1
  O  O304  1  0.75613107  0.24547242  0.61479417  1
  O  O305  1  0.75456096  0.75506750  0.11443590  1
  O  O306  1  0.75533958  0.75606318  0.61854599  1
  O  O307  1  0.25185340  0.23669146  0.38239913  1
  O  O308  1  0.23673966  0.23796916  0.87265104  1
  O  O309  1  0.24739119  0.73937184  0.37981403  1
  O  O310  1  0.23435618  0.75894903  0.89415745  1
  O  O311  1  0.74431745  0.25604587  0.38756195  1
  O  O312  1  0.74409087  0.24698489  0.87842792  1
  O  O313  1  0.74732778  0.74715308  0.38031085  1
  O  O314  1  0.75292657  0.74410611  0.88625903  1
  O  O315  1  -0.00553180  0.11408129  0.01279750  1
  O  O316  1  0.01057643  0.12028763  0.50549041  1
  O  O317  1  0.01099976  0.61737400  -0.00017842  1
  O  O318  1  0.00840544  0.61339469  0.50246060  1
  O  O319  1  0.50053204  0.12608571  0.01018674  1
  O  O320  1  0.50270726  0.11050031  0.50357468  1
  O  O321  1  0.49752991  0.61419254  -0.00718446  1
  O  O322  1  0.50937767  0.61491053  0.49147686  1
  O  O323  1  0.49482281  0.37979478  0.49223767  1
  O  O324  1  0.49778601  0.38365813  0.98522189  1
  O  O325  1  0.49449303  0.88326394  0.49704987  1
  O  O326  1  0.48794667  0.88213538  0.99332238  1
  O  O327  1  0.99517158  0.38718404  0.50146658  1
  O  O328  1  0.99459812  0.38991495  1.00293287  1
  O  O329  1  1.00820939  0.87530153  0.48588005  1
  O  O330  1  0.98792836  0.88299527  1.00636071  1
  O  O331  1  0.49245919  0.49361891  0.38284590  1
  O  O332  1  0.50670133  0.49342793  0.88151319  1
  O  O333  1  0.49361322  0.99231874  0.38233503  1
  O  O334  1  0.49800704  1.01667830  0.89072315  1
  O  O335  1  0.99119346  0.50669417  0.38323015  1
  O  O336  1  0.99752142  0.50041393  0.88628600  1
  O  O337  1  0.98588397  0.99348047  0.37641344  1
  O  O338  1  0.99160535  1.00609012  0.88399088  1
  O  O339  1  0.00371780  0.00342410  0.11875899  1
  O  O340  1  0.01095826  -0.00272860  0.62586793  1
  O  O341  1  -0.00460332  0.50601476  0.11342391  1
  O  O342  1  0.01322557  0.50130620  0.61942368  1
  O  O343  1  0.51149365  -0.00423382  0.11850035  1
  O  O344  1  0.50739959  -0.00394425  0.62019343  1
  O  O345  1  0.50652065  0.50000711  0.10886902  1
  O  O346  1  0.50814870  0.49449080  0.61197469  1
  O  O347  1  0.24460238  0.37525848  0.23767181  1
  O  O348  1  0.24100259  0.37904655  0.74695889  1
  O  O349  1  0.24106531  0.87584245  0.24591491  1
  O  O350  1  0.23875267  0.88051591  0.74280435  1
  O  O351  1  0.75162564  0.38884350  0.25410999  1
  O  O352  1  0.73881496  0.38431196  0.75641345  1
  O  O353  1  0.74368236  0.88313918  0.24417315  1
  O  O354  1  0.74986514  0.88258705  0.74179473  1
  O  O355  1  0.25628248  0.12407160  0.25786747  1
  O  O356  1  0.24952532  0.11151101  0.75575580  1
  O  O357  1  0.25861318  0.62885279  0.26121425  1
  O  O358  1  0.23750844  0.60295195  0.74995802  1
  O  O359  1  0.75041638  0.11183209  0.24768807  1
  O  O360  1  0.75784765  0.11973437  0.75747266  1
  O  O361  1  0.75756725  0.62019619  0.25510925  1
  O  O362  1  0.74704072  0.62014718  0.75786121  1
  O  O363  1  0.36894575  0.11908339  0.36907069  1
  O  O364  1  0.35533132  0.12831388  0.86787809  1
  O  O365  1  0.36945692  0.61862328  0.36637154  1
  O  O366  1  0.35244217  0.65638657  0.85108753  1
  O  O367  1  0.87390276  0.10880346  0.37504475  1
  O  O368  1  0.87463818  0.12187024  0.86810998  1
  O  O369  1  0.86964719  0.61513027  0.36977874  1
  O  O370  1  0.85565367  0.62264223  0.88172786  1
  O  O371  1  0.13421229  0.37458049  0.13774621  1
  O  O372  1  0.12881463  0.37858775  0.63355485  1
  O  O373  1  0.12728762  0.88205816  0.13662931  1
  O  O374  1  0.13082646  0.87905923  0.63111375  1
  O  O375  1  0.62271800  0.39675140  0.12978665  1
  O  O376  1  0.62160039  0.38441660  0.63321925  1
  O  O377  1  0.63455880  0.88730163  0.13236271  1
  O  O378  1  0.63857032  0.88834721  0.62234353  1
  O  O379  1  0.12346018  0.25996360  0.25500882  1
  O  O380  1  0.12008327  0.25602802  0.75307116  1
  O  O381  1  0.11681204  0.75788726  0.25157020  1
  O  O382  1  0.12198611  0.75422111  0.76097961  1
  O  O383  1  0.61671398  0.25201969  0.25127724  1
  O  O384  1  0.61951835  0.25777352  0.75046803  1
  O  O385  1  0.61818849  0.75201095  0.25194308  1
  O  O386  1  0.61842688  0.75304427  0.75095433  1
  O  O387  1  0.38151700  0.23622231  0.25505462  1
  O  O388  1  0.38242531  0.25126175  0.74264600  1
  O  O389  1  0.38121833  0.74319919  0.24427482  1
  O  O390  1  0.39672619  0.76875770  0.73203804  1
  O  O391  1  0.87725221  0.25270272  0.24070938  1
  O  O392  1  0.88360128  0.24416595  0.75411544  1
  O  O393  1  0.88039616  0.74731932  0.24326968  1
  O  O394  1  0.88310037  0.75519149  0.74287651  1
  O  O395  1  0.38287407  0.49372573  0.49374318  1
  O  O396  1  0.38874454  0.50066757  0.99919596  1
  O  O397  1  0.38066377  0.99439078  0.49662687  1
  O  O398  1  0.38371260  0.98598754  1.00628747  1
  O  O399  1  0.88324072  0.49411015  0.49427578  1
  O  O400  1  0.88376381  0.49726128  1.00224001  1
  O  O401  1  0.87411202  1.00104154  0.48979176  1
  O  O402  1  0.88231548  0.99385033  0.99629419  1
  O  O403  1  0.11180517  -0.00944859  0.00965634  1
  O  O404  1  0.12415033  0.00571183  0.51044593  1
  O  O405  1  0.11491572  0.51244807  0.00003700  1
  O  O406  1  0.12131339  0.50468808  0.50502769  1
  O  O407  1  0.61808850  0.01078226  0.00824019  1
  O  O408  1  0.61718824  0.00480704  0.50503730  1
  O  O409  1  0.61681557  0.49966685  0.00740769  1
  O  O410  1  0.62017848  0.50513021  0.50431811  1
  O  O411  1  0.36855098  0.37160950  0.12170898  1
  O  O412  1  0.37072227  0.36410925  0.62014926  1
  O  O413  1  0.36721622  0.86496546  0.12175319  1
  O  O414  1  0.36427726  0.88116901  0.61173510  1
  O  O415  1  0.87909005  0.36437425  0.11897142  1
  O  O416  1  0.88026583  0.37822319  0.61092595  1
  O  O417  1  0.86848471  0.86632181  0.12114808  1
  O  O418  1  0.86505764  0.86616513  0.62593644  1
  O  O419  1  0.13543556  0.11526620  0.38527739  1
  O  O420  1  0.13341327  0.13777575  0.87298908  1
  O  O421  1  0.13354220  0.62383408  0.38047151  1
  O  O422  1  0.12446793  0.63532334  0.88551443  1
  O  O423  1  0.61834982  0.12101712  0.39063968  1
  O  O424  1  0.62903843  0.13365243  0.88760359  1
  O  O425  1  0.63072154  0.63010021  0.38209586  1
  O  O426  1  0.64672800  0.61972821  0.88169864  1
