# generated using pymatgen
data_V85Zn86O256
_symmetry_space_group_name_H-M   'P 1'
_cell_length_a   16.95271431
_cell_length_b   16.95521560
_cell_length_c   16.94309305
_cell_angle_alpha   89.99427343
_cell_angle_beta   90.08870645
_cell_angle_gamma   90.01729573
_symmetry_Int_Tables_number   1
_chemical_formula_structural   V85Zn86O256
_chemical_formula_sum   'V85 Zn86 O256'
_cell_volume   4870.06450395
_cell_formula_units_Z   1
loop_
 _symmetry_equiv_pos_site_id
 _symmetry_equiv_pos_as_xyz
  1  'x, y, z'
loop_
 _atom_site_type_symbol
 _atom_site_label
 _atom_site_symmetry_multiplicity
 _atom_site_fract_x
 _atom_site_fract_y
 _atom_site_fract_z
 _atom_site_occupancy
  V  V0  1  0.36890291  0.61823991  0.74672889  1
  V  V1  1  0.12461361  0.00307510  0.63233739  1
  V  V2  1  -0.00760426  0.61697565  0.62944774  1
  V  V3  1  0.12921717  0.37393755  0.75759719  1
  V  V4  1  0.74675576  0.62378716  0.87673409  1
  V  V5  1  0.87473497  0.00630859  0.37183287  1
  V  V6  1  0.62732181  0.74873921  0.37707742  1
  V  V7  1  0.49476909  0.37124199  0.37795348  1
  V  V8  1  0.62902933  0.13777357  0.49503812  1
  V  V9  1  0.36617933  0.49482127  0.36839277  1
  V  V10  1  0.24896651  0.75009802  -0.00359085  1
  V  V11  1  0.24716454  0.61981480  0.87151433  1
  V  V12  1  -0.00408874  0.13775784  0.62366172  1
  V  V13  1  0.00368849  0.24999372  0.76627759  1
  V  V14  1  0.12489840  0.63362216  0.49913279  1
  V  V15  1  0.49810711  0.62261579  0.62476620  1
  V  V16  1  0.87488713  0.13220212  0.75088146  1
  V  V17  1  0.75436162  0.00173834  0.75667093  1
  V  V18  1  0.37406221  0.25508280  0.61904820  1
  V  V19  1  0.75407557  0.87521694  0.12428748  1
  V  V20  1  0.75254792  0.62624831  0.37736391  1
  V  V21  1  0.37546250  0.12550237  0.75140492  1
  V  V22  1  0.24689276  -0.00227279  0.75485648  1
  V  V23  1  0.62429366  0.00347131  0.62675323  1
  V  V24  1  0.36370396  0.11119667  0.26229138  1
  V  V25  1  0.33040478  0.93314505  0.44493867  1
  V  V26  1  0.62541522  -0.00117863  0.12599038  1
  V  V27  1  0.49907749  0.73994890  0.24344802  1
  V  V28  1  0.00074680  0.62770555  0.12377908  1
  V  V29  1  0.36982956  0.24647097  0.12172237  1
  V  V30  1  0.00940441  0.75281723  0.25451215  1
  V  V31  1  0.74858574  0.50173348  0.24826890  1
  V  V32  1  0.91331713  0.78425821  0.64676365  1
  V  V33  1  0.01112159  -0.00558038  -0.01366774  1
  V  V34  1  0.00327684  0.87109365  0.37745686  1
  V  V35  1  0.11482357  0.76031055  0.85794487  1
  V  V36  1  0.88019224  0.88064372  -0.01764490  1
  V  V37  1  0.50050361  0.87437292  0.37731016  1
  V  V38  1  0.24974124  0.87894791  0.13044206  1
  V  V39  1  0.75954510  0.12622068  0.87784847  1
  V  V40  1  0.24962778  0.37438509  0.62129301  1
  V  V41  1  0.37499298  0.49166442  0.87106628  1
  V  V42  1  0.24462690  0.62719641  0.36620610  1
  V  V43  1  0.62527017  0.87446134  0.25048248  1
  V  V44  1  0.87450203  0.37591113  0.00917753  1
  V  V45  1  0.24745444  0.13709765  0.87823390  1
  V  V46  1  0.12667948  0.12975424  0.49766626  1
  V  V47  1  0.61467645  0.62540811  0.00211482  1
  V  V48  1  0.49793597  0.12225276  0.12867770  1
  V  V49  1  0.00003259  0.49188866  0.49646027  1
  V  V50  1  0.25183712  0.37580604  0.12300290  1
  V  V51  1  0.81575292  0.31893881  0.56447666  1
  V  V52  1  0.49727865  0.48830691  -0.00334987  1
  V  V53  1  0.75320213  0.00118630  0.25077716  1
  V  V54  1  0.13003189  0.14121834  -0.00056186  1
  V  V55  1  0.49263990  0.49583914  0.49902923  1
  V  V56  1  0.75080571  0.49214221  0.74576039  1
  V  V57  1  0.50304624  -0.00552457  0.49997095  1
  V  V58  1  0.13060138  0.49749918  0.62643328  1
  V  V59  1  0.87205429  0.87827048  0.50104604  1
  V  V60  1  0.50086662  0.12771005  0.62572030  1
  V  V61  1  0.50137594  0.24483754  0.25524889  1
  V  V62  1  0.62590900  0.62291645  0.50286989  1
  V  V63  1  0.61745418  0.50276448  0.12672710  1
  V  V64  1  0.87839150  0.14216153  0.23956325  1
  V  V65  1  0.62141275  0.87480901  0.75206827  1
  V  V66  1  0.25232961  0.25087624  0.48684871  1
  V  V67  1  0.10737891  0.24648746  0.36665698  1
  V  V68  1  0.12978385  0.50191176  0.13358283  1
  V  V69  1  0.62639567  0.12492275  -0.00086547  1
  V  V70  1  0.37466546  0.75088017  0.61831522  1
  V  V71  1  0.25300043  0.87536088  0.63107725  1
  V  V72  1  0.75043612  0.25291046  0.00645059  1
  V  V73  1  0.61813370  0.25498129  0.87652517  1
  V  V74  1  0.62375125  0.36931803  0.25432088  1
  V  V75  1  0.49621989  0.87249282  0.87507194  1
  V  V76  1  0.87421880  0.49353971  0.37642916  1
  V  V77  1  0.00318938  0.50202017  0.00073204  1
  V  V78  1  0.61918981  0.37500127  0.74798985  1
  V  V79  1  0.87448223  0.62931715  0.25082057  1
  V  V80  1  0.87592673  0.49942113  0.87516961  1
  V  V81  1  0.87868839  0.75687119  0.12350733  1
  V  V82  1  0.74412606  0.87009419  0.62589499  1
  V  V83  1  -0.00343556  0.00593217  0.50328802  1
  V  V84  1  0.49913201  -0.00204630  0.00025513  1
  Zn  Zn85  1  0.12348331  0.62814375  -0.00522876  1
  Zn  Zn86  1  0.49733863  0.74710352  0.75066947  1
  Zn  Zn87  1  0.74129238  0.13816312  0.37308247  1
  Zn  Zn88  1  0.37591522  0.74176925  0.11881305  1
  Zn  Zn89  1  0.00724015  0.37482774  0.87946235  1
  Zn  Zn90  1  0.37147081  0.36500683  -0.00778260  1
  Zn  Zn91  1  0.62693579  0.49349893  0.62154718  1
  Zn  Zn92  1  0.00297410  0.12923296  0.12777565  1
  Zn  Zn93  1  0.87397952  0.62756774  0.74986136  1
  Zn  Zn94  1  0.13260384  0.88253452  0.25795814  1
  Zn  Zn95  1  0.75064696  0.37261832  0.12917442  1
  Zn  Zn96  1  0.12402119  0.00157287  0.13032446  1
  Zn  Zn97  1  0.37468481  0.87214662  0.00138022  1
  Zn  Zn98  1  0.37175854  0.61526165  0.24052558  1
  Zn  Zn99  1  0.75811852  0.74501784  0.50726642  1
  Zn  Zn100  1  0.74996190  0.75044720  -0.00140491  1
  Zn  Zn101  1  0.49609889  0.25419166  0.75447729  1
  Zn  Zn102  1  -0.00295962  0.37271565  0.36371293  1
  Zn  Zn103  1  0.62284872  0.74834292  0.87664334  1
  Zn  Zn104  1  0.37297464  -0.00068497  0.87713159  1
  Zn  Zn105  1  0.24949885  0.75065737  0.49686562  1
  Zn  Zn106  1  0.12627975  0.37272147  0.24938703  1
  Zn  Zn107  1  0.19256154  0.18425750  0.18718300  1
  Zn  Zn108  1  0.18643774  0.19160402  0.68900279  1
  Zn  Zn109  1  0.18749208  0.69012243  0.18244381  1
  Zn  Zn110  1  0.18753032  0.68506853  0.68555148  1
  Zn  Zn111  1  0.68817595  0.18564151  0.18904172  1
  Zn  Zn112  1  0.69076563  0.19542927  0.68411532  1
  Zn  Zn113  1  0.68695062  0.68800922  0.18472119  1
  Zn  Zn114  1  0.68567621  0.68485320  0.69114466  1
  Zn  Zn115  1  0.31281534  0.30984304  0.30415939  1
  Zn  Zn116  1  0.31022897  0.31299669  0.80596474  1
  Zn  Zn117  1  0.31117735  0.80230185  0.30805112  1
  Zn  Zn118  1  0.31149319  0.80735879  0.81016592  1
  Zn  Zn119  1  0.80406991  0.31173057  0.31668798  1
  Zn  Zn120  1  0.81149926  0.31273283  0.81691796  1
  Zn  Zn121  1  0.81526293  0.81329369  0.31361778  1
  Zn  Zn122  1  0.80829194  0.80828241  0.81124011  1
  Zn  Zn123  1  0.18484153  0.43464956  0.43820602  1
  Zn  Zn124  1  0.19227124  0.43792753  0.94379937  1
  Zn  Zn125  1  0.16999514  0.93873458  0.44296979  1
  Zn  Zn126  1  0.18828295  0.93215181  0.93461831  1
  Zn  Zn127  1  0.68616549  0.43340608  0.43782301  1
  Zn  Zn128  1  0.68558295  0.43675169  0.93553220  1
  Zn  Zn129  1  0.68774307  0.94139202  0.43752952  1
  Zn  Zn130  1  0.68827460  0.93659103  0.93729641  1
  Zn  Zn131  1  0.31334273  0.06172484  0.06378195  1
  Zn  Zn132  1  0.30847718  0.07172003  0.56660094  1
  Zn  Zn133  1  0.31373772  0.56302138  0.06054831  1
  Zn  Zn134  1  0.31049171  0.56030377  0.55621339  1
  Zn  Zn135  1  0.81725569  0.05770246  0.05954343  1
  Zn  Zn136  1  0.80961887  0.06721503  0.56824068  1
  Zn  Zn137  1  0.80977514  0.56332634  0.06348993  1
  Zn  Zn138  1  0.81274681  0.54949079  0.56158776  1
  Zn  Zn139  1  0.43747833  0.43517392  0.18619141  1
  Zn  Zn140  1  0.43804778  0.43618817  0.68753576  1
  Zn  Zn141  1  0.43355989  0.93095575  0.18747336  1
  Zn  Zn142  1  0.43469049  0.93853229  0.68624363  1
  Zn  Zn143  1  0.94125279  0.43646698  0.19043822  1
  Zn  Zn144  1  0.93945254  0.43383092  0.69021745  1
  Zn  Zn145  1  0.94822765  0.94432010  0.18460145  1
  Zn  Zn146  1  0.93716923  0.95156179  0.69275933  1
  Zn  Zn147  1  0.06034892  0.06393689  0.31001815  1
  Zn  Zn148  1  0.06246459  0.06377320  0.81764903  1
  Zn  Zn149  1  0.06183807  0.56396930  0.31225635  1
  Zn  Zn150  1  0.06571570  0.56090319  0.81024600  1
  Zn  Zn151  1  0.55958007  0.06014569  0.31591400  1
  Zn  Zn152  1  0.56386025  0.06388836  0.81552891  1
  Zn  Zn153  1  0.56292724  0.55836959  0.31708063  1
  Zn  Zn154  1  0.55859211  0.55926421  0.81350342  1
  Zn  Zn155  1  0.43883520  0.18465296  0.43758628  1
  Zn  Zn156  1  0.43736695  0.18418188  0.93847333  1
  Zn  Zn157  1  0.43419910  0.68315622  0.43308210  1
  Zn  Zn158  1  0.43510442  0.68364142  0.93531972  1
  Zn  Zn159  1  0.89955579  0.21103075  0.42602282  1
  Zn  Zn160  1  0.95623781  0.20528560  0.97147782  1
  Zn  Zn161  1  0.93808280  0.68810290  0.44583870  1
  Zn  Zn162  1  0.93808289  0.68974251  0.93521013  1
  Zn  Zn163  1  0.06069584  0.31319875  0.07130124  1
  Zn  Zn164  1  0.05620591  0.31055384  0.56156036  1
  Zn  Zn165  1  0.06786143  0.81396955  0.05713036  1
  Zn  Zn166  1  0.06369209  0.81755384  0.57669701  1
  Zn  Zn167  1  0.56180372  0.31188936  0.06835310  1
  Zn  Zn168  1  0.56339195  0.31421743  0.56536898  1
  Zn  Zn169  1  0.56444419  0.81174121  0.06219469  1
  Zn  Zn170  1  0.56083124  0.80908745  0.56258794  1
  O  O171  1  0.13051649  0.12384883  0.10822246  1
  O  O172  1  0.11970107  0.12120102  0.62043335  1
  O  O173  1  0.11933718  0.61907038  0.11955393  1
  O  O174  1  0.11953022  0.61416337  0.61890488  1
  O  O175  1  0.61949163  0.11727735  0.11926207  1
  O  O176  1  0.61935493  0.12211453  0.62016082  1
  O  O177  1  0.62938478  0.61563914  0.11497757  1
  O  O178  1  0.61744295  0.62302354  0.61811621  1
  O  O179  1  0.38534615  0.37935230  0.36948526  1
  O  O180  1  0.36649210  0.38648489  0.87304956  1
  O  O181  1  0.38088843  0.86998588  0.37852242  1
  O  O182  1  0.38657217  0.87719691  0.87245817  1
  O  O183  1  0.87643125  0.39171497  0.36456564  1
  O  O184  1  0.87450369  0.38948575  0.88379933  1
  O  O185  1  0.87903589  0.88367899  0.38512277  1
  O  O186  1  0.87279894  0.87004051  0.88438148  1
  O  O187  1  0.26570329  -0.01339502  0.39332788  1
  O  O188  1  0.25259878  0.00506900  0.86658371  1
  O  O189  1  0.25782367  0.50747622  0.38240291  1
  O  O190  1  0.25820571  0.51252804  0.88084090  1
  O  O191  1  0.75863979  0.00244693  0.36906317  1
  O  O192  1  0.74213741  0.00895213  0.86375604  1
  O  O193  1  0.75528986  0.50755159  0.36907538  1
  O  O194  1  0.75608214  0.50606776  0.86966124  1
  O  O195  1  0.24091070  0.48972150  0.11765274  1
  O  O196  1  0.24157437  0.48907627  0.61652858  1
  O  O197  1  0.25096343  0.98153142  0.11795493  1
  O  O198  1  0.24545258  0.99805271  0.63392705  1
  O  O199  1  0.73843167  0.49943670  0.13215082  1
  O  O200  1  0.74374127  0.50970446  0.64244925  1
  O  O201  1  0.74541090  0.99393845  0.13014826  1
  O  O202  1  0.74251813  0.99372271  0.63760598  1
  O  O203  1  0.01153281  0.37728930  0.25014422  1
  O  O204  1  0.00794112  0.36627926  0.75456464  1
  O  O205  1  -0.00497413  0.86755547  0.26155825  1
  O  O206  1  -0.01036855  0.85199941  0.68006455  1
  O  O207  1  0.50468234  0.36488719  0.25551806  1
  O  O208  1  0.51387194  0.37330208  0.75114252  1
  O  O209  1  0.50615957  0.86663308  0.25875540  1
  O  O210  1  0.50617612  0.87711457  0.75665829  1
  O  O211  1  0.50047152  0.13036278  0.24547884  1
  O  O212  1  0.49152268  0.12489849  0.74502550  1
  O  O213  1  0.50514387  0.63886579  0.25773341  1
  O  O214  1  0.49080430  0.62432747  0.74224488  1
  O  O215  1  0.98286109  0.12487967  0.24501929  1
  O  O216  1  0.99357610  0.13122471  0.74953351  1
  O  O217  1  0.99365578  0.63401648  0.24505659  1
  O  O218  1  0.99662061  0.61535950  0.73294516  1
  O  O219  1  0.38639817  0.24904581  0.01629243  1
  O  O220  1  0.36571705  0.24123957  0.50819414  1
  O  O221  1  0.36289876  0.75016649  -0.00462073  1
  O  O222  1  0.37334733  0.74064600  0.51410741  1
  O  O223  1  0.85978007  0.26636646  -0.01415845  1
  O  O224  1  0.89629367  0.26893952  0.52282288  1
  O  O225  1  0.87596768  0.76223475  0.00629919  1
  O  O226  1  0.87952436  0.76722836  0.52170304  1
  O  O227  1  0.12872982  0.24485346  0.49169381  1
  O  O228  1  0.12812158  0.23872322  0.99484581  1
  O  O229  1  0.12443400  0.73657064  0.50792669  1
  O  O230  1  0.13579878  0.74852861  0.98868166  1
  O  O231  1  0.61981605  0.23623279  0.50242142  1
  O  O232  1  0.62866952  0.24647690  0.99467692  1
  O  O233  1  0.62558130  0.73706221  0.49548072  1
  O  O234  1  0.62779791  0.73962778  0.99959865  1
  O  O235  1  0.49563080  0.24340095  0.13713556  1
  O  O236  1  0.49073153  0.24539531  0.62687482  1
  O  O237  1  0.50211289  0.75469222  0.14082393  1
  O  O238  1  0.49211501  0.74231770  0.62708288  1
  O  O239  1  0.98777811  0.23226135  0.08160365  1
  O  O240  1  1.00867655  0.23980317  0.64081896  1
  O  O241  1  0.99507560  0.74850346  0.13058910  1
  O  O242  1  1.00228861  0.72336434  0.61392455  1
  O  O243  1  0.00563430  0.25092233  0.37847458  1
  O  O244  1  -0.00166224  0.25216013  0.86955573  1
  O  O245  1  -0.01322019  0.75945798  0.36773303  1
  O  O246  1  0.01560040  0.74390784  0.87335945  1
  O  O247  1  0.49506019  0.25661888  0.36438840  1
  O  O248  1  0.51365138  0.24084159  0.87354025  1
  O  O249  1  0.50554624  0.75744998  0.37084146  1
  O  O250  1  0.50136058  0.75816749  0.87173932  1
  O  O251  1  0.23507652  0.13470220  0.50513357  1
  O  O252  1  0.24251215  0.11849071  0.98765591  1
  O  O253  1  0.23988686  0.62583407  0.49231134  1
  O  O254  1  0.24741350  0.63222643  0.98840527  1
  O  O255  1  0.73072070  0.11524553  0.50171398  1
  O  O256  1  0.74676797  0.13004914  0.99515565  1
  O  O257  1  0.74306221  0.62443219  0.49846047  1
  O  O258  1  0.74037680  0.62216558  0.98912576  1
  O  O259  1  0.25425872  0.37243138  0.01421226  1
  O  O260  1  0.24421407  0.36367047  0.51144595  1
  O  O261  1  0.25399554  0.86653029  0.00511604  1
  O  O262  1  0.26010649  0.87686974  0.50268505  1
  O  O263  1  0.75426468  0.36959257  0.00184149  1
  O  O264  1  0.75760841  0.37673058  0.50122993  1
  O  O265  1  0.76368652  0.87677882  0.00435124  1
  O  O266  1  0.75491721  0.87517560  0.50849648  1
  O  O267  1  0.12335687  0.50341927  0.23573993  1
  O  O268  1  0.11921318  0.49035989  0.73390137  1
  O  O269  1  0.11549530  0.99431000  0.24472573  1
  O  O270  1  0.13177890  1.00721958  0.74063941  1
  O  O271  1  0.62763289  0.49541962  0.24359696  1
  O  O272  1  0.62953643  0.48812130  0.75281212  1
  O  O273  1  0.63228752  0.99442232  0.24703430  1
  O  O274  1  0.62998527  0.99132020  0.74734422  1
  O  O275  1  0.38355032  0.01289490  0.24726525  1
  O  O276  1  0.36646380  0.01278904  0.74830303  1
  O  O277  1  0.38271418  0.49977242  0.26388425  1
  O  O278  1  0.37930992  0.50682491  0.75690033  1
  O  O279  1  0.86799663  -0.00361860  0.25732764  1
  O  O280  1  0.86564031  0.01373255  0.75315252  1
  O  O281  1  0.86842084  0.51138436  0.25356492  1
  O  O282  1  0.86775181  0.50096387  0.75964898  1
  O  O283  1  0.12469535  0.35773234  0.37346959  1
  O  O284  1  0.12860610  0.38646892  0.86109149  1
  O  O285  1  0.10868385  0.87145718  0.37798228  1
  O  O286  1  0.12864723  0.85966389  0.86962098  1
  O  O287  1  0.61250218  0.38244133  0.36190189  1
  O  O288  1  0.62605179  0.36527238  0.86618306  1
  O  O289  1  0.61966593  0.86831226  0.37181290  1
  O  O290  1  0.61472909  0.87461337  0.86878400  1
  O  O291  1  0.38098313  0.12919712  0.13056121  1
  O  O292  1  0.37938395  0.13459180  0.63282029  1
  O  O293  1  0.37079810  0.62871952  0.12928472  1
  O  O294  1  0.37722147  0.62655907  0.62958556  1
  O  O295  1  0.86889331  0.12099368  0.13898143  1
  O  O296  1  0.88514820  0.12017354  0.63669317  1
  O  O297  1  0.87852921  0.63854623  0.12750443  1
  O  O298  1  0.88809380  0.61746723  0.62411287  1
  O  O299  1  0.26012870  0.25690611  0.12615818  1
  O  O300  1  0.25604949  0.25363850  0.61610506  1
  O  O301  1  0.24919477  0.75722819  0.11247294  1
  O  O302  1  0.25423536  0.76010737  0.62160889  1
  O  O303  1  0.74216499  0.25148723  0.11037544  1
  O  O304  1  0.75918505  0.25111943  0.61636197  1
  O  O305  1  0.75966016  0.75718229  0.12216108  1
  O  O306  1  0.74281866  0.76482465  0.62643168  1
  O  O307  1  0.24704720  0.25435855  0.38493768  1
  O  O308  1  0.25578768  0.23534437  0.87289348  1
  O  O309  1  0.25413565  0.73262431  0.38009753  1
  O  O310  1  0.24517623  0.73956639  0.87736181  1
  O  O311  1  0.78935687  0.23731293  0.39615428  1
  O  O312  1  0.73819774  0.24312090  0.88368788  1
  O  O313  1  0.74720363  0.74445923  0.38152450  1
  O  O314  1  0.74575365  0.73910830  0.87761055  1
  O  O315  1  0.02268416  0.11024687  -0.01511200  1
  O  O316  1  0.00649004  0.12233937  0.51113788  1
  O  O317  1  -0.00088261  0.61878479  0.00651468  1
  O  O318  1  0.00745431  0.61397321  0.50535348  1
  O  O319  1  0.50647055  0.11522192  0.00654760  1
  O  O320  1  0.50900741  0.11618276  0.50501956  1
  O  O321  1  0.51110615  0.61539711  -0.00547697  1
  O  O322  1  0.50643512  0.61690552  0.50249189  1
  O  O323  1  0.50737960  0.38277119  0.48992335  1
  O  O324  1  0.49780414  0.38502336  1.00341966  1
  O  O325  1  0.50238470  0.88210288  0.49361567  1
  O  O326  1  0.49970685  0.87994197  0.99235697  1
  O  O327  1  1.00930574  0.38947643  0.49255792  1
  O  O328  1  0.99216437  0.38585021  0.99813886  1
  O  O329  1  0.99196385  0.88337385  0.49830397  1
  O  O330  1  0.98979720  0.88259951  1.00212822  1
  O  O331  1  0.49222265  0.49185655  0.38118745  1
  O  O332  1  0.48824315  0.50164685  0.88429821  1
  O  O333  1  0.50341803  0.98372581  0.38330953  1
  O  O334  1  0.49949296  0.99309051  0.88370370  1
  O  O335  1  0.99164120  0.50303097  0.38055810  1
  O  O336  1  0.99253967  0.50172342  0.88256197  1
  O  O337  1  0.99146918  0.99229048  0.38418298  1
  O  O338  1  1.00318819  0.99301511  0.88576093  1
  O  O339  1  0.00160272  0.00891363  0.10706999  1
  O  O340  1  0.00895615  0.01389657  0.62373215  1
  O  O341  1  0.00500334  0.50858281  0.11715094  1
  O  O342  1  0.00568543  0.50352759  0.61650802  1
  O  O343  1  0.50636983  -0.00084135  0.11843266  1
  O  O344  1  0.50441921  0.00569092  0.61948818  1
  O  O345  1  0.51095145  0.49664174  0.11812053  1
  O  O346  1  0.50138226  0.50324592  0.61523687  1
  O  O347  1  0.24439251  0.36998699  0.23215874  1
  O  O348  1  0.24046520  0.36767431  0.73363441  1
  O  O349  1  0.24930713  0.86493804  0.23615566  1
  O  O350  1  0.25579380  0.88798388  0.74428679  1
  O  O351  1  0.74051203  0.38077132  0.25077620  1
  O  O352  1  0.73829629  0.38363723  0.75993049  1
  O  O353  1  0.74459494  0.87982010  0.24543951  1
  O  O354  1  0.74321084  0.88269025  0.74641200  1
  O  O355  1  0.26455924  0.12194217  0.24957082  1
  O  O356  1  0.25442468  0.11979205  0.75924848  1
  O  O357  1  0.24606933  0.62890569  0.26309143  1
  O  O358  1  0.26112089  0.62499419  0.75397838  1
  O  O359  1  0.75785727  0.11856643  0.25443378  1
  O  O360  1  0.75522980  0.12163408  0.75500495  1
  O  O361  1  0.75466615  0.62290278  0.25631657  1
  O  O362  1  0.74922578  0.61766043  0.76221257  1
  O  O363  1  0.38047845  0.12423341  0.36140797  1
  O  O364  1  0.36633743  0.12199101  0.86889891  1
  O  O365  1  0.36201995  0.61480735  0.37014097  1
  O  O366  1  0.36833489  0.61698086  0.86476107  1
  O  O367  1  0.88190428  0.11173855  0.36307704  1
  O  O368  1  0.86108004  0.12925016  0.87200341  1
  O  O369  1  0.86835718  0.62262473  0.37248891  1
  O  O370  1  0.86694731  0.61644630  0.87490641  1
  O  O371  1  0.13381909  0.38284210  0.12238403  1
  O  O372  1  0.12987408  0.37980197  0.62934995  1
  O  O373  1  0.13972999  0.87343276  0.12540910  1
  O  O374  1  0.14377575  0.89010502  0.61536151  1
  O  O375  1  0.62542758  0.38268082  0.13809060  1
  O  O376  1  0.62507392  0.37519661  0.64180428  1
  O  O377  1  0.63267634  0.87988609  0.12980808  1
  O  O378  1  0.62678320  0.88188912  0.63179246  1
  O  O379  1  0.12674680  0.24029779  0.26597999  1
  O  O380  1  0.11723074  0.26010271  0.75119162  1
  O  O381  1  0.11126227  0.75379704  0.24800298  1
  O  O382  1  0.12805330  0.74715625  0.75846118  1
  O  O383  1  0.61709058  0.25744046  0.24782471  1
  O  O384  1  0.62522916  0.25971013  0.75714699  1
  O  O385  1  0.61808112  0.75450068  0.25614237  1
  O  O386  1  0.62229435  0.76442960  0.75091695  1
  O  O387  1  0.38377402  0.23889594  0.24075302  1
  O  O388  1  0.37556493  0.23927768  0.74293651  1
  O  O389  1  0.39265421  0.74486153  0.25181069  1
  O  O390  1  0.37516530  0.73955033  0.73716239  1
  O  O391  1  0.86841823  0.24028638  0.24492211  1
  O  O392  1  0.88177480  0.23943188  0.75780593  1
  O  O393  1  0.88092545  0.74742456  0.24121572  1
  O  O394  1  0.87021792  0.74703233  0.73469735  1
  O  O395  1  0.38716329  0.50300130  0.48885034  1
  O  O396  1  0.38320105  0.49706916  0.99060110  1
  O  O397  1  0.38374752  0.99994267  0.50625389  1
  O  O398  1  0.38878279  0.99750923  0.99953518  1
  O  O399  1  0.88596570  0.50531814  0.48764110  1
  O  O400  1  0.88235723  0.49773331  0.99536689  1
  O  O401  1  0.87537588  0.99521296  0.49521937  1
  O  O402  1  0.88459866  0.98664721  0.99780143  1
  O  O403  1  0.11697383  -0.00531817  0.00164348  1
  O  O404  1  0.11831995  0.01180667  0.51149519  1
  O  O405  1  0.11258061  0.50171797  0.00469118  1
  O  O406  1  0.11867461  0.50683880  0.50776253  1
  O  O407  1  0.61670180  0.00278690  0.00436574  1
  O  O408  1  0.61497534  0.00273002  0.50706521  1
  O  O409  1  0.61773704  0.50329429  0.00633078  1
  O  O410  1  0.61658574  0.50933071  0.49874642  1
  O  O411  1  0.36659093  0.36679482  0.12543247  1
  O  O412  1  0.36769854  0.36254326  0.63028481  1
  O  O413  1  0.36451314  0.86466885  0.12292882  1
  O  O414  1  0.36450193  0.86671264  0.62836517  1
  O  O415  1  0.86973909  0.38528553  0.11277606  1
  O  O416  1  0.85991483  0.38432712  0.62967135  1
  O  O417  1  0.87406223  0.86687566  0.12290297  1
  O  O418  1  0.85883479  0.88448544  0.61944649  1
  O  O419  1  0.11622000  0.13506549  0.38632477  1
  O  O420  1  0.14091867  0.12208677  0.88223105  1
  O  O421  1  0.13664463  0.61789090  0.38308080  1
  O  O422  1  0.13443633  0.62779278  0.87255435  1
  O  O423  1  0.62410154  0.12206200  0.38979308  1
  O  O424  1  0.63384175  0.13098764  0.88186574  1
  O  O425  1  0.63274911  0.62830747  0.38306273  1
  O  O426  1  0.63003417  0.62397049  0.88172885  1
