# generated using pymatgen
data_V85Zn86O256
_symmetry_space_group_name_H-M   'P 1'
_cell_length_a   16.94158854
_cell_length_b   16.95353779
_cell_length_c   16.93777915
_cell_angle_alpha   90.06719979
_cell_angle_beta   90.09554056
_cell_angle_gamma   90.06365919
_symmetry_Int_Tables_number   1
_chemical_formula_structural   V85Zn86O256
_chemical_formula_sum   'V85 Zn86 O256'
_cell_volume   4864.85345693
_cell_formula_units_Z   1
loop_
 _symmetry_equiv_pos_site_id
 _symmetry_equiv_pos_as_xyz
  1  'x, y, z'
loop_
 _atom_site_type_symbol
 _atom_site_label
 _atom_site_symmetry_multiplicity
 _atom_site_fract_x
 _atom_site_fract_y
 _atom_site_fract_z
 _atom_site_occupancy
  V  V0  1  0.50073234  0.37994848  0.87821984  1
  V  V1  1  0.62521094  0.36505809  0.25945595  1
  V  V2  1  0.62453374  0.50081896  0.62853500  1
  V  V3  1  0.36984726  0.61611229  0.75268314  1
  V  V4  1  0.74839257  0.50329794  0.74966070  1
  V  V5  1  0.37638416  0.87683866  0.00376933  1
  V  V6  1  0.76369384  0.00753373  0.74842329  1
  V  V7  1  0.36907660  0.49431956  0.36310744  1
  V  V8  1  0.87028921  0.62614374  0.24912843  1
  V  V9  1  0.62825867  0.12219393  0.00455568  1
  V  V10  1  0.24212457  0.62008318  0.36357189  1
  V  V11  1  -0.00386801  0.50394622  0.00034291  1
  V  V12  1  0.60880031  0.49683233  0.12187556  1
  V  V13  1  0.00068708  0.37192891  0.36666984  1
  V  V14  1  0.00810830  0.24440349  0.74986729  1
  V  V15  1  0.25032266  0.12482202  0.87661897  1
  V  V16  1  0.49562788  0.25167799  0.74622908  1
  V  V17  1  0.87947918  0.62865837  0.73312855  1
  V  V18  1  0.75101086  0.37510949  0.12732764  1
  V  V19  1  0.24092099  0.74043026  0.50252099  1
  V  V20  1  0.50353556  0.12446446  0.12716717  1
  V  V21  1  0.74755137  0.49918494  0.25110216  1
  V  V22  1  0.00011107  0.88172974  0.88056022  1
  V  V23  1  0.40851947  0.84180061  0.47759437  1
  V  V24  1  0.74532478  -0.00062676  0.24521028  1
  V  V25  1  0.87567417  0.37743268  -0.00044090  1
  V  V26  1  0.12717634  0.50858503  0.63661068  1
  V  V27  1  0.74161087  0.87209084  0.12093627  1
  V  V28  1  0.01330910  0.37877180  0.86782007  1
  V  V29  1  0.75736693  0.12716964  0.87089064  1
  V  V30  1  0.12364537  0.62810226  0.00136317  1
  V  V31  1  -0.00408003  0.75115084  0.25108073  1
  V  V32  1  0.49648604  0.75301045  0.75262739  1
  V  V33  1  0.50011877  0.36437556  0.38038519  1
  V  V34  1  0.24061016  0.37223951  0.64107520  1
  V  V35  1  0.37809154  0.37885158  0.00209717  1
  V  V36  1  -0.00365013  0.62615951  0.12422915  1
  V  V37  1  0.50157810  0.87819593  0.87425882  1
  V  V38  1  0.36489870  0.36868098  0.50648483  1
  V  V39  1  0.74486803  0.63336325  0.37369274  1
  V  V40  1  0.62392916  0.62514408  0.49904850  1
  V  V41  1  0.24639397  0.12207255  0.38441150  1
  V  V42  1  0.11655430  0.24036575  0.37552269  1
  V  V43  1  0.50389149  0.00190486  0.00252854  1
  V  V44  1  -0.00170873  0.74934268  0.73594072  1
  V  V45  1  0.87902594  0.37391237  0.50401642  1
  V  V46  1  0.25401714  0.24494385  0.01129566  1
  V  V47  1  0.12338455  0.87359185  0.24812133  1
  V  V48  1  0.62704124  0.25158636  0.87458970  1
  V  V49  1  0.39030764  0.63881527  0.24205109  1
  V  V50  1  0.49818696  0.62376587  0.62971209  1
  V  V51  1  0.88836160  0.24361676  0.13142671  1
  V  V52  1  0.10799586  0.00285728  0.12251431  1
  V  V53  1  0.87379680  0.50044030  0.37824187  1
  V  V54  1  0.49509809  0.49735530  0.50117806  1
  V  V55  1  0.75794268  0.87060604  0.62188906  1
  V  V56  1  0.62712259  0.00541764  0.62311061  1
  V  V57  1  0.37935643  -0.00499537  0.37713820  1
  V  V58  1  0.86719062  0.75103118  0.11270808  1
  V  V59  1  0.00237801  0.12145381  0.61090822  1
  V  V60  1  0.74932856  0.13144986  0.37168346  1
  V  V61  1  0.62511466  0.88271114  0.74586560  1
  V  V62  1  0.87551346  0.50428474  0.87046975  1
  V  V63  1  0.25156838  0.87288176  0.12531607  1
  V  V64  1  0.75181120  0.25112165  0.00050293  1
  V  V65  1  0.11042143  0.12306526  0.00106016  1
  V  V66  1  0.25139922  0.61480016  0.87460213  1
  V  V67  1  0.87584936  -0.00053786  0.38291339  1
  V  V68  1  0.61459674  0.86931953  0.25815092  1
  V  V69  1  0.50173396  -0.00117147  0.49758937  1
  V  V70  1  0.12791113  0.87686334  0.74542829  1
  V  V71  1  0.24929581  -0.00113686  0.24943393  1
  V  V72  1  0.49797711  0.12827332  0.62523895  1
  V  V73  1  0.87513871  0.24568663  0.63139873  1
  V  V74  1  0.25597886  0.74880677  0.00128675  1
  V  V75  1  0.64282085  0.75685443  0.87430630  1
  V  V76  1  -0.00028000  0.87704607  0.38242812  1
  V  V77  1  0.00992125  0.51222588  0.50298094  1
  V  V78  1  0.12606179  0.00316807  0.60928604  1
  V  V79  1  0.25145014  -0.00122805  0.74659341  1
  V  V80  1  0.62472442  0.13561787  0.49310436  1
  V  V81  1  0.37228273  0.12409606  0.25115279  1
  V  V82  1  0.37320259  0.12787195  0.74439581  1
  V  V83  1  0.62576071  0.37750050  0.75038318  1
  V  V84  1  0.12574535  0.75195915  0.87348171  1
  Zn  Zn85  1  0.61214171  0.64189129  0.02279694  1
  Zn  Zn86  1  0.13842493  0.37633702  0.25197920  1
  Zn  Zn87  1  0.37797447  0.24903321  0.12761181  1
  Zn  Zn88  1  0.87317520  0.88224777  -0.00002695  1
  Zn  Zn89  1  0.25271000  0.38217359  0.13682050  1
  Zn  Zn90  1  0.88925407  0.12146673  0.24885257  1
  Zn  Zn91  1  0.26025012  0.87589788  0.61341565  1
  Zn  Zn92  1  0.50641336  0.24159032  0.25812863  1
  Zn  Zn93  1  0.24365960  0.24448209  0.50644870  1
  Zn  Zn94  1  0.37675869  -0.00035166  0.87216074  1
  Zn  Zn95  1  0.12988342  0.49891505  0.13635309  1
  Zn  Zn96  1  0.88323823  0.87013138  0.50651179  1
  Zn  Zn97  1  0.11949626  0.74366541  0.37704096  1
  Zn  Zn98  1  0.74932346  0.25367348  0.49792709  1
  Zn  Zn99  1  0.37128058  0.74859839  0.62751922  1
  Zn  Zn100  1  0.37753701  0.50136404  0.87963435  1
  Zn  Zn101  1  0.75310418  0.74891812  0.50274167  1
  Zn  Zn102  1  0.75319841  0.63296841  0.88557249  1
  Zn  Zn103  1  0.13130249  0.25632160  0.87419091  1
  Zn  Zn104  1  0.59046812  0.75965039  0.38207721  1
  Zn  Zn105  1  0.75194183  0.37324688  0.62503354  1
  Zn  Zn106  1  0.88840513  0.01291420  0.88032950  1
  Zn  Zn107  1  0.06710155  0.19093593  0.19065141  1
  Zn  Zn108  1  0.18519884  0.18905021  0.68533366  1
  Zn  Zn109  1  0.18673949  0.68621866  0.18738470  1
  Zn  Zn110  1  0.18641126  0.68612159  0.68792230  1
  Zn  Zn111  1  0.69158325  0.18739536  0.18632918  1
  Zn  Zn112  1  0.68707189  0.19012863  0.68567239  1
  Zn  Zn113  1  0.67431619  0.69035529  0.19109867  1
  Zn  Zn114  1  0.68705710  0.68750664  0.69542520  1
  Zn  Zn115  1  0.30716487  0.30467909  0.31289962  1
  Zn  Zn116  1  0.31399258  0.31068853  0.81619252  1
  Zn  Zn117  1  0.31262102  0.80605901  0.31294871  1
  Zn  Zn118  1  0.31323326  0.81111789  0.81604248  1
  Zn  Zn119  1  0.81714836  0.31163856  0.31213863  1
  Zn  Zn120  1  0.81782781  0.31602355  0.80990013  1
  Zn  Zn121  1  0.81201466  0.81492210  0.31155127  1
  Zn  Zn122  1  0.82100444  0.81996856  0.80118801  1
  Zn  Zn123  1  0.18421777  0.43667341  0.43347000  1
  Zn  Zn124  1  0.19704354  0.44661632  0.97012538  1
  Zn  Zn125  1  0.19374369  0.92600101  0.43405400  1
  Zn  Zn126  1  0.18603141  0.94197351  0.93707395  1
  Zn  Zn127  1  0.68842560  0.43851649  0.43945437  1
  Zn  Zn128  1  0.68796400  0.44350404  0.93840154  1
  Zn  Zn129  1  0.68732912  0.94243579  0.43532710  1
  Zn  Zn130  1  0.69133431  0.94218145  0.93610680  1
  Zn  Zn131  1  0.31194726  0.05973409  0.06418706  1
  Zn  Zn132  1  0.31637911  0.05717511  0.56223302  1
  Zn  Zn133  1  0.31615696  0.55948787  0.06868075  1
  Zn  Zn134  1  0.30737796  0.55864001  0.56205738  1
  Zn  Zn135  1  0.81742732  0.05915683  0.06038677  1
  Zn  Zn136  1  0.81438085  0.06558505  0.56054617  1
  Zn  Zn137  1  0.79876476  0.56849953  0.05954730  1
  Zn  Zn138  1  0.81198727  0.56057655  0.56075248  1
  Zn  Zn139  1  0.43445437  0.42879576  0.19258732  1
  Zn  Zn140  1  0.43291651  0.43630229  0.68786715  1
  Zn  Zn141  1  0.43810983  0.94039421  0.18406439  1
  Zn  Zn142  1  0.43419937  0.93540739  0.67644125  1
  Zn  Zn143  1  0.93798473  0.43871944  0.18728385  1
  Zn  Zn144  1  0.94470781  0.43713039  0.68630397  1
  Zn  Zn145  1  0.93005415  0.93602599  0.19274249  1
  Zn  Zn146  1  0.94228599  0.94205145  0.68968124  1
  Zn  Zn147  1  0.06236075  0.05790885  0.31561114  1
  Zn  Zn148  1  0.06718903  0.06562701  0.80713080  1
  Zn  Zn149  1  0.05847660  0.55935684  0.31242908  1
  Zn  Zn150  1  0.06257561  0.56691252  0.81131693  1
  Zn  Zn151  1  0.56528111  0.05788197  0.31347135  1
  Zn  Zn152  1  0.56547738  0.06509310  0.81530275  1
  Zn  Zn153  1  0.56029106  0.55410758  0.31273652  1
  Zn  Zn154  1  0.54341319  0.58882945  0.84889016  1
  Zn  Zn155  1  0.43172303  0.18626346  0.44066278  1
  Zn  Zn156  1  0.43735677  0.18898066  0.93334680  1
  Zn  Zn157  1  0.43014312  0.67379249  0.43473103  1
  Zn  Zn158  1  0.45218677  0.68816503  0.99730441  1
  Zn  Zn159  1  0.93419885  0.18748736  0.43733120  1
  Zn  Zn160  1  0.93665270  0.19564666  0.93551427  1
  Zn  Zn161  1  0.93111814  0.69129797  0.44174218  1
  Zn  Zn162  1  0.93727032  0.69291796  0.93004366  1
  Zn  Zn163  1  0.06852010  0.31793281  0.05686026  1
  Zn  Zn164  1  0.06541764  0.31395156  0.55920102  1
  Zn  Zn165  1  0.06333099  0.81169199  0.06366757  1
  Zn  Zn166  1  0.06858475  0.81292924  0.56183665  1
  Zn  Zn167  1  0.56325421  0.31115234  0.06510858  1
  Zn  Zn168  1  0.56119810  0.31369572  0.56494863  1
  Zn  Zn169  1  0.56515418  0.81464749  0.06594053  1
  Zn  Zn170  1  0.56936736  0.80832266  0.56664243  1
  O  O171  1  0.12138017  0.11848528  0.11037274  1
  O  O172  1  0.11393283  0.11747549  0.62739228  1
  O  O173  1  0.11582510  0.62419947  0.11764926  1
  O  O174  1  0.13101171  0.60839809  0.62503446  1
  O  O175  1  0.62050137  0.12907744  0.11313484  1
  O  O176  1  0.61878558  0.12183028  0.61757446  1
  O  O177  1  0.63379818  0.59867508  0.13516019  1
  O  O178  1  0.61999830  0.62068407  0.62075476  1
  O  O179  1  0.37901199  0.37851707  0.38654008  1
  O  O180  1  0.38478209  0.37425401  0.88143824  1
  O  O181  1  0.37110184  0.88344982  0.38115906  1
  O  O182  1  0.38320119  0.87678570  0.88593076  1
  O  O183  1  0.87934104  0.37963816  0.38344499  1
  O  O184  1  0.88105668  0.38803004  0.87945948  1
  O  O185  1  0.88259334  0.88195721  0.37406073  1
  O  O186  1  0.89244220  0.87542273  0.87364732  1
  O  O187  1  0.25790091  0.00174842  0.37113027  1
  O  O188  1  0.25183026  0.01018707  0.86689001  1
  O  O189  1  0.25603314  0.51298580  0.38284597  1
  O  O190  1  0.24831313  0.51299928  0.88442623  1
  O  O191  1  0.75609239  0.00819065  0.36631169  1
  O  O192  1  0.74908320  0.01138471  0.86407732  1
  O  O193  1  0.75321832  0.50912659  0.37004553  1
  O  O194  1  0.75703172  0.50066817  0.86360456  1
  O  O195  1  0.23319836  0.48686381  0.08257085  1
  O  O196  1  0.23570182  0.48832326  0.62064127  1
  O  O197  1  0.24403193  0.98867483  0.12921907  1
  O  O198  1  0.24519548  0.99578323  0.62927443  1
  O  O199  1  0.75470110  0.48469093  0.13297345  1
  O  O200  1  0.74551333  0.49863673  0.63554376  1
  O  O201  1  0.75447521  0.99047401  0.13909504  1
  O  O202  1  0.74557715  0.99986846  0.63167047  1
  O  O203  1  -0.00963505  0.37488080  0.26603319  1
  O  O204  1  -0.00302418  0.36331826  0.75799806  1
  O  O205  1  0.00175721  0.86659877  0.25680445  1
  O  O206  1  0.00919450  0.86951600  0.75466698  1
  O  O207  1  0.50700968  0.36798888  0.26283528  1
  O  O208  1  0.50276899  0.36674995  0.75303007  1
  O  O209  1  0.51695637  0.88560976  0.24452477  1
  O  O210  1  0.50603626  0.87438992  0.75007381  1
  O  O211  1  0.49700208  0.12038057  0.24258346  1
  O  O212  1  0.49393519  0.13110292  0.74735033  1
  O  O213  1  0.48886151  0.62453997  0.25939324  1
  O  O214  1  0.49057644  0.63547423  0.75186564  1
  O  O215  1  1.00160411  0.11832610  0.24470272  1
  O  O216  1  1.00031784  0.14023336  0.74669337  1
  O  O217  1  0.98974349  0.63239123  0.24536780  1
  O  O218  1  0.99147040  0.63763002  0.75528734  1
  O  O219  1  0.36925889  0.25103148  0.00096508  1
  O  O220  1  0.37147192  0.26570499  0.50087422  1
  O  O221  1  0.36409989  0.75872693  -0.00207581  1
  O  O222  1  0.36418857  0.74374056  0.50471746  1
  O  O223  1  0.87011384  0.25711521  0.00858970  1
  O  O224  1  0.87559523  0.25724460  0.51161728  1
  O  O225  1  0.87682802  0.75623788  0.01004742  1
  O  O226  1  0.86580963  0.75777154  0.49982334  1
  O  O227  1  0.12755339  0.25373050  0.48327293  1
  O  O228  1  0.13361726  0.23700453  0.99629271  1
  O  O229  1  0.13640010  0.74767718  0.49586193  1
  O  O230  1  0.13454736  0.74679882  0.99520520  1
  O  O231  1  0.62675597  0.23929857  0.50506927  1
  O  O232  1  0.63315667  0.24456122  0.99532285  1
  O  O233  1  0.62982722  0.73730775  0.49733154  1
  O  O234  1  0.63344231  0.76593020  0.97358005  1
  O  O235  1  0.49959336  0.23527930  0.12868308  1
  O  O236  1  0.50360972  0.24434456  0.63795562  1
  O  O237  1  0.52951227  0.71267676  0.07984421  1
  O  O238  1  0.50282225  0.74229095  0.63764900  1
  O  O239  1  0.99149620  0.25260462  0.12005981  1
  O  O240  1  0.99988069  0.24170762  0.63252073  1
  O  O241  1  0.98922034  0.74627394  0.13005062  1
  O  O242  1  1.00681119  0.75442346  0.63673705  1
  O  O243  1  0.00752759  0.25559677  0.38042124  1
  O  O244  1  0.00100240  0.25962219  0.86399616  1
  O  O245  1  -0.00098583  0.75425976  0.36555497  1
  O  O246  1  0.00869633  0.76185095  0.86633933  1
  O  O247  1  0.49686156  0.26029772  0.37956420  1
  O  O248  1  0.50729330  0.25543036  0.86347639  1
  O  O249  1  0.47970441  0.77463896  0.41939149  1
  O  O250  1  0.51482432  0.76266147  0.85943392  1
  O  O251  1  0.25956561  0.12391572  0.48847041  1
  O  O252  1  0.24941840  0.12811692  0.99184406  1
  O  O253  1  0.25634103  0.63536700  0.48847355  1
  O  O254  1  0.24802669  0.63534852  0.99510054  1
  O  O255  1  0.74134004  0.12598402  0.49064745  1
  O  O256  1  0.74321309  0.13021279  0.99465115  1
  O  O257  1  0.73985018  0.62184413  0.49226285  1
  O  O258  1  0.72593113  0.62009140  0.99502752  1
  O  O259  1  0.26444902  0.35573839  -0.01054818  1
  O  O260  1  0.25928766  0.37450780  0.50040894  1
  O  O261  1  0.25737928  0.87195817  0.00376181  1
  O  O262  1  0.25832337  0.85109392  0.49348292  1
  O  O263  1  0.75651739  0.37207644  0.00775408  1
  O  O264  1  0.76354836  0.37509414  0.50137536  1
  O  O265  1  0.74641732  0.88232361  0.01819340  1
  O  O266  1  0.74446787  0.87838197  0.51572825  1
  O  O267  1  0.11265284  0.48991129  0.24733567  1
  O  O268  1  0.11598197  0.49991072  0.73598301  1
  O  O269  1  0.13198088  0.99222660  0.24179820  1
  O  O270  1  0.13474143  0.99429272  0.74200532  1
  O  O271  1  0.63056742  0.48500380  0.24625359  1
  O  O272  1  0.63471671  0.49631683  0.74667108  1
  O  O273  1  0.63960723  0.99100501  0.25495374  1
  O  O274  1  0.62928685  0.99493709  0.74480292  1
  O  O275  1  0.37268901  0.00432919  0.25783749  1
  O  O276  1  0.36749512  0.00428678  0.74803358  1
  O  O277  1  0.37868572  0.50197065  0.26186845  1
  O  O278  1  0.37757785  0.51285453  0.75463483  1
  O  O279  1  0.86076463  0.00020936  0.25931947  1
  O  O280  1  0.86587956  0.00126992  0.75605977  1
  O  O281  1  0.86750849  0.50566847  0.25701340  1
  O  O282  1  0.87191204  0.50566458  0.75409082  1
  O  O283  1  0.11472804  0.36537000  0.37512895  1
  O  O284  1  0.11356088  0.37738614  0.88673190  1
  O  O285  1  0.11747537  0.87046774  0.36455665  1
  O  O286  1  0.12058204  0.87387873  0.86466521  1
  O  O287  1  0.61470964  0.37951319  0.37172772  1
  O  O288  1  0.62075319  0.36990818  0.87081718  1
  O  O289  1  0.62774848  0.87375346  0.36390746  1
  O  O290  1  0.62342256  0.87635723  0.86282221  1
  O  O291  1  0.38302144  0.12191055  0.13512945  1
  O  O292  1  0.38057332  0.12131086  0.63643759  1
  O  O293  1  0.37334316  0.62056635  0.14240804  1
  O  O294  1  0.37973156  0.62433535  0.63408358  1
  O  O295  1  0.86852223  0.14193266  0.12449244  1
  O  O296  1  0.88952143  0.13143909  0.62183873  1
  O  O297  1  0.87300255  0.63314030  0.12941521  1
  O  O298  1  0.87669390  0.61982017  0.63409038  1
  O  O299  1  0.25493907  0.24639878  0.11188952  1
  O  O300  1  0.24311665  0.26576796  0.62270011  1
  O  O301  1  0.24234778  0.76430155  0.11635210  1
  O  O302  1  0.24849276  0.74984533  0.61258091  1
  O  O303  1  0.75630774  0.26101297  0.12037285  1
  O  O304  1  0.76118118  0.25098499  0.62289049  1
  O  O305  1  0.75291266  0.76293726  0.13346832  1
  O  O306  1  0.74341294  0.76907195  0.62922931  1
  O  O307  1  0.24085835  0.23658837  0.37990890  1
  O  O308  1  0.24988568  0.23573049  0.87826399  1
  O  O309  1  0.24737535  0.73515562  0.38112643  1
  O  O310  1  0.24342843  0.74656220  0.88452361  1
  O  O311  1  0.75801075  0.23550017  0.37592545  1
  O  O312  1  0.74741023  0.24715001  0.87862887  1
  O  O313  1  0.74980537  0.73711872  0.37278012  1
  O  O314  1  0.74620080  0.76055237  0.86437909  1
  O  O315  1  0.01240199  0.12802181  -0.00996302  1
  O  O316  1  0.00115029  0.12715439  0.51244758  1
  O  O317  1  -0.00020683  0.62312808  0.00317738  1
  O  O318  1  -0.00282961  0.60990102  0.49281461  1
  O  O319  1  0.50693753  0.12067023  0.00345843  1
  O  O320  1  0.50477030  0.11932694  0.50396559  1
  O  O321  1  0.51993087  0.61097628  -0.04284161  1
  O  O322  1  0.50571994  0.61618707  0.50655366  1
  O  O323  1  0.48944597  0.37867252  0.49972353  1
  O  O324  1  0.49161246  0.36127026  0.98926336  1
  O  O325  1  0.50683951  0.89110672  0.50973762  1
  O  O326  1  0.49583212  0.88437181  0.99874401  1
  O  O327  1  0.99000794  0.38017801  0.49330112  1
  O  O328  1  0.99288530  0.38532479  0.99245576  1
  O  O329  1  1.00315084  0.87010928  0.48642217  1
  O  O330  1  1.00551669  0.87110310  0.98255318  1
  O  O331  1  0.48986867  0.48762427  0.38292915  1
  O  O332  1  0.50083434  0.48086635  0.86374658  1
  O  O333  1  0.49033224  1.00370154  0.38404140  1
  O  O334  1  0.50012816  0.99646832  0.88460363  1
  O  O335  1  0.99319314  0.49203663  0.38654895  1
  O  O336  1  0.99195114  0.49650862  0.87681569  1
  O  O337  1  0.98947082  0.98812206  0.37058599  1
  O  O338  1  1.00437269  0.98575430  0.86364034  1
  O  O339  1  0.00970594  -0.01265523  0.12687919  1
  O  O340  1  0.00837726  0.01409729  0.62906247  1
  O  O341  1  -0.00721628  0.50944679  0.11385654  1
  O  O342  1  0.01224431  0.49441528  0.61166869  1
  O  O343  1  0.49831597  0.01158473  0.11179566  1
  O  O344  1  0.50604135  0.01000425  0.61804908  1
  O  O345  1  0.51045899  0.49130669  0.13192776  1
  O  O346  1  0.50410755  0.50478408  0.62202255  1
  O  O347  1  0.25643453  0.37902991  0.25083216  1
  O  O348  1  0.25359627  0.37268155  0.73953106  1
  O  O349  1  0.24619148  0.87625976  0.24274600  1
  O  O350  1  0.24478328  0.87991449  0.74782562  1
  O  O351  1  0.74488093  0.37736823  0.24680752  1
  O  O352  1  0.74551538  0.38424162  0.74869698  1
  O  O353  1  0.74219679  0.88311951  0.24504681  1
  O  O354  1  0.74478102  0.88794497  0.73943417  1
  O  O355  1  0.26121227  0.11269346  0.26390233  1
  O  O356  1  0.25618941  0.12089445  0.75334597  1
  O  O357  1  0.25672354  0.62916401  0.26068243  1
  O  O358  1  0.25914281  0.63423630  0.76156557  1
  O  O359  1  0.74948822  0.11377836  0.25404359  1
  O  O360  1  0.74142428  0.11839333  0.75871817  1
  O  O361  1  0.75024800  0.62043071  0.25657727  1
  O  O362  1  0.76218962  0.61791502  0.75014934  1
  O  O363  1  0.37052102  0.11403561  0.37105806  1
  O  O364  1  0.36964651  0.12138222  0.86244656  1
  O  O365  1  0.36495023  0.61343813  0.36390302  1
  O  O366  1  0.36431169  0.62335433  0.86794248  1
  O  O367  1  0.86861385  0.11710763  0.37233562  1
  O  O368  1  0.86141408  0.13073366  0.87657685  1
  O  O369  1  0.86520273  0.61893512  0.36899532  1
  O  O370  1  0.87285525  0.61512547  0.87011056  1
  O  O371  1  0.12977856  0.37558792  0.12937282  1
  O  O372  1  0.13591804  0.38237886  0.62274649  1
  O  O373  1  0.13151153  0.88182750  0.12800173  1
  O  O374  1  0.12807895  0.88332348  0.63430750  1
  O  O375  1  0.63296303  0.37777899  0.13570412  1
  O  O376  1  0.62722205  0.38286625  0.63143786  1
  O  O377  1  0.63574780  0.87207257  0.13770706  1
  O  O378  1  0.63339637  0.88606026  0.62993673  1
  O  O379  1  0.12395958  0.25419010  0.26991678  1
  O  O380  1  0.11269999  0.24951299  0.75473679  1
  O  O381  1  0.10976163  0.75400269  0.24686171  1
  O  O382  1  0.12182306  0.75946712  0.75372665  1
  O  O383  1  0.62655444  0.26081686  0.24888535  1
  O  O384  1  0.61931551  0.25785971  0.75468662  1
  O  O385  1  0.61848636  0.76302982  0.26131247  1
  O  O386  1  0.62086361  0.76982693  0.74846179  1
  O  O387  1  0.38027782  0.23233949  0.25359242  1
  O  O388  1  0.38429491  0.24045945  0.75361419  1
  O  O389  1  0.38010324  0.73879190  0.25200473  1
  O  O390  1  0.38354563  0.74671774  0.74914771  1
  O  O391  1  0.87349492  0.24777289  0.23394660  1
  O  O392  1  0.88587674  0.25408149  0.73742600  1
  O  O393  1  0.88186163  0.74690492  0.24209406  1
  O  O394  1  0.88619504  0.74187166  0.74959160  1
  O  O395  1  0.37879689  0.49145084  0.49316681  1
  O  O396  1  0.37702210  0.48270574  0.99820305  1
  O  O397  1  0.38654121  0.99503340  0.49198289  1
  O  O398  1  0.38323452  0.99392024  0.99630873  1
  O  O399  1  0.88295721  0.49289073  0.49747279  1
  O  O400  1  0.87997757  0.50005357  0.99145547  1
  O  O401  1  0.86836268  0.99380418  0.48650571  1
  O  O402  1  0.87329335  0.99535198  0.99118646  1
  O  O403  1  0.12927312  0.01424404  0.00763616  1
  O  O404  1  0.13440678  -0.01000595  0.51084523  1
  O  O405  1  0.10331817  0.51186733  -0.00729802  1
  O  O406  1  0.11241990  0.49710265  0.50306760  1
  O  O407  1  0.61735035  0.01105149  -0.00506317  1
  O  O408  1  0.61920530  0.01220351  0.50266380  1
  O  O409  1  0.62372263  0.48407957  0.02202460  1
  O  O410  1  0.61853672  0.50814301  0.50664326  1
  O  O411  1  0.37443968  0.36756253  0.11683312  1
  O  O412  1  0.35919609  0.38404534  0.61382083  1
  O  O413  1  0.36818373  0.88015744  0.11290741  1
  O  O414  1  0.38027625  0.86591407  0.60200859  1
  O  O415  1  0.87028549  0.36601145  0.12075066  1
  O  O416  1  0.87712568  0.36742112  0.61865273  1
  O  O417  1  0.86121031  0.86672296  0.12646995  1
  O  O418  1  0.86151870  0.88557286  0.62605662  1
  O  O419  1  0.13165472  0.13093443  0.37525287  1
  O  O420  1  0.13381127  0.12427348  0.88441741  1
  O  O421  1  0.13803660  0.62470005  0.36842639  1
  O  O422  1  0.13058795  0.63318058  0.88063838  1
  O  O423  1  0.63392860  0.12180872  0.38208797  1
  O  O424  1  0.63323580  0.13313419  0.88451136  1
  O  O425  1  0.62691791  0.62551162  0.38317721  1
  O  O426  1  0.63943832  0.65395526  0.84789331  1
