# generated using pymatgen
data_V85Zn86O256
_symmetry_space_group_name_H-M   'P 1'
_cell_length_a   16.93210657
_cell_length_b   16.94145058
_cell_length_c   16.93157894
_cell_angle_alpha   89.94686826
_cell_angle_beta   90.00692882
_cell_angle_gamma   89.95217848
_symmetry_Int_Tables_number   1
_chemical_formula_structural   V85Zn86O256
_chemical_formula_sum   'V85 Zn86 O256'
_cell_volume   4856.89489107
_cell_formula_units_Z   1
loop_
 _symmetry_equiv_pos_site_id
 _symmetry_equiv_pos_as_xyz
  1  'x, y, z'
loop_
 _atom_site_type_symbol
 _atom_site_label
 _atom_site_symmetry_multiplicity
 _atom_site_fract_x
 _atom_site_fract_y
 _atom_site_fract_z
 _atom_site_occupancy
  V  V0  1  0.74813480  0.62362627  0.87399960  1
  V  V1  1  0.37113246  0.75924754  0.62063786  1
  V  V2  1  0.49510957  0.49756111  0.00251300  1
  V  V3  1  0.74658621  0.38055843  0.62225503  1
  V  V4  1  0.13031376  0.00306842  0.62653619  1
  V  V5  1  0.37289432  0.62460677  0.74643980  1
  V  V6  1  0.00453768  0.24740758  0.25159973  1
  V  V7  1  0.37171535  0.24644016  0.62662233  1
  V  V8  1  0.76174084  0.50121351  0.25807777  1
  V  V9  1  0.75557289  0.13174000  0.87880747  1
  V  V10  1  0.25996475  -0.00546705  0.75417363  1
  V  V11  1  0.38811519  0.25194880  0.13035038  1
  V  V12  1  0.49966473  0.49877466  0.50451990  1
  V  V13  1  0.00478091  0.37128378  0.37456789  1
  V  V14  1  0.62965715  0.25469095  0.88418969  1
  V  V15  1  0.49451038  0.37274413  0.87867930  1
  V  V16  1  0.49229888  0.87199396  0.37701211  1
  V  V17  1  -0.00442795  0.75491664  0.75933028  1
  V  V18  1  0.88201442  0.24766781  0.62415773  1
  V  V19  1  0.88496503  0.12601128  0.74796275  1
  V  V20  1  0.00447915  0.37343640  0.86905629  1
  V  V21  1  0.12317491  0.62445488  0.00027397  1
  V  V22  1  0.24277397  0.36996931  0.63203220  1
  V  V23  1  0.12451156  0.75111565  0.36783001  1
  V  V24  1  0.88088468  0.74294438  0.13963684  1
  V  V25  1  0.24798801  0.24449832  0.48309251  1
  V  V26  1  0.12906451  0.12589609  -0.00040103  1
  V  V27  1  0.26207187  0.24871406  -0.00026825  1
  V  V28  1  0.24788588  0.62418963  0.87556500  1
  V  V29  1  0.74731850  0.75177009  0.49918581  1
  V  V30  1  0.57092747  0.91846511  0.80843552  1
  V  V31  1  0.86200664  0.37055302  0.00101633  1
  V  V32  1  0.50215655  0.74926379  0.74743993  1
  V  V33  1  0.63502479  0.49618293  0.12639377  1
  V  V34  1  0.36798162  0.38241979  0.49561607  1
  V  V35  1  0.13547481  0.36576747  0.25183469  1
  V  V36  1  0.62127500  0.74624589  0.37075961  1
  V  V37  1  0.12972461  0.25201388  0.86858389  1
  V  V38  1  0.50090950  0.62582792  0.13919659  1
  V  V39  1  0.00260282  0.62306233  0.14623600  1
  V  V40  1  0.87359018  0.00114440  0.37556965  1
  V  V41  1  0.61713828  0.87157813  0.24633859  1
  V  V42  1  -0.00491300  0.62538522  0.62637606  1
  V  V43  1  0.37441450  0.49821972  0.87695635  1
  V  V44  1  0.63013290  0.11509559  0.00318991  1
  V  V45  1  0.49148685  0.37849226  0.36916728  1
  V  V46  1  0.61987588  0.74979178  0.87477110  1
  V  V47  1  0.38256173  0.87819580  -0.01362228  1
  V  V48  1  0.48994203  -0.00210545  0.49930589  1
  V  V49  1  0.62283305  -0.00036635  0.62370251  1
  V  V50  1  0.74971139  0.25111255  0.49831618  1
  V  V51  1  0.75123548  -0.00081406  0.75139510  1
  V  V52  1  0.37754787  0.12624037  0.25705502  1
  V  V53  1  -0.04992033  0.54556047  0.43477447  1
  V  V54  1  0.62774935  0.37368559  0.24774506  1
  V  V55  1  0.00174576  0.12597227  0.12204978  1
  V  V56  1  0.62347464  0.37867793  0.74600036  1
  V  V57  1  0.86240159  0.25280849  0.12071845  1
  V  V58  1  0.62322011  0.12544645  0.49921646  1
  V  V59  1  0.87347438  0.12639563  0.24843719  1
  V  V60  1  0.25218486  0.75138361  -0.00084650  1
  V  V61  1  0.00046377  -0.00775200  -0.00566248  1
  V  V62  1  0.25724951  0.37471169  0.12081188  1
  V  V63  1  0.74694622  0.87561177  0.62690313  1
  V  V64  1  0.61701061  0.25135908  0.37011093  1
  V  V65  1  0.74722427  0.12543307  0.37342601  1
  V  V66  1  0.24929823  0.00258854  0.25489448  1
  V  V67  1  -0.00053095  0.00359480  0.50751870  1
  V  V68  1  0.74254754  -0.00031955  0.24462170  1
  V  V69  1  0.75192653  0.87137376  0.12701361  1
  V  V70  1  0.13006588  0.49482932  0.12407744  1
  V  V71  1  0.24438487  0.49707165  0.75033188  1
  V  V72  1  0.12236762  0.12894383  0.48951325  1
  V  V73  1  -0.00162368  0.49851936  0.00000417  1
  V  V74  1  0.00083642  0.87821750  0.36818577  1
  V  V75  1  0.62612817  0.61844443  0.50445907  1
  V  V76  1  0.12699069  0.62460803  0.50123447  1
  V  V77  1  0.25044464  0.76543526  0.50385017  1
  V  V78  1  0.11635522  0.49498307  0.62649233  1
  V  V79  1  0.62277459  0.62606763  0.00288751  1
  V  V80  1  0.37948409  0.75227125  0.13453207  1
  V  V81  1  0.50333641  0.11050939  0.12672046  1
  V  V82  1  0.12223997  0.87660263  0.75255686  1
  V  V83  1  0.87346196  0.49894623  0.87289357  1
  V  V84  1  0.87918219  0.37596064  0.49296582  1
  Zn  Zn85  1  0.87162359  0.62745600  0.74986872  1
  Zn  Zn86  1  0.26637935  0.61527953  0.38400120  1
  Zn  Zn87  1  0.37103030  0.00003339  0.37954978  1
  Zn  Zn88  1  0.12468974  0.87579681  0.24687071  1
  Zn  Zn89  1  0.88355864  0.86442754  -0.00268868  1
  Zn  Zn90  1  0.87426132  0.87866216  0.50065210  1
  Zn  Zn91  1  0.00962022  0.24991922  0.74425187  1
  Zn  Zn92  1  0.75340898  0.74835927  0.00258520  1
  Zn  Zn93  1  0.74421707  0.50323697  0.74344508  1
  Zn  Zn94  1  0.50184861  -0.00536229  -0.01314443  1
  Zn  Zn95  1  0.87416787  0.75357971  0.62726803  1
  Zn  Zn96  1  0.50244891  0.61949981  0.62520820  1
  Zn  Zn97  1  0.49826450  0.12882542  0.62321382  1
  Zn  Zn98  1  0.26033877  0.11566242  0.87909109  1
  Zn  Zn99  1  0.25077790  0.87748713  0.12492655  1
  Zn  Zn100  1  0.11864639  0.75549386  0.87924382  1
  Zn  Zn101  1  0.35691270  0.60820755  0.25161297  1
  Zn  Zn102  1  0.76630758  0.62304670  0.37462353  1
  Zn  Zn103  1  0.49919351  0.25157993  0.74818024  1
  Zn  Zn104  1  0.12870528  -0.00331165  0.12414920  1
  Zn  Zn105  1  0.37995073  0.12225376  0.75901129  1
  Zn  Zn106  1  0.88175901  -0.00637748  0.87133255  1
  Zn  Zn107  1  0.19385680  0.18579163  0.18763000  1
  Zn  Zn108  1  0.18999794  0.17775992  0.68580986  1
  Zn  Zn109  1  0.19103514  0.68797198  0.18644031  1
  Zn  Zn110  1  0.18356914  0.69023327  0.68615044  1
  Zn  Zn111  1  0.68250658  0.18759680  0.18721052  1
  Zn  Zn112  1  0.69021863  0.19148551  0.68982901  1
  Zn  Zn113  1  0.69218426  0.68441835  0.19212110  1
  Zn  Zn114  1  0.68497584  0.68760756  0.68737186  1
  Zn  Zn115  1  0.30649433  0.44395426  0.31260775  1
  Zn  Zn116  1  0.31313757  0.31035246  0.81246864  1
  Zn  Zn117  1  0.30737506  0.81135738  0.31571552  1
  Zn  Zn118  1  0.30833786  0.81326756  0.80946847  1
  Zn  Zn119  1  0.81206603  0.31427867  0.31000044  1
  Zn  Zn120  1  0.81321264  0.31342953  0.80970454  1
  Zn  Zn121  1  0.81131315  0.81363133  0.31429093  1
  Zn  Zn122  1  0.81127745  0.81378113  0.81488089  1
  Zn  Zn123  1  0.17599358  0.43210463  0.44554319  1
  Zn  Zn124  1  0.18881466  0.43306273  0.94026714  1
  Zn  Zn125  1  0.18591826  0.94148905  0.43439151  1
  Zn  Zn126  1  0.18687547  0.93405229  0.93608527  1
  Zn  Zn127  1  0.68616134  0.43811974  0.43444035  1
  Zn  Zn128  1  0.68465223  0.43966667  0.93732409  1
  Zn  Zn129  1  0.68209365  0.93644305  0.43572699  1
  Zn  Zn130  1  0.70499299  0.93953610  0.93965064  1
  Zn  Zn131  1  0.31693412  0.05903386  0.06429940  1
  Zn  Zn132  1  0.30623293  0.06318101  0.56553071  1
  Zn  Zn133  1  0.31461754  0.56388269  0.06794835  1
  Zn  Zn134  1  0.30861033  0.56218085  0.56528342  1
  Zn  Zn135  1  0.81441240  0.06170365  0.06284755  1
  Zn  Zn136  1  0.81234955  0.06505121  0.56364803  1
  Zn  Zn137  1  0.81509467  0.56540596  0.06459825  1
  Zn  Zn138  1  0.81107461  0.56317984  0.56119295  1
  Zn  Zn139  1  0.44416305  0.43419884  0.18442268  1
  Zn  Zn140  1  0.43346162  0.43324506  0.68621864  1
  Zn  Zn141  1  0.43350828  0.93583367  0.18821021  1
  Zn  Zn142  1  0.43391916  0.93711797  0.67853018  1
  Zn  Zn143  1  0.94187318  0.43323937  0.18556210  1
  Zn  Zn144  1  0.93395157  0.43574141  0.68790346  1
  Zn  Zn145  1  0.93473439  0.93978654  0.18423283  1
  Zn  Zn146  1  0.93710017  0.93652292  0.68619829  1
  Zn  Zn147  1  0.06306256  0.06143717  0.31353866  1
  Zn  Zn148  1  0.06847476  0.06411767  0.81496344  1
  Zn  Zn149  1  0.13948969  0.56014872  0.30645035  1
  Zn  Zn150  1  0.06084415  0.56500164  0.81043298  1
  Zn  Zn151  1  0.55967759  0.05936315  0.31126248  1
  Zn  Zn152  1  0.56371207  0.08239973  0.81134630  1
  Zn  Zn153  1  0.56435588  0.55767405  0.31847102  1
  Zn  Zn154  1  0.56081912  0.56086823  0.81151085  1
  Zn  Zn155  1  0.43661985  0.19199017  0.43982120  1
  Zn  Zn156  1  0.44150459  0.18398684  0.93964703  1
  Zn  Zn157  1  0.43650350  0.68483323  0.43409326  1
  Zn  Zn158  1  0.43745289  0.68825852  0.93848244  1
  Zn  Zn159  1  0.93969259  0.18714355  0.43625648  1
  Zn  Zn160  1  0.93922724  0.18869820  0.93697649  1
  Zn  Zn161  1  0.93894928  0.70693531  0.44060691  1
  Zn  Zn162  1  0.93532188  0.68567873  0.94338454  1
  Zn  Zn163  1  0.06160469  0.31022057  0.05770988  1
  Zn  Zn164  1  0.06350788  0.31015297  0.56017400  1
  Zn  Zn165  1  0.06391733  0.80937549  0.07029428  1
  Zn  Zn166  1  0.06285474  0.81664803  0.56514493  1
  Zn  Zn167  1  0.56660743  0.31202740  0.06135245  1
  Zn  Zn168  1  0.55966996  0.31437141  0.55935199  1
  Zn  Zn169  1  0.56083453  0.81248380  0.06339401  1
  Zn  Zn170  1  0.56133729  0.81235105  0.56218071  1
  O  O171  1  0.11919837  0.12633160  0.11399567  1
  O  O172  1  0.12511002  0.11086089  0.61580621  1
  O  O173  1  0.12157968  0.61501778  0.11812805  1
  O  O174  1  0.11241305  0.62214043  0.61739370  1
  O  O175  1  0.61221291  0.13061836  0.11766731  1
  O  O176  1  0.62775378  0.11528177  0.62070824  1
  O  O177  1  0.61995076  0.62113998  0.11951892  1
  O  O178  1  0.62331486  0.62855476  0.60976359  1
  O  O179  1  0.37914586  0.37625240  0.38221542  1
  O  O180  1  0.38724912  0.38045127  0.87169176  1
  O  O181  1  0.38928337  0.87363183  0.37064449  1
  O  O182  1  0.37575846  0.86474489  0.88812663  1
  O  O183  1  0.88316120  0.36965149  0.38519588  1
  O  O184  1  0.87962043  0.38077318  0.88087205  1
  O  O185  1  0.88086127  0.88265249  0.37793244  1
  O  O186  1  0.85077439  0.88521694  0.88992856  1
  O  O187  1  0.25432977  -0.00062375  0.36212272  1
  O  O188  1  0.24509353  -0.00232597  0.85890761  1
  O  O189  1  0.22684992  0.50134964  0.37251712  1
  O  O190  1  0.25520365  0.50203610  0.87150375  1
  O  O191  1  0.75319006  0.00536903  0.36870609  1
  O  O192  1  0.74907106  0.01525732  0.86485007  1
  O  O193  1  0.75168454  0.50143931  0.36348471  1
  O  O194  1  0.75426097  0.51003988  0.87439034  1
  O  O195  1  0.24221494  0.48732632  0.11405788  1
  O  O196  1  0.24094519  0.49034100  0.63044813  1
  O  O197  1  0.25096249  0.99857765  0.13712013  1
  O  O198  1  0.24153024  0.99950270  0.63667349  1
  O  O199  1  0.73910498  0.50619503  0.13214807  1
  O  O200  1  0.75454958  0.48527771  0.62410156  1
  O  O201  1  0.75801046  0.98947330  0.13580398  1
  O  O202  1  0.74189294  0.99742565  0.63130939  1
  O  O203  1  0.00796936  0.36445425  0.25407095  1
  O  O204  1  -0.00647197  0.37154915  0.76498819  1
  O  O205  1  0.00241420  0.89021577  0.26413442  1
  O  O206  1  0.00431077  0.86539370  0.74653857  1
  O  O207  1  0.51356712  0.37859818  0.25888584  1
  O  O208  1  0.50591489  0.37354966  0.75748308  1
  O  O209  1  0.51030807  0.88082626  0.25758675  1
  O  O210  1  0.50124302  0.86739248  0.74640222  1
  O  O211  1  0.49639873  0.11956358  0.23502451  1
  O  O212  1  0.49693799  0.13397320  0.74023723  1
  O  O213  1  0.50589793  0.61862430  0.23940148  1
  O  O214  1  0.49169289  0.62997504  0.74710243  1
  O  O215  1  0.99668649  0.12941011  0.24284084  1
  O  O216  1  0.98829849  0.12690749  0.75575763  1
  O  O217  1  1.01874662  0.61407651  0.24151198  1
  O  O218  1  0.99692387  0.63479150  0.74188170  1
  O  O219  1  0.36665792  0.24367261  0.01101547  1
  O  O220  1  0.36155704  0.25686246  0.50477904  1
  O  O221  1  0.36969579  0.75447918  0.00698896  1
  O  O222  1  0.35910445  0.74333843  0.50723109  1
  O  O223  1  0.87919531  0.25818916  0.00769227  1
  O  O224  1  0.87040340  0.25507689  0.50482423  1
  O  O225  1  0.87195116  0.74824632  0.01425605  1
  O  O226  1  0.85898999  0.75544660  0.50540322  1
  O  O227  1  0.13419680  0.23761528  0.50445596  1
  O  O228  1  0.13466483  0.24257727  0.99317683  1
  O  O229  1  0.13386913  0.74511735  0.50027555  1
  O  O230  1  0.13350565  0.74408804  1.00020474  1
  O  O231  1  0.62959573  0.24649285  0.49036631  1
  O  O232  1  0.62560979  0.24268009  0.98922364  1
  O  O233  1  0.63384481  0.74466120  0.49462715  1
  O  O234  1  0.62576885  0.74174307  0.99318807  1
  O  O235  1  0.49069120  0.24142257  0.11608261  1
  O  O236  1  0.48571547  0.25234180  0.62086410  1
  O  O237  1  0.48747506  0.74046006  0.12134977  1
  O  O238  1  0.49273664  0.74592130  0.63072656  1
  O  O239  1  0.99514487  0.23966367  0.13005220  1
  O  O240  1  0.98708041  0.25634856  0.62722208  1
  O  O241  1  0.99078858  0.73850715  0.12689742  1
  O  O242  1  0.99659116  0.74205172  0.63024738  1
  O  O243  1  -0.00446663  0.25463505  0.35946029  1
  O  O244  1  0.01119069  0.25715982  0.87494941  1
  O  O245  1  0.01126597  0.76632223  0.38107722  1
  O  O246  1  -0.00121073  0.74277390  0.86331532  1
  O  O247  1  0.50750924  0.26403625  0.38186541  1
  O  O248  1  0.50971945  0.25949262  0.87678888  1
  O  O249  1  0.51310664  0.75882485  0.38593243  1
  O  O250  1  0.51210943  0.74478082  0.86800694  1
  O  O251  1  0.24091309  0.13663549  0.50092196  1
  O  O252  1  0.24494294  0.13012681  1.00198799  1
  O  O253  1  0.23843601  0.62932450  0.50122309  1
  O  O254  1  0.24499910  0.63071931  0.99616134  1
  O  O255  1  0.74326263  0.13041947  0.49270543  1
  O  O256  1  0.74566238  0.12121137  0.99145536  1
  O  O257  1  0.74429527  0.63154189  0.49601275  1
  O  O258  1  0.73793001  0.62396003  0.99432127  1
  O  O259  1  0.24977062  0.36378441  0.01222298  1
  O  O260  1  0.25050338  0.36380458  0.50797032  1
  O  O261  1  0.25932685  0.86638629  0.00052871  1
  O  O262  1  0.24511923  0.86409392  0.50075174  1
  O  O263  1  0.76235643  0.37852408  -0.00487109  1
  O  O264  1  0.75736306  0.37106734  0.50228470  1
  O  O265  1  0.74598217  0.87103355  0.02017211  1
  O  O266  1  0.74711592  0.86862872  0.50617418  1
  O  O267  1  0.11826122  0.47912315  0.23014846  1
  O  O268  1  0.13260319  0.50741422  0.73877757  1
  O  O269  1  0.13859077  1.00458837  0.24827749  1
  O  O270  1  0.12853085  0.99608684  0.74374118  1
  O  O271  1  0.63226561  0.49288823  0.24393367  1
  O  O272  1  0.62540996  0.48430911  0.75445780  1
  O  O273  1  0.63610355  0.98976553  0.25505132  1
  O  O274  1  0.62757220  0.99592473  0.74612708  1
  O  O275  1  0.36799365  0.00804350  0.25186153  1
  O  O276  1  0.36315804  -0.00326704  0.74498913  1
  O  O277  1  0.36839868  0.49550185  0.23577718  1
  O  O278  1  0.36706068  0.50682059  0.75358498  1
  O  O279  1  0.86555909  0.00750790  0.25526942  1
  O  O280  1  0.86834460  0.00836545  0.74947556  1
  O  O281  1  0.85939931  0.48864582  0.24306764  1
  O  O282  1  0.87061864  0.50051922  0.76363561  1
  O  O283  1  0.11548109  0.36936437  0.36477059  1
  O  O284  1  0.11693754  0.36571210  0.87987241  1
  O  O285  1  0.11811574  0.87010758  0.37350411  1
  O  O286  1  0.12481863  0.87300890  0.85959667  1
  O  O287  1  0.61746659  0.36791765  0.36960851  1
  O  O288  1  0.61823468  0.37062120  0.87061768  1
  O  O289  1  0.61921955  0.86639226  0.36616115  1
  O  O290  1  0.63511632  0.86572960  0.87572863  1
  O  O291  1  0.38940474  0.13007967  0.12701646  1
  O  O292  1  0.37264416  0.13772452  0.62476797  1
  O  O293  1  0.38291160  0.63464316  0.12947458  1
  O  O294  1  0.37411028  0.62941717  0.63683824  1
  O  O295  1  0.88300914  0.13143613  0.12943947  1
  O  O296  1  0.86810221  0.13632554  0.63430246  1
  O  O297  1  0.88591024  0.63297340  0.12772835  1
  O  O298  1  0.88428715  0.62537017  0.62645022  1
  O  O299  1  0.26139181  0.25411261  0.11789078  1
  O  O300  1  0.25321451  0.25582958  0.62345219  1
  O  O301  1  0.26126901  0.74823712  0.11377942  1
  O  O302  1  0.25511013  0.74562715  0.61313686  1
  O  O303  1  0.76329631  0.24563406  0.13045630  1
  O  O304  1  0.75856576  0.25974738  0.61777738  1
  O  O305  1  0.76197909  0.75221147  0.12794230  1
  O  O306  1  0.74688137  0.76037368  0.62013795  1
  O  O307  1  0.25022984  0.25232497  0.38863940  1
  O  O308  1  0.24534209  0.25349318  0.88556439  1
  O  O309  1  0.24131263  0.75015001  0.39025126  1
  O  O310  1  0.24896811  0.74278272  0.88517933  1
  O  O311  1  0.74253064  0.24505715  0.37949673  1
  O  O312  1  0.74544945  0.24011017  0.86999488  1
  O  O313  1  0.74329597  0.74678820  0.38277861  1
  O  O314  1  0.73824476  0.73728620  0.87435922  1
  O  O315  1  0.00855609  0.12072357  0.00607189  1
  O  O316  1  0.01303582  0.12180774  0.49827186  1
  O  O317  1  0.00848406  0.61581116  0.00345609  1
  O  O318  1  0.00106355  0.62020793  0.50462206  1
  O  O319  1  0.50975700  0.11686537  0.00813684  1
  O  O320  1  0.50690621  0.11851328  0.50134297  1
  O  O321  1  0.50953488  0.61893475  0.00563850  1
  O  O322  1  0.50603912  0.61498454  0.50130531  1
  O  O323  1  0.48729905  0.37969018  0.49383767  1
  O  O324  1  0.50750670  0.38602862  0.99122438  1
  O  O325  1  0.50776160  0.88625766  0.49060102  1
  O  O326  1  0.48852028  0.87524845  0.99988775  1
  O  O327  1  0.99501514  0.36676584  0.48563815  1
  O  O328  1  0.99333177  0.38099009  0.98911309  1
  O  O329  1  0.99822490  0.88650238  0.49218996  1
  O  O330  1  1.00310313  0.88934542  1.00659980  1
  O  O331  1  0.50393615  0.48543621  0.38684550  1
  O  O332  1  0.49470934  0.49433650  0.88244584  1
  O  O333  1  0.49898971  0.99147959  0.38361963  1
  O  O334  1  0.51843618  0.98908471  0.86566268  1
  O  O335  1  1.00792927  0.48677605  0.37341445  1
  O  O336  1  0.99244030  0.49491027  0.87845649  1
  O  O337  1  0.99442781  0.99845504  0.38565908  1
  O  O338  1  1.00103242  1.00546438  0.89079312  1
  O  O339  1  0.00237672  0.01286983  0.11816133  1
  O  O340  1  0.00291428  -0.00088518  0.61188357  1
  O  O341  1  0.00584481  0.50424085  0.11753400  1
  O  O342  1  0.00591805  0.50866167  0.63509208  1
  O  O343  1  0.49825554  0.00910636  0.12078536  1
  O  O344  1  0.50756068  0.00112268  0.61730234  1
  O  O345  1  0.51087111  0.50696938  0.11740287  1
  O  O346  1  0.49405177  0.49688010  0.61032246  1
  O  O347  1  0.23999240  0.36878414  0.23776591  1
  O  O348  1  0.25219779  0.38034696  0.73917263  1
  O  O349  1  0.25122396  0.88906894  0.24888409  1
  O  O350  1  0.24087266  0.88440724  0.74882676  1
  O  O351  1  0.73720467  0.38518726  0.25645180  1
  O  O352  1  0.74324415  0.37637543  0.73998581  1
  O  O353  1  0.74355005  0.88044097  0.24375044  1
  O  O354  1  0.75112966  0.89036672  0.74238676  1
  O  O355  1  0.26328560  0.11443603  0.24486773  1
  O  O356  1  0.25277654  0.10780988  0.75304801  1
  O  O357  1  0.23430379  0.61842654  0.26259145  1
  O  O358  1  0.25490678  0.62115978  0.75470529  1
  O  O359  1  0.75041102  0.11678328  0.25347856  1
  O  O360  1  0.75681463  0.11735174  0.75551465  1
  O  O361  1  0.74882745  0.60759283  0.25655610  1
  O  O362  1  0.74922195  0.62174018  0.75766805  1
  O  O363  1  0.38720102  0.12572840  0.35983591  1
  O  O364  1  0.37272330  0.12980941  0.87278539  1
  O  O365  1  0.37619391  0.62734600  0.36302140  1
  O  O366  1  0.37011931  0.62003949  0.86479754  1
  O  O367  1  0.86806614  0.12213825  0.36763763  1
  O  O368  1  0.86951007  0.12445454  0.86772511  1
  O  O369  1  0.88727703  0.61657163  0.38851153  1
  O  O370  1  0.86481853  0.61702505  0.87640269  1
  O  O371  1  0.13366745  0.37605957  0.12559317  1
  O  O372  1  0.12958933  0.38248793  0.62197058  1
  O  O373  1  0.13073079  0.87733441  0.13009362  1
  O  O374  1  0.11710114  0.89098205  0.63576411  1
  O  O375  1  0.62124654  0.38329387  0.13379097  1
  O  O376  1  0.63400122  0.36608391  0.63249944  1
  O  O377  1  0.63306309  0.86334155  0.13830704  1
  O  O378  1  0.63413842  0.88835354  0.62032608  1
  O  O379  1  0.11655083  0.25388439  0.24116027  1
  O  O380  1  0.12797392  0.24048348  0.76402408  1
  O  O381  1  0.13128929  0.75397964  0.26497037  1
  O  O382  1  0.11563749  0.75874929  0.74964958  1
  O  O383  1  0.62896082  0.25710444  0.26189486  1
  O  O384  1  0.62523780  0.26056689  0.76193778  1
  O  O385  1  0.63012671  0.75581986  0.26168391  1
  O  O386  1  0.61088430  0.74650332  0.75577469  1
  O  O387  1  0.37523690  0.23883445  0.23081769  1
  O  O388  1  0.37604586  0.25198072  0.73757004  1
  O  O389  1  0.36636569  0.75030101  0.23483814  1
  O  O390  1  0.38193831  0.74345520  0.74523740  1
  O  O391  1  0.88222148  0.24561169  0.24220289  1
  O  O392  1  0.87570149  0.24309348  0.74096642  1
  O  O393  1  0.87321635  0.75034625  0.23931605  1
  O  O394  1  0.88017098  0.74938238  0.74766995  1
  O  O395  1  0.37525045  0.48778881  0.50399785  1
  O  O396  1  0.38863113  0.50706336  0.99668915  1
  O  O397  1  0.38568940  1.00653795  0.50059234  1
  O  O398  1  0.37717186  0.98247160  0.99975412  1
  O  O399  1  0.88217362  0.49091059  0.50004480  1
  O  O400  1  0.87819842  0.49486687  0.99106504  1
  O  O401  1  0.88193878  1.00419115  0.49415006  1
  O  O402  1  0.89357137  1.00191397  1.00177278  1
  O  O403  1  0.11769645  0.00728840  0.00075700  1
  O  O404  1  0.12123728  0.00957027  0.50516396  1
  O  O405  1  0.11931767  0.50120242  0.00779276  1
  O  O406  1  0.12313381  0.50941543  0.51687596  1
  O  O407  1  0.62685640  0.01203908  -0.00475164  1
  O  O408  1  0.61875849  0.00700716  0.50664290  1
  O  O409  1  0.61854953  0.50684889  0.00715015  1
  O  O410  1  0.61594292  0.50670748  0.49630810  1
  O  O411  1  0.37283849  0.35921755  0.12541319  1
  O  O412  1  0.36277656  0.36704417  0.61640795  1
  O  O413  1  0.37555875  0.86211762  0.11733617  1
  O  O414  1  0.37478185  0.85855049  0.62342327  1
  O  O415  1  0.88201028  0.36431087  0.11339587  1
  O  O416  1  0.87000509  0.36910387  0.61340337  1
  O  O417  1  0.87086040  0.86256534  0.12502336  1
  O  O418  1  0.85928722  0.87825504  0.62102969  1
  O  O419  1  0.12481557  0.12213460  0.39041658  1
  O  O420  1  0.13120057  0.13227140  0.88696934  1
  O  O421  1  0.11585857  0.63619392  0.39206387  1
  O  O422  1  0.13111639  0.62560611  0.88276822  1
  O  O423  1  0.62591252  0.13297551  0.37718172  1
  O  O424  1  0.63412944  0.13575409  0.88379132  1
  O  O425  1  0.62424036  0.63298608  0.38571585  1
  O  O426  1  0.62858870  0.62832569  0.88210111  1
