# generated using pymatgen
data_V85Zn86O256
_symmetry_space_group_name_H-M   'P 1'
_cell_length_a   16.92920662
_cell_length_b   16.93134989
_cell_length_c   16.93355897
_cell_angle_alpha   89.94703398
_cell_angle_beta   90.03953758
_cell_angle_gamma   90.01192884
_symmetry_Int_Tables_number   1
_chemical_formula_structural   V85Zn86O256
_chemical_formula_sum   'V85 Zn86 O256'
_cell_volume   4853.73583548
_cell_formula_units_Z   1
loop_
 _symmetry_equiv_pos_site_id
 _symmetry_equiv_pos_as_xyz
  1  'x, y, z'
loop_
 _atom_site_type_symbol
 _atom_site_label
 _atom_site_symmetry_multiplicity
 _atom_site_fract_x
 _atom_site_fract_y
 _atom_site_fract_z
 _atom_site_occupancy
  V  V0  1  0.74640294  0.12071309  0.86997354  1
  V  V1  1  0.87195687  -0.00136756  0.86674041  1
  V  V2  1  0.50585339  0.49906126  0.00427515  1
  V  V3  1  0.12956192  0.25063843  0.87734841  1
  V  V4  1  0.37923115  -0.00496360  0.87807314  1
  V  V5  1  0.62014141  0.12006229  0.01398206  1
  V  V6  1  0.25370172  0.12813700  0.87716261  1
  V  V7  1  0.50167675  0.25224118  0.75239007  1
  V  V8  1  0.25592179  0.37683113  0.62218852  1
  V  V9  1  0.12714055  0.61890735  0.00296546  1
  V  V10  1  0.62737892  0.25266992  0.38281654  1
  V  V11  1  0.86862754  0.50573323  0.86509046  1
  V  V12  1  0.87708489  0.25082516  0.12386191  1
  V  V13  1  0.12701525  0.00025036  0.62449659  1
  V  V14  1  0.24752881  0.37304895  0.11764032  1
  V  V15  1  0.86977015  0.73806466  0.62493709  1
  V  V16  1  0.25435660  0.75422746  0.00074396  1
  V  V17  1  0.74323859  0.74419480  0.48661940  1
  V  V18  1  0.86609505  0.24953908  0.61737812  1
  V  V19  1  0.37398905  0.62619017  0.25412063  1
  V  V20  1  0.74695368  0.62881311  0.85855754  1
  V  V21  1  0.63443404  0.38456846  0.75495716  1
  V  V22  1  0.00696754  0.24996032  0.24566337  1
  V  V23  1  0.48799802  0.74937682  0.74233789  1
  V  V24  1  0.63364638  -0.00123565  0.63276070  1
  V  V25  1  -0.00428717  0.74124308  0.74657007  1
  V  V26  1  0.74849911  0.38244836  0.61338731  1
  V  V27  1  0.37012844  0.86937684  0.50258358  1
  V  V28  1  0.37621438  0.24646275  0.12029395  1
  V  V29  1  0.12885373  0.12287842  0.00214604  1
  V  V30  1  0.87656759  0.12503518  0.24827930  1
  V  V31  1  0.00407784  0.12067220  0.12236878  1
  V  V32  1  0.24878850  0.62838009  0.37954169  1
  V  V33  1  0.50071197  0.62164933  0.12763034  1
  V  V34  1  -0.00309841  0.37814752  0.87625919  1
  V  V35  1  0.87439007  -0.00282051  0.37438560  1
  V  V36  1  0.12471246  0.87503414  0.24410492  1
  V  V37  1  0.12510331  0.75066774  0.38590418  1
  V  V38  1  0.63170884  0.86992768  0.75806503  1
  V  V39  1  0.68593379  0.54401447  0.18630874  1
  V  V40  1  0.00424573  -0.00271692  0.00327807  1
  V  V41  1  0.74273137  0.00160809  0.24611698  1
  V  V42  1  0.12415644  0.12342821  0.49555407  1
  V  V43  1  0.50054427  0.86839937  0.87935262  1
  V  V44  1  0.62339189  0.62221505  0.48687335  1
  V  V45  1  0.24604586  0.50259211  0.24071222  1
  V  V46  1  0.25327167  0.86374540  0.62170168  1
  V  V47  1  0.12579295  0.87311570  0.74785103  1
  V  V48  1  0.12816466  0.38684837  0.74918329  1
  V  V49  1  0.87531841  0.49868355  0.37283546  1
  V  V50  1  0.87607616  0.74773646  0.12335507  1
  V  V51  1  0.87355242  0.87028110  0.50111270  1
  V  V52  1  0.74917351  0.37582625  0.12817175  1
  V  V53  1  0.26243027  0.25332579  0.49728044  1
  V  V54  1  0.74997425  0.13074730  0.38078476  1
  V  V55  1  0.12531301  0.74748173  0.87508553  1
  V  V56  1  -0.00095492  0.12276983  0.62616100  1
  V  V57  1  -0.00008948  0.61001094  0.62152055  1
  V  V58  1  0.24816546  0.12951744  0.37219497  1
  V  V59  1  0.11943174  0.38149035  0.24076419  1
  V  V60  1  -0.00072054  0.74650351  0.25295373  1
  V  V61  1  0.49659003  0.49302212  0.50333455  1
  V  V62  1  0.37556499  0.00143780  0.37514221  1
  V  V63  1  0.63126773  0.62543480  -0.00090439  1
  V  V64  1  0.37211435  0.48803336  0.37803801  1
  V  V65  1  0.24472124  0.00094174  0.24322230  1
  V  V66  1  0.49952283  -0.00322051  0.01425055  1
  V  V67  1  0.06899193  0.30615130  0.41899272  1
  V  V68  1  0.50263450  -0.00046771  0.50231121  1
  V  V69  1  0.00214828  0.61551821  0.12605570  1
  V  V70  1  0.12090656  0.60498399  0.50201930  1
  V  V71  1  0.87450371  0.87481644  -0.00034026  1
  V  V72  1  0.50122896  0.12438053  0.62651372  1
  V  V73  1  -0.00312131  0.24733024  0.75285146  1
  V  V74  1  -0.00018789  0.87184957  0.87377875  1
  V  V75  1  0.49958984  0.24102159  0.24584045  1
  V  V76  1  0.50305909  0.75045056  0.25952497  1
  V  V77  1  0.26309408  0.50813289  0.74574733  1
  V  V78  1  0.74856203  0.24813681  -0.00032643  1
  V  V79  1  0.37424387  0.37484187  -0.00277759  1
  V  V80  1  0.25234959  0.00020242  0.74985559  1
  V  V81  1  0.37541153  0.75803885  0.12485537  1
  V  V82  1  0.74389364  0.88025144  0.12253371  1
  V  V83  1  0.62108501  0.37404984  0.24622085  1
  V  V84  1  0.50794469  0.86910081  0.37982982  1
  Zn  Zn85  1  0.37764872  0.12638800  0.75107283  1
  Zn  Zn86  1  0.62340150  0.87881851  0.25188273  1
  Zn  Zn87  1  0.37712392  0.12265288  0.24258171  1
  Zn  Zn88  1  0.87291912  0.37830185  -0.00033139  1
  Zn  Zn89  1  0.62861976  0.51056601  0.62940523  1
  Zn  Zn90  1  0.49144602  0.62344359  0.63215291  1
  Zn  Zn91  1  0.62312006  0.24887786  0.87704228  1
  Zn  Zn92  1  0.62994134  0.12772216  0.50453743  1
  Zn  Zn93  1  0.24940887  0.88041104  0.12066043  1
  Zn  Zn94  1  0.85547653  0.62160777  0.25700556  1
  Zn  Zn95  1  0.25645298  0.62904481  0.86867718  1
  Zn  Zn96  1  0.00034812  0.87400182  0.37587969  1
  Zn  Zn97  1  -0.00112242  -0.00354624  0.50076223  1
  Zn  Zn98  1  0.50130315  0.37700977  0.87478679  1
  Zn  Zn99  1  0.49536038  0.37030876  0.37693781  1
  Zn  Zn100  1  0.74511789  0.75172920  -0.00613636  1
  Zn  Zn101  1  0.86853590  0.12039043  0.74652567  1
  Zn  Zn102  1  0.88692190  0.37662445  0.49115580  1
  Zn  Zn103  1  0.00194630  0.49865030  0.00075804  1
  Zn  Zn104  1  0.37974835  0.25164868  0.62284371  1
  Zn  Zn105  1  0.75146120  0.87432158  0.62957313  1
  Zn  Zn106  1  0.38023041  0.50613322  0.87332974  1
  Zn  Zn107  1  0.18882803  0.19114764  0.18449312  1
  Zn  Zn108  1  0.18854208  0.19020310  0.68835361  1
  Zn  Zn109  1  0.18540180  0.68997206  0.18787659  1
  Zn  Zn110  1  0.18319242  0.68483136  0.68177728  1
  Zn  Zn111  1  0.68844135  0.18971171  0.19125994  1
  Zn  Zn112  1  0.68495143  0.19223593  0.68946829  1
  Zn  Zn113  1  0.68133079  0.70846253  0.18088499  1
  Zn  Zn114  1  0.67735910  0.69161370  0.67942269  1
  Zn  Zn115  1  0.30750988  0.31004228  0.30455853  1
  Zn  Zn116  1  0.31595421  0.31464761  0.81221774  1
  Zn  Zn117  1  0.31346946  0.81319644  0.31566858  1
  Zn  Zn118  1  0.31329108  0.81487319  0.81512574  1
  Zn  Zn119  1  0.81271520  0.31983868  0.31509721  1
  Zn  Zn120  1  0.81173311  0.31195172  0.81207645  1
  Zn  Zn121  1  0.81287889  0.81275916  0.30963436  1
  Zn  Zn122  1  0.81361821  0.80748851  0.81073268  1
  Zn  Zn123  1  0.19506107  0.43999038  0.43604363  1
  Zn  Zn124  1  0.19055684  0.44042357  0.93323593  1
  Zn  Zn125  1  0.18764052  0.93813028  0.43410244  1
  Zn  Zn126  1  0.18817386  0.93659155  0.93664360  1
  Zn  Zn127  1  0.69053305  0.44249483  0.43168439  1
  Zn  Zn128  1  0.68799001  0.44193689  0.93923753  1
  Zn  Zn129  1  0.68981921  0.93902375  0.44173292  1
  Zn  Zn130  1  0.68494055  0.94068124  0.93809665  1
  Zn  Zn131  1  0.31458387  0.06146972  0.05979559  1
  Zn  Zn132  1  0.31432619  0.06177064  0.56266458  1
  Zn  Zn133  1  0.31703766  0.56615585  0.05976846  1
  Zn  Zn134  1  0.31209261  0.56216289  0.56562490  1
  Zn  Zn135  1  0.81409089  0.06207164  0.05885496  1
  Zn  Zn136  1  0.81225376  0.06077781  0.56222698  1
  Zn  Zn137  1  0.82110016  0.56346090  0.05343592  1
  Zn  Zn138  1  0.81421886  0.55828923  0.55100335  1
  Zn  Zn139  1  0.43657680  0.43585022  0.18761478  1
  Zn  Zn140  1  0.44027396  0.43405258  0.68384868  1
  Zn  Zn141  1  0.43495620  0.93625532  0.19324233  1
  Zn  Zn142  1  0.43951745  0.93552375  0.68971541  1
  Zn  Zn143  1  0.93187431  0.43971019  0.19664991  1
  Zn  Zn144  1  0.93211508  0.43343425  0.68883364  1
  Zn  Zn145  1  0.93619611  0.93543205  0.18722640  1
  Zn  Zn146  1  0.93825956  0.93170529  0.68539808  1
  Zn  Zn147  1  0.06267021  0.06094091  0.31325154  1
  Zn  Zn148  1  0.06239033  0.06115769  0.81437166  1
  Zn  Zn149  1  0.05756846  0.56017862  0.31590121  1
  Zn  Zn150  1  0.06308451  0.56395670  0.81375972  1
  Zn  Zn151  1  0.56314105  0.06367110  0.31443721  1
  Zn  Zn152  1  0.56422720  0.05994558  0.81486859  1
  Zn  Zn153  1  0.55639502  0.56476143  0.32284748  1
  Zn  Zn154  1  0.56075149  0.56663611  0.81649290  1
  Zn  Zn155  1  0.44177714  0.18446560  0.43500522  1
  Zn  Zn156  1  0.43990739  0.18735336  0.93903642  1
  Zn  Zn157  1  0.41539980  0.66967455  0.47356322  1
  Zn  Zn158  1  0.43693545  0.68556249  0.93835694  1
  Zn  Zn159  1  0.93201700  0.18279641  0.44092028  1
  Zn  Zn160  1  0.93545768  0.18591096  0.93686170  1
  Zn  Zn161  1  0.93525739  0.67863551  0.43646176  1
  Zn  Zn162  1  0.93497533  0.68352237  0.93730507  1
  Zn  Zn163  1  0.06594740  0.31144513  0.05943183  1
  Zn  Zn164  1  0.06772987  0.30910671  0.58131611  1
  Zn  Zn165  1  0.06380559  0.80784131  0.06283961  1
  Zn  Zn166  1  0.05935378  0.81023097  0.56424863  1
  Zn  Zn167  1  0.56224049  0.31150977  0.06386817  1
  Zn  Zn168  1  0.56610849  0.31533565  0.56537176  1
  Zn  Zn169  1  0.56110768  0.81096551  0.06406867  1
  Zn  Zn170  1  0.56508514  0.81219716  0.56496794  1
  O  O171  1  0.12363121  0.13043027  0.10884606  1
  O  O172  1  0.12182556  0.12285109  0.61458299  1
  O  O173  1  0.11431054  0.63355908  0.11555404  1
  O  O174  1  0.11796321  0.62453821  0.60853500  1
  O  O175  1  0.63129449  0.12598205  0.11243094  1
  O  O176  1  0.61841406  0.11869009  0.62679852  1
  O  O177  1  0.62343506  0.61550580  0.12600657  1
  O  O178  1  0.61416543  0.62591519  0.61067506  1
  O  O179  1  0.36889175  0.38491076  0.36829831  1
  O  O180  1  0.37780345  0.38036824  0.88426598  1
  O  O181  1  0.37824097  0.88928341  0.37949656  1
  O  O182  1  0.38214925  0.88784794  0.87591279  1
  O  O183  1  0.88076403  0.37998917  0.37604614  1
  O  O184  1  0.88105029  0.38206976  0.87566376  1
  O  O185  1  0.87522298  0.88174455  0.38101855  1
  O  O186  1  0.88002627  0.87922799  0.87935242  1
  O  O187  1  0.25597190  0.01042903  0.36760391  1
  O  O188  1  0.25856836  0.00416155  0.87029847  1
  O  O189  1  0.25484228  0.50809393  0.36455361  1
  O  O190  1  0.25181541  0.49964744  0.85554506  1
  O  O191  1  0.75904637  0.00525626  0.36825535  1
  O  O192  1  0.75982847  0.00842153  0.88149699  1
  O  O193  1  0.76855891  0.48818978  0.36771096  1
  O  O194  1  0.76102956  0.51022984  0.87763129  1
  O  O195  1  0.25797003  0.49317529  0.13573014  1
  O  O196  1  0.25177349  0.49220593  0.63509932  1
  O  O197  1  0.25597913  0.99970642  0.13838664  1
  O  O198  1  0.24373280  0.99996839  0.63350178  1
  O  O199  1  0.75185675  0.49178902  0.12022414  1
  O  O200  1  0.75015582  0.48689761  0.62279174  1
  O  O201  1  0.76023722  0.99251264  0.13390497  1
  O  O202  1  0.73800136  0.99830827  0.62431385  1
  O  O203  1  0.01187910  0.36636786  0.23841915  1
  O  O204  1  0.00731980  0.36839547  0.75807681  1
  O  O205  1  0.00445786  0.86401666  0.25145150  1
  O  O206  1  0.00655181  0.86335704  0.75317523  1
  O  O207  1  0.50643000  0.36531941  0.25143619  1
  O  O208  1  0.51143030  0.36859292  0.75002582  1
  O  O209  1  0.49957635  0.86991709  0.26158962  1
  O  O210  1  0.50614227  0.86838885  0.76014008  1
  O  O211  1  0.49820302  0.13616712  0.25237286  1
  O  O212  1  0.50300650  0.13265309  0.74411261  1
  O  O213  1  0.49442181  0.63247320  0.24982884  1
  O  O214  1  0.50583115  0.64445022  0.75172424  1
  O  O215  1  0.99948913  0.12966294  0.24230223  1
  O  O216  1  0.99852974  0.13201960  0.74628812  1
  O  O217  1  1.00677775  0.63765291  0.24138489  1
  O  O218  1  1.00965826  0.63527787  0.73954536  1
  O  O219  1  0.38242885  0.26397517  0.00587303  1
  O  O220  1  0.36525530  0.24585898  0.49913297  1
  O  O221  1  0.36627713  0.74666984  0.01202335  1
  O  O222  1  0.36689418  0.77222358  0.48429269  1
  O  O223  1  0.86644273  0.25113348  0.00554763  1
  O  O224  1  0.88153075  0.25527084  0.51331486  1
  O  O225  1  0.87625211  0.75757914  0.00733576  1
  O  O226  1  0.86571584  0.75259658  0.50415210  1
  O  O227  1  0.12686949  0.24685391  0.48877069  1
  O  O228  1  0.12057721  0.24054433  0.98431475  1
  O  O229  1  0.12263153  0.75016843  0.48768569  1
  O  O230  1  0.12949603  0.74209359  0.99279602  1
  O  O231  1  0.62114746  0.24924529  0.48613664  1
  O  O232  1  0.63022944  0.23840948  0.99978969  1
  O  O233  1  0.63579492  0.74388356  0.50100619  1
  O  O234  1  0.62609840  0.73175916  1.01107446  1
  O  O235  1  0.48973930  0.25437974  0.13352927  1
  O  O236  1  0.50227204  0.24243996  0.63097894  1
  O  O237  1  0.49279330  0.74451320  0.13409793  1
  O  O238  1  0.49730801  0.75702505  0.64010579  1
  O  O239  1  0.99771766  0.24235630  0.12837860  1
  O  O240  1  0.99265980  0.24265269  0.63543934  1
  O  O241  1  0.99000188  0.74625300  0.13152950  1
  O  O242  1  0.99245319  0.74165745  0.63057294  1
  O  O243  1  0.00324889  0.24419124  0.36714019  1
  O  O244  1  0.00350120  0.25579564  0.86899203  1
  O  O245  1  0.00578179  0.74911999  0.36788528  1
  O  O246  1  0.00304399  0.75141246  0.86659139  1
  O  O247  1  0.50772127  0.25166965  0.36716851  1
  O  O248  1  0.50322505  0.25286957  0.86705913  1
  O  O249  1  0.48901305  0.76251572  0.37028229  1
  O  O250  1  0.49573731  0.76505685  0.87514211  1
  O  O251  1  0.24287056  0.13284224  0.49476311  1
  O  O252  1  0.24258737  0.11752932  0.98643443  1
  O  O253  1  0.23283494  0.61752258  0.49047505  1
  O  O254  1  0.24147416  0.63643601  1.00425513  1
  O  O255  1  0.75022542  0.12179918  0.48523169  1
  O  O256  1  0.74132338  0.12925729  0.99467123  1
  O  O257  1  0.73944102  0.63651378  0.50353299  1
  O  O258  1  0.74383595  0.62657155  0.99577488  1
  O  O259  1  0.25790919  0.38275062  0.00782604  1
  O  O260  1  0.24203767  0.36406926  0.50730188  1
  O  O261  1  0.24168873  0.86058939  0.00368884  1
  O  O262  1  0.25740987  0.88765861  0.51044029  1
  O  O263  1  0.74607733  0.36559495  0.01002107  1
  O  O264  1  0.74402512  0.37264118  0.51344865  1
  O  O265  1  0.75489554  0.87487225  0.00504129  1
  O  O266  1  0.75782326  0.86435864  0.50205729  1
  O  O267  1  0.13312128  0.49210116  0.25260886  1
  O  O268  1  0.13101461  0.48916081  0.75442475  1
  O  O269  1  0.13278991  0.98980480  0.25598842  1
  O  O270  1  0.13056786  0.99339011  0.74648432  1
  O  O271  1  0.61968922  0.49269274  0.25179668  1
  O  O272  1  0.61857519  0.48710606  0.74935520  1
  O  O273  1  0.63882336  1.00089065  0.25284215  1
  O  O274  1  0.61782787  0.98532438  0.74341400  1
  O  O275  1  0.36712293  0.00371729  0.25838655  1
  O  O276  1  0.37094236  0.00324123  0.75963277  1
  O  O277  1  0.36786651  0.50681355  0.25699354  1
  O  O278  1  0.36597281  0.49866160  0.74828136  1
  O  O279  1  0.86939644  0.00493163  0.25711998  1
  O  O280  1  0.88120166  -0.00164878  0.76258346  1
  O  O281  1  0.86836767  0.50707772  0.25603081  1
  O  O282  1  0.87570997  0.49604724  0.76607092  1
  O  O283  1  0.12885398  0.37045460  0.36457794  1
  O  O284  1  0.11995799  0.36778574  0.86958766  1
  O  O285  1  0.12271872  0.86742915  0.36751469  1
  O  O286  1  0.11812917  0.86755770  0.86911245  1
  O  O287  1  0.62679202  0.36760003  0.36209753  1
  O  O288  1  0.62754994  0.37350566  0.86522840  1
  O  O289  1  0.61149833  0.88244204  0.37687432  1
  O  O290  1  0.61766158  0.88071871  0.86518546  1
  O  O291  1  0.36627847  0.14189173  0.12293198  1
  O  O292  1  0.38928800  0.12514531  0.62768184  1
  O  O293  1  0.38068960  0.63424048  0.13465027  1
  O  O294  1  0.38964352  0.63804479  0.58317165  1
  O  O295  1  0.88232253  0.13026810  0.12862825  1
  O  O296  1  0.87769612  0.13100991  0.62699869  1
  O  O297  1  0.88231808  0.63435615  0.12554088  1
  O  O298  1  0.88262324  0.63233487  0.61533653  1
  O  O299  1  0.25812702  0.26498457  0.12822545  1
  O  O300  1  0.25210644  0.25379317  0.61446447  1
  O  O301  1  0.25806768  0.75146116  0.12015576  1
  O  O302  1  0.24473982  0.76488794  0.62825658  1
  O  O303  1  0.75485351  0.25386765  0.11628820  1
  O  O304  1  0.75873265  0.25936421  0.63110311  1
  O  O305  1  0.76316313  0.76063297  0.12093248  1
  O  O306  1  0.75747275  0.75169907  0.61701110  1
  O  O307  1  0.25358579  0.23734339  0.37888379  1
  O  O308  1  0.24192354  0.24087839  0.86746649  1
  O  O309  1  0.24041154  0.73615004  0.36674886  1
  O  O310  1  0.24347457  0.75114440  0.88218423  1
  O  O311  1  0.74118218  0.24077523  0.36441508  1
  O  O312  1  0.75077822  0.24348678  0.88773716  1
  O  O313  1  0.75299976  0.75263059  0.38829652  1
  O  O314  1  0.75814790  0.73294357  0.87777715  1
  O  O315  1  0.00728118  0.11658291  0.00133707  1
  O  O316  1  0.00795786  0.12273662  0.50623761  1
  O  O317  1  0.00797381  0.62625477  0.00856779  1
  O  O318  1  0.01352677  0.62888509  0.50686645  1
  O  O319  1  0.51247482  0.11460671  -0.00147818  1
  O  O320  1  0.50476564  0.11861594  0.50881317  1
  O  O321  1  0.50918449  0.61916060  0.00825434  1
  O  O322  1  0.51409861  0.60979644  0.48653075  1
  O  O323  1  0.50873358  0.38796965  0.49627371  1
  O  O324  1  0.49613284  0.38309935  1.00084988  1
  O  O325  1  0.49333946  0.88002075  0.49658319  1
  O  O326  1  0.51025808  0.88869337  0.99478174  1
  O  O327  1  1.01608113  0.35851358  0.48843135  1
  O  O328  1  1.00171808  0.37472719  0.98585188  1
  O  O329  1  0.98607865  0.87394888  0.49815613  1
  O  O330  1  0.99778012  0.88012918  0.99507539  1
  O  O331  1  0.48719551  0.49304585  0.37906276  1
  O  O332  1  0.50036676  0.49892309  0.88969378  1
  O  O333  1  0.49232288  0.99603283  0.38013970  1
  O  O334  1  0.49417816  0.99274535  0.88236806  1
  O  O335  1  0.98183056  0.49325939  0.36064911  1
  O  O336  1  0.99193896  0.49343745  0.87354640  1
  O  O337  1  0.98568950  0.99926712  0.37636174  1
  O  O338  1  0.99389642  0.99318108  0.88312493  1
  O  O339  1  -0.00490856  0.00339402  0.11168885  1
  O  O340  1  0.00692093  0.00546572  0.62464756  1
  O  O341  1  -0.00525587  0.51276062  0.12432220  1
  O  O342  1  -0.00570535  0.51064110  0.63212747  1
  O  O343  1  0.49427318  -0.00461115  0.11346244  1
  O  O344  1  0.50882527  0.00653767  0.62308547  1
  O  O345  1  0.49320659  0.50794865  0.11611233  1
  O  O346  1  0.50306708  0.50206179  0.61646238  1
  O  O347  1  0.23901266  0.38159168  0.24087495  1
  O  O348  1  0.24538250  0.38179950  0.74417121  1
  O  O349  1  0.24208091  0.88373728  0.25181447  1
  O  O350  1  0.24526570  0.88190675  0.74379643  1
  O  O351  1  0.74120501  0.36604063  0.23439637  1
  O  O352  1  0.73762732  0.37095525  0.74442754  1
  O  O353  1  0.74995834  0.88377971  0.24262108  1
  O  O354  1  0.73607360  0.87093392  0.75219716  1
  O  O355  1  0.24748954  0.12003850  0.25717563  1
  O  O356  1  0.25014367  0.11910081  0.76065750  1
  O  O357  1  0.25123410  0.61805989  0.25530740  1
  O  O358  1  0.24474936  0.61048777  0.74484802  1
  O  O359  1  0.75736490  0.11911514  0.25616692  1
  O  O360  1  0.74987702  0.13156497  0.76555261  1
  O  O361  1  0.73747512  0.62117895  0.23436307  1
  O  O362  1  0.73930912  0.62999375  0.75994143  1
  O  O363  1  0.36758102  0.11560774  0.37341108  1
  O  O364  1  0.36849040  0.11742899  0.87566329  1
  O  O365  1  0.36332433  0.61831654  0.37436217  1
  O  O366  1  0.36739450  0.61828660  0.88536071  1
  O  O367  1  0.86880659  0.11866914  0.36908900  1
  O  O368  1  0.86752119  0.11510793  0.87431694  1
  O  O369  1  0.87310392  0.61234630  0.37218428  1
  O  O370  1  0.86448009  0.61456189  0.87500094  1
  O  O371  1  0.13396448  0.37401039  0.12807353  1
  O  O372  1  0.13980485  0.36922726  0.63945873  1
  O  O373  1  0.12662499  0.86795435  0.13990771  1
  O  O374  1  0.13013560  0.88154349  0.62789550  1
  O  O375  1  0.63107675  0.37253857  0.13672034  1
  O  O376  1  0.63701230  0.37679946  0.63516218  1
  O  O377  1  0.64016698  0.86999665  0.12751588  1
  O  O378  1  0.62675826  0.88220413  0.63662053  1
  O  O379  1  0.11417078  0.25680081  0.24675535  1
  O  O380  1  0.11497867  0.25422972  0.75914638  1
  O  O381  1  0.11761923  0.75596169  0.25969369  1
  O  O382  1  0.11945393  0.75415842  0.75516915  1
  O  O383  1  0.61687877  0.25530967  0.25505706  1
  O  O384  1  0.61619397  0.26090264  0.75319395  1
  O  O385  1  0.60796157  0.75742769  0.25114669  1
  O  O386  1  0.61515511  0.76669791  0.74819701  1
  O  O387  1  0.38238621  0.24826944  0.24144720  1
  O  O388  1  0.38907970  0.24859715  0.74811369  1
  O  O389  1  0.38194582  0.74496082  0.24702147  1
  O  O390  1  0.38890303  0.75665574  0.75307131  1
  O  O391  1  0.88836011  0.24495571  0.24463264  1
  O  O392  1  0.88574308  0.24952588  0.74438975  1
  O  O393  1  0.88091293  0.74429862  0.24378500  1
  O  O394  1  0.88480798  0.75215438  0.73861608  1
  O  O395  1  0.38237355  0.49862219  0.48887719  1
  O  O396  1  0.38338561  0.48835368  1.00337084  1
  O  O397  1  0.38212761  0.99730268  0.49221632  1
  O  O398  1  0.39095577  1.00510722  0.99382925  1
  O  O399  1  0.87803490  0.49266770  0.48646212  1
  O  O400  1  0.88267974  0.49576159  0.98550446  1
  O  O401  1  0.87346747  0.98941465  0.49300568  1
  O  O402  1  0.88385186  0.99394658  0.99008829  1
  O  O403  1  0.11553525  0.00867304  -0.00766999  1
  O  O404  1  0.12273597  0.00783810  0.50461218  1
  O  O405  1  0.12347172  0.51461687  -0.00693531  1
  O  O406  1  0.11967875  0.50664783  0.49388886  1
  O  O407  1  0.61453049  0.01085972  0.00096478  1
  O  O408  1  0.61940339  0.00103672  0.51111004  1
  O  O409  1  0.61805332  0.50999281  0.00199957  1
  O  O410  1  0.62228996  0.50959167  0.49922511  1
  O  O411  1  0.36690542  0.36785600  0.11962175  1
  O  O412  1  0.36144535  0.36964507  0.62733283  1
  O  O413  1  0.37181565  0.86177172  0.13168181  1
  O  O414  1  0.36550617  0.88425899  0.61563215  1
  O  O415  1  0.86735177  0.36842088  0.12300566  1
  O  O416  1  0.86401903  0.36893706  0.62153831  1
  O  O417  1  0.86858866  0.86828327  0.11931250  1
  O  O418  1  0.87272959  0.86458426  0.61699074  1
  O  O419  1  0.13230829  0.11911033  0.38701645  1
  O  O420  1  0.13140367  0.13078605  0.88095318  1
  O  O421  1  0.12709243  0.62938982  0.38414226  1
  O  O422  1  0.12997898  0.63327182  0.88145151  1
  O  O423  1  0.63380941  0.13327829  0.37554097  1
  O  O424  1  0.63274551  0.12467977  0.88514858  1
  O  O425  1  0.62961310  0.62609765  0.38691580  1
  O  O426  1  0.64021943  0.61970247  0.88379103  1
