# generated using pymatgen
data_V85Zn86O256
_symmetry_space_group_name_H-M   'P 1'
_cell_length_a   16.95613238
_cell_length_b   16.96063686
_cell_length_c   16.93742675
_cell_angle_alpha   90.03807897
_cell_angle_beta   90.00670935
_cell_angle_gamma   90.05150056
_symmetry_Int_Tables_number   1
_chemical_formula_structural   V85Zn86O256
_chemical_formula_sum   'V85 Zn86 O256'
_cell_volume   4870.97734653
_cell_formula_units_Z   1
loop_
 _symmetry_equiv_pos_site_id
 _symmetry_equiv_pos_as_xyz
  1  'x, y, z'
loop_
 _atom_site_type_symbol
 _atom_site_label
 _atom_site_symmetry_multiplicity
 _atom_site_fract_x
 _atom_site_fract_y
 _atom_site_fract_z
 _atom_site_occupancy
  V  V0  1  0.13006041  0.74287494  0.87517795  1
  V  V1  1  0.00429789  0.49721964  0.00242560  1
  V  V2  1  0.24838293  0.87605651  0.11391485  1
  V  V3  1  0.87163889  0.49965991  0.87691227  1
  V  V4  1  0.00196815  0.75244203  0.24719812  1
  V  V5  1  0.62194771  0.62197347  0.00046923  1
  V  V6  1  -0.00253987  0.62864623  0.62318005  1
  V  V7  1  0.12918822  0.25161431  0.37298978  1
  V  V8  1  0.87620058  0.62414909  0.75096037  1
  V  V9  1  0.38450485  0.75176172  0.13208845  1
  V  V10  1  0.50056178  0.47773216  -0.00027114  1
  V  V11  1  0.12618459  0.12723726  0.00149926  1
  V  V12  1  0.49076051  0.24192486  0.24904271  1
  V  V13  1  0.50031718  0.62581989  0.63468499  1
  V  V14  1  0.50720308  0.86830143  0.85913595  1
  V  V15  1  0.00051846  0.00164310  0.50359485  1
  V  V16  1  0.62754454  -0.00504324  0.12475460  1
  V  V17  1  0.87095133  0.75469871  0.12297066  1
  V  V18  1  0.62763989  0.37685057  0.73041801  1
  V  V19  1  0.25406440  0.73910483  -0.00158984  1
  V  V20  1  0.01062505  0.62297618  0.12374920  1
  V  V21  1  0.82318409  0.45441321  0.32412015  1
  V  V22  1  0.37626713  0.50131008  0.37677175  1
  V  V23  1  0.00299899  0.38202387  0.37417583  1
  V  V24  1  0.49529808  -0.00240045  0.49859342  1
  V  V25  1  0.25007251  0.37505305  0.62637826  1
  V  V26  1  0.74377116  0.75823235  0.49495821  1
  V  V27  1  0.62361802  0.62499003  0.49769344  1
  V  V28  1  0.00560182  0.12154635  0.12622119  1
  V  V29  1  0.12870459  0.12369787  0.49983221  1
  V  V30  1  0.00030695  0.13313132  0.63007948  1
  V  V31  1  0.63214912  0.49432547  0.14178811  1
  V  V32  1  0.86414991  0.36868986  0.00125640  1
  V  V33  1  0.24866127  0.50491003  0.24184082  1
  V  V34  1  0.49919866  0.12512538  0.62476502  1
  V  V35  1  0.38339920  0.75674792  0.62818180  1
  V  V36  1  0.87846844  0.12079051  0.25036863  1
  V  V37  1  0.50002427  -0.00379261  -0.00324132  1
  V  V38  1  0.48734722  0.12320768  0.12725243  1
  V  V39  1  0.25529271  0.76627419  0.49917449  1
  V  V40  1  0.74738053  0.75685719  0.00027465  1
  V  V41  1  0.74775198  0.63087868  0.37107489  1
  V  V42  1  0.24852659  0.12255550  0.86638767  1
  V  V43  1  0.00104540  0.25103926  0.24824303  1
  V  V44  1  0.12638886  0.38369252  0.23788023  1
  V  V45  1  0.87579169  0.13098666  0.75219718  1
  V  V46  1  0.00556331  0.87866083  0.87417877  1
  V  V47  1  0.87495347  -0.00099080  0.37695317  1
  V  V48  1  0.63040068  0.12787816  0.00151499  1
  V  V49  1  0.87096544  0.37990017  0.50868990  1
  V  V50  1  0.25147808  0.62710348  0.38032562  1
  V  V51  1  0.00613505  -0.00239627  0.00461991  1
  V  V52  1  0.74964276  0.49306997  0.73738961  1
  V  V53  1  0.49973877  0.86146633  0.37232969  1
  V  V54  1  0.37392705  0.37569690  0.49799325  1
  V  V55  1  0.50512081  0.37763110  0.36666179  1
  V  V56  1  0.12655493  0.88321305  0.24232182  1
  V  V57  1  0.87636063  0.76279676  0.62805322  1
  V  V58  1  0.00078572  0.87791570  0.37550821  1
  V  V59  1  0.87418654  0.62755206  0.25302621  1
  V  V60  1  0.74888675  -0.00770807  0.24734678  1
  V  V61  1  -0.00547837  0.50406722  0.49541506  1
  V  V62  1  0.75096180  0.25326637  0.50656884  1
  V  V63  1  0.62520097  0.25187865  0.37074525  1
  V  V64  1  0.62185826  0.86305575  0.25035995  1
  V  V65  1  0.62577494  0.26039316  0.88160419  1
  V  V66  1  0.37728136  -0.00208669  0.37068626  1
  V  V67  1  0.12612018  0.75454933  0.37438677  1
  V  V68  1  0.26710093  0.25088460  0.00406542  1
  V  V69  1  0.37492071  0.25130519  0.62537855  1
  V  V70  1  0.12278118  0.62934480  0.49737975  1
  V  V71  1  0.25473187  0.00437996  0.23982168  1
  V  V72  1  0.74814215  0.12146385  0.37730660  1
  V  V73  1  0.37197766  -0.00250553  0.86608165  1
  V  V74  1  0.24720087  0.88129234  0.64082696  1
  V  V75  1  0.11887360  0.36776538  0.74709862  1
  V  V76  1  0.49971692  0.25198942  0.75693791  1
  V  V77  1  -0.00337601  0.36462231  0.87164126  1
  V  V78  1  0.50258720  0.49954650  0.51007511  1
  V  V79  1  0.69162739  0.82358629  0.68533000  1
  V  V80  1  0.12210860  0.50063359  0.62452531  1
  V  V81  1  0.74798809  0.12556051  0.87648099  1
  V  V82  1  0.25765782  0.12914019  0.36792903  1
  V  V83  1  0.00604215  0.75628653  0.75159522  1
  V  V84  1  0.63022693  0.00085946  0.63066702  1
  Zn  Zn85  1  0.74788039  0.37501008  0.13222729  1
  Zn  Zn86  1  0.74715053  0.62436192  0.87697131  1
  Zn  Zn87  1  0.13417859  0.61248403  -0.00566373  1
  Zn  Zn88  1  0.62445556  0.74934310  0.86774491  1
  Zn  Zn89  1  0.87413609  0.25491336  0.63201370  1
  Zn  Zn90  1  0.24434779  0.50871083  0.77164383  1
  Zn  Zn91  1  0.37772161  0.87235439  -0.00395460  1
  Zn  Zn92  1  0.86660649  0.24391516  0.11826318  1
  Zn  Zn93  1  0.87256054  0.87940328  0.00364588  1
  Zn  Zn94  1  0.50620866  0.62512971  0.13398483  1
  Zn  Zn95  1  0.62488090  0.12442312  0.50074955  1
  Zn  Zn96  1  0.38589883  0.63498834  0.25846177  1
  Zn  Zn97  1  0.37059796  0.12288039  0.74703478  1
  Zn  Zn98  1  0.36462133  0.49715714  0.89523043  1
  Zn  Zn99  1  0.12877978  0.00109679  0.64105628  1
  Zn  Zn100  1  0.25313525  0.24941938  0.49529327  1
  Zn  Zn101  1  0.75088030  -0.00180301  0.74783514  1
  Zn  Zn102  1  0.87370068  -0.00035863  0.87710548  1
  Zn  Zn103  1  0.36240526  0.62814983  0.77032603  1
  Zn  Zn104  1  0.26699771  0.37904836  0.11271276  1
  Zn  Zn105  1  0.12428523  0.24934670  0.87390185  1
  Zn  Zn106  1  0.86687726  0.88105909  0.50520756  1
  Zn  Zn107  1  0.18872854  0.18997853  0.18489355  1
  Zn  Zn108  1  0.18556602  0.18967926  0.68577965  1
  Zn  Zn109  1  0.19231282  0.69111234  0.18825747  1
  Zn  Zn110  1  0.18518820  0.69478720  0.68311924  1
  Zn  Zn111  1  0.68109329  0.18171147  0.18748045  1
  Zn  Zn112  1  0.68641486  0.18614016  0.69066342  1
  Zn  Zn113  1  0.68995484  0.68229974  0.18394518  1
  Zn  Zn114  1  0.68699127  0.65879711  0.68488638  1
  Zn  Zn115  1  0.32963537  0.32972313  0.27880614  1
  Zn  Zn116  1  0.30987697  0.31575911  0.81995068  1
  Zn  Zn117  1  0.31239665  0.81969516  0.31085002  1
  Zn  Zn118  1  0.32017253  0.80613349  0.81476957  1
  Zn  Zn119  1  0.78760825  0.28211505  0.27911603  1
  Zn  Zn120  1  0.80567554  0.30976848  0.81507018  1
  Zn  Zn121  1  0.81296964  0.81337108  0.31293853  1
  Zn  Zn122  1  0.82070920  0.80888225  0.82367274  1
  Zn  Zn123  1  0.18837185  0.43982760  0.43857248  1
  Zn  Zn124  1  0.18678149  0.43082017  0.93635810  1
  Zn  Zn125  1  0.18770580  0.94310545  0.43367053  1
  Zn  Zn126  1  0.18502310  0.93715278  0.82003684  1
  Zn  Zn127  1  0.68237636  0.43586464  0.44464917  1
  Zn  Zn128  1  0.68532648  0.44147115  0.93873488  1
  Zn  Zn129  1  0.67858974  0.93720154  0.43784879  1
  Zn  Zn130  1  0.68632466  0.93691326  0.93459124  1
  Zn  Zn131  1  0.31062537  0.05908760  0.05320311  1
  Zn  Zn132  1  0.31478315  0.06028676  0.55926463  1
  Zn  Zn133  1  0.32268662  0.56519902  0.06445013  1
  Zn  Zn134  1  0.31300308  0.56238583  0.62577754  1
  Zn  Zn135  1  0.81453912  0.06040232  0.06313508  1
  Zn  Zn136  1  0.81316716  0.06508595  0.56564190  1
  Zn  Zn137  1  0.81014650  0.56454402  0.06509729  1
  Zn  Zn138  1  0.81384770  0.56822917  0.55927644  1
  Zn  Zn139  1  0.44063309  0.44110405  0.18425311  1
  Zn  Zn140  1  0.42201434  0.42527513  0.73419487  1
  Zn  Zn141  1  0.43704678  0.93611007  0.18773273  1
  Zn  Zn142  1  0.43714779  0.93669004  0.68547533  1
  Zn  Zn143  1  0.94028958  0.43547120  0.17968171  1
  Zn  Zn144  1  0.93850813  0.43896501  0.68766003  1
  Zn  Zn145  1  0.93791822  0.93740467  0.18503622  1
  Zn  Zn146  1  0.94045311  0.94549926  0.69261460  1
  Zn  Zn147  1  0.06800362  0.06182184  0.31325617  1
  Zn  Zn148  1  0.05828527  0.06735632  0.81458080  1
  Zn  Zn149  1  0.06321422  0.56441849  0.30982686  1
  Zn  Zn150  1  0.06075329  0.55870662  0.81212345  1
  Zn  Zn151  1  0.56410112  0.06144639  0.31129608  1
  Zn  Zn152  1  0.56229613  0.06268465  0.81179485  1
  Zn  Zn153  1  0.56226390  0.56850549  0.31355848  1
  Zn  Zn154  1  0.56011317  0.55639402  0.81893893  1
  Zn  Zn155  1  0.43686583  0.18676397  0.43698947  1
  Zn  Zn156  1  0.44009803  0.18174349  0.93665087  1
  Zn  Zn157  1  0.43193082  0.68739689  0.44863592  1
  Zn  Zn158  1  0.44072630  0.68484912  0.94028518  1
  Zn  Zn159  1  0.93736706  0.19123412  0.43735577  1
  Zn  Zn160  1  0.93458372  0.18641912  0.93961996  1
  Zn  Zn161  1  0.93214885  0.69357193  0.43682108  1
  Zn  Zn162  1  0.93919491  0.68634511  0.93901714  1
  Zn  Zn163  1  0.06173333  0.31048290  0.06125393  1
  Zn  Zn164  1  0.06147536  0.31167380  0.55772957  1
  Zn  Zn165  1  0.06634000  0.80940634  0.05917595  1
  Zn  Zn166  1  0.06613730  0.81790040  0.56426779  1
  Zn  Zn167  1  0.56692934  0.31033666  0.07280719  1
  Zn  Zn168  1  0.56044623  0.31034377  0.55805971  1
  Zn  Zn169  1  0.56594908  0.81499788  0.05954780  1
  Zn  Zn170  1  0.55769380  0.81164728  0.55214743  1
  O  O171  1  0.11300102  0.13031810  0.11918917  1
  O  O172  1  0.12023982  0.12309590  0.61684262  1
  O  O173  1  0.11295073  0.63139855  0.12480180  1
  O  O174  1  0.11469841  0.62454721  0.61437330  1
  O  O175  1  0.61863298  0.11437027  0.11848741  1
  O  O176  1  0.61674950  0.11858865  0.62231480  1
  O  O177  1  0.62799726  0.61144251  0.11950299  1
  O  O178  1  0.61346147  0.62624075  0.60891358  1
  O  O179  1  0.38318440  0.38343279  0.37617135  1
  O  O180  1  0.38176294  0.39602817  0.84027523  1
  O  O181  1  0.38650411  0.88824238  0.36872526  1
  O  O182  1  0.38683670  0.88017625  0.87528120  1
  O  O183  1  0.88122038  0.38663067  0.37901580  1
  O  O184  1  0.87733998  0.37818751  0.88370448  1
  O  O185  1  0.88336926  0.88193528  0.37867969  1
  O  O186  1  0.89048206  0.87670072  0.88289631  1
  O  O187  1  0.25876554  0.00480110  0.36469516  1
  O  O188  1  0.25994933  0.00730964  0.87645416  1
  O  O189  1  0.25691524  0.51183792  0.37562906  1
  O  O190  1  0.24885933  0.50497307  0.88408173  1
  O  O191  1  0.75311890  0.00527948  0.37296550  1
  O  O192  1  0.74983495  0.01117339  0.87314007  1
  O  O193  1  0.75778289  0.50893402  0.38276789  1
  O  O194  1  0.76199868  0.49820796  0.86953766  1
  O  O195  1  0.25642098  0.50126593  0.13857549  1
  O  O196  1  0.23508700  0.48208675  0.60573736  1
  O  O197  1  0.25590717  0.99252631  0.13073267  1
  O  O198  1  0.25370049  0.98377919  0.62091861  1
  O  O199  1  0.73800051  0.49662964  0.12444753  1
  O  O200  1  0.75566776  0.50661740  0.63794430  1
  O  O201  1  0.74186844  1.00461880  0.13609714  1
  O  O202  1  0.73847626  1.00203610  0.62437346  1
  O  O203  1  0.00561871  0.37048100  0.25420329  1
  O  O204  1  0.00429027  0.37904071  0.75956732  1
  O  O205  1  0.00859933  0.87221553  0.25257285  1
  O  O206  1  -0.00638630  0.86599428  0.75873273  1
  O  O207  1  0.50044488  0.35969926  0.26236081  1
  O  O208  1  0.51686816  0.36333629  0.74162430  1
  O  O209  1  0.50743239  0.87973657  0.26252844  1
  O  O210  1  0.50043881  0.87523961  0.76052561  1
  O  O211  1  0.50523836  0.13143511  0.24127752  1
  O  O212  1  0.50054875  0.13250536  0.73805789  1
  O  O213  1  0.49842125  0.62825982  0.24729638  1
  O  O214  1  0.50661228  0.61748471  0.73537767  1
  O  O215  1  1.00175932  0.13025648  0.24509454  1
  O  O216  1  0.99061648  0.12666943  0.74147543  1
  O  O217  1  0.99460261  0.63282048  0.24465033  1
  O  O218  1  0.99418263  0.63192160  0.74300308  1
  O  O219  1  0.36604981  0.24586175  -0.00347217  1
  O  O220  1  0.37667733  0.25771120  0.50716658  1
  O  O221  1  0.36902283  0.75278815  0.00912109  1
  O  O222  1  0.36488214  0.75660479  0.51136901  1
  O  O223  1  0.87498645  0.26400951  0.00179264  1
  O  O224  1  0.86707144  0.26115730  0.49738570  1
  O  O225  1  0.86768703  0.74808658  0.00763749  1
  O  O226  1  0.86458519  0.75369525  0.51194738  1
  O  O227  1  0.12592009  0.23829674  0.49179521  1
  O  O228  1  0.12489180  0.23830108  0.99690909  1
  O  O229  1  0.12973533  0.74913697  0.49291503  1
  O  O230  1  0.13497435  0.74464521  0.99153702  1
  O  O231  1  0.63289885  0.24739007  0.48979059  1
  O  O232  1  0.61753507  0.23915129  0.99453187  1
  O  O233  1  0.63390871  0.74163929  0.50136490  1
  O  O234  1  0.63380771  0.74225226  1.00303032  1
  O  O235  1  0.50543071  0.24031915  0.14191208  1
  O  O236  1  0.49642845  0.24195312  0.62996511  1
  O  O237  1  0.48571525  0.75829535  0.12171799  1
  O  O238  1  0.48976935  0.74752474  0.61998234  1
  O  O239  1  0.99561078  0.24405627  0.13421116  1
  O  O240  1  0.99665068  0.23601599  0.61478416  1
  O  O241  1  0.99408452  0.74252552  0.12881750  1
  O  O242  1  0.99432828  0.75041487  0.63137934  1
  O  O243  1  0.00691937  0.26187971  0.37031947  1
  O  O244  1  -0.00167402  0.26198372  0.87833707  1
  O  O245  1  0.00397839  0.75920557  0.36844862  1
  O  O246  1  0.00439738  0.75577595  0.86898212  1
  O  O247  1  0.50749060  0.25356194  0.37196480  1
  O  O248  1  0.50909632  0.23935011  0.86206453  1
  O  O249  1  0.49009650  0.76378336  0.38026694  1
  O  O250  1  0.50303530  0.76541261  0.87881080  1
  O  O251  1  0.24321192  0.12553186  0.49173822  1
  O  O252  1  0.24294894  0.13156653  0.99152073  1
  O  O253  1  0.24116339  0.64033553  0.48793497  1
  O  O254  1  0.24894684  0.63562000  1.01005989  1
  O  O255  1  0.75271142  0.13164633  0.48857254  1
  O  O256  1  0.73805570  0.12058099  0.99660670  1
  O  O257  1  0.74517371  0.63562505  0.49404186  1
  O  O258  1  0.74034144  0.63135640  0.99891992  1
  O  O259  1  0.24688474  0.35606372  0.00051289  1
  O  O260  1  0.25720346  0.36976881  0.50173458  1
  O  O261  1  0.25136057  0.86585695  0.01186574  1
  O  O262  1  0.24504682  0.86851687  0.50008601  1
  O  O263  1  0.76289819  0.37716358  -0.00026536  1
  O  O264  1  0.76040441  0.36685204  0.49294177  1
  O  O265  1  0.75096358  0.86198497  -0.00359828  1
  O  O266  1  0.74839476  0.86355760  0.49337741  1
  O  O267  1  0.13290016  0.49499857  0.25147967  1
  O  O268  1  0.12322483  0.49063889  0.74055226  1
  O  O269  1  0.13518260  0.98926146  0.25341205  1
  O  O270  1  0.12148618  0.99960098  0.75325022  1
  O  O271  1  0.62575744  0.50171192  0.24041315  1
  O  O272  1  0.63260530  0.48324236  0.75473890  1
  O  O273  1  0.63216137  0.99455223  0.24321513  1
  O  O274  1  0.62492159  1.00219271  0.73543357  1
  O  O275  1  0.36577451  -0.00046389  0.25629229  1
  O  O276  1  0.38207860  0.00400778  0.76144612  1
  O  O277  1  0.36706510  0.50757545  0.26499717  1
  O  O278  1  0.36035010  0.51582153  0.72300266  1
  O  O279  1  0.86805150  0.00198173  0.25505941  1
  O  O280  1  0.87165383  0.01418715  0.75429396  1
  O  O281  1  0.88142305  0.50688421  0.25514456  1
  O  O282  1  0.86901239  0.50131434  0.75723014  1
  O  O283  1  0.11680300  0.37102344  0.37143966  1
  O  O284  1  0.11283157  0.37247118  0.86563484  1
  O  O285  1  0.12001150  0.87318381  0.36653926  1
  O  O286  1  0.11261045  0.86031091  0.87342717  1
  O  O287  1  0.61634970  0.36545530  0.38037769  1
  O  O288  1  0.63159990  0.36143810  0.87402237  1
  O  O289  1  0.60929133  0.87808916  0.36543454  1
  O  O290  1  0.61192626  0.87299814  0.87393345  1
  O  O291  1  0.38892027  0.11752757  0.11628841  1
  O  O292  1  0.38047382  0.13161297  0.62560447  1
  O  O293  1  0.37808191  0.64278024  0.13006279  1
  O  O294  1  0.38991163  0.64315460  0.60822217  1
  O  O295  1  0.88451707  0.12662805  0.13299245  1
  O  O296  1  0.88311211  0.12828207  0.63276766  1
  O  O297  1  0.88154990  0.63102699  0.13682812  1
  O  O298  1  0.87912467  0.63956405  0.62976987  1
  O  O299  1  0.25042255  0.24503983  0.10705712  1
  O  O300  1  0.25382627  0.25963109  0.62094639  1
  O  O301  1  0.25789278  0.75748481  0.11850056  1
  O  O302  1  0.25576440  0.76496236  0.61701372  1
  O  O303  1  0.75952207  0.26068947  0.16352667  1
  O  O304  1  0.75062038  0.24199566  0.60885694  1
  O  O305  1  0.76142006  0.74355695  0.11539400  1
  O  O306  1  0.75183346  0.75716279  0.62546236  1
  O  O307  1  0.24548849  0.24068469  0.37088428  1
  O  O308  1  0.24860058  0.24193483  0.88498100  1
  O  O309  1  0.24779263  0.74947284  0.38000242  1
  O  O310  1  0.24318089  0.75437237  0.88470246  1
  O  O311  1  0.74353899  0.24002897  0.37717284  1
  O  O312  1  0.73846763  0.23559510  0.87480740  1
  O  O313  1  0.75560099  0.74144632  0.38345318  1
  O  O314  1  0.74712063  0.74551422  0.88459290  1
  O  O315  1  0.00349496  0.12244396  0.00862584  1
  O  O316  1  0.00631686  0.11721340  0.50185386  1
  O  O317  1  -0.00017991  0.61551407  0.00866772  1
  O  O318  1  0.00066465  0.62398993  0.50191215  1
  O  O319  1  0.51003756  0.11353569  0.00429654  1
  O  O320  1  0.50062480  0.11964465  0.51063994  1
  O  O321  1  0.51566216  0.62712475  0.01185815  1
  O  O322  1  0.50913774  0.61820431  0.49855399  1
  O  O323  1  0.49437887  0.38151437  0.49239459  1
  O  O324  1  0.50399549  0.37881946  1.00581874  1
  O  O325  1  0.50385024  0.88467664  0.48307315  1
  O  O326  1  0.50110337  0.88796128  0.99529947  1
  O  O327  1  0.99217932  0.38063187  0.49024783  1
  O  O328  1  0.99061241  0.38024093  0.99442912  1
  O  O329  1  1.00208719  0.88956157  0.49738202  1
  O  O330  1  1.00371366  0.88356180  0.99581679  1
  O  O331  1  0.49481395  0.49246303  0.37875819  1
  O  O332  1  0.50713746  0.49460899  0.89851233  1
  O  O333  1  0.49284524  1.00205224  0.38086725  1
  O  O334  1  0.49697937  0.99287328  0.87993225  1
  O  O335  1  1.00503137  0.48966873  0.37803639  1
  O  O336  1  0.98755258  0.49125199  0.88042557  1
  O  O337  1  0.99634851  0.99741160  0.38216436  1
  O  O338  1  0.99899300  0.99276954  0.88518027  1
  O  O339  1  -0.00206734  0.01043754  0.12057028  1
  O  O340  1  0.00323364  0.01087109  0.61697517  1
  O  O341  1  -0.00454884  0.51006624  0.11510934  1
  O  O342  1  0.00335758  0.50840683  0.61728278  1
  O  O343  1  0.50598286  0.00481697  0.11819462  1
  O  O344  1  0.50299553  0.00565884  0.61790975  1
  O  O345  1  0.51442184  0.49863015  0.11994594  1
  O  O346  1  0.49305135  0.50961702  0.61044568  1
  O  O347  1  0.23478718  0.39301117  0.26599593  1
  O  O348  1  0.23685734  0.37850620  0.73846645  1
  O  O349  1  0.24378151  0.88467273  0.24014794  1
  O  O350  1  0.25214562  0.87270831  0.74408084  1
  O  O351  1  0.76536998  0.39492434  0.26726018  1
  O  O352  1  0.73816161  0.37827833  0.74945842  1
  O  O353  1  0.74207277  0.88731520  0.25936463  1
  O  O354  1  0.75257254  0.87511088  0.74958300  1
  O  O355  1  0.24187481  0.11549845  0.25594939  1
  O  O356  1  0.24963441  0.13199731  0.76239338  1
  O  O357  1  0.24897592  0.62121704  0.26383876  1
  O  O358  1  0.25263543  0.61553931  0.71968383  1
  O  O359  1  0.75426208  0.11330157  0.26138909  1
  O  O360  1  0.75432904  0.12221770  0.75892082  1
  O  O361  1  0.75905382  0.62832517  0.26046206  1
  O  O362  1  0.75869203  0.61264905  0.75644219  1
  O  O363  1  0.36306763  0.11461278  0.38115320  1
  O  O364  1  0.36683776  0.11594622  0.87330669  1
  O  O365  1  0.36651416  0.62071596  0.37889690  1
  O  O366  1  0.38863800  0.61148354  0.87660352  1
  O  O367  1  0.86982809  0.11818506  0.37041933  1
  O  O368  1  0.86587304  0.12543027  0.87104855  1
  O  O369  1  0.86978981  0.62964819  0.36177639  1
  O  O370  1  0.87663150  0.61492496  0.86920260  1
  O  O371  1  0.13117412  0.37009578  0.13660043  1
  O  O372  1  0.12556749  0.37755040  0.62818208  1
  O  O373  1  0.13366990  0.86928374  0.13315537  1
  O  O374  1  0.14307259  0.87798586  0.62491311  1
  O  O375  1  0.63157317  0.38740673  0.12759134  1
  O  O376  1  0.62851917  0.37082917  0.63189191  1
  O  O377  1  0.61870658  0.88863864  0.13303075  1
  O  O378  1  0.62621753  0.87803450  0.62612124  1
  O  O379  1  0.11631422  0.25758720  0.25406040  1
  O  O380  1  0.12446593  0.26361267  0.75037229  1
  O  O381  1  0.12255971  0.76115120  0.25554151  1
  O  O382  1  0.11245089  0.74758779  0.75460371  1
  O  O383  1  0.61649022  0.24212225  0.26563342  1
  O  O384  1  0.62138996  0.25983165  0.75526740  1
  O  O385  1  0.63423597  0.76489822  0.24113782  1
  O  O386  1  0.64090392  0.75494354  0.74064890  1
  O  O387  1  0.39348941  0.23398704  0.26730958  1
  O  O388  1  0.38494562  0.24811655  0.74294789  1
  O  O389  1  0.36732896  0.75311960  0.23574371  1
  O  O390  1  0.37107089  0.74238873  0.73243841  1
  O  O391  1  0.89318179  0.23890823  0.25917470  1
  O  O392  1  0.86630061  0.23781454  0.74861592  1
  O  O393  1  0.88054511  0.74510222  0.24334058  1
  O  O394  1  0.88318850  0.74509202  0.74506056  1
  O  O395  1  0.38267450  0.49369069  0.48745598  1
  O  O396  1  0.39581820  0.49602934  1.01235446  1
  O  O397  1  0.38782172  1.00153347  0.49127000  1
  O  O398  1  0.38447008  0.99708259  0.98671741  1
  O  O399  1  0.88248367  0.49444324  0.50299308  1
  O  O400  1  0.87992690  0.49153164  0.99421391  1
  O  O401  1  0.88327568  1.00029926  0.49601807  1
  O  O402  1  0.88807475  0.99923357  1.00001719  1
  O  O403  1  0.10980300  0.01786267  0.00046660  1
  O  O404  1  0.11917515  0.01231161  0.49932084  1
  O  O405  1  0.10833494  0.49693074  -0.00414158  1
  O  O406  1  0.11406677  0.50825078  0.50226860  1
  O  O407  1  0.62012049  0.00431446  0.00709856  1
  O  O408  1  0.61304461  0.00179969  0.50965113  1
  O  O409  1  0.61873438  0.50510912  0.00752437  1
  O  O410  1  0.61448991  0.50925683  0.49668269  1
  O  O411  1  0.36146488  0.36591081  0.17127180  1
  O  O412  1  0.36482645  0.36877993  0.62229519  1
  O  O413  1  0.36739414  0.86761009  0.12277892  1
  O  O414  1  0.36595954  0.86542420  0.62853045  1
  O  O415  1  0.87154106  0.37325583  0.11231305  1
  O  O416  1  0.88074476  0.37227804  0.61271562  1
  O  O417  1  0.88031323  0.85951879  0.12373264  1
  O  O418  1  0.88024995  0.86644029  0.62566606  1
  O  O419  1  0.13542382  0.12903864  0.38088903  1
  O  O420  1  0.13157220  0.12880927  0.88281226  1
  O  O421  1  0.12952188  0.63478518  0.37814228  1
  O  O422  1  0.11583912  0.63810713  0.87601219  1
  O  O423  1  0.63371959  0.12783911  0.37948640  1
  O  O424  1  0.62936749  0.12978810  0.88304648  1
  O  O425  1  0.63865023  0.62124871  0.38385843  1
  O  O426  1  0.62520310  0.62845966  0.88393190  1
