# generated using pymatgen
data_V85Zn86O256
_symmetry_space_group_name_H-M   'P 1'
_cell_length_a   16.93286491
_cell_length_b   16.94628748
_cell_length_c   16.93652092
_cell_angle_alpha   90.00563230
_cell_angle_beta   90.04499778
_cell_angle_gamma   89.98797679
_symmetry_Int_Tables_number   1
_chemical_formula_structural   V85Zn86O256
_chemical_formula_sum   'V85 Zn86 O256'
_cell_volume   4859.91944403
_cell_formula_units_Z   1
loop_
 _symmetry_equiv_pos_site_id
 _symmetry_equiv_pos_as_xyz
  1  'x, y, z'
loop_
 _atom_site_type_symbol
 _atom_site_label
 _atom_site_symmetry_multiplicity
 _atom_site_fract_x
 _atom_site_fract_y
 _atom_site_fract_z
 _atom_site_occupancy
  V  V0  1  0.25205374  0.25222431  -0.00170259  1
  V  V1  1  0.87503823  0.36781255  0.49998879  1
  V  V2  1  0.12508697  0.62647674  -0.01094872  1
  V  V3  1  0.00002359  0.37389615  0.37472279  1
  V  V4  1  0.62563417  0.50127412  0.13327847  1
  V  V5  1  0.62543244  0.75152983  0.87621142  1
  V  V6  1  0.26199125  0.50163452  0.75946414  1
  V  V7  1  0.62878017  -0.00036751  0.62153070  1
  V  V8  1  0.62145571  0.62540984  0.00709654  1
  V  V9  1  0.12353647  0.37389894  0.74909882  1
  V  V10  1  0.36745823  0.74261189  0.63104171  1
  V  V11  1  0.88057589  0.86920277  0.50411589  1
  V  V12  1  0.13393047  -0.00402206  0.63501494  1
  V  V13  1  0.74598108  0.11729485  0.86558862  1
  V  V14  1  0.00441245  0.11122379  0.12189874  1
  V  V15  1  0.00071001  0.62309501  0.12642477  1
  V  V16  1  0.49403255  0.50096061  0.48531300  1
  V  V17  1  0.37693221  0.11293140  0.74493241  1
  V  V18  1  0.87695445  0.25068033  0.12448478  1
  V  V19  1  0.37393906  0.75031243  0.11966068  1
  V  V20  1  -0.00327429  0.37051319  0.86883239  1
  V  V21  1  0.74951029  0.37799994  0.13421870  1
  V  V22  1  0.49829234  0.87677742  0.87474356  1
  V  V23  1  0.26104528  0.12285780  0.36855435  1
  V  V24  1  0.38039327  0.62128105  0.24544509  1
  V  V25  1  0.74745809  0.88398333  0.12540107  1
  V  V26  1  0.62651548  0.74971879  0.37418346  1
  V  V27  1  0.49845341  0.50262677  0.00185696  1
  V  V28  1  0.37803970  0.37857655  0.00186302  1
  V  V29  1  0.74554097  0.00426862  0.25288932  1
  V  V30  1  0.88792428  0.00047765  0.87766978  1
  V  V31  1  0.37490901  0.37701263  0.48250017  1
  V  V32  1  0.62413005  0.62324290  0.49984055  1
  V  V33  1  0.12683752  0.75921044  0.37355199  1
  V  V34  1  0.12776820  0.12492912  0.49794367  1
  V  V35  1  0.74865395  0.50073909  0.74829261  1
  V  V36  1  0.74982597  0.62651565  0.87532875  1
  V  V37  1  0.00143526  0.76158541  0.25609523  1
  V  V38  1  0.74607653  0.24921352  -0.00310437  1
  V  V39  1  0.25678219  0.49834565  0.25364756  1
  V  V40  1  0.00241916  -0.00344224  0.49811821  1
  V  V41  1  0.23658232  0.86797836  0.12980368  1
  V  V42  1  0.74787250  0.13151373  0.39663605  1
  V  V43  1  0.87267857  0.37616857  -0.00139550  1
  V  V44  1  -0.00412478  0.63571368  0.62486830  1
  V  V45  1  0.12166790  0.24970364  0.86882111  1
  V  V46  1  0.87421621  0.12453539  0.25305174  1
  V  V47  1  0.38396768  0.23079000  0.12621677  1
  V  V48  1  0.36698306  0.86037474  0.49928378  1
  V  V49  1  0.12988201  0.62776036  0.49749535  1
  V  V50  1  0.25519239  0.62531823  0.37611254  1
  V  V51  1  0.88403641  0.88249884  0.00057837  1
  V  V52  1  0.75402450  0.74866899  0.50726786  1
  V  V53  1  0.24557292  -0.00690055  0.24825784  1
  V  V54  1  0.50256659  0.24837479  0.74795033  1
  V  V55  1  0.12728678  0.49933417  0.12499957  1
  V  V56  1  0.87113369  0.49631394  0.37191111  1
  V  V57  1  0.49789362  0.62168287  0.63346708  1
  V  V58  1  0.50163847  0.74664404  0.24338394  1
  V  V59  1  0.00113697  0.24832381  0.24753857  1
  V  V60  1  0.12626835  0.24820360  0.37353873  1
  V  V61  1  0.49813749  -0.01036857  0.50666132  1
  V  V62  1  0.37286284  0.00218038  0.87774221  1
  V  V63  1  0.50391011  0.00569533  0.00634891  1
  V  V64  1  0.00298737  0.12759210  0.63076316  1
  V  V65  1  0.87240224  0.62035308  0.25001078  1
  V  V66  1  0.50186143  0.12350483  0.61603863  1
  V  V67  1  0.74975654  0.75341577  0.00191749  1
  V  V68  1  0.87522611  0.50376556  0.87436269  1
  V  V69  1  0.49843877  0.37699366  0.87425551  1
  V  V70  1  0.75258844  0.62353640  0.37382395  1
  V  V71  1  0.87655461  0.12327147  0.75187681  1
  V  V72  1  0.75685622  0.87452161  0.63412962  1
  V  V73  1  0.26698148  0.63053014  0.87636237  1
  V  V74  1  0.12578666  0.37563946  0.24890233  1
  V  V75  1  0.61502384  0.36540596  0.25872058  1
  V  V76  1  0.25506804  0.37612556  0.62449919  1
  V  V77  1  0.74795622  0.37427526  0.62033542  1
  V  V78  1  0.62439007  0.87768377  0.74992189  1
  V  V79  1  0.87382449  0.75028757  0.12747592  1
  V  V80  1  0.87639668  -0.00535092  0.37759228  1
  V  V81  1  0.25172952  0.12836276  0.86601464  1
  V  V82  1  0.87940053  0.25129445  0.63120741  1
  V  V83  1  0.62233539  0.88144568  0.24846722  1
  V  V84  1  0.12406939  0.50146348  0.62513352  1
  Zn  Zn85  1  0.24274564  0.86438877  0.62242632  1
  Zn  Zn86  1  0.62268371  0.49983933  0.62413399  1
  Zn  Zn87  1  0.62507468  0.37402491  0.74984606  1
  Zn  Zn88  1  0.62672486  0.12201913  0.00323488  1
  Zn  Zn89  1  0.00142431  0.49921541  0.49912906  1
  Zn  Zn90  1  0.02094534  0.87115034  0.88015815  1
  Zn  Zn91  1  0.37214830  0.87490775  0.00331210  1
  Zn  Zn92  1  0.00321381  0.76209846  0.76161754  1
  Zn  Zn93  1  0.49898653  0.87213047  0.37618462  1
  Zn  Zn94  1  0.11480481  0.12340597  -0.00236216  1
  Zn  Zn95  1  0.49871118  0.74212901  0.75297108  1
  Zn  Zn96  1  0.49353244  0.23452197  0.26552749  1
  Zn  Zn97  1  0.54447589  0.08773638  0.16005215  1
  Zn  Zn98  1  0.37287305  0.24923278  0.62433899  1
  Zn  Zn99  1  0.25279013  0.24939249  0.49845075  1
  Zn  Zn100  1  0.87223000  0.63444646  0.73958166  1
  Zn  Zn101  1  0.20047330  0.79316317  -0.05189487  1
  Zn  Zn102  1  0.25456323  0.37166004  0.12611232  1
  Zn  Zn103  1  0.62259065  0.24536720  0.41219245  1
  Zn  Zn104  1  0.62573051  0.24799609  0.87049540  1
  Zn  Zn105  1  0.37915563  -0.00094399  0.37531065  1
  Zn  Zn106  1  0.00069559  0.49847327  -0.00082017  1
  Zn  Zn107  1  0.19203256  0.18407999  0.18736154  1
  Zn  Zn108  1  0.18856852  0.18921469  0.68638235  1
  Zn  Zn109  1  0.18742732  0.68647555  0.19002304  1
  Zn  Zn110  1  0.18709446  0.68388738  0.69458986  1
  Zn  Zn111  1  0.69120546  0.18840655  0.18755571  1
  Zn  Zn112  1  0.66874982  0.20849275  0.62528181  1
  Zn  Zn113  1  0.68919810  0.68914861  0.18748529  1
  Zn  Zn114  1  0.68460357  0.68842552  0.68756742  1
  Zn  Zn115  1  0.31241189  0.30649367  0.30632532  1
  Zn  Zn116  1  0.31814365  0.31245332  0.80969920  1
  Zn  Zn117  1  0.31204372  0.81083801  0.31050166  1
  Zn  Zn118  1  0.16637412  0.84802321  0.78036430  1
  Zn  Zn119  1  0.80745454  0.30823539  0.31374462  1
  Zn  Zn120  1  0.81173036  0.30859931  0.80767344  1
  Zn  Zn121  1  0.81292692  0.81286312  0.31508432  1
  Zn  Zn122  1  0.82278025  0.81134643  0.81226166  1
  Zn  Zn123  1  0.18930767  0.44034471  0.43604200  1
  Zn  Zn124  1  0.18749825  0.43783865  0.93738567  1
  Zn  Zn125  1  0.19111466  0.93947411  0.43892283  1
  Zn  Zn126  1  0.19048514  0.95650225  0.94806978  1
  Zn  Zn127  1  0.68711395  0.43802511  0.43787345  1
  Zn  Zn128  1  0.68403277  0.43624392  0.93761884  1
  Zn  Zn129  1  0.69017399  0.93576472  0.43922187  1
  Zn  Zn130  1  0.68989098  0.94009119  0.93620414  1
  Zn  Zn131  1  0.28975186  0.05618283  0.05561684  1
  Zn  Zn132  1  0.31596675  0.05954584  0.55659196  1
  Zn  Zn133  1  0.31157903  0.56335321  0.06294183  1
  Zn  Zn134  1  0.31295697  0.56128540  0.56215427  1
  Zn  Zn135  1  0.81014703  0.06566953  0.06220183  1
  Zn  Zn136  1  0.81661410  0.05544054  0.57046798  1
  Zn  Zn137  1  0.80904055  0.56134632  0.06233799  1
  Zn  Zn138  1  0.81488276  0.55687473  0.55786678  1
  Zn  Zn139  1  0.44016865  0.43520572  0.18431764  1
  Zn  Zn140  1  0.43850515  0.43866121  0.68409028  1
  Zn  Zn141  1  0.42853291  0.93732367  0.19210984  1
  Zn  Zn142  1  0.37040107  0.88053179  0.74648832  1
  Zn  Zn143  1  0.93783134  0.43781954  0.18816250  1
  Zn  Zn144  1  0.93743079  0.44204974  0.68912202  1
  Zn  Zn145  1  0.93526978  0.93789199  0.18886479  1
  Zn  Zn146  1  0.94352351  0.93631917  0.69201731  1
  Zn  Zn147  1  0.06470727  0.05814893  0.31140998  1
  Zn  Zn148  1  0.06250664  0.05978148  0.81132984  1
  Zn  Zn149  1  0.06098557  0.56444539  0.31261365  1
  Zn  Zn150  1  0.06211879  0.56147433  0.80810753  1
  Zn  Zn151  1  0.56332410  0.06595592  0.33010151  1
  Zn  Zn152  1  0.56187566  0.05987247  0.80845035  1
  Zn  Zn153  1  0.56454618  0.56227116  0.30880423  1
  Zn  Zn154  1  0.56354671  0.55989893  0.81726981  1
  Zn  Zn155  1  0.44171814  0.19249773  0.43871415  1
  Zn  Zn156  1  0.43797278  0.18871923  0.93724134  1
  Zn  Zn157  1  0.43856012  0.68551189  0.43325827  1
  Zn  Zn158  1  0.43962746  0.68758194  0.93838996  1
  Zn  Zn159  1  0.93750488  0.18526550  0.43976547  1
  Zn  Zn160  1  0.93630378  0.18823145  0.93887409  1
  Zn  Zn161  1  0.94231367  0.68654794  0.43933956  1
  Zn  Zn162  1  0.93971488  0.69127077  0.93545145  1
  Zn  Zn163  1  0.06301840  0.31166049  0.05780406  1
  Zn  Zn164  1  0.06289048  0.31156632  0.56211610  1
  Zn  Zn165  1  0.05791695  0.80744298  0.06365707  1
  Zn  Zn166  1  0.06596336  0.81105327  0.56020050  1
  Zn  Zn167  1  0.56234352  0.30973412  0.06636094  1
  Zn  Zn168  1  0.55473405  0.31975290  0.56117972  1
  Zn  Zn169  1  0.56005862  0.81773610  0.06393870  1
  Zn  Zn170  1  0.56101543  0.80899353  0.56582555  1
  O  O171  1  0.10418414  0.13525716  0.13019059  1
  O  O172  1  0.11952136  0.12106362  0.61845032  1
  O  O173  1  0.12375842  0.61313825  0.12087638  1
  O  O174  1  0.12045883  0.61787735  0.61642807  1
  O  O175  1  0.64050308  0.11890575  0.11657780  1
  O  O176  1  0.61557243  0.10918072  0.63215905  1
  O  O177  1  0.63358333  0.61501812  0.11883655  1
  O  O178  1  0.61747554  0.62284722  0.61610636  1
  O  O179  1  0.36758636  0.37391952  0.38412240  1
  O  O180  1  0.38884724  0.36859439  0.88649644  1
  O  O181  1  0.37729043  0.86733840  0.38882687  1
  O  O182  1  0.38420661  0.88727882  0.87090986  1
  O  O183  1  0.87631806  0.37813019  0.37974935  1
  O  O184  1  0.87918692  0.38189387  0.87573533  1
  O  O185  1  0.86816380  0.88771001  0.38629268  1
  O  O186  1  0.86621495  0.88912231  0.88676090  1
  O  O187  1  0.25314938  0.00719293  0.37142800  1
  O  O188  1  0.26529030  0.01442094  0.87433154  1
  O  O189  1  0.24551160  0.50786676  0.36029265  1
  O  O190  1  0.24910550  0.50102364  0.86327438  1
  O  O191  1  0.75826102  0.00830742  0.37427135  1
  O  O192  1  0.75858140  0.01460748  0.87827272  1
  O  O193  1  0.76356686  0.50638885  0.38015808  1
  O  O194  1  0.75642364  0.50302746  0.86912703  1
  O  O195  1  0.24292085  0.49719604  0.13455890  1
  O  O196  1  0.24158984  0.49693464  0.63333596  1
  O  O197  1  0.25928288  0.98116711  0.14189744  1
  O  O198  1  0.23308749  1.00717003  0.61680313  1
  O  O199  1  0.74025440  0.48804712  0.11914998  1
  O  O200  1  0.75070775  0.49459284  0.63261581  1
  O  O201  1  0.75787301  0.98945070  0.13432965  1
  O  O202  1  0.74125430  0.98735463  0.62281542  1
  O  O203  1  0.00571354  0.36889110  0.25551541  1
  O  O204  1  0.00523934  0.37980007  0.76140138  1
  O  O205  1  -0.00718291  0.86088841  0.24985590  1
  O  O206  1  0.00363422  0.88151755  0.76541087  1
  O  O207  1  0.51319282  0.37127310  0.24848381  1
  O  O208  1  0.49770895  0.36896477  0.75681439  1
  O  O209  1  0.50827675  0.86919632  0.25269565  1
  O  O210  1  0.50463671  0.87186816  0.76491835  1
  O  O211  1  0.50112312  0.11964610  0.25488830  1
  O  O212  1  0.49442944  0.12922161  0.74063118  1
  O  O213  1  0.49183674  0.63196567  0.25198367  1
  O  O214  1  0.50604516  0.62102420  0.73810482  1
  O  O215  1  0.99298344  0.12836239  0.24462467  1
  O  O216  1  0.99603834  0.12264766  0.73730824  1
  O  O217  1  0.98879953  0.63012124  0.24535383  1
  O  O218  1  1.00165816  0.62120566  0.73129668  1
  O  O219  1  0.37265884  0.25854584  0.00718682  1
  O  O220  1  0.37365429  0.26679196  0.50284845  1
  O  O221  1  0.38203850  0.74925793  0.01603669  1
  O  O222  1  0.37988034  0.75565546  0.50479074  1
  O  O223  1  0.86510271  0.25677646  0.00373181  1
  O  O224  1  0.88009914  0.26222398  0.50673155  1
  O  O225  1  0.86711284  0.75696909  0.00844531  1
  O  O226  1  0.86883881  0.75958903  0.49340046  1
  O  O227  1  0.12568650  0.23853528  0.49482511  1
  O  O228  1  0.13465253  0.24762774  0.98900057  1
  O  O229  1  0.12219402  0.73633148  0.48855570  1
  O  O230  1  0.12754412  0.72974618  1.01092868  1
  O  O231  1  0.63510096  0.25327918  0.52456232  1
  O  O232  1  0.63745904  0.24975195  0.99825205  1
  O  O233  1  0.63289620  0.74374957  0.49440536  1
  O  O234  1  0.62897925  0.74426783  0.99959920  1
  O  O235  1  0.48769901  0.24104358  0.12066732  1
  O  O236  1  0.49467255  0.24089699  0.62978703  1
  O  O237  1  0.49452389  0.75433493  0.13695109  1
  O  O238  1  0.49380615  0.73559959  0.62414471  1
  O  O239  1  0.99176680  0.25210662  0.13059764  1
  O  O240  1  0.99028785  0.24219721  0.62096390  1
  O  O241  1  0.99250664  0.74181276  0.13446715  1
  O  O242  1  0.99964353  0.73560953  0.61723808  1
  O  O243  1  0.00507509  0.25297337  0.36788874  1
  O  O244  1  0.00869114  0.25799831  0.87946153  1
  O  O245  1  0.01394624  0.74307054  0.36824701  1
  O  O246  1  0.00803443  0.75567170  0.88026491  1
  O  O247  1  0.51458111  0.24723063  0.37745489  1
  O  O248  1  0.50441077  0.25545120  0.86698190  1
  O  O249  1  0.50965720  0.74923937  0.36371200  1
  O  O250  1  0.50736573  0.75816196  0.87665424  1
  O  O251  1  0.24182817  0.12650031  0.49208784  1
  O  O252  1  0.26780419  0.14748512  0.97766848  1
  O  O253  1  0.24399762  0.61656579  0.48695584  1
  O  O254  1  0.24108325  0.61436895  0.98456176  1
  O  O255  1  0.76287422  0.12297611  0.49467334  1
  O  O256  1  0.75305913  0.13411449  0.98693071  1
  O  O257  1  0.74761414  0.63097735  0.49614740  1
  O  O258  1  0.74035404  0.63119364  0.99581632  1
  O  O259  1  0.25919394  0.36780443  -0.00190733  1
  O  O260  1  0.26049815  0.37874582  0.50522856  1
  O  O261  1  0.25465189  0.87194115  0.01610350  1
  O  O262  1  0.26346153  0.87441995  0.50470762  1
  O  O263  1  0.75427748  0.36804250  0.00459414  1
  O  O264  1  0.75978732  0.38318401  0.51274018  1
  O  O265  1  0.75271210  0.87286059  0.00985124  1
  O  O266  1  0.75850208  0.86647765  0.50934050  1
  O  O267  1  0.13041819  0.49512390  0.24334597  1
  O  O268  1  0.13333178  0.49263100  0.74243351  1
  O  O269  1  0.14375869  0.99567388  0.26036744  1
  O  O270  1  0.12546690  1.00361163  0.73443672  1
  O  O271  1  0.62112602  0.48944897  0.23904405  1
  O  O272  1  0.63877782  0.49897942  0.75112679  1
  O  O273  1  0.63168424  0.99121471  0.25918625  1
  O  O274  1  0.62010066  0.98436081  0.74129222  1
  O  O275  1  0.35777347  -0.00984199  0.26270132  1
  O  O276  1  0.38359032  0.01052015  0.75873089  1
  O  O277  1  0.36851760  0.50644546  0.24203678  1
  O  O278  1  0.36013604  0.49630775  0.74699487  1
  O  O279  1  0.86892268  0.00337501  0.26119055  1
  O  O280  1  0.87895673  0.01477648  0.75924843  1
  O  O281  1  0.87704019  0.50804194  0.25786794  1
  O  O282  1  0.86530595  0.50665777  0.75736767  1
  O  O283  1  0.12067399  0.36893282  0.37070378  1
  O  O284  1  0.11629338  0.36932262  0.87131654  1
  O  O285  1  0.12969740  0.85744205  0.38517057  1
  O  O286  1  0.14033185  0.87639348  0.88908318  1
  O  O287  1  0.63662344  0.37162832  0.35960554  1
  O  O288  1  0.61376830  0.37084582  0.87144998  1
  O  O289  1  0.62842956  0.86646007  0.36478908  1
  O  O290  1  0.62238060  0.87167939  0.86875327  1
  O  O291  1  0.36506015  0.13421656  0.11466311  1
  O  O292  1  0.38106764  0.12380179  0.62992899  1
  O  O293  1  0.36717806  0.63354213  0.13749102  1
  O  O294  1  0.38356551  0.63380276  0.61792667  1
  O  O295  1  0.88272263  0.13100572  0.13197889  1
  O  O296  1  0.88147366  0.13040377  0.63255117  1
  O  O297  1  0.87681703  0.62792156  0.13202525  1
  O  O298  1  0.89302725  0.61547954  0.61976654  1
  O  O299  1  0.25611714  0.25120044  0.11414139  1
  O  O300  1  0.25078503  0.26168243  0.62085598  1
  O  O301  1  0.25824451  0.75918394  0.13556352  1
  O  O302  1  0.26429446  0.73942537  0.62365791  1
  O  O303  1  0.75850543  0.25814447  0.11637670  1
  O  O304  1  0.76895352  0.26258498  0.63283762  1
  O  O305  1  0.75578499  0.76192176  0.12296302  1
  O  O306  1  0.74722604  0.75533408  0.61349150  1
  O  O307  1  0.24306248  0.24083510  0.37357096  1
  O  O308  1  0.24258121  0.25114737  0.87634531  1
  O  O309  1  0.23616815  0.73820562  0.36603590  1
  O  O310  1  0.25468412  0.73021198  0.87000125  1
  O  O311  1  0.74949796  0.23450396  0.37900974  1
  O  O312  1  0.74869876  0.24146238  0.88031218  1
  O  O313  1  0.74637311  0.74443718  0.38543774  1
  O  O314  1  0.74471538  0.74684868  0.88305280  1
  O  O315  1  -0.00198447  0.12891342  0.01651472  1
  O  O316  1  0.00598831  0.11882664  0.50972992  1
  O  O317  1  0.01024401  0.62007645  0.00764111  1
  O  O318  1  0.00942883  0.61926831  0.50820547  1
  O  O319  1  0.50302713  0.11029864  -0.00611051  1
  O  O320  1  0.49095400  0.11390614  0.51227701  1
  O  O321  1  0.51366718  0.61818830  -0.00260343  1
  O  O322  1  0.50207568  0.61414770  0.50382785  1
  O  O323  1  0.48547589  0.38931382  0.50254860  1
  O  O324  1  0.49671276  0.38007254  0.99474346  1
  O  O325  1  0.49110899  0.87550968  0.50063331  1
  O  O326  1  0.49699586  0.88380830  0.99016787  1
  O  O327  1  0.99464973  0.37607640  0.49189713  1
  O  O328  1  0.99204579  0.37689382  0.98807624  1
  O  O329  1  0.99040370  0.88237140  0.50468089  1
  O  O330  1  0.98745949  0.87437695  1.00191360  1
  O  O331  1  0.49985820  0.50546814  0.38655512  1
  O  O332  1  0.50592463  0.49102263  0.88943579  1
  O  O333  1  0.50003750  0.99377342  0.39431322  1
  O  O334  1  0.49296600  0.99590956  0.88137465  1
  O  O335  1  0.98945802  0.49235159  0.37388427  1
  O  O336  1  0.98953311  0.49407937  0.87447478  1
  O  O337  1  0.99182082  1.00699892  0.38865384  1
  O  O338  1  0.99110534  1.00353245  0.88224719  1
  O  O339  1  -0.00146154  0.01213882  0.12970009  1
  O  O340  1  0.00870501  0.00835352  0.61455185  1
  O  O341  1  0.00832602  0.50519113  0.12476579  1
  O  O342  1  0.01459001  0.50056118  0.62364813  1
  O  O343  1  0.49332887  -0.00553465  0.11043363  1
  O  O344  1  0.50901088  0.00517689  0.61540059  1
  O  O345  1  0.51252554  0.49468124  0.11208285  1
  O  O346  1  0.50048105  0.50784726  0.61584825  1
  O  O347  1  0.24416970  0.38164587  0.24787114  1
  O  O348  1  0.24640102  0.38328724  0.74372588  1
  O  O349  1  0.24710016  0.87784170  0.24217762  1
  O  O350  1  0.25892564  0.88438804  0.73213763  1
  O  O351  1  0.74435717  0.37024797  0.23774426  1
  O  O352  1  0.75227696  0.38351640  0.74028252  1
  O  O353  1  0.74487282  0.88179759  0.24517956  1
  O  O354  1  0.74297303  0.86720059  0.73942857  1
  O  O355  1  0.24732589  0.11197087  0.25792839  1
  O  O356  1  0.26114258  0.13365008  0.75796168  1
  O  O357  1  0.25664740  0.61606381  0.25572056  1
  O  O358  1  0.24590751  0.61005457  0.76403095  1
  O  O359  1  0.75816198  0.11949571  0.25807043  1
  O  O360  1  0.75979925  0.12975328  0.76524387  1
  O  O361  1  0.76432737  0.63207000  0.25697181  1
  O  O362  1  0.75112073  0.61922632  0.75579648  1
  O  O363  1  0.36248856  0.12459455  0.38570263  1
  O  O364  1  0.37269955  0.12261779  0.86487451  1
  O  O365  1  0.36359512  0.63133471  0.36231950  1
  O  O366  1  0.36608539  0.62136177  0.87994669  1
  O  O367  1  0.86918558  0.11588110  0.37305428  1
  O  O368  1  0.87087431  0.12047017  0.87044882  1
  O  O369  1  0.87422514  0.61598529  0.37008231  1
  O  O370  1  0.86827811  0.61362104  0.88172747  1
  O  O371  1  0.12594156  0.38519021  0.12707580  1
  O  O372  1  0.13497378  0.38100460  0.62602967  1
  O  O373  1  0.13748559  0.86598065  0.12312225  1
  O  O374  1  0.12638334  0.89203790  0.61279620  1
  O  O375  1  0.63174732  0.38061009  0.13166800  1
  O  O376  1  0.63496554  0.38138903  0.62958982  1
  O  O377  1  0.63371976  0.87184144  0.13826931  1
  O  O378  1  0.63140407  0.87704332  0.63297221  1
  O  O379  1  0.12171065  0.25690230  0.25323708  1
  O  O380  1  0.12845951  0.25760870  0.76058132  1
  O  O381  1  0.11506038  0.74274412  0.26357693  1
  O  O382  1  0.11738127  0.75774100  0.73603379  1
  O  O383  1  0.62344245  0.26298366  0.24353500  1
  O  O384  1  0.61051822  0.25073976  0.74191369  1
  O  O385  1  0.61983765  0.75537254  0.25358642  1
  O  O386  1  0.62088922  0.75969477  0.75585648  1
  O  O387  1  0.37711385  0.25140828  0.23085494  1
  O  O388  1  0.38650804  0.24030863  0.74730356  1
  O  O389  1  0.38429233  0.74261119  0.24394583  1
  O  O390  1  0.38214908  0.75512672  0.73236523  1
  O  O391  1  0.87981005  0.24413261  0.24517601  1
  O  O392  1  0.87902920  0.23761258  0.74417551  1
  O  O393  1  0.88060341  0.74334989  0.24795485  1
  O  O394  1  0.88699396  0.74440122  0.75368614  1
  O  O395  1  0.38372054  0.49134455  0.49912420  1
  O  O396  1  0.38577080  0.49270903  1.00773770  1
  O  O397  1  0.38201496  0.98171566  0.50131519  1
  O  O398  1  0.38283102  0.99889743  0.99197579  1
  O  O399  1  0.88032243  0.48651144  0.49127367  1
  O  O400  1  0.87416907  0.49309989  0.99159333  1
  O  O401  1  0.88349110  0.99228269  0.49658982  1
  O  O402  1  0.86959419  0.99234792  0.99351379  1
  O  O403  1  0.17723022  0.03464286  0.02227335  1
  O  O404  1  0.11844245  0.01082361  0.50024057  1
  O  O405  1  0.12408679  0.50600286  0.00855445  1
  O  O406  1  0.12536015  0.50846888  0.50676281  1
  O  O407  1  0.60747294  -0.00225391  -0.00572178  1
  O  O408  1  0.61772465  -0.01342080  0.51342460  1
  O  O409  1  0.62184203  0.50765564  0.00833261  1
  O  O410  1  0.61256357  0.50442018  0.49924010  1
  O  O411  1  0.37588556  0.36793725  0.11241586  1
  O  O412  1  0.36304929  0.37688402  0.61969868  1
  O  O413  1  0.36741734  0.86304489  0.12671791  1
  O  O414  1  0.37723822  0.85412434  0.61296579  1
  O  O415  1  0.86788182  0.37218122  0.12021797  1
  O  O416  1  0.87469598  0.37011447  0.61968996  1
  O  O417  1  0.86768027  0.87138430  0.11905825  1
  O  O418  1  0.86742526  0.88388121  0.61709057  1
  O  O419  1  0.12931911  0.13008892  0.38206137  1
  O  O420  1  0.13316780  0.13231243  0.87314119  1
  O  O421  1  0.13256808  0.62675335  0.38125443  1
  O  O422  1  0.12696760  0.61536251  0.88724582  1
  O  O423  1  0.64481776  0.12220555  0.38749690  1
  O  O424  1  0.63686170  0.12467777  0.87401193  1
  O  O425  1  0.63327179  0.62903628  0.37842161  1
  O  O426  1  0.63092920  0.63146404  0.88382121  1
