# generated using pymatgen
data_V85Zn86O256
_symmetry_space_group_name_H-M   'P 1'
_cell_length_a   16.96484969
_cell_length_b   16.94958321
_cell_length_c   16.96430032
_cell_angle_alpha   89.98048910
_cell_angle_beta   90.10583677
_cell_angle_gamma   90.00352792
_symmetry_Int_Tables_number   1
_chemical_formula_structural   V85Zn86O256
_chemical_formula_sum   'V85 Zn86 O256'
_cell_volume   4878.02728041
_cell_formula_units_Z   1
loop_
 _symmetry_equiv_pos_site_id
 _symmetry_equiv_pos_as_xyz
  1  'x, y, z'
loop_
 _atom_site_type_symbol
 _atom_site_label
 _atom_site_symmetry_multiplicity
 _atom_site_fract_x
 _atom_site_fract_y
 _atom_site_fract_z
 _atom_site_occupancy
  V  V0  1  0.12123409  0.38604241  0.26232038  1
  V  V1  1  0.25532096  0.00447319  0.75166084  1
  V  V2  1  0.62231633  0.61336197  0.49801813  1
  V  V3  1  0.86771090  0.74737527  0.12073245  1
  V  V4  1  0.00167050  0.12412855  0.13083011  1
  V  V5  1  0.37795021  0.87830861  -0.01637309  1
  V  V6  1  0.74829321  0.23941251  0.00377126  1
  V  V7  1  0.24337066  0.25278224  0.49541768  1
  V  V8  1  0.64312871  0.50888290  0.13408451  1
  V  V9  1  0.00250277  0.74712759  0.74782808  1
  V  V10  1  0.25068657  0.74903760  0.49893446  1
  V  V11  1  0.12465876  0.37491782  0.75158316  1
  V  V12  1  0.87321997  0.12713387  0.74637854  1
  V  V13  1  0.49659150  0.00112346  -0.00978497  1
  V  V14  1  0.74908412  0.61516274  0.37220174  1
  V  V15  1  0.00393432  0.62253533  0.12478986  1
  V  V16  1  0.00803329  -0.00006336  0.00611668  1
  V  V17  1  -0.00046856  0.00047926  0.49870497  1
  V  V18  1  0.63336519  0.49759631  0.63364810  1
  V  V19  1  0.87450787  0.74992418  0.62085057  1
  V  V20  1  0.25581714  0.12508935  0.87455418  1
  V  V21  1  0.12600786  0.00204843  0.62280428  1
  V  V22  1  -0.00356533  0.49610638  0.49207379  1
  V  V23  1  0.12258998  0.61913294  -0.00105741  1
  V  V24  1  0.24887440  0.75232763  -0.00021685  1
  V  V25  1  0.37749045  -0.00057676  0.36440228  1
  V  V26  1  0.24614149  0.61714158  0.37257653  1
  V  V27  1  0.69424022  0.80196776  -0.05977834  1
  V  V28  1  0.52023600  0.75883578  0.75590992  1
  V  V29  1  0.87569579  0.87218376  -0.00158046  1
  V  V30  1  0.12416323  0.74723313  0.87295841  1
  V  V31  1  0.50216358  0.61790690  0.62495725  1
  V  V32  1  0.74776155  0.75115538  0.50206808  1
  V  V33  1  0.86852750  0.61767825  0.74712244  1
  V  V34  1  0.25688143  0.61974747  0.87449373  1
  V  V35  1  -0.00004444  0.49585213  0.00185197  1
  V  V36  1  0.87050151  0.61510226  0.24816937  1
  V  V37  1  0.76055991  0.36926044  0.63120726  1
  V  V38  1  0.25069904  0.25344891  0.00401265  1
  V  V39  1  0.36723066  0.61773291  0.25321103  1
  V  V40  1  0.12499487  0.75241800  0.37356075  1
  V  V41  1  0.12333927  0.62376722  0.50045990  1
  V  V42  1  0.87298013  0.24610085  0.13994442  1
  V  V43  1  0.63031219  -0.01551338  0.62858958  1
  V  V44  1  0.24106355  0.13021994  0.37089605  1
  V  V45  1  0.74473665  0.87272777  0.12683741  1
  V  V46  1  0.63518589  0.61584950  -0.01122307  1
  V  V47  1  0.62451716  0.74750806  0.37456148  1
  V  V48  1  0.50017284  -0.00264663  0.50179170  1
  V  V49  1  0.00840467  0.24949382  0.26352475  1
  V  V50  1  0.38530452  0.50056649  0.38173215  1
  V  V51  1  0.38091562  0.24492917  0.63763521  1
  V  V52  1  0.86981656  0.37184969  0.00353119  1
  V  V53  1  0.87674630  0.36513043  0.49288476  1
  V  V54  1  0.75045518  0.12825380  0.36737305  1
  V  V55  1  -0.00031753  0.62143121  0.62428113  1
  V  V56  1  0.43472069  0.18230843  0.30276772  1
  V  V57  1  0.24990841  0.37349531  0.62458941  1
  V  V58  1  0.62077737  0.24525909  0.87623268  1
  V  V59  1  -0.00000244  0.87547856  0.37382494  1
  V  V60  1  0.62167930  0.00840305  0.12309947  1
  V  V61  1  0.24849975  0.87499496  0.62393157  1
  V  V62  1  -0.00203666  0.75049086  0.24904916  1
  V  V63  1  0.00253923  0.87489275  0.87461628  1
  V  V64  1  0.87037535  0.87570970  0.50243863  1
  V  V65  1  0.25999049  0.49614602  0.75498123  1
  V  V66  1  0.75417176  -0.01365658  0.74364495  1
  V  V67  1  0.37732569  0.74637143  0.62874363  1
  V  V68  1  0.62854149  0.12348694  0.50599037  1
  V  V69  1  0.24294595  0.00408875  0.24195692  1
  V  V70  1  0.37475643  0.25313331  0.12347884  1
  V  V71  1  0.49882088  0.13305646  0.12032039  1
  V  V72  1  0.23858119  0.38417376  0.12925925  1
  V  V73  1  -0.00333590  0.12926309  0.62320397  1
  V  V74  1  0.49893023  0.73979233  0.24903577  1
  V  V75  1  0.86649750  0.49725568  0.87258089  1
  V  V76  1  0.87198176  0.00075001  0.36613316  1
  V  V77  1  -0.00536210  0.25150944  0.74802359  1
  V  V78  1  0.87916207  0.00217049  0.87384188  1
  V  V79  1  0.37267726  0.75686149  0.12712857  1
  V  V80  1  0.46984819  0.60644452  0.08431347  1
  V  V81  1  0.12262824  0.24747450  0.87832430  1
  V  V82  1  0.62485925  0.37155416  0.75125809  1
  V  V83  1  0.37463530  0.87488405  0.49786080  1
  V  V84  1  0.38614562  0.37826297  0.49874003  1
  Zn  Zn85  1  0.62353055  0.87140365  0.24861988  1
  Zn  Zn86  1  0.61023139  0.25031109  0.37614614  1
  Zn  Zn87  1  0.74940057  0.00050991  0.24617180  1
  Zn  Zn88  1  0.38391281  0.62070820  0.75465161  1
  Zn  Zn89  1  0.12154720  0.87955555  0.24015874  1
  Zn  Zn90  1  0.75035062  0.24684919  0.50441253  1
  Zn  Zn91  1  0.87312528  0.49072088  0.36829982  1
  Zn  Zn92  1  0.42040681  0.06351060  0.81395362  1
  Zn  Zn93  1  0.61505208  0.36312335  0.26623642  1
  Zn  Zn94  1  0.74661063  0.62754145  0.86612850  1
  Zn  Zn95  1  0.50211361  0.12379297  0.64232240  1
  Zn  Zn96  1  0.12489073  0.87528493  0.74907664  1
  Zn  Zn97  1  -0.00169599  0.37387428  0.87630149  1
  Zn  Zn98  1  0.50035145  0.87283783  0.37002914  1
  Zn  Zn99  1  0.75460875  0.12858839  0.87456078  1
  Zn  Zn100  1  0.24301525  0.88451436  0.11875825  1
  Zn  Zn101  1  0.74898956  0.37879999  0.13761675  1
  Zn  Zn102  1  0.12517941  0.49843115  0.62658900  1
  Zn  Zn103  1  0.12143053  0.13261227  0.49669555  1
  Zn  Zn104  1  0.42954419  0.45401784  0.96102137  1
  Zn  Zn105  1  0.48514636  0.36939813  0.84840137  1
  Zn  Zn106  1  0.12805047  0.12076234  0.00745485  1
  Zn  Zn107  1  0.18341432  0.18763482  0.18950331  1
  Zn  Zn108  1  0.18673268  0.18822849  0.68838999  1
  Zn  Zn109  1  0.18543838  0.69170426  0.18681123  1
  Zn  Zn110  1  0.18958101  0.68405993  0.68786383  1
  Zn  Zn111  1  0.67934326  0.19649665  0.19344080  1
  Zn  Zn112  1  0.68614365  0.18721601  0.68769009  1
  Zn  Zn113  1  0.68555651  0.68154513  0.18566784  1
  Zn  Zn114  1  0.68853737  0.68898639  0.68387669  1
  Zn  Zn115  1  0.30661440  0.32315806  0.31369939  1
  Zn  Zn116  1  0.31431646  0.31708624  0.82104578  1
  Zn  Zn117  1  0.31018302  0.81530093  0.31030295  1
  Zn  Zn118  1  0.31034037  0.81168123  0.80840318  1
  Zn  Zn119  1  0.80087168  0.31410544  0.31199696  1
  Zn  Zn120  1  0.81008164  0.31305488  0.81469732  1
  Zn  Zn121  1  0.81151461  0.80879398  0.31151641  1
  Zn  Zn122  1  0.82292013  0.81154021  0.80590385  1
  Zn  Zn123  1  0.18722968  0.43892676  0.43947476  1
  Zn  Zn124  1  0.19031576  0.43458250  0.93934137  1
  Zn  Zn125  1  0.18843239  0.94097524  0.43366313  1
  Zn  Zn126  1  0.18929859  0.93717706  0.93561761  1
  Zn  Zn127  1  0.68663929  0.43162732  0.43734407  1
  Zn  Zn128  1  0.68597937  0.43422345  0.93743466  1
  Zn  Zn129  1  0.68749231  0.93600152  0.43710382  1
  Zn  Zn130  1  0.68803172  0.96546250  0.93957287  1
  Zn  Zn131  1  0.32046655  0.06964212  0.06117133  1
  Zn  Zn132  1  0.31138173  0.06465701  0.55971300  1
  Zn  Zn133  1  0.29971456  0.56484258  0.06924494  1
  Zn  Zn134  1  0.31160457  0.56028241  0.56403198  1
  Zn  Zn135  1  0.81882697  0.06153472  0.06631824  1
  Zn  Zn136  1  0.81234092  0.06084383  0.56147059  1
  Zn  Zn137  1  0.81217766  0.56670545  0.05398631  1
  Zn  Zn138  1  0.81039231  0.55698138  0.55933416  1
  Zn  Zn139  1  0.45861851  0.41266597  0.15039664  1
  Zn  Zn140  1  0.44114030  0.43662919  0.68195507  1
  Zn  Zn141  1  0.44060214  0.93596476  0.18441460  1
  Zn  Zn142  1  0.43971579  0.93342950  0.68424816  1
  Zn  Zn143  1  0.94199809  0.43265617  0.18585282  1
  Zn  Zn144  1  0.93781661  0.43746153  0.68528972  1
  Zn  Zn145  1  0.93593713  0.93567980  0.18513523  1
  Zn  Zn146  1  0.93903913  0.93704017  0.68581174  1
  Zn  Zn147  1  0.06131326  0.06582788  0.31107402  1
  Zn  Zn148  1  0.06596641  0.06375725  0.81159752  1
  Zn  Zn149  1  0.06004287  0.56254096  0.31230132  1
  Zn  Zn150  1  0.06189126  0.55765920  0.81363306  1
  Zn  Zn151  1  0.57132536  0.05846048  0.31271339  1
  Zn  Zn152  1  0.58059198  0.06375757  0.80970995  1
  Zn  Zn153  1  0.52960805  0.52062692  0.27746874  1
  Zn  Zn154  1  0.55578231  0.55703287  0.81671227  1
  Zn  Zn155  1  0.43015217  0.18202614  0.46979768  1
  Zn  Zn156  1  0.43872716  0.19709483  0.94389330  1
  Zn  Zn157  1  0.43991385  0.68400173  0.43794235  1
  Zn  Zn158  1  0.43835824  0.69378408  0.93224563  1
  Zn  Zn159  1  0.93242818  0.18509236  0.43675168  1
  Zn  Zn160  1  0.93704926  0.18694422  0.94096558  1
  Zn  Zn161  1  0.93552208  0.68479124  0.43450615  1
  Zn  Zn162  1  0.93393695  0.68603765  0.93554403  1
  Zn  Zn163  1  0.06165809  0.30971256  0.06712174  1
  Zn  Zn164  1  0.06104249  0.31329260  0.56319180  1
  Zn  Zn165  1  0.06265772  0.81065728  0.06290812  1
  Zn  Zn166  1  0.06194658  0.81282855  0.56026053  1
  Zn  Zn167  1  0.56539675  0.32266917  0.05510592  1
  Zn  Zn168  1  0.56531001  0.31142827  0.56312992  1
  Zn  Zn169  1  0.55429274  0.80961477  0.06322813  1
  Zn  Zn170  1  0.55983683  0.80801418  0.56311048  1
  O  O171  1  0.10803035  0.12902544  0.12375779  1
  O  O172  1  0.11494868  0.11870355  0.62330629  1
  O  O173  1  0.11148427  0.63144583  0.11612677  1
  O  O174  1  0.11632996  0.62351838  0.61902882  1
  O  O175  1  0.61342410  0.11821905  0.12986438  1
  O  O176  1  0.62439932  0.11471188  0.61985008  1
  O  O177  1  0.63247481  0.62069087  0.10547569  1
  O  O178  1  0.62295152  0.61655336  0.61892790  1
  O  O179  1  0.36862037  0.38540394  0.38946124  1
  O  O180  1  0.37849124  0.37583892  0.88734943  1
  O  O181  1  0.37623592  0.88298474  0.38100393  1
  O  O182  1  0.37162534  0.87052874  0.88444387  1
  O  O183  1  0.86976744  0.37356530  0.38909164  1
  O  O184  1  0.87777364  0.38030798  0.88296142  1
  O  O185  1  0.87971011  0.87912957  0.38282447  1
  O  O186  1  0.88422384  0.87992535  0.87909662  1
  O  O187  1  0.25994663  0.01102653  0.36989527  1
  O  O188  1  0.24211551  0.01096307  0.86376655  1
  O  O189  1  0.25564760  0.51450791  0.38271103  1
  O  O190  1  0.24555497  0.50710090  0.86774709  1
  O  O191  1  0.75576714  0.00629030  0.37380100  1
  O  O192  1  0.75987908  0.00713980  0.86327528  1
  O  O193  1  0.75271113  0.51269537  0.38203905  1
  O  O194  1  0.76402924  0.50028462  0.87793789  1
  O  O195  1  0.24677657  0.48330958  0.12378039  1
  O  O196  1  0.24751058  0.48790152  0.63179893  1
  O  O197  1  0.25821512  1.00529708  0.14005523  1
  O  O198  1  0.24285523  0.99820573  0.62774595  1
  O  O199  1  0.74669590  0.50378591  0.12284786  1
  O  O200  1  0.74403139  0.48575187  0.62196806  1
  O  O201  1  0.74291110  0.99247121  0.12297413  1
  O  O202  1  0.73960227  1.00048763  0.62902913  1
  O  O203  1  0.01056521  0.36165722  0.24596468  1
  O  O204  1  0.00465375  0.36673939  0.75032558  1
  O  O205  1  -0.00120567  0.86845710  0.25567613  1
  O  O206  1  0.00217141  0.86631025  0.75458695  1
  O  O207  1  0.51103791  0.41176673  0.24720743  1
  O  O208  1  0.51990319  0.37137969  0.73621701  1
  O  O209  1  0.50118585  0.85651874  0.24720712  1
  O  O210  1  0.49933887  0.85695656  0.74062596  1
  O  O211  1  0.49343524  0.11967349  0.24656822  1
  O  O212  1  0.49860389  0.11438180  0.75383328  1
  O  O213  1  0.48460366  0.63416919  0.25698307  1
  O  O214  1  0.50152695  0.63323489  0.74024976  1
  O  O215  1  1.00124799  0.13716517  0.24493454  1
  O  O216  1  0.99291690  0.13019557  0.74347821  1
  O  O217  1  0.99403096  0.63012883  0.24087745  1
  O  O218  1  0.99514939  0.62684628  0.74111831  1
  O  O219  1  0.35882864  0.24842042  0.01021667  1
  O  O220  1  0.36166990  0.26333951  0.50948855  1
  O  O221  1  0.37065239  0.75695331  0.00698307  1
  O  O222  1  0.37155901  0.75320045  0.50919971  1
  O  O223  1  0.86925355  0.25660044  0.00792065  1
  O  O224  1  0.87734323  0.26239649  0.50299753  1
  O  O225  1  0.88055900  0.75713099  0.00952491  1
  O  O226  1  0.86883369  0.75536414  0.50101972  1
  O  O227  1  0.13829320  0.25131624  0.50495028  1
  O  O228  1  0.13036578  0.24769454  0.99328131  1
  O  O229  1  0.12885208  0.74379653  0.49285963  1
  O  O230  1  0.12572807  0.73766419  0.99116082  1
  O  O231  1  0.62295344  0.23291626  0.50011087  1
  O  O232  1  0.63701775  0.26102098  0.98952168  1
  O  O233  1  0.63228730  0.74397590  0.49530931  1
  O  O234  1  0.63175205  0.74694811  1.00000769  1
  O  O235  1  0.49173507  0.24111025  0.11798626  1
  O  O236  1  0.48466598  0.24597857  0.61985743  1
  O  O237  1  0.48818746  0.73272042  0.12809571  1
  O  O238  1  0.49377922  0.74016460  0.63126084  1
  O  O239  1  0.99103097  0.24280418  0.13283740  1
  O  O240  1  1.00515868  0.24011445  0.63533267  1
  O  O241  1  0.98863913  0.74222737  0.12891851  1
  O  O242  1  0.99582012  0.73817482  0.62519988  1
  O  O243  1  -0.00445024  0.24412755  0.36166264  1
  O  O244  1  0.00702506  0.24982166  0.86914197  1
  O  O245  1  0.00407840  0.75411704  0.36929272  1
  O  O246  1  0.00499435  0.75292617  0.86864612  1
  O  O247  1  0.48569517  0.23016831  0.37636744  1
  O  O248  1  0.51669609  0.25680837  0.88393919  1
  O  O249  1  0.50814328  0.74946299  0.36838954  1
  O  O250  1  0.49790816  0.74776246  0.85335432  1
  O  O251  1  0.25018030  0.13502116  0.49010117  1
  O  O252  1  0.24544392  0.13108195  0.99370447  1
  O  O253  1  0.24280619  0.63027195  0.49575473  1
  O  O254  1  0.23922545  0.62924833  0.99288975  1
  O  O255  1  0.74303622  0.12440652  0.49535438  1
  O  O256  1  0.75781046  0.13634746  1.00003606  1
  O  O257  1  0.74486697  0.63158243  0.49272810  1
  O  O258  1  0.74040556  0.63053240  0.98946115  1
  O  O259  1  0.24058479  0.36588752  0.01622531  1
  O  O260  1  0.25304529  0.37107013  0.50907726  1
  O  O261  1  0.25799650  0.86989802  -0.00031242  1
  O  O262  1  0.25477023  0.87040282  0.50375027  1
  O  O263  1  0.76179208  0.36856342  0.00404910  1
  O  O264  1  0.76415017  0.37222256  0.51012612  1
  O  O265  1  0.75305082  0.87125474  0.00137055  1
  O  O266  1  0.76030818  0.86532688  0.49362476  1
  O  O267  1  0.11277951  0.48547160  0.24856613  1
  O  O268  1  0.13247215  0.49053403  0.74941384  1
  O  O269  1  0.13950920  0.99979121  0.25480778  1
  O  O270  1  0.13151052  0.99948914  0.73665167  1
  O  O271  1  0.63701916  0.52778529  0.23259839  1
  O  O272  1  0.62729852  0.49309380  0.73857016  1
  O  O273  1  0.62582590  0.99170002  0.23683655  1
  O  O274  1  0.63908705  0.99603557  0.73746677  1
  O  O275  1  0.36942321  -0.00566854  0.26119343  1
  O  O276  1  0.36024770  -0.00633345  0.74432190  1
  O  O277  1  0.37156219  0.51630466  0.26318483  1
  O  O278  1  0.36307992  0.50068728  0.74195358  1
  O  O279  1  0.87253167  -0.00586547  0.26322275  1
  O  O280  1  0.87442324  0.00811082  0.75238589  1
  O  O281  1  0.88353828  0.51097121  0.24990132  1
  O  O282  1  0.88477862  0.50745802  0.75923656  1
  O  O283  1  0.12840781  0.37880229  0.36233004  1
  O  O284  1  0.12302300  0.36323444  0.87082899  1
  O  O285  1  0.11718939  0.86997758  0.37372808  1
  O  O286  1  0.11954063  0.86483768  0.87357531  1
  O  O287  1  0.62045620  0.36360895  0.38525552  1
  O  O288  1  0.63123520  0.36559771  0.86380520  1
  O  O289  1  0.62447244  0.86013041  0.37350531  1
  O  O290  1  0.64145880  0.86825812  0.88978707  1
  O  O291  1  0.38159913  0.14086974  0.13014209  1
  O  O292  1  0.37468021  0.14099770  0.61831233  1
  O  O293  1  0.36952944  0.63581996  0.13709907  1
  O  O294  1  0.38436330  0.62967708  0.62355082  1
  O  O295  1  0.88589751  0.13551745  0.12370805  1
  O  O296  1  0.88850415  0.11826100  0.63065660  1
  O  O297  1  0.88053485  0.63122457  0.12813717  1
  O  O298  1  0.88200805  0.62599168  0.62818887  1
  O  O299  1  0.25149146  0.24947301  0.11865215  1
  O  O300  1  0.25522830  0.25907267  0.62125952  1
  O  O301  1  0.25746732  0.74824616  0.11515543  1
  O  O302  1  0.25566085  0.75242452  0.61781572  1
  O  O303  1  0.75635772  0.24864716  0.12115381  1
  O  O304  1  0.74573845  0.26472564  0.62246389  1
  O  O305  1  0.76082037  0.75571753  0.12867300  1
  O  O306  1  0.75814250  0.74456257  0.60958403  1
  O  O307  1  0.25759458  0.24158313  0.38301154  1
  O  O308  1  0.24115919  0.24523730  0.88284479  1
  O  O309  1  0.24431948  0.74454991  0.38125328  1
  O  O310  1  0.24150579  0.74259689  0.87859329  1
  O  O311  1  0.75381917  0.23321034  0.38290605  1
  O  O312  1  0.74619929  0.24900274  0.88640293  1
  O  O313  1  0.74511614  0.74277005  0.38390145  1
  O  O314  1  0.75486608  0.74981217  0.87464767  1
  O  O315  1  0.00091250  0.11566278  0.00773511  1
  O  O316  1  0.00039527  0.12012316  0.50676734  1
  O  O317  1  0.00383940  0.61872357  0.00503390  1
  O  O318  1  0.00209367  0.61893427  0.50664573  1
  O  O319  1  0.49084701  0.11651361  0.01144052  1
  O  O320  1  0.50803412  0.10855844  0.50673760  1
  O  O321  1  0.52123988  0.64158564  -0.00462484  1
  O  O322  1  0.51374852  0.63429038  0.51137565  1
  O  O323  1  0.48399420  0.37180299  0.50577468  1
  O  O324  1  0.47519875  0.38586892  1.04203494  1
  O  O325  1  0.49421923  0.88304820  0.49826801  1
  O  O326  1  0.48839629  0.88500204  1.00667270  1
  O  O327  1  0.98573795  0.38206464  0.50963853  1
  O  O328  1  0.99051778  0.38056757  1.00242101  1
  O  O329  1  0.99373688  0.88082085  0.49248813  1
  O  O330  1  0.99469348  0.88101166  0.99535277  1
  O  O331  1  0.48318638  0.51786002  0.38518755  1
  O  O332  1  0.49908886  0.48158964  0.87291553  1
  O  O333  1  0.49443553  0.99684307  0.38102814  1
  O  O334  1  0.50417875  1.00881966  0.88765556  1
  O  O335  1  0.99472834  0.50606934  0.38901447  1
  O  O336  1  0.99213841  0.49812138  0.88764641  1
  O  O337  1  0.99226007  0.99797428  0.37999146  1
  O  O338  1  0.99777315  0.99497849  0.87970804  1
  O  O339  1  -0.00890504  0.00866551  0.11691385  1
  O  O340  1  0.00831697  0.00548139  0.61900674  1
  O  O341  1  -0.00695414  0.50919270  0.11091708  1
  O  O342  1  0.00084524  0.50998622  0.61712223  1
  O  O343  1  0.50443066  0.00928102  0.12102423  1
  O  O344  1  0.51166959  -0.00207080  0.61851881  1
  O  O345  1  0.51504979  0.52947864  0.13184522  1
  O  O346  1  0.50981711  0.51187974  0.62668547  1
  O  O347  1  0.23122758  0.37012652  0.24188549  1
  O  O348  1  0.24494271  0.37921789  0.74523866  1
  O  O349  1  0.24764981  0.89268263  0.25150716  1
  O  O350  1  0.24517027  0.88216520  0.74088087  1
  O  O351  1  0.73178040  0.37139574  0.24931876  1
  O  O352  1  0.74480024  0.37224053  0.73748961  1
  O  O353  1  0.74747101  0.87534684  0.23980856  1
  O  O354  1  0.76631551  0.88743183  0.74453801  1
  O  O355  1  0.24777346  0.11580562  0.25753901  1
  O  O356  1  0.24560116  0.11692077  0.75853767  1
  O  O357  1  0.25370385  0.63375992  0.26148349  1
  O  O358  1  0.24932686  0.61349731  0.75808364  1
  O  O359  1  0.74547066  0.12140169  0.26463595  1
  O  O360  1  0.76549553  0.12057952  0.74502507  1
  O  O361  1  0.76179441  0.63443093  0.25945434  1
  O  O362  1  0.76503161  0.62758741  0.74648762  1
  O  O363  1  0.37382913  0.12186241  0.36855606  1
  O  O364  1  0.36035002  0.13367350  0.88103139  1
  O  O365  1  0.36334413  0.62399047  0.37411198  1
  O  O366  1  0.35983104  0.63232739  0.87191190  1
  O  O367  1  0.85997694  0.11326417  0.38292725  1
  O  O368  1  0.87810523  0.11922198  0.86455863  1
  O  O369  1  0.86705343  0.62369545  0.36433886  1
  O  O370  1  0.87483938  0.61684757  0.86416929  1
  O  O371  1  0.13374134  0.36923543  0.13474019  1
  O  O372  1  0.13371227  0.37439862  0.63294354  1
  O  O373  1  0.13095780  0.86780865  0.12732218  1
  O  O374  1  0.13041840  0.88345308  0.62324338  1
  O  O375  1  0.62920157  0.40302501  0.11903540  1
  O  O376  1  0.63623796  0.38013273  0.62633672  1
  O  O377  1  0.63550061  0.87609620  0.12201442  1
  O  O378  1  0.62685402  0.88645178  0.61591823  1
  O  O379  1  0.11199237  0.25572132  0.25246567  1
  O  O380  1  0.11555184  0.25421560  0.75759188  1
  O  O381  1  0.11517482  0.75045715  0.25834616  1
  O  O382  1  0.11973422  0.74863187  0.75567540  1
  O  O383  1  0.60746791  0.24538425  0.26069217  1
  O  O384  1  0.63404968  0.25565676  0.76595924  1
  O  O385  1  0.61626672  0.74464860  0.25687962  1
  O  O386  1  0.62049644  0.75171899  0.74708906  1
  O  O387  1  0.37787148  0.24986095  0.25091192  1
  O  O388  1  0.36857775  0.25616920  0.73541071  1
  O  O389  1  0.37813353  0.74557273  0.24466751  1
  O  O390  1  0.36963111  0.74504680  0.73445981  1
  O  O391  1  0.88279489  0.25719390  0.24248370  1
  O  O392  1  0.88683498  0.24366808  0.75568329  1
  O  O393  1  0.88178074  0.74212619  0.24200506  1
  O  O394  1  0.88450488  0.73988043  0.73977930  1
  O  O395  1  0.36985037  0.48584406  0.49833651  1
  O  O396  1  0.40006174  0.54974610  1.01977794  1
  O  O397  1  0.38255782  0.99721012  0.49174926  1
  O  O398  1  0.38257902  0.98982896  1.00460927  1
  O  O399  1  0.88154247  0.48888329  0.49807723  1
  O  O400  1  0.88085361  0.49267532  0.99340137  1
  O  O401  1  0.87898006  0.99092786  0.49305826  1
  O  O402  1  0.88355820  0.99262815  0.99325787  1
  O  O403  1  0.11124146  -0.00037174  -0.00461002  1
  O  O404  1  0.12117867  0.00291495  0.50967949  1
  O  O405  1  0.11641868  0.51109260  -0.00618616  1
  O  O406  1  0.11557512  0.50533181  0.50363989  1
  O  O407  1  0.61259676  -0.00068121  0.01433853  1
  O  O408  1  0.62059861  0.00369596  0.50781369  1
  O  O409  1  0.63094821  0.51311944  0.00364974  1
  O  O410  1  0.63180075  0.51076756  0.50932795  1
  O  O411  1  0.35125968  0.35743749  0.14277638  1
  O  O412  1  0.36866142  0.36903444  0.61727802  1
  O  O413  1  0.36984350  0.86364973  0.12326010  1
  O  O414  1  0.36805363  0.86653021  0.61702220  1
  O  O415  1  0.87206518  0.36601970  0.11941666  1
  O  O416  1  0.86424312  0.37739141  0.62020089  1
  O  O417  1  0.86264921  0.86921365  0.11901294  1
  O  O418  1  0.88418865  0.86790894  0.60963828  1
  O  O419  1  0.13737656  0.12163429  0.37913375  1
  O  O420  1  0.13170630  0.13622607  0.87604003  1
  O  O421  1  0.12899166  0.63064315  0.37961179  1
  O  O422  1  0.13011229  0.62919396  0.88025683  1
  O  O423  1  0.63726176  0.11988678  0.38581884  1
  O  O424  1  0.63515530  0.14084760  0.87610768  1
  O  O425  1  0.63327555  0.63601873  0.38416587  1
  O  O426  1  0.62957155  0.62064661  0.88294895  1
