# generated using pymatgen
data_V85Zn86O256
_symmetry_space_group_name_H-M   'P 1'
_cell_length_a   16.94121490
_cell_length_b   16.94056708
_cell_length_c   16.94468519
_cell_angle_alpha   90.03516196
_cell_angle_beta   90.04239015
_cell_angle_gamma   90.07385416
_symmetry_Int_Tables_number   1
_chemical_formula_structural   V85Zn86O256
_chemical_formula_sum   'V85 Zn86 O256'
_cell_volume   4863.01309130
_cell_formula_units_Z   1
loop_
 _symmetry_equiv_pos_site_id
 _symmetry_equiv_pos_as_xyz
  1  'x, y, z'
loop_
 _atom_site_type_symbol
 _atom_site_label
 _atom_site_symmetry_multiplicity
 _atom_site_fract_x
 _atom_site_fract_y
 _atom_site_fract_z
 _atom_site_occupancy
  V  V0  1  0.62262919  0.37039406  0.25234587  1
  V  V1  1  0.61749726  0.62117842  0.49625879  1
  V  V2  1  0.37994314  0.12871300  0.74611538  1
  V  V3  1  0.12754472  0.25509373  0.88347058  1
  V  V4  1  0.87072387  0.36979670  -0.00579207  1
  V  V5  1  0.25081351  0.61925108  0.37178223  1
  V  V6  1  -0.00103925  0.13392687  0.62362153  1
  V  V7  1  0.66606635  0.80634284  0.31576999  1
  V  V8  1  0.74169521  0.62561511  0.37361827  1
  V  V9  1  0.87184360  0.00380806  0.87702895  1
  V  V10  1  0.37109255  0.87194638  -0.00223910  1
  V  V11  1  0.25508401  0.37611530  0.61242818  1
  V  V12  1  -0.00703772  0.49896917  -0.00340256  1
  V  V13  1  0.50705260  0.24787027  0.74936017  1
  V  V14  1  0.50085265  0.37016505  0.87949374  1
  V  V15  1  0.49989020  0.37899991  0.38963654  1
  V  V16  1  -0.00534596  0.62323907  0.62116496  1
  V  V17  1  0.74862015  0.75027691  0.51199749  1
  V  V18  1  -0.01376341  0.75270395  0.74455709  1
  V  V19  1  0.87739207  0.50152991  0.38325197  1
  V  V20  1  0.62402876  0.49568769  0.12122143  1
  V  V21  1  0.37504725  0.25132516  0.61495765  1
  V  V22  1  0.24814734  0.87315135  0.11903685  1
  V  V23  1  0.36972433  0.74762977  0.12045431  1
  V  V24  1  0.87404248  0.00280290  0.37323992  1
  V  V25  1  0.37504970  0.00053204  0.87440799  1
  V  V26  1  0.75191957  0.61228158  0.87140563  1
  V  V27  1  0.62887690  -0.00841558  0.13649567  1
  V  V28  1  0.49877940  0.62073808  0.12251229  1
  V  V29  1  0.12756399  0.49694544  0.13544677  1
  V  V30  1  0.75324276  0.38011604  0.62746794  1
  V  V31  1  0.49480775  0.12435946  0.13588127  1
  V  V32  1  0.50044897  0.86953484  0.37420157  1
  V  V33  1  0.12649375  0.00313058  0.62482708  1
  V  V34  1  0.00102861  0.00307099  0.50068130  1
  V  V35  1  0.49954728  0.61665982  0.62985402  1
  V  V36  1  0.74847042  0.35917422  0.11979934  1
  V  V37  1  0.00365295  0.87667615  0.37734245  1
  V  V38  1  0.25111302  0.87394603  0.62545171  1
  V  V39  1  -0.00069290  0.00495830  0.00823319  1
  V  V40  1  0.50129781  0.00393994  0.50227299  1
  V  V41  1  0.76281559  0.24864421  0.50507388  1
  V  V42  1  0.38043712  0.49669080  0.38915195  1
  V  V43  1  0.49978198  0.87161155  0.87258408  1
  V  V44  1  0.38571634  0.75109766  0.63295177  1
  V  V45  1  0.75215481  0.12700587  0.36506185  1
  V  V46  1  0.62071533  0.87028853  0.74797180  1
  V  V47  1  0.25094050  0.00172471  0.74984102  1
  V  V48  1  0.74757653  0.75257476  -0.00317666  1
  V  V49  1  0.50251889  -0.00039370  0.00104702  1
  V  V50  1  0.89216839  0.12277934  0.24240049  1
  V  V51  1  0.75073151  0.49659876  0.24820477  1
  V  V52  1  0.37028914  0.61242888  0.24700581  1
  V  V53  1  0.13013816  0.62931544  -0.00326165  1
  V  V54  1  0.12128715  0.61664164  0.50224182  1
  V  V55  1  0.13081270  0.37593310  0.75034160  1
  V  V56  1  0.49840008  0.75088793  0.24989964  1
  V  V57  1  0.12675808  0.74909783  0.37677959  1
  V  V58  1  -0.00544902  0.37887405  0.87239094  1
  V  V59  1  0.87033485  0.60944391  0.74944487  1
  V  V60  1  0.88876081  0.24362241  0.11999522  1
  V  V61  1  0.36668282  0.24878964  0.12392093  1
  V  V62  1  0.88512240  0.37646120  0.50547117  1
  V  V63  1  0.74580264  0.13754703  0.87987841  1
  V  V64  1  0.62715123  0.24964618  0.37747480  1
  V  V65  1  0.62663826  0.13334020  -0.00029344  1
  V  V66  1  0.37401780  0.00690505  0.36797347  1
  V  V67  1  0.12311475  0.87387156  0.74982094  1
  V  V68  1  0.00093026  0.74880468  0.25001293  1
  V  V69  1  0.62772234  0.38325896  0.75263878  1
  V  V70  1  0.74759649  0.00274145  0.75167070  1
  V  V71  1  -0.00191685  0.87694373  0.87504713  1
  V  V72  1  0.13764143  0.13545909  0.49324134  1
  V  V73  1  0.25112462  0.74811324  0.50202308  1
  V  V74  1  -0.00216439  0.62599004  0.12234710  1
  V  V75  1  0.87299430  0.75061788  0.12279982  1
  V  V76  1  0.62252861  0.00127067  0.62736901  1
  V  V77  1  0.12785347  0.87695748  0.24924618  1
  V  V78  1  0.37707357  0.87428820  0.50015602  1
  V  V79  1  0.12511194  0.12711262  0.00558608  1
  V  V80  1  0.25113664  0.13290517  0.87892093  1
  V  V81  1  0.87509778  0.13211309  0.74641418  1
  V  V82  1  0.62876100  0.12643249  0.50635768  1
  V  V83  1  0.23873333  0.37020786  0.12734530  1
  V  V84  1  0.62121152  0.74593266  0.87029170  1
  Zn  Zn85  1  0.12428491  0.00349754  0.12673900  1
  Zn  Zn86  1  0.87122575  0.87878523  0.00360568  1
  Zn  Zn87  1  0.75705955  0.87281828  0.63069414  1
  Zn  Zn88  1  0.26146090  0.14885114  0.36522282  1
  Zn  Zn89  1  0.49583938  0.49598864  -0.00114800  1
  Zn  Zn90  1  0.25345456  0.50259525  0.75364986  1
  Zn  Zn91  1  0.62480384  0.62118310  -0.00464952  1
  Zn  Zn92  1  -0.00103293  0.25372094  0.74748619  1
  Zn  Zn93  1  0.12390604  0.49847055  0.62509390  1
  Zn  Zn94  1  0.37160653  0.50156137  0.87570750  1
  Zn  Zn95  1  0.62194402  0.49513452  0.61833475  1
  Zn  Zn96  1  0.13101418  0.27176661  0.35872733  1
  Zn  Zn97  1  0.12691429  0.75179586  0.87748786  1
  Zn  Zn98  1  0.49093345  0.24735533  0.25517262  1
  Zn  Zn99  1  0.00564313  0.37900731  0.36722610  1
  Zn  Zn100  1  0.74445830  0.87229706  0.14059974  1
  Zn  Zn101  1  0.25517226  0.63023406  0.87175987  1
  Zn  Zn102  1  0.36088491  0.37119849  -0.00434260  1
  Zn  Zn103  1  0.87364078  0.62488716  0.25142137  1
  Zn  Zn104  1  0.37517316  0.62491204  0.75368903  1
  Zn  Zn105  1  0.25750210  0.00129313  0.24635190  1
  Zn  Zn106  1  0.88072604  0.86670137  0.50820526  1
  Zn  Zn107  1  0.19533909  0.18195608  0.19166994  1
  Zn  Zn108  1  0.18939827  0.19279362  0.68830581  1
  Zn  Zn109  1  0.18719039  0.68602748  0.18476314  1
  Zn  Zn110  1  0.18486850  0.68914218  0.69159162  1
  Zn  Zn111  1  0.68428312  0.18344673  0.18749694  1
  Zn  Zn112  1  0.69052805  0.19051184  0.68597863  1
  Zn  Zn113  1  0.68971986  0.68016666  0.18014447  1
  Zn  Zn114  1  0.68424301  0.68212978  0.68862556  1
  Zn  Zn115  1  0.30655430  0.31775227  0.30650430  1
  Zn  Zn116  1  0.31488115  0.31384392  0.80893063  1
  Zn  Zn117  1  0.31363437  0.81065080  0.31014783  1
  Zn  Zn118  1  0.30781131  0.80677080  0.81447600  1
  Zn  Zn119  1  0.85770556  0.32603904  0.29268378  1
  Zn  Zn120  1  0.81075697  0.31321269  0.81085523  1
  Zn  Zn121  1  0.82890764  0.81061815  0.31912798  1
  Zn  Zn122  1  0.80800621  0.81396902  0.81401031  1
  Zn  Zn123  1  0.19049763  0.43635575  0.43129563  1
  Zn  Zn124  1  0.18648876  0.44311892  0.94163520  1
  Zn  Zn125  1  0.18907888  0.93986462  0.43974941  1
  Zn  Zn126  1  0.18685494  0.93950641  0.93692640  1
  Zn  Zn127  1  0.69240269  0.43607156  0.43959830  1
  Zn  Zn128  1  0.68341277  0.43054722  0.93643925  1
  Zn  Zn129  1  0.69295364  0.94136582  0.44231994  1
  Zn  Zn130  1  0.68611826  0.93803070  0.93854771  1
  Zn  Zn131  1  0.31204981  0.06237179  0.06317188  1
  Zn  Zn132  1  0.31613184  0.06497243  0.56234500  1
  Zn  Zn133  1  0.31046611  0.55370977  0.05623108  1
  Zn  Zn134  1  0.31117052  0.56204965  0.56684041  1
  Zn  Zn135  1  0.80725225  0.06072355  0.06519229  1
  Zn  Zn136  1  0.81409580  0.05934084  0.56385627  1
  Zn  Zn137  1  0.80990098  0.56230769  0.05853716  1
  Zn  Zn138  1  0.80990392  0.56269197  0.56499590  1
  Zn  Zn139  1  0.43309748  0.42949316  0.18765696  1
  Zn  Zn140  1  0.43534829  0.43665549  0.69027976  1
  Zn  Zn141  1  0.44174634  0.93282932  0.18637103  1
  Zn  Zn142  1  0.44002877  0.93853367  0.68735055  1
  Zn  Zn143  1  0.92990980  0.44398972  0.17764002  1
  Zn  Zn144  1  0.94009128  0.43807829  0.68425032  1
  Zn  Zn145  1  0.93525135  0.93636766  0.18955699  1
  Zn  Zn146  1  0.93531695  0.94290411  0.68640802  1
  Zn  Zn147  1  0.06854204  0.06639212  0.31230978  1
  Zn  Zn148  1  0.06225835  0.06433864  0.81424084  1
  Zn  Zn149  1  0.06051502  0.56195339  0.31449716  1
  Zn  Zn150  1  0.06080598  0.56057722  0.81073661  1
  Zn  Zn151  1  0.56389350  0.06026311  0.31679622  1
  Zn  Zn152  1  0.56140470  0.06438850  0.81512340  1
  Zn  Zn153  1  0.56054319  0.56036285  0.30948011  1
  Zn  Zn154  1  0.55801775  0.55877868  0.81070577  1
  Zn  Zn155  1  0.44335675  0.18766843  0.43803741  1
  Zn  Zn156  1  0.43907116  0.19026943  0.93951325  1
  Zn  Zn157  1  0.43753050  0.68640240  0.43862332  1
  Zn  Zn158  1  0.43750157  0.68581875  0.93830720  1
  Zn  Zn159  1  0.94675323  0.19320342  0.43073735  1
  Zn  Zn160  1  0.94078267  0.19202096  0.93787644  1
  Zn  Zn161  1  0.93392777  0.68572993  0.43845290  1
  Zn  Zn162  1  0.93579670  0.68810312  0.93398611  1
  Zn  Zn163  1  0.05160080  0.31386086  0.19987937  1
  Zn  Zn164  1  0.06670914  0.31311171  0.56018452  1
  Zn  Zn165  1  0.05947568  0.81466508  0.06091792  1
  Zn  Zn166  1  0.06176695  0.80883255  0.56512394  1
  Zn  Zn167  1  0.55799441  0.30729049  0.06609068  1
  Zn  Zn168  1  0.56360146  0.30834525  0.56808132  1
  Zn  Zn169  1  0.56139444  0.81050669  0.06042514  1
  Zn  Zn170  1  0.56718904  0.80900841  0.55972487  1
  O  O171  1  0.13355604  0.12197474  0.10811128  1
  O  O172  1  0.12243636  0.11947213  0.61952588  1
  O  O173  1  0.11713252  0.62054720  0.11616918  1
  O  O174  1  0.11631802  0.62707828  0.61644242  1
  O  O175  1  0.61901597  0.11308831  0.11633652  1
  O  O176  1  0.62940033  0.11809999  0.61398978  1
  O  O177  1  0.61609971  0.61241392  0.12377845  1
  O  O178  1  0.61379373  0.62250428  0.61773975  1
  O  O179  1  0.38421165  0.39082418  0.36894117  1
  O  O180  1  0.38842306  0.37186309  0.87710187  1
  O  O181  1  0.38538611  0.87827655  0.38107505  1
  O  O182  1  0.38033924  0.87917700  0.87755525  1
  O  O183  1  0.87044287  0.38619122  0.38806744  1
  O  O184  1  0.88122424  0.36940510  0.88083025  1
  O  O185  1  0.88531828  0.88662826  0.38167668  1
  O  O186  1  0.87850635  0.88847884  0.87512154  1
  O  O187  1  0.27113207  -0.00975145  0.37697613  1
  O  O188  1  0.25726425  0.00597539  0.86730143  1
  O  O189  1  0.26428536  0.51275583  0.37744215  1
  O  O190  1  0.24910250  0.50829364  0.87431829  1
  O  O191  1  0.76723949  0.00949753  0.38567939  1
  O  O192  1  0.75591078  0.00666759  0.87148397  1
  O  O193  1  0.75450726  0.50632630  0.36656857  1
  O  O194  1  0.74375115  0.51372543  0.88219768  1
  O  O195  1  0.23138385  0.49694230  0.12071991  1
  O  O196  1  0.24907292  0.48699727  0.62785435  1
  O  O197  1  0.24961658  0.98571574  0.12581167  1
  O  O198  1  0.24706957  0.99455126  0.62986653  1
  O  O199  1  0.74226243  0.49349239  0.13069148  1
  O  O200  1  0.74544467  0.48451427  0.62185830  1
  O  O201  1  0.73369932  0.99212316  0.12295462  1
  O  O202  1  0.73729372  1.00081951  0.63154762  1
  O  O203  1  -0.03366569  0.36895292  0.25256509  1
  O  O204  1  0.00550914  0.37388773  0.75573527  1
  O  O205  1  0.00678437  0.86896963  0.25633705  1
  O  O206  1  0.00214964  0.87287994  0.75543064  1
  O  O207  1  0.51445241  0.37508157  0.25538099  1
  O  O208  1  0.50799653  0.36744083  0.75695985  1
  O  O209  1  0.49867735  0.85972091  0.25637784  1
  O  O210  1  0.51275233  0.88018226  0.75643559  1
  O  O211  1  0.50518231  0.12368328  0.23894681  1
  O  O212  1  0.48874307  0.13123678  0.75615628  1
  O  O213  1  0.49313133  0.63160637  0.24069216  1
  O  O214  1  0.50168688  0.62643172  0.73299263  1
  O  O215  1  0.99079755  0.12185761  0.24666376  1
  O  O216  1  0.99281994  0.12442936  0.74222888  1
  O  O217  1  0.99775070  0.63249240  0.24130735  1
  O  O218  1  0.98787670  0.63324903  0.74717508  1
  O  O219  1  0.38282348  0.25270430  0.01679629  1
  O  O220  1  0.38053177  0.24154783  0.51649139  1
  O  O221  1  0.38174364  0.75546232  0.01431449  1
  O  O222  1  0.36923836  0.75606116  0.50598706  1
  O  O223  1  0.87411526  0.25680050  0.00608670  1
  O  O224  1  0.86760358  0.25661640  0.49492870  1
  O  O225  1  0.86747804  0.75286204  0.00642705  1
  O  O226  1  0.85352110  0.75078449  0.48862811  1
  O  O227  1  0.13003748  0.23457453  0.50643039  1
  O  O228  1  0.12319884  0.23976511  0.98430699  1
  O  O229  1  0.13250478  0.74449456  0.49353106  1
  O  O230  1  0.11304355  0.73290399  1.00089048  1
  O  O231  1  0.63015398  0.24052044  0.49725949  1
  O  O232  1  0.62268906  0.23168928  1.00666978  1
  O  O233  1  0.63802658  0.73810672  0.49846426  1
  O  O234  1  0.63191613  0.74610593  0.99300475  1
  O  O235  1  0.49343115  0.23965598  0.13143541  1
  O  O236  1  0.48462442  0.25601569  0.63453806  1
  O  O237  1  0.49413029  0.74187386  0.13146604  1
  O  O238  1  0.49294951  0.74180859  0.61790223  1
  O  O239  1  0.98686237  0.25162171  0.12025398  1
  O  O240  1  1.00507591  0.23700090  0.62663407  1
  O  O241  1  0.99061133  0.74709639  0.12849705  1
  O  O242  1  1.00029033  0.73963292  0.63404045  1
  O  O243  1  0.01473173  0.26349065  0.38209628  1
  O  O244  1  0.00828388  0.26255251  0.87218316  1
  O  O245  1  0.00571701  0.75461751  0.37074074  1
  O  O246  1  -0.00125245  0.76512393  0.86933515  1
  O  O247  1  0.50675491  0.25796265  0.37282295  1
  O  O248  1  0.49768555  0.25903901  0.86445691  1
  O  O249  1  0.49769255  0.75841865  0.36713043  1
  O  O250  1  0.51413062  0.75530471  0.88151031  1
  O  O251  1  0.23895368  0.11642901  0.49581063  1
  O  O252  1  0.24255285  0.11531999  0.98491760  1
  O  O253  1  0.24422201  0.63120124  0.49455155  1
  O  O254  1  0.23148281  0.62306322  1.00396531  1
  O  O255  1  0.74764270  0.13065749  0.49612917  1
  O  O256  1  0.73457795  0.11735241  0.99451624  1
  O  O257  1  0.74408179  0.63454420  0.49286912  1
  O  O258  1  0.74852653  0.63554555  0.99133879  1
  O  O259  1  0.24481318  0.37960212  0.01838832  1
  O  O260  1  0.24838584  0.37921293  0.51414118  1
  O  O261  1  0.25839697  0.87941063  0.00635503  1
  O  O262  1  0.25572782  0.86963940  0.50661930  1
  O  O263  1  0.75974138  0.38039959  0.00707693  1
  O  O264  1  0.75661956  0.36564032  0.50775642  1
  O  O265  1  0.75055036  0.86216387  -0.00161802  1
  O  O266  1  0.74625308  0.85885091  0.50061015  1
  O  O267  1  0.12093374  0.51135222  0.23311524  1
  O  O268  1  0.12379187  0.48632673  0.74793352  1
  O  O269  1  0.12190205  0.98599266  0.24750497  1
  O  O270  1  0.12991900  0.99515920  0.74462520  1
  O  O271  1  0.63283756  0.49198863  0.24200229  1
  O  O272  1  0.62151931  0.48585482  0.74448520  1
  O  O273  1  0.61923471  1.00029643  0.23509738  1
  O  O274  1  0.62621354  0.99679860  0.74362170  1
  O  O275  1  0.38141336  -0.00798034  0.26585356  1
  O  O276  1  0.37265870  0.00872455  0.75335244  1
  O  O277  1  0.38020980  0.51105293  0.25398282  1
  O  O278  1  0.37426882  0.50406107  0.75498506  1
  O  O279  1  0.87770020  0.01143202  0.25770115  1
  O  O280  1  0.86931332  0.01103960  0.75986734  1
  O  O281  1  0.86004487  0.50349579  0.25343264  1
  O  O282  1  0.87730060  0.51143453  0.75240287  1
  O  O283  1  0.11867828  0.38934482  0.36549008  1
  O  O284  1  0.11941825  0.37017910  0.87064405  1
  O  O285  1  0.12349667  0.87062070  0.36857685  1
  O  O286  1  0.11401451  0.87853467  0.86800394  1
  O  O287  1  0.62191232  0.37215677  0.36897124  1
  O  O288  1  0.61740912  0.37114674  0.86379061  1
  O  O289  1  0.61632688  0.87899841  0.37701299  1
  O  O290  1  0.62035090  0.86838628  0.86817537  1
  O  O291  1  0.38287592  0.13392477  0.11977374  1
  O  O292  1  0.36923971  0.13669824  0.63556906  1
  O  O293  1  0.37758536  0.62818805  0.12874167  1
  O  O294  1  0.38753755  0.63338763  0.62116361  1
  O  O295  1  0.87033822  0.12638310  0.13484941  1
  O  O296  1  0.88562254  0.11724661  0.63462973  1
  O  O297  1  0.87712662  0.63602916  0.12524262  1
  O  O298  1  0.87833754  0.62334503  0.63807697  1
  O  O299  1  0.25853105  0.25555736  0.12255789  1
  O  O300  1  0.26374708  0.26167373  0.63016465  1
  O  O301  1  0.25770485  0.76116996  0.12879580  1
  O  O302  1  0.25689222  0.75674269  0.61902959  1
  O  O303  1  0.74974718  0.25752116  0.12601728  1
  O  O304  1  0.74676742  0.25866048  0.61254347  1
  O  O305  1  0.75449617  0.75096202  0.11653484  1
  O  O306  1  0.74735173  0.74835034  0.61420702  1
  O  O307  1  0.24593312  0.25924044  0.37755481  1
  O  O308  1  0.24400606  0.24188625  0.86967814  1
  O  O309  1  0.24839149  0.74060728  0.38100143  1
  O  O310  1  0.24009239  0.74534572  0.87487567  1
  O  O311  1  0.74289009  0.23970826  0.38770981  1
  O  O312  1  0.75070438  0.23624361  0.87429116  1
  O  O313  1  0.74023477  0.74447397  0.37110345  1
  O  O314  1  0.73939348  0.74441579  0.88019260  1
  O  O315  1  0.01108837  0.11500727  -0.01099926  1
  O  O316  1  0.00882370  0.11925181  0.50635541  1
  O  O317  1  -0.00153578  0.61870483  0.00533759  1
  O  O318  1  0.00754420  0.63346827  0.50846596  1
  O  O319  1  0.50896759  0.11689864  0.00570891  1
  O  O320  1  0.51269032  0.11118227  0.49430461  1
  O  O321  1  0.50293756  0.62265288  0.01395500  1
  O  O322  1  0.51055481  0.63091407  0.50710994  1
  O  O323  1  0.50980747  0.37311462  0.48839516  1
  O  O324  1  0.50794651  0.37038229  0.98528252  1
  O  O325  1  0.49973103  0.88255969  0.49288320  1
  O  O326  1  0.49295107  0.88134422  0.99448600  1
  O  O327  1  0.98690308  0.37698795  0.50900949  1
  O  O328  1  0.98440338  0.38384511  0.99031937  1
  O  O329  1  1.00322514  0.88331056  0.49473034  1
  O  O330  1  0.99591937  0.88371459  0.99052353  1
  O  O331  1  0.48957297  0.49558575  0.37276702  1
  O  O332  1  0.50244084  0.48316825  0.87702525  1
  O  O333  1  0.49303793  0.99142954  0.38141076  1
  O  O334  1  0.49465526  0.99398384  0.88290064  1
  O  O335  1  0.98021681  0.50444602  0.37051349  1
  O  O336  1  1.00249812  0.48757273  0.88181413  1
  O  O337  1  0.99483802  0.99862249  0.38202444  1
  O  O338  1  0.99126556  0.99296503  0.87902637  1
  O  O339  1  0.00029726  -0.00701894  0.11117235  1
  O  O340  1  0.00770351  0.00975137  0.61752482  1
  O  O341  1  0.00492634  0.50730214  0.11811704  1
  O  O342  1  0.00404984  0.51786102  0.62958926  1
  O  O343  1  0.50440485  0.00431774  0.11868818  1
  O  O344  1  0.51270558  -0.00377021  0.61655036  1
  O  O345  1  0.50680474  0.50397102  0.12736037  1
  O  O346  1  0.49884460  0.51306532  0.62204783  1
  O  O347  1  0.25961117  0.38490302  0.22560738  1
  O  O348  1  0.24296836  0.37674609  0.74356131  1
  O  O349  1  0.24314135  0.87696967  0.24313556  1
  O  O350  1  0.24437895  0.88175432  0.74359934  1
  O  O351  1  0.74516841  0.38026390  0.24131081  1
  O  O352  1  0.73787344  0.36495363  0.74170706  1
  O  O353  1  0.73883966  0.85946663  0.26043410  1
  O  O354  1  0.73717793  0.88390941  0.75222032  1
  O  O355  1  0.24863623  0.11129749  0.25860111  1
  O  O356  1  0.25872552  0.12114785  0.75820570  1
  O  O357  1  0.25884088  0.63203992  0.25913964  1
  O  O358  1  0.25356639  0.62234055  0.74802169  1
  O  O359  1  0.74905231  0.12321350  0.26334081  1
  O  O360  1  0.75449930  0.12108674  0.75669641  1
  O  O361  1  0.74763073  0.61560688  0.25674241  1
  O  O362  1  0.76234705  0.62745039  0.75463337  1
  O  O363  1  0.37768768  0.11000886  0.38139107  1
  O  O364  1  0.36924951  0.12146083  0.87034662  1
  O  O365  1  0.37140662  0.61822148  0.36746095  1
  O  O366  1  0.37630689  0.62337666  0.87187815  1
  O  O367  1  0.87332183  0.12209164  0.36336632  1
  O  O368  1  0.86866149  0.11797208  0.87193105  1
  O  O369  1  0.85937068  0.61962064  0.37445380  1
  O  O370  1  0.86606982  0.63086212  0.86005208  1
  O  O371  1  0.12485628  0.38835146  0.12992602  1
  O  O372  1  0.13698757  0.37342073  0.63139388  1
  O  O373  1  0.13221890  0.87375211  0.13082562  1
  O  O374  1  0.12938592  0.88254860  0.63014490  1
  O  O375  1  0.62919910  0.37724498  0.13101383  1
  O  O376  1  0.63088981  0.37554213  0.63325294  1
  O  O377  1  0.62201540  0.88680102  0.12336183  1
  O  O378  1  0.62819642  0.88114909  0.63250946  1
  O  O379  1  0.12723402  0.25015939  0.24503309  1
  O  O380  1  0.12308013  0.26044228  0.75849569  1
  O  O381  1  0.12183074  0.75904044  0.25539303  1
  O  O382  1  0.11045682  0.76056664  0.75021888  1
  O  O383  1  0.62550141  0.25654897  0.25794889  1
  O  O384  1  0.61073653  0.25274670  0.74110565  1
  O  O385  1  0.61544521  0.74278107  0.24712780  1
  O  O386  1  0.62986009  0.75875321  0.75736275  1
  O  O387  1  0.37717426  0.25592046  0.23142340  1
  O  O388  1  0.38368910  0.24331023  0.74369609  1
  O  O389  1  0.38169752  0.74184143  0.23966336  1
  O  O390  1  0.37508780  0.75287357  0.73511020  1
  O  O391  1  0.86695863  0.22917418  0.23664206  1
  O  O392  1  0.87750272  0.23544760  0.75421953  1
  O  O393  1  0.88239611  0.74599216  0.24213643  1
  O  O394  1  0.88395999  0.75161866  0.75330543  1
  O  O395  1  0.37682935  0.50617503  0.48721425  1
  O  O396  1  0.37988358  0.49027220  0.99627560  1
  O  O397  1  0.38571198  0.99441043  0.49602300  1
  O  O398  1  0.38578260  0.99492385  0.99570856  1
  O  O399  1  0.86591865  0.49175487  0.49279474  1
  O  O400  1  0.88525131  0.49225642  1.00763732  1
  O  O401  1  0.88995373  1.00499181  0.49236710  1
  O  O402  1  0.87990904  1.00129239  0.99348598  1
  O  O403  1  0.11541905  0.00783815  -0.00136034  1
  O  O404  1  0.11672616  0.00590659  0.50449238  1
  O  O405  1  0.10927295  0.51061561  0.00858985  1
  O  O406  1  0.12949000  0.51480647  0.50152200  1
  O  O407  1  0.61322712  0.00217266  0.00634731  1
  O  O408  1  0.62172079  0.00526244  0.50767064  1
  O  O409  1  0.62223360  0.49826726  0.01236269  1
  O  O410  1  0.63418300  0.51610507  0.49992325  1
  O  O411  1  0.36881361  0.36426149  0.11813968  1
  O  O412  1  0.36499751  0.36523488  0.62724480  1
  O  O413  1  0.36913118  0.86679377  0.12031747  1
  O  O414  1  0.37388716  0.86946152  0.61889962  1
  O  O415  1  0.86477112  0.36387617  0.11556697  1
  O  O416  1  0.86701525  0.37741738  0.61918395  1
  O  O417  1  0.86790451  0.86349558  0.12700919  1
  O  O418  1  0.86898599  0.88567482  0.61904637  1
  O  O419  1  0.12755968  0.12373095  0.38973009  1
  O  O420  1  0.13388287  0.13208389  0.87620251  1
  O  O421  1  0.13265744  0.62852861  0.38006430  1
  O  O422  1  0.11571382  0.62556908  0.88988945  1
  O  O423  1  0.63413869  0.12458344  0.38576236  1
  O  O424  1  0.63060315  0.11879868  0.89022444  1
  O  O425  1  0.63355328  0.61957203  0.37892573  1
  O  O426  1  0.62974091  0.63068800  0.87173234  1
