# generated using pymatgen
data_V85Zn86O256
_symmetry_space_group_name_H-M   'P 1'
_cell_length_a   16.92647005
_cell_length_b   16.94273427
_cell_length_c   16.93630025
_cell_angle_alpha   89.92649175
_cell_angle_beta   89.99321974
_cell_angle_gamma   89.98934710
_symmetry_Int_Tables_number   1
_chemical_formula_structural   V85Zn86O256
_chemical_formula_sum   'V85 Zn86 O256'
_cell_volume   4856.99965719
_cell_formula_units_Z   1
loop_
 _symmetry_equiv_pos_site_id
 _symmetry_equiv_pos_as_xyz
  1  'x, y, z'
loop_
 _atom_site_type_symbol
 _atom_site_label
 _atom_site_symmetry_multiplicity
 _atom_site_fract_x
 _atom_site_fract_y
 _atom_site_fract_z
 _atom_site_occupancy
  V  V0  1  0.75350901  0.12668721  0.86936028  1
  V  V1  1  0.24798374  0.39265829  0.13028980  1
  V  V2  1  0.62272643  0.74850760  0.87857031  1
  V  V3  1  0.11927315  0.12205831  0.50215491  1
  V  V4  1  0.02218006  0.49938206  0.00130798  1
  V  V5  1  0.62573552  0.61930710  0.00297356  1
  V  V6  1  0.62876238  0.49996400  0.63501096  1
  V  V7  1  0.74553027  0.50221726  0.23682074  1
  V  V8  1  0.37333413  0.74957420  0.12154949  1
  V  V9  1  0.24743440  0.12385160  0.88235824  1
  V  V10  1  0.37190203  0.62056961  0.24671649  1
  V  V11  1  0.74577782  0.37309315  0.63357257  1
  V  V12  1  0.50057115  0.13058088  0.12477153  1
  V  V13  1  0.12391740  0.25023398  0.37355109  1
  V  V14  1  0.00982168  0.88514919  0.37313662  1
  V  V15  1  0.87352741  0.38970330  -0.00361329  1
  V  V16  1  0.87615748  0.63575238  0.24547493  1
  V  V17  1  0.49325694  0.49886306  -0.00313878  1
  V  V18  1  0.50145832  0.87705493  0.37751514  1
  V  V19  1  0.62326321  0.25821960  0.87165105  1
  V  V20  1  0.87414483  0.37432936  0.50075058  1
  V  V21  1  0.24888927  0.25040249  0.50153362  1
  V  V22  1  0.49150395  0.38037978  0.86968921  1
  V  V23  1  0.76115985  0.62220898  0.87254685  1
  V  V24  1  0.63079096  0.62523136  0.50259258  1
  V  V25  1  0.12376662  0.24656460  0.88051754  1
  V  V26  1  0.87178080  0.12487235  0.25100254  1
  V  V27  1  0.76240676  0.74995069  0.50333539  1
  V  V28  1  0.50569071  0.74781533  0.75109619  1
  V  V29  1  0.50338845  0.61775470  0.12582311  1
  V  V30  1  0.00762066  0.00277008  -0.00152396  1
  V  V31  1  -0.00202753  0.24489164  0.75061211  1
  V  V32  1  0.24795431  0.87249546  0.62864790  1
  V  V33  1  0.62672492  0.75033056  0.37727098  1
  V  V34  1  0.74119619  0.24721533  0.49253126  1
  V  V35  1  0.24632034  0.38559771  0.62110693  1
  V  V36  1  0.12546789  0.37551846  0.74684353  1
  V  V37  1  0.75868853  0.00185475  0.74941489  1
  V  V38  1  0.62712652  0.87446646  0.24671840  1
  V  V39  1  0.86832994  0.49929099  0.36992855  1
  V  V40  1  0.37336578  0.12419838  0.24912425  1
  V  V41  1  0.25114864  0.62511634  0.37351696  1
  V  V42  1  0.25052959  0.49728649  0.76315734  1
  V  V43  1  0.37064882  0.86985295  -0.00050293  1
  V  V44  1  0.12804922  0.75652076  0.36428966  1
  V  V45  1  0.87117522  0.25372013  0.12289522  1
  V  V46  1  0.24711256  0.64158071  0.87961187  1
  V  V47  1  0.37726102  0.24576306  0.62318094  1
  V  V48  1  -0.00115061  0.25342845  0.24765035  1
  V  V49  1  0.24811278  0.12391919  0.37541175  1
  V  V50  1  0.37774581  0.12398807  0.74832131  1
  V  V51  1  0.76186371  0.75476126  0.00620798  1
  V  V52  1  0.50447186  0.49680232  0.49507765  1
  V  V53  1  0.62057536  0.37937853  0.25510933  1
  V  V54  1  0.37493422  0.00030120  0.87629277  1
  V  V55  1  0.62871285  -0.00192420  0.12413540  1
  V  V56  1  0.75054712  0.25260413  -0.00278767  1
  V  V57  1  0.50265103  0.25284002  0.74664619  1
  V  V58  1  0.87821556  0.00374878  0.88052004  1
  V  V59  1  0.50453316  0.25292520  0.26809808  1
  V  V60  1  0.37472150  0.74754054  0.62714110  1
  V  V61  1  -0.00207910  0.37456744  0.37509522  1
  V  V62  1  -0.00368023  0.11601220  0.62578592  1
  V  V63  1  0.50082145  0.62385760  0.62436769  1
  V  V64  1  0.76446084  0.49932746  0.75556046  1
  V  V65  1  0.12922177  0.64577468  0.00376829  1
  V  V66  1  0.37561242  0.87323480  0.50218694  1
  V  V67  1  0.11906059  0.86218816  0.75798917  1
  V  V68  1  0.37408478  -0.00222641  0.37546100  1
  V  V69  1  0.23968845  0.87312326  0.12806248  1
  V  V70  1  0.37470679  0.49657184  0.37006202  1
  V  V71  1  -0.00337000  0.86264414  0.88046669  1
  V  V72  1  0.37419806  0.61696590  0.75528285  1
  V  V73  1  0.61913167  0.00853896  0.62586794  1
  V  V74  1  0.37976120  0.37446714  0.49471830  1
  V  V75  1  0.75382173  0.87280472  0.62522898  1
  V  V76  1  0.12548195  0.39507723  0.24913520  1
  V  V77  1  0.87365091  0.24482579  0.62941903  1
  V  V78  1  0.12173517  -0.00396893  0.62610238  1
  V  V79  1  0.24740855  0.24796805  0.00857641  1
  V  V80  1  0.87517629  0.00111174  0.38596256  1
  V  V81  1  0.00608637  0.12806761  0.11800229  1
  V  V82  1  0.49956925  -0.00037489  -0.00102564  1
  V  V83  1  0.00504995  0.62644358  0.12745033  1
  V  V84  1  0.62506789  0.12680931  -0.00217765  1
  Zn  Zn85  1  0.75166813  -0.00106316  0.25115072  1
  Zn  Zn86  1  0.76814032  0.87234114  0.12336340  1
  Zn  Zn87  1  -0.00778896  0.64246014  0.64424472  1
  Zn  Zn88  1  0.24191720  -0.00858766  0.25333201  1
  Zn  Zn89  1  0.50198276  0.74770115  0.24844075  1
  Zn  Zn90  1  0.49639864  0.00531492  0.50928050  1
  Zn  Zn91  1  0.74924506  0.62470758  0.37179907  1
  Zn  Zn92  1  0.37483432  0.25327560  0.12541619  1
  Zn  Zn93  1  0.49900226  0.87417256  0.87525897  1
  Zn  Zn94  1  0.02901915  0.50055723  0.52581680  1
  Zn  Zn95  1  0.74024124  0.38087268  0.11962371  1
  Zn  Zn96  1  0.37192693  0.37641150  -0.00092644  1
  Zn  Zn97  1  0.12355619  -0.00094427  0.12687523  1
  Zn  Zn98  1  -0.00444136  0.37874819  0.87375582  1
  Zn  Zn99  1  0.25020317  0.74889723  0.49875777  1
  Zn  Zn100  1  0.00264459  0.76162556  0.24055341  1
  Zn  Zn101  1  0.12709275  0.62267160  0.50549560  1
  Zn  Zn102  1  0.24722836  0.00007120  0.75449068  1
  Zn  Zn103  1  0.60770019  0.13253385  0.49531714  1
  Zn  Zn104  1  0.62338911  0.87776566  0.75048086  1
  Zn  Zn105  1  0.88768023  0.87649808  0.50749648  1
  Zn  Zn106  1  0.74082650  0.12363197  0.37352729  1
  Zn  Zn107  1  0.18444625  0.18698141  0.19089144  1
  Zn  Zn108  1  0.18991520  0.18849586  0.68993163  1
  Zn  Zn109  1  0.18960037  0.68774439  0.18513814  1
  Zn  Zn110  1  0.17685798  0.68142172  0.68513143  1
  Zn  Zn111  1  0.68550191  0.19159583  0.18912795  1
  Zn  Zn112  1  0.68617928  0.18708887  0.68772545  1
  Zn  Zn113  1  0.68693072  0.68749170  0.18639055  1
  Zn  Zn114  1  0.80593410  0.68996437  0.68719516  1
  Zn  Zn115  1  0.31268280  0.31185924  0.30924354  1
  Zn  Zn116  1  0.31214069  0.30969083  0.81338703  1
  Zn  Zn117  1  0.31607697  0.80888161  0.30698625  1
  Zn  Zn118  1  0.31374785  0.81250520  0.80930854  1
  Zn  Zn119  1  0.80626777  0.31485942  0.30908033  1
  Zn  Zn120  1  0.81443968  0.31545015  0.81197709  1
  Zn  Zn121  1  0.81389354  0.81829347  0.31551435  1
  Zn  Zn122  1  0.80524738  0.82247113  0.82476838  1
  Zn  Zn123  1  0.19027270  0.43896801  0.43108087  1
  Zn  Zn124  1  0.18970978  0.42934080  0.93561077  1
  Zn  Zn125  1  0.18738796  0.93782609  0.44154978  1
  Zn  Zn126  1  0.18548104  0.93219432  0.94207729  1
  Zn  Zn127  1  0.68857289  0.43378792  0.43522600  1
  Zn  Zn128  1  0.68295933  0.43956849  0.93684711  1
  Zn  Zn129  1  0.68959091  0.94077849  0.44092079  1
  Zn  Zn130  1  0.68736351  0.93543148  0.93736774  1
  Zn  Zn131  1  0.31118428  0.05943849  0.06314091  1
  Zn  Zn132  1  0.31048882  0.05991566  0.56319492  1
  Zn  Zn133  1  0.31304588  0.56461218  0.05681481  1
  Zn  Zn134  1  0.30916112  0.56056269  0.56090540  1
  Zn  Zn135  1  0.81476945  0.06296053  0.06088402  1
  Zn  Zn136  1  0.81021413  0.06288766  0.56581163  1
  Zn  Zn137  1  0.81668329  0.57057596  0.06152841  1
  Zn  Zn138  1  0.84841644  0.54707373  0.57758470  1
  Zn  Zn139  1  0.43875773  0.43531329  0.18518332  1
  Zn  Zn140  1  0.43692474  0.43612174  0.68362739  1
  Zn  Zn141  1  0.43900614  0.93806011  0.18760866  1
  Zn  Zn142  1  0.43682235  0.93520845  0.69216222  1
  Zn  Zn143  1  0.93699063  0.44228118  0.18230496  1
  Zn  Zn144  1  0.94161085  0.43582360  0.68974128  1
  Zn  Zn145  1  0.93960267  0.94223174  0.19122529  1
  Zn  Zn146  1  0.93611075  0.82361935  0.68883696  1
  Zn  Zn147  1  0.05990436  0.06171841  0.30778452  1
  Zn  Zn148  1  0.06276772  0.06173697  0.80954239  1
  Zn  Zn149  1  0.04881882  0.57374437  0.33914834  1
  Zn  Zn150  1  0.06677457  0.55966049  0.81715961  1
  Zn  Zn151  1  0.56435060  0.06231831  0.31481385  1
  Zn  Zn152  1  0.56300695  0.06533870  0.80993822  1
  Zn  Zn153  1  0.56162859  0.56077935  0.31258175  1
  Zn  Zn154  1  0.56723288  0.56314632  0.81374447  1
  Zn  Zn155  1  0.43721191  0.18152257  0.44010042  1
  Zn  Zn156  1  0.43459228  0.19085949  0.93797069  1
  Zn  Zn157  1  0.43841927  0.68710381  0.43763748  1
  Zn  Zn158  1  0.43424961  0.68395321  0.93680945  1
  Zn  Zn159  1  0.93379035  0.18734020  0.43941773  1
  Zn  Zn160  1  0.93561374  0.18928370  0.93759199  1
  Zn  Zn161  1  0.94512248  0.68655561  0.43744370  1
  Zn  Zn162  1  0.93696150  0.68556942  0.82165313  1
  Zn  Zn163  1  0.06451426  0.31714116  0.06428386  1
  Zn  Zn164  1  0.06081409  0.31079460  0.56277638  1
  Zn  Zn165  1  -0.05716506  0.80926478  0.05823496  1
  Zn  Zn166  1  0.06633111  0.80603449  0.55141386  1
  Zn  Zn167  1  0.56379148  0.31694970  0.06398404  1
  Zn  Zn168  1  0.56186200  0.31561153  0.56427558  1
  Zn  Zn169  1  0.55938316  0.80929852  0.06138511  1
  Zn  Zn170  1  0.56795564  0.81549879  0.56565300  1
  O  O171  1  0.10814380  0.13380652  0.12365652  1
  O  O172  1  0.12188917  0.12003293  0.62054798  1
  O  O173  1  0.12527234  0.62738877  0.11236503  1
  O  O174  1  0.10815991  0.62922451  0.61843521  1
  O  O175  1  0.61984046  0.11944662  0.11980601  1
  O  O176  1  0.62889371  0.11134433  0.62253817  1
  O  O177  1  0.61438944  0.62938961  0.11679589  1
  O  O178  1  0.61719285  0.61445595  0.61391045  1
  O  O179  1  0.36874987  0.38121113  0.38561451  1
  O  O180  1  0.38730734  0.36953887  0.87782903  1
  O  O181  1  0.38329421  0.87579649  0.37944412  1
  O  O182  1  0.37361338  0.88114952  0.88187882  1
  O  O183  1  0.87851718  0.37426046  0.38032365  1
  O  O184  1  0.87916350  0.36580414  0.89132435  1
  O  O185  1  0.88382268  0.88754668  0.37684284  1
  O  O186  1  0.88985898  0.88823268  0.87176339  1
  O  O187  1  0.25593856  0.00599681  0.37419652  1
  O  O188  1  0.25413056  0.00820986  0.87750585  1
  O  O189  1  0.26729525  0.50831074  0.37543957  1
  O  O190  1  0.25366543  0.49704118  0.86519578  1
  O  O191  1  0.76022099  0.00121320  0.37188733  1
  O  O192  1  0.75316359  0.00776960  0.87322431  1
  O  O193  1  0.75582600  0.49864132  0.36249467  1
  O  O194  1  0.73937513  0.51373487  0.86869296  1
  O  O195  1  0.25315443  0.49067057  0.12460964  1
  O  O196  1  0.25734711  0.48797436  0.63658358  1
  O  O197  1  0.25052328  0.98512273  0.12459443  1
  O  O198  1  0.24357862  0.98735105  0.62901377  1
  O  O199  1  0.75077474  0.50301626  0.13352716  1
  O  O200  1  0.74952478  0.49228174  0.63411461  1
  O  O201  1  0.73831750  0.99837126  0.12321342  1
  O  O202  1  0.74257511  0.99720880  0.63350412  1
  O  O203  1  0.00579519  0.37031223  0.25175984  1
  O  O204  1  0.00854862  0.36517508  0.75051816  1
  O  O205  1  -0.00148150  0.87605033  0.26625430  1
  O  O206  1  0.01138080  0.87738577  0.76411915  1
  O  O207  1  0.50586938  0.36193022  0.24761395  1
  O  O208  1  0.49464086  0.36601466  0.75594800  1
  O  O209  1  0.51060627  0.87317069  0.25780650  1
  O  O210  1  0.50058308  0.86237156  0.75492852  1
  O  O211  1  0.49337562  0.13416717  0.24570159  1
  O  O212  1  0.48526648  0.13523780  0.75529681  1
  O  O213  1  0.49343440  0.62425663  0.24147209  1
  O  O214  1  0.49203744  0.62690206  0.74697594  1
  O  O215  1  0.98700211  0.13468470  0.24276145  1
  O  O216  1  1.00609308  0.13802604  0.74101722  1
  O  O217  1  0.99222926  0.62336545  0.24437944  1
  O  O218  1  0.99791058  0.62034633  0.75816691  1
  O  O219  1  0.36341564  0.25323193  0.00365906  1
  O  O220  1  0.37007636  0.25596249  0.50564503  1
  O  O221  1  0.38023026  0.75839442  0.00707622  1
  O  O222  1  0.37644984  0.75614143  0.50942572  1
  O  O223  1  0.86843059  0.25693235  0.00716353  1
  O  O224  1  0.86735034  0.25859046  0.50724327  1
  O  O225  1  0.86002932  0.74769265  -0.00165461  1
  O  O226  1  0.86290818  0.75391040  0.48180674  1
  O  O227  1  0.13044537  0.24448672  0.49471541  1
  O  O228  1  0.13227060  0.25531684  0.99139782  1
  O  O229  1  0.13276427  0.74533015  0.47987022  1
  O  O230  1  0.12576833  0.74026476  0.99877084  1
  O  O231  1  0.63805404  0.25029225  0.50815522  1
  O  O232  1  0.63029211  0.24713258  0.99164449  1
  O  O233  1  0.62938325  0.74356572  0.49427059  1
  O  O234  1  0.62499711  0.73895553  0.99377748  1
  O  O235  1  0.49894927  0.23792340  0.12569768  1
  O  O236  1  0.48653465  0.25771399  0.63223584  1
  O  O237  1  0.49052516  0.73726746  0.12410462  1
  O  O238  1  0.49759898  0.74407312  0.63305325  1
  O  O239  1  0.98818287  0.24780986  0.12552102  1
  O  O240  1  0.99252290  0.24345058  0.63137388  1
  O  O241  1  1.00082698  0.73293835  0.12449011  1
  O  O242  1  0.99596432  0.75891153  0.62114238  1
  O  O243  1  0.00077471  0.25941663  0.37072265  1
  O  O244  1  0.00720594  0.24947635  0.86778304  1
  O  O245  1  0.01190125  0.76226222  0.36817498  1
  O  O246  1  -0.00613998  0.76482949  0.88669562  1
  O  O247  1  0.49478877  0.25026049  0.36567229  1
  O  O248  1  0.50505253  0.25627845  0.86769242  1
  O  O249  1  0.51005685  0.76049318  0.37653364  1
  O  O250  1  0.50530144  0.74745360  0.86978338  1
  O  O251  1  0.23966294  0.13067215  0.49755246  1
  O  O252  1  0.25385998  0.13141326  0.99039052  1
  O  O253  1  0.25618885  0.62955129  0.48752839  1
  O  O254  1  0.24341241  0.62445625  0.98919592  1
  O  O255  1  0.75242166  0.14250455  0.50232389  1
  O  O256  1  0.74381106  0.13224405  0.99050052  1
  O  O257  1  0.73755629  0.63262094  0.49489570  1
  O  O258  1  0.74208352  0.63122221  0.99393023  1
  O  O259  1  0.25010449  0.36790347  0.01435146  1
  O  O260  1  0.25664348  0.36908020  0.50577978  1
  O  O261  1  0.26328205  0.87766515  0.01010069  1
  O  O262  1  0.25670070  0.87205903  0.51111675  1
  O  O263  1  0.75532565  0.37188472  -0.00047160  1
  O  O264  1  0.75367079  0.36340976  0.50882251  1
  O  O265  1  0.74531415  0.85886584  0.00051330  1
  O  O266  1  0.75110030  0.86611718  0.50785533  1
  O  O267  1  0.11669654  0.49175354  0.26483231  1
  O  O268  1  0.13411896  0.48307915  0.75553926  1
  O  O269  1  0.13255216  1.01673615  0.23896304  1
  O  O270  1  0.12717986  0.99502523  0.73863068  1
  O  O271  1  0.62923845  0.49056808  0.25176346  1
  O  O272  1  0.63356923  0.50577026  0.73758241  1
  O  O273  1  0.62597633  0.99261088  0.24045993  1
  O  O274  1  0.63249373  1.00106856  0.74250339  1
  O  O275  1  0.37549604  0.00914167  0.25682932  1
  O  O276  1  0.37228780  0.00790700  0.75672578  1
  O  O277  1  0.38542212  0.50582707  0.25991406  1
  O  O278  1  0.36958188  0.51104781  0.74502350  1
  O  O279  1  0.87292496  0.01209174  0.25862208  1
  O  O280  1  0.85942973  0.00473102  0.76457107  1
  O  O281  1  0.86363832  0.50273507  0.25313885  1
  O  O282  1  0.86285403  0.48594380  0.76021731  1
  O  O283  1  0.11737982  0.36894034  0.36892378  1
  O  O284  1  0.12444427  0.36107740  0.86639316  1
  O  O285  1  0.11931623  0.87353851  0.37462443  1
  O  O286  1  0.11421406  0.88171574  0.86524512  1
  O  O287  1  0.62902692  0.37346343  0.35683416  1
  O  O288  1  0.61602084  0.36260554  0.87718611  1
  O  O289  1  0.61954635  0.87160797  0.36991275  1
  O  O290  1  0.62330069  0.86052070  0.87415994  1
  O  O291  1  0.38331095  0.12357183  0.13321474  1
  O  O292  1  0.36422391  0.13473335  0.63498140  1
  O  O293  1  0.37920802  0.62950681  0.12878153  1
  O  O294  1  0.37965881  0.62885595  0.63200378  1
  O  O295  1  0.87959032  0.13390674  0.13097008  1
  O  O296  1  0.88207190  0.13610530  0.62048648  1
  O  O297  1  0.88636952  0.62143289  0.13567725  1
  O  O298  1  0.87583015  0.64667188  0.61192405  1
  O  O299  1  0.24911902  0.24800484  0.11567536  1
  O  O300  1  0.26027689  0.25950012  0.62277732  1
  O  O301  1  0.26464550  0.75928834  0.12691222  1
  O  O302  1  0.25405642  0.75990211  0.62884162  1
  O  O303  1  0.75953304  0.25011696  0.11867730  1
  O  O304  1  0.75579779  0.25515160  0.62279669  1
  O  O305  1  0.74505263  0.75017704  0.10971466  1
  O  O306  1  0.74431879  0.76066827  0.61472055  1
  O  O307  1  0.24509730  0.24368664  0.38033833  1
  O  O308  1  0.24419698  0.24485778  0.88560850  1
  O  O309  1  0.24945638  0.74400461  0.37343208  1
  O  O310  1  0.24977326  0.73959592  0.87259786  1
  O  O311  1  0.75381964  0.25033198  0.39048552  1
  O  O312  1  0.74191919  0.24525158  0.87484001  1
  O  O313  1  0.73737542  0.75232401  0.38096119  1
  O  O314  1  0.74125338  0.74094208  0.88462626  1
  O  O315  1  -0.00663073  0.11856909  0.00786745  1
  O  O316  1  0.01237238  0.13434451  0.50924069  1
  O  O317  1  0.02052865  0.61247488  0.00578605  1
  O  O318  1  0.01697061  0.60313428  0.45491223  1
  O  O319  1  0.50400006  0.12147653  0.00685598  1
  O  O320  1  0.49489276  0.11923022  0.50874598  1
  O  O321  1  0.50502647  0.61792834  0.00427707  1
  O  O322  1  0.50813519  0.61805290  0.50428567  1
  O  O323  1  0.49159132  0.38349338  0.50274038  1
  O  O324  1  0.49916588  0.38255758  0.99268766  1
  O  O325  1  0.49479326  0.87806013  0.49425920  1
  O  O326  1  0.49021765  0.88147831  0.99800191  1
  O  O327  1  0.99172017  0.37611746  0.49233734  1
  O  O328  1  0.99311823  0.38631355  1.00431898  1
  O  O329  1  1.00076554  0.87449351  0.48018527  1
  O  O330  1  1.00013824  0.88532234  0.98606430  1
  O  O331  1  0.49134897  0.50516535  0.38818280  1
  O  O332  1  0.50753810  0.48990710  0.88030813  1
  O  O333  1  0.49412229  0.98707580  0.37514836  1
  O  O334  1  0.49431066  0.99968103  0.88009952  1
  O  O335  1  0.98067585  0.47998711  0.36296491  1
  O  O336  1  1.00718244  0.49478944  0.89622296  1
  O  O337  1  0.99359176  0.99349632  0.37311856  1
  O  O338  1  0.99351172  1.00484910  0.88132910  1
  O  O339  1  -0.00085269  0.01194710  0.11599281  1
  O  O340  1  0.00742738  0.01480459  0.62822204  1
  O  O341  1  -0.00237782  0.50993138  0.11125608  1
  O  O342  1  -0.03961932  0.51134216  0.61140955  1
  O  O343  1  0.50983302  0.01106519  0.12214749  1
  O  O344  1  0.51585735  -0.00752130  0.63114326  1
  O  O345  1  0.49611168  0.51022064  0.11594315  1
  O  O346  1  0.50899008  0.50223719  0.61602400  1
  O  O347  1  0.24157268  0.37224072  0.23873493  1
  O  O348  1  0.24666362  0.37880539  0.74396393  1
  O  O349  1  0.26023904  0.87601439  0.23276734  1
  O  O350  1  0.23915719  0.87782809  0.74674940  1
  O  O351  1  0.73965235  0.38328602  0.24480356  1
  O  O352  1  0.74804240  0.37913808  0.74103522  1
  O  O353  1  0.73773784  0.87510095  0.24545494  1
  O  O354  1  0.74515423  0.88548894  0.74583784  1
  O  O355  1  0.26388678  0.13003060  0.25431856  1
  O  O356  1  0.26043956  0.12707227  0.76296917  1
  O  O357  1  0.26644466  0.62720693  0.25296512  1
  O  O358  1  0.25190696  0.61772730  0.76035617  1
  O  O359  1  0.76130439  0.12792800  0.25030724  1
  O  O360  1  0.74277055  0.11952921  0.76244178  1
  O  O361  1  0.75544988  0.61925930  0.25035013  1
  O  O362  1  0.75355736  0.61755481  0.76453884  1
  O  O363  1  0.36793880  0.11963897  0.36786056  1
  O  O364  1  0.36804274  0.12061971  0.87016239  1
  O  O365  1  0.37233263  0.61988008  0.36654227  1
  O  O366  1  0.36005640  0.62547211  0.86837666  1
  O  O367  1  0.87393478  0.11961753  0.36787365  1
  O  O368  1  0.86243062  0.12179541  0.87750749  1
  O  O369  1  0.87162737  0.61252278  0.36552622  1
  O  O370  1  0.85832742  0.62520147  0.88623788  1
  O  O371  1  0.13799484  0.37379113  0.13564392  1
  O  O372  1  0.13501881  0.36655695  0.63282351  1
  O  O373  1  0.14229342  0.87136410  0.12194639  1
  O  O374  1  0.12967646  0.88012114  0.63307833  1
  O  O375  1  0.62665175  0.36804095  0.14262092  1
  O  O376  1  0.63563920  0.38695802  0.61868806  1
  O  O377  1  0.62059617  0.88244222  0.13184626  1
  O  O378  1  0.63626888  0.88465910  0.62938814  1
  O  O379  1  0.11609756  0.25380669  0.25847537  1
  O  O380  1  0.12028219  0.25752797  0.75543150  1
  O  O381  1  0.12641605  0.74853744  0.25965335  1
  O  O382  1  0.12867392  0.76458974  0.75330958  1
  O  O383  1  0.61010331  0.25395061  0.25092063  1
  O  O384  1  0.61040255  0.24458947  0.75478049  1
  O  O385  1  0.62275440  0.75635019  0.25822071  1
  O  O386  1  0.61054691  0.74624666  0.75969639  1
  O  O387  1  0.38737834  0.24396825  0.24758123  1
  O  O388  1  0.38062092  0.24447916  0.74282400  1
  O  O389  1  0.38318646  0.73969057  0.24088860  1
  O  O390  1  0.38364513  0.73845384  0.74701810  1
  O  O391  1  0.87757380  0.24863998  0.24157967  1
  O  O392  1  0.88474277  0.25476454  0.74114844  1
  O  O393  1  0.87522579  0.73777547  0.25851710  1
  O  O394  1  0.86917836  0.75678037  0.75850766  1
  O  O395  1  0.38354476  0.49226365  0.49560826  1
  O  O396  1  0.38851078  0.49859094  0.99889452  1
  O  O397  1  0.37405683  0.99063113  0.49454065  1
  O  O398  1  0.38147102  0.99383955  0.99501163  1
  O  O399  1  0.85765301  0.48042678  0.48459756  1
  O  O400  1  0.87631579  0.49093033  1.00286839  1
  O  O401  1  0.87247209  1.00285232  0.48926342  1
  O  O402  1  0.88201272  1.00498589  0.98749900  1
  O  O403  1  0.11210877  -0.00094510  0.00378097  1
  O  O404  1  0.12988357  0.00892118  0.51513180  1
  O  O405  1  0.12210090  0.49210170  0.00480545  1
  O  O406  1  0.13670816  0.50368051  0.50184610  1
  O  O407  1  0.61937138  0.00474073  0.00493684  1
  O  O408  1  0.62442743  -0.00130748  0.51735095  1
  O  O409  1  0.61537483  0.51284373  -0.00288312  1
  O  O410  1  0.62173242  0.50594544  0.50223124  1
  O  O411  1  0.36042363  0.37263714  0.12606010  1
  O  O412  1  0.36786168  0.36937476  0.61328668  1
  O  O413  1  0.37834414  0.86644148  0.11752033  1
  O  O414  1  0.36710068  0.86936336  0.62470791  1
  O  O415  1  0.87014285  0.36825535  0.11581223  1
  O  O416  1  0.86729032  0.36349119  0.61798498  1
  O  O417  1  0.88069508  0.87457035  0.12574673  1
  O  O418  1  0.85960381  0.88393881  0.62272183  1
  O  O419  1  0.12731864  0.12956354  0.38409850  1
  O  O420  1  0.13418370  0.13690005  0.86801659  1
  O  O421  1  0.14658798  0.63277193  0.36417937  1
  O  O422  1  0.14119681  0.61880624  0.88795192  1
  O  O423  1  0.62811420  0.11976542  0.38323941  1
  O  O424  1  0.62863803  0.13630073  0.88033993  1
  O  O425  1  0.62332677  0.63465648  0.38098227  1
  O  O426  1  0.63047796  0.63433113  0.88240885  1
