# generated using pymatgen
data_V85Zn86O256
_symmetry_space_group_name_H-M   'P 1'
_cell_length_a   16.96862468
_cell_length_b   16.96586419
_cell_length_c   16.95059489
_cell_angle_alpha   90.03085284
_cell_angle_beta   89.88539628
_cell_angle_gamma   89.91064071
_symmetry_Int_Tables_number   1
_chemical_formula_structural   V85Zn86O256
_chemical_formula_sum   'V85 Zn86 O256'
_cell_volume   4879.84596749
_cell_formula_units_Z   1
loop_
 _symmetry_equiv_pos_site_id
 _symmetry_equiv_pos_as_xyz
  1  'x, y, z'
loop_
 _atom_site_type_symbol
 _atom_site_label
 _atom_site_symmetry_multiplicity
 _atom_site_fract_x
 _atom_site_fract_y
 _atom_site_fract_z
 _atom_site_occupancy
  V  V0  1  0.12630709  0.12530817  0.50300814  1
  V  V1  1  0.37604520  0.24954454  0.62807957  1
  V  V2  1  0.50793735  -0.00300899  0.50297780  1
  V  V3  1  0.37070405  0.62709951  0.74892903  1
  V  V4  1  0.25086303  0.74811967  0.49162563  1
  V  V5  1  0.75242383  0.74677449  -0.00517371  1
  V  V6  1  0.12860752  0.62514202  0.49461804  1
  V  V7  1  0.38031318  0.87380941  0.00177698  1
  V  V8  1  0.62509560  0.12518239  0.50320470  1
  V  V9  1  0.50541890  0.25316693  0.74732036  1
  V  V10  1  0.75052342  0.49865443  0.24998721  1
  V  V11  1  -0.00013292  0.50078409  0.49758831  1
  V  V12  1  0.87792225  0.24356686  0.12711769  1
  V  V13  1  0.62512875  0.63116793  0.49789975  1
  V  V14  1  -0.00428262  0.75847633  0.74635775  1
  V  V15  1  0.74567909  0.00338459  0.74455973  1
  V  V16  1  -0.00470825  0.12884601  0.62728689  1
  V  V17  1  0.50727078  0.86421670  0.37463427  1
  V  V18  1  0.37914425  0.25374691  0.12630847  1
  V  V19  1  0.11809398  0.50194389  0.12127810  1
  V  V20  1  0.37426114  0.87509781  0.49783888  1
  V  V21  1  0.00000733  -0.00304441  0.50211584  1
  V  V22  1  0.62512221  0.87717060  0.74095363  1
  V  V23  1  -0.00277183  0.24022557  0.25299347  1
  V  V24  1  0.62303293  0.50314140  0.12460266  1
  V  V25  1  0.38175100  0.00005336  0.37594230  1
  V  V26  1  0.74900803  0.63258883  0.37226804  1
  V  V27  1  0.75258763  0.60917981  0.87225518  1
  V  V28  1  0.75770619  0.74901100  0.50348379  1
  V  V29  1  -0.00256876  0.74752767  0.24611534  1
  V  V30  1  0.37446132  0.50272601  0.87418560  1
  V  V31  1  0.50312510  0.25366049  0.26714106  1
  V  V32  1  0.38608332  0.73865035  0.11781173  1
  V  V33  1  0.63190817  0.49511450  0.63688747  1
  V  V34  1  0.11801773  0.37572277  0.75703632  1
  V  V35  1  0.88513559  0.37245933  -0.01405144  1
  V  V36  1  0.87409280  0.87427658  -0.00505248  1
  V  V37  1  0.50126262  0.62393089  0.62414076  1
  V  V38  1  0.00270933  0.37357054  0.37021170  1
  V  V39  1  0.87467085  0.50060681  0.37356396  1
  V  V40  1  0.12397765  0.50065473  0.62327026  1
  V  V41  1  0.00131177  0.87351928  0.37111295  1
  V  V42  1  0.74270747  0.25536853  0.49736221  1
  V  V43  1  0.87237611  0.37637729  0.50093228  1
  V  V44  1  0.50122251  0.11892484  0.63076946  1
  V  V45  1  0.00315632  0.00537864  0.01584245  1
  V  V46  1  0.50269838  0.49347219  0.49311312  1
  V  V47  1  0.75058774  0.37428162  0.12296242  1
  V  V48  1  0.24912580  0.50447632  0.74962083  1
  V  V49  1  0.20695944  0.80626631  0.05570676  1
  V  V50  1  0.62737466  0.74837487  0.87292567  1
  V  V51  1  0.37628664  0.37869027  0.00091794  1
  V  V52  1  -0.00027362  0.49769295  -0.01966693  1
  V  V53  1  0.24366486  0.87661936  0.63469749  1
  V  V54  1  0.74570249  0.12645021  0.37627008  1
  V  V55  1  0.50536905  0.37738728  0.86976876  1
  V  V56  1  0.74429793  0.24174161  0.00217682  1
  V  V57  1  0.50138758  0.87537738  0.87463299  1
  V  V58  1  0.74890666  0.87402841  0.12275422  1
  V  V59  1  0.50633935  0.12481162  0.12174490  1
  V  V60  1  0.12821093  0.75318889  0.86669548  1
  V  V61  1  0.24460895  0.50397967  0.25375020  1
  V  V62  1  -0.00678003  0.63012067  0.62364820  1
  V  V63  1  0.12657589  0.24966960  0.36780220  1
  V  V64  1  0.62307300  0.24346519  0.87838432  1
  V  V65  1  0.24537696  0.62890748  0.89158684  1
  V  V66  1  0.50636139  0.74156162  0.24550878  1
  V  V67  1  0.37252291  0.12738236  0.25118587  1
  V  V68  1  0.62546612  0.86821194  0.25199238  1
  V  V69  1  0.25315668  0.37881552  0.62146363  1
  V  V70  1  0.87061112  0.25199466  0.62612168  1
  V  V71  1  0.87442167  0.00345734  0.87423882  1
  V  V72  1  0.12759863  0.74728962  0.36475978  1
  V  V73  1  0.24209105  0.37018474  0.13077050  1
  V  V74  1  0.25402665  0.24580499  -0.01499431  1
  V  V75  1  0.12364522  -0.00208418  0.64177412  1
  V  V76  1  0.37316800  0.00900416  0.86348979  1
  V  V77  1  0.75780252  0.87182388  0.62620316  1
  V  V78  1  0.50130847  0.50737737  0.00455018  1
  V  V79  1  0.74860290  -0.00168114  0.25156126  1
  V  V80  1  0.62264355  0.37263450  0.26510079  1
  V  V81  1  0.50015168  0.74920039  0.74715767  1
  V  V82  1  0.25172703  0.12029088  0.37958497  1
  V  V83  1  0.87380010  0.61458076  0.75371615  1
  V  V84  1  0.37260609  0.75034456  0.62154364  1
  Zn  Zn85  1  -0.00263365  0.62126905  0.11621220  1
  Zn  Zn86  1  0.62541538  0.62552839  0.00139041  1
  Zn  Zn87  1  0.87867327  0.87001744  0.50375788  1
  Zn  Zn88  1  0.74833834  0.38031228  0.64316041  1
  Zn  Zn89  1  0.38252608  0.37229731  0.49199476  1
  Zn  Zn90  1  0.86724709  0.13029994  0.75355552  1
  Zn  Zn91  1  0.87699329  0.62152808  0.24462831  1
  Zn  Zn92  1  0.12036234  0.24101278  0.87303527  1
  Zn  Zn93  1  0.25259313  0.25242514  0.49907698  1
  Zn  Zn94  1  0.13565568  0.11150757  -0.00440125  1
  Zn  Zn95  1  0.21945376  0.07423864  0.80440167  1
  Zn  Zn96  1  -0.01355224  0.26153983  0.76095102  1
  Zn  Zn97  1  0.00890296  0.88107978  0.87092961  1
  Zn  Zn98  1  0.87397539  0.11992488  0.25009145  1
  Zn  Zn99  1  0.74108702  0.12028996  0.87892150  1
  Zn  Zn100  1  0.37499415  0.49912920  0.37101755  1
  Zn  Zn101  1  0.50605523  0.00935399  -0.00614067  1
  Zn  Zn102  1  0.20467067  0.94085794  0.19860605  1
  Zn  Zn103  1  0.87469069  0.74347615  0.12196051  1
  Zn  Zn104  1  0.87375672  -0.00155894  0.37826217  1
  Zn  Zn105  1  0.62643516  0.00145975  0.11773091  1
  Zn  Zn106  1  0.37507148  0.62280935  0.25218840  1
  Zn  Zn107  1  0.17461723  0.11190419  0.18794770  1
  Zn  Zn108  1  0.18244128  0.19733436  0.68389657  1
  Zn  Zn109  1  0.18268214  0.67846700  0.18396847  1
  Zn  Zn110  1  0.18364154  0.68975704  0.68442985  1
  Zn  Zn111  1  0.68542939  0.18994950  0.19178740  1
  Zn  Zn112  1  0.68418924  0.19099697  0.68664000  1
  Zn  Zn113  1  0.69010769  0.68601451  0.18421757  1
  Zn  Zn114  1  0.69059012  0.68553721  0.68619375  1
  Zn  Zn115  1  0.31386002  0.31487473  0.31489820  1
  Zn  Zn116  1  0.31814240  0.31775739  0.80531342  1
  Zn  Zn117  1  0.32069016  0.80632642  0.30537999  1
  Zn  Zn118  1  0.31283396  0.81337217  0.81514338  1
  Zn  Zn119  1  0.81088658  0.31250252  0.31387763  1
  Zn  Zn120  1  0.80058073  0.31873603  0.81187668  1
  Zn  Zn121  1  0.81705204  0.81192605  0.31380073  1
  Zn  Zn122  1  0.81605333  0.80989656  0.81058104  1
  Zn  Zn123  1  0.18676183  0.43419333  0.43572501  1
  Zn  Zn124  1  0.18744184  0.43819185  0.93979629  1
  Zn  Zn125  1  0.20949080  0.91455419  0.38979132  1
  Zn  Zn126  1  0.18564117  0.93906033  0.93101962  1
  Zn  Zn127  1  0.68825754  0.44422774  0.44346463  1
  Zn  Zn128  1  0.68750069  0.42870012  0.93590977  1
  Zn  Zn129  1  0.68707284  0.93644577  0.43791314  1
  Zn  Zn130  1  0.68447820  0.93944320  0.93568829  1
  Zn  Zn131  1  0.31854603  0.06340673  0.05456226  1
  Zn  Zn132  1  0.29356371  0.08187767  0.61137665  1
  Zn  Zn133  1  0.31196578  0.55931495  0.06954948  1
  Zn  Zn134  1  0.31451009  0.56343449  0.55852358  1
  Zn  Zn135  1  0.81282620  0.06146812  0.06418054  1
  Zn  Zn136  1  0.81127220  0.06078160  0.56379485  1
  Zn  Zn137  1  0.81839941  0.55831022  0.05818151  1
  Zn  Zn138  1  0.81331655  0.56524343  0.56425368  1
  Zn  Zn139  1  0.43829434  0.43670010  0.19083013  1
  Zn  Zn140  1  0.44042964  0.43895240  0.68475545  1
  Zn  Zn141  1  0.39077195  0.96079513  0.16696083  1
  Zn  Zn142  1  0.43562911  0.93573654  0.68460109  1
  Zn  Zn143  1  0.93740667  0.42983302  0.18577595  1
  Zn  Zn144  1  0.93672278  0.43887286  0.68512682  1
  Zn  Zn145  1  0.93277046  0.93050543  0.18963320  1
  Zn  Zn146  1  0.93392387  0.94070947  0.68839266  1
  Zn  Zn147  1  0.06349140  0.05724752  0.31414375  1
  Zn  Zn148  1  0.04843229  0.08001427  0.82208090  1
  Zn  Zn149  1  0.06567977  0.56131750  0.30753178  1
  Zn  Zn150  1  0.06607760  0.56947074  0.81185008  1
  Zn  Zn151  1  0.56403359  0.06142029  0.31100827  1
  Zn  Zn152  1  0.56112628  0.06195576  0.81056193  1
  Zn  Zn153  1  0.56778418  0.56201816  0.31443362  1
  Zn  Zn154  1  0.56197023  0.56528431  0.81495915  1
  Zn  Zn155  1  0.43755633  0.18736974  0.44511261  1
  Zn  Zn156  1  0.43673260  0.18931586  0.93615744  1
  Zn  Zn157  1  0.43552417  0.67921151  0.43109478  1
  Zn  Zn158  1  0.43695039  0.68744110  0.93514041  1
  Zn  Zn159  1  0.93198720  0.18562954  0.43876570  1
  Zn  Zn160  1  0.93459289  0.18649363  0.93906397  1
  Zn  Zn161  1  0.93698196  0.68669438  0.43403693  1
  Zn  Zn162  1  0.94045296  0.68411744  0.93176332  1
  Zn  Zn163  1  0.09245640  0.26461907  0.09056790  1
  Zn  Zn164  1  0.06131388  0.31245854  0.56186324  1
  Zn  Zn165  1  0.04845930  0.81934500  0.06353305  1
  Zn  Zn166  1  0.06628136  0.81375748  0.56194548  1
  Zn  Zn167  1  0.56267797  0.31454494  0.06602952  1
  Zn  Zn168  1  0.56628938  0.31275800  0.56275427  1
  Zn  Zn169  1  0.56532293  0.81437511  0.06272910  1
  Zn  Zn170  1  0.56716214  0.80997347  0.56151320  1
  O  O171  1  0.12877396  0.15718649  0.10068568  1
  O  O172  1  0.11299721  0.12341200  0.61934745  1
  O  O173  1  0.12058143  0.60649914  0.11873824  1
  O  O174  1  0.11413749  0.62046785  0.61566374  1
  O  O175  1  0.60900503  0.12299649  0.13472386  1
  O  O176  1  0.61628201  0.12828863  0.61239777  1
  O  O177  1  0.63402533  0.60728296  0.12070194  1
  O  O178  1  0.62045239  0.61968571  0.61862628  1
  O  O179  1  0.36546345  0.38625045  0.38165207  1
  O  O180  1  0.38377471  0.38420656  0.88054430  1
  O  O181  1  0.38790400  0.88211038  0.37904691  1
  O  O182  1  0.38518498  0.87535512  0.88129662  1
  O  O183  1  0.87933792  0.38138483  0.38260073  1
  O  O184  1  0.87599804  0.36118121  0.88802263  1
  O  O185  1  0.88796801  0.87543855  0.38071840  1
  O  O186  1  0.87303691  0.88159239  0.88411051  1
  O  O187  1  0.26495234  0.01521683  0.38828701  1
  O  O188  1  0.26670401  -0.00300548  0.87529851  1
  O  O189  1  0.23932734  0.49504834  0.35511189  1
  O  O190  1  0.25423424  0.50858085  0.86950361  1
  O  O191  1  0.75102853  0.00525356  0.36916884  1
  O  O192  1  0.75664245  -0.00166270  0.86471468  1
  O  O193  1  0.75638407  0.50970042  0.37211938  1
  O  O194  1  0.74375607  0.51082468  0.88111276  1
  O  O195  1  0.24012176  0.48711930  0.12624867  1
  O  O196  1  0.24470219  0.49734864  0.62837546  1
  O  O197  1  0.28325772  0.99810019  0.13702293  1
  O  O198  1  0.23406776  0.98662261  0.61348944  1
  O  O199  1  0.74690821  0.49049165  0.12821265  1
  O  O200  1  0.73525813  0.50258996  0.61906556  1
  O  O201  1  0.74954390  0.99261245  0.13333045  1
  O  O202  1  0.75175700  0.99099302  0.63678876  1
  O  O203  1  -0.00685454  0.36407145  0.26624972  1
  O  O204  1  0.01398000  0.37708928  0.74330284  1
  O  O205  1  -0.00235237  0.86134167  0.25731280  1
  O  O206  1  -0.00669448  0.86186892  0.75020637  1
  O  O207  1  0.51063718  0.36616810  0.24715736  1
  O  O208  1  0.49620746  0.36868201  0.75918547  1
  O  O209  1  0.51224641  0.86361757  0.25951173  1
  O  O210  1  0.50716192  0.86938723  0.75305710  1
  O  O211  1  0.49336831  0.13444823  0.24685334  1
  O  O212  1  0.50539850  0.13257255  0.73714183  1
  O  O213  1  0.50859924  0.63897751  0.25463422  1
  O  O214  1  0.49184893  0.63084207  0.74501958  1
  O  O215  1  0.99144866  0.13653978  0.26353073  1
  O  O216  1  0.98991397  0.12646110  0.73432456  1
  O  O217  1  0.99928743  0.63592849  0.24886476  1
  O  O218  1  0.99180279  0.63128440  0.74335201  1
  O  O219  1  0.37194342  0.26130097  0.00243000  1
  O  O220  1  0.37602282  0.25563281  0.51316393  1
  O  O221  1  0.38125097  0.75608161  0.00635182  1
  O  O222  1  0.36772880  0.75105852  0.50278552  1
  O  O223  1  0.86948010  0.25685147  0.00944201  1
  O  O224  1  0.86667219  0.25608957  0.50925383  1
  O  O225  1  0.86993482  0.75674360  -0.00471502  1
  O  O226  1  0.86236198  0.74868918  0.49840177  1
  O  O227  1  0.12140839  0.23812107  0.49300330  1
  O  O228  1  0.15021080  0.26585832  0.98652059  1
  O  O229  1  0.13130336  0.74253591  0.49200772  1
  O  O230  1  0.13502877  0.75922396  0.99974280  1
  O  O231  1  0.63290802  0.24146108  0.50150873  1
  O  O232  1  0.63291854  0.25595113  0.99410688  1
  O  O233  1  0.63556801  0.73742308  0.50280705  1
  O  O234  1  0.63368037  0.74748901  0.99190869  1
  O  O235  1  0.49591017  0.24328353  0.13247345  1
  O  O236  1  0.49808157  0.24623782  0.63077913  1
  O  O237  1  0.49716946  0.75031710  0.13200748  1
  O  O238  1  0.49516022  0.74369504  0.62789230  1
  O  O239  1  0.98919129  0.26015322  0.14203653  1
  O  O240  1  0.98827001  0.24497800  0.62555978  1
  O  O241  1  0.99871936  0.74599797  0.13212154  1
  O  O242  1  1.00642723  0.74338904  0.63611761  1
  O  O243  1  0.00277246  0.25541742  0.37461475  1
  O  O244  1  0.00631190  0.23163965  0.86775465  1
  O  O245  1  0.00575806  0.75373499  0.36784097  1
  O  O246  1  0.00808467  0.75091493  0.86390195  1
  O  O247  1  0.49745157  0.24620814  0.36620484  1
  O  O248  1  0.50157986  0.25710149  0.86766947  1
  O  O249  1  0.49685132  0.75997581  0.36994722  1
  O  O250  1  0.50529626  0.75588732  0.86636231  1
  O  O251  1  0.23963354  0.12928459  0.50208140  1
  O  O252  1  0.26049305  0.14326477  0.99708630  1
  O  O253  1  0.23818073  0.63269603  0.50657375  1
  O  O254  1  0.25475499  0.62045582  0.98996066  1
  O  O255  1  0.74226710  0.12971925  0.49724219  1
  O  O256  1  0.75163660  0.13813597  1.00205810  1
  O  O257  1  0.74556830  0.63118462  0.49472278  1
  O  O258  1  0.75272940  0.63132955  0.98945389  1
  O  O259  1  0.26430962  0.37622123  0.00458083  1
  O  O260  1  0.24787536  0.37602709  0.51303504  1
  O  O261  1  0.26143487  0.87107403  -0.00503945  1
  O  O262  1  0.25845478  0.86474784  0.49485539  1
  O  O263  1  0.75842150  0.36581566  0.00682368  1
  O  O264  1  0.75454015  0.36866411  0.50226365  1
  O  O265  1  0.75535201  0.86649811  0.00036313  1
  O  O266  1  0.74930456  0.86705442  0.50788237  1
  O  O267  1  0.13413054  0.49762029  0.23758844  1
  O  O268  1  0.12898654  0.49454220  0.74291177  1
  O  O269  1  0.13411423  1.02077609  0.23860172  1
  O  O270  1  0.12189316  1.01134714  0.74240300  1
  O  O271  1  0.63011523  0.49268698  0.24245908  1
  O  O272  1  0.61957632  0.50818956  0.73460625  1
  O  O273  1  0.63524091  0.98990741  0.24765462  1
  O  O274  1  0.63305097  0.98839252  0.75594215  1
  O  O275  1  0.38923823  0.01377597  0.26918901  1
  O  O276  1  0.37864688  -0.00683183  0.76413101  1
  O  O277  1  0.35837894  0.50008492  0.24257232  1
  O  O278  1  0.37017555  0.50641682  0.75460270  1
  O  O279  1  0.86125646  -0.00166249  0.25272058  1
  O  O280  1  0.86448823  0.00216092  0.75771731  1
  O  O281  1  0.86784634  0.49638501  0.25697757  1
  O  O282  1  0.88036583  0.51568859  0.74750613  1
  O  O283  1  0.11419623  0.36228403  0.38274848  1
  O  O284  1  0.13354584  0.37832240  0.85690510  1
  O  O285  1  0.10845661  0.85953325  0.38465674  1
  O  O286  1  0.12587537  0.85954060  0.87475411  1
  O  O287  1  0.63349338  0.38222125  0.36353694  1
  O  O288  1  0.60965460  0.36360210  0.88189231  1
  O  O289  1  0.61867709  0.87634042  0.36647115  1
  O  O290  1  0.61782130  0.86742754  0.86386888  1
  O  O291  1  0.38271138  0.13541649  0.13616423  1
  O  O292  1  0.39210123  0.13743276  0.61450063  1
  O  O293  1  0.37664599  0.63514998  0.12663090  1
  O  O294  1  0.38057440  0.63186069  0.62877952  1
  O  O295  1  0.86853319  0.13960719  0.12946041  1
  O  O296  1  0.87770210  0.13546673  0.62376052  1
  O  O297  1  0.87783136  0.62544084  0.12689787  1
  O  O298  1  0.88651781  0.62430726  0.63302018  1
  O  O299  1  0.26264850  0.26608799  0.11078437  1
  O  O300  1  0.25990083  0.26282555  0.62229526  1
  O  O301  1  0.25851920  0.74501700  0.12153030  1
  O  O302  1  0.25005328  0.75736568  0.61182523  1
  O  O303  1  0.75280361  0.25602937  0.12104332  1
  O  O304  1  0.75398236  0.25307936  0.61468429  1
  O  O305  1  0.75003819  0.75390938  0.10928781  1
  O  O306  1  0.74683478  0.75830452  0.61588879  1
  O  O307  1  0.24263142  0.24077048  0.37895223  1
  O  O308  1  0.26157911  0.25615041  0.88331506  1
  O  O309  1  0.24234350  0.74683924  0.38443382  1
  O  O310  1  0.24255909  0.73946580  0.86728933  1
  O  O311  1  0.75434249  0.24225435  0.38861866  1
  O  O312  1  0.73868655  0.24683829  0.88472774  1
  O  O313  1  0.75509405  0.73801747  0.38080265  1
  O  O314  1  0.74693426  0.74555415  0.88219165  1
  O  O315  1  -0.00470404  0.10598418  0.00019822  1
  O  O316  1  0.00120341  0.12058007  0.50979834  1
  O  O317  1  -0.00985233  0.60233529  -0.00267763  1
  O  O318  1  0.00455013  0.62304727  0.50679943  1
  O  O319  1  0.49395674  0.13006830  0.01829305  1
  O  O320  1  0.50876000  0.11621342  0.50488977  1
  O  O321  1  0.50400159  0.61056832  -0.00875936  1
  O  O322  1  0.50939340  0.62149500  0.50542569  1
  O  O323  1  0.50404234  0.39078356  0.50413623  1
  O  O324  1  0.49056138  0.38229961  0.99459520  1
  O  O325  1  0.49945600  0.87829803  0.49501146  1
  O  O326  1  0.49726548  0.87103698  0.98567707  1
  O  O327  1  0.99284410  0.38047645  0.49246295  1
  O  O328  1  0.98587822  0.38035234  1.00029181  1
  O  O329  1  0.99852355  0.88210672  0.49674568  1
  O  O330  1  0.98917274  0.88544994  0.99339010  1
  O  O331  1  0.50658998  0.50170180  0.39104949  1
  O  O332  1  0.49615450  0.49367569  0.88033209  1
  O  O333  1  0.50030105  0.99106788  0.38197020  1
  O  O334  1  0.49438552  0.98859634  0.87204219  1
  O  O335  1  0.99663521  0.49254816  0.37754808  1
  O  O336  1  1.00580169  0.49811979  0.88175526  1
  O  O337  1  0.99959058  0.99047765  0.38302180  1
  O  O338  1  0.98474240  0.99823892  0.87529581  1
  O  O339  1  -0.00625635  -0.00664320  0.11431918  1
  O  O340  1  0.00386289  0.00604007  0.62131832  1
  O  O341  1  0.00791601  0.49399791  0.12373319  1
  O  O342  1  0.00499209  0.50866225  0.61641534  1
  O  O343  1  0.49206651  0.01884112  0.12811351  1
  O  O344  1  0.49530028  0.00753910  0.61661923  1
  O  O345  1  0.51001216  0.49274632  0.11585029  1
  O  O346  1  0.50926793  0.50801887  0.61812964  1
  O  O347  1  0.25291107  0.37929117  0.23382167  1
  O  O348  1  0.24410101  0.38368090  0.73829004  1
  O  O349  1  0.24155832  0.87864719  0.28446041  1
  O  O350  1  0.25374686  0.86913373  0.73338096  1
  O  O351  1  0.74388103  0.37885070  0.24295374  1
  O  O352  1  0.73745572  0.38275517  0.75332909  1
  O  O353  1  0.74530907  0.87839006  0.24704707  1
  O  O354  1  0.74399196  0.87710996  0.74366840  1
  O  O355  1  0.26607194  0.13129761  0.26348302  1
  O  O356  1  0.25969977  0.12448330  0.71562860  1
  O  O357  1  0.25011822  0.60703145  0.24219015  1
  O  O358  1  0.25421267  0.62012105  0.74946045  1
  O  O359  1  0.74690145  0.11700891  0.25935196  1
  O  O360  1  0.74576302  0.11596109  0.75076917  1
  O  O361  1  0.75018546  0.61794395  0.25775323  1
  O  O362  1  0.76583010  0.63172166  0.75584093  1
  O  O363  1  0.37117662  0.12105267  0.37480075  1
  O  O364  1  0.38534002  0.10794988  0.87446588  1
  O  O365  1  0.37646393  0.61277981  0.36659444  1
  O  O366  1  0.36722188  0.62120120  0.86798098  1
  O  O367  1  0.85913678  0.12043457  0.37653916  1
  O  O368  1  0.86458788  0.11530243  0.87445281  1
  O  O369  1  0.86861056  0.61562625  0.37204671  1
  O  O370  1  0.86813028  0.62501531  0.86181402  1
  O  O371  1  0.14005997  0.37241892  0.12006423  1
  O  O372  1  0.13166381  0.38156334  0.63010989  1
  O  O373  1  0.14763936  0.86436737  0.11531424  1
  O  O374  1  0.13081830  0.88567125  0.62382655  1
  O  O375  1  0.63693150  0.38247672  0.12920577  1
  O  O376  1  0.62614148  0.39228302  0.62042973  1
  O  O377  1  0.63219480  0.87725778  0.13439443  1
  O  O378  1  0.63274741  0.87089401  0.63634368  1
  O  O379  1  0.11399880  0.24262947  0.26593638  1
  O  O380  1  0.12363580  0.26715835  0.75056391  1
  O  O381  1  0.12038490  0.74053825  0.26041913  1
  O  O382  1  0.10946076  0.74336079  0.75550651  1
  O  O383  1  0.61619254  0.26084606  0.24983229  1
  O  O384  1  0.61226912  0.24933237  0.75794511  1
  O  O385  1  0.62316697  0.75977436  0.24363306  1
  O  O386  1  0.62048082  0.75498300  0.75367508  1
  O  O387  1  0.38308595  0.24645107  0.24686386  1
  O  O388  1  0.38801145  0.25650884  0.73625295  1
  O  O389  1  0.38831483  0.74688972  0.23794639  1
  O  O390  1  0.38022624  0.74681844  0.74146972  1
  O  O391  1  0.87905557  0.24851573  0.24499191  1
  O  O392  1  0.86948630  0.25109887  0.73774833  1
  O  O393  1  0.88395522  0.74644025  0.24630232  1
  O  O394  1  0.89078963  0.74031822  0.75320922  1
  O  O395  1  0.39468567  0.50210403  0.50445746  1
  O  O396  1  0.38237820  0.49611317  0.99634253  1
  O  O397  1  0.39251296  0.99420127  0.48836354  1
  O  O398  1  0.38585907  0.98930994  0.98818698  1
  O  O399  1  0.88052662  0.49694709  0.49433860  1
  O  O400  1  0.88446451  0.48207215  0.99941157  1
  O  O401  1  0.88771240  0.99860774  0.50140153  1
  O  O402  1  0.87838943  0.99291889  0.99393512  1
  O  O403  1  0.10834790  -0.00448200  -0.00336422  1
  O  O404  1  0.10902397  0.01495447  0.50819946  1
  O  O405  1  0.10631126  0.48683133  0.00546000  1
  O  O406  1  0.11975676  0.50766948  0.50203814  1
  O  O407  1  0.61765954  -0.00500090  0.00422556  1
  O  O408  1  0.61514593  0.00556331  0.49917024  1
  O  O409  1  0.61716677  0.49609840  0.00676746  1
  O  O410  1  0.61693437  0.51144176  0.50800008  1
  O  O411  1  0.37140559  0.37302609  0.11647559  1
  O  O412  1  0.36810816  0.37202793  0.62161272  1
  O  O413  1  0.38459099  0.86213608  0.10740678  1
  O  O414  1  0.36751436  0.86915101  0.61556943  1
  O  O415  1  0.86250558  0.36494546  0.12176522  1
  O  O416  1  0.87113385  0.37014040  0.61857826  1
  O  O417  1  0.86705458  0.87010391  0.11088285  1
  O  O418  1  0.86185715  0.87564007  0.62449069  1
  O  O419  1  0.13417841  0.12822945  0.38446085  1
  O  O420  1  0.13904048  0.12218610  0.87605442  1
  O  O421  1  0.11727467  0.63159784  0.38727646  1
  O  O422  1  0.13392813  0.63739263  0.87523174  1
  O  O423  1  0.63628288  0.11917006  0.38633925  1
  O  O424  1  0.61973460  0.13855634  0.87529726  1
  O  O425  1  0.63761766  0.62017252  0.38566307  1
  O  O426  1  0.63483641  0.63229363  0.87430992  1
