# generated using pymatgen
data_V85Zn86O256
_symmetry_space_group_name_H-M   'P 1'
_cell_length_a   16.94661780
_cell_length_b   16.95054408
_cell_length_c   16.92865974
_cell_angle_alpha   89.98337240
_cell_angle_beta   90.06678754
_cell_angle_gamma   90.05467384
_symmetry_Int_Tables_number   1
_chemical_formula_structural   V85Zn86O256
_chemical_formula_sum   'V85 Zn86 O256'
_cell_volume   4862.82614244
_cell_formula_units_Z   1
loop_
 _symmetry_equiv_pos_site_id
 _symmetry_equiv_pos_as_xyz
  1  'x, y, z'
loop_
 _atom_site_type_symbol
 _atom_site_label
 _atom_site_symmetry_multiplicity
 _atom_site_fract_x
 _atom_site_fract_y
 _atom_site_fract_z
 _atom_site_occupancy
  V  V0  1  0.00866244  0.12922332  0.11877433  1
  V  V1  1  0.87606335  0.00229815  0.37371681  1
  V  V2  1  0.49966926  -0.00003456  0.50259917  1
  V  V3  1  0.87289839  0.38415647  0.49820127  1
  V  V4  1  0.75055868  -0.00067970  0.24943353  1
  V  V5  1  0.00443560  0.50255556  0.50404504  1
  V  V6  1  0.62493833  0.50183251  0.62904876  1
  V  V7  1  0.37261351  0.87036023  0.49908862  1
  V  V8  1  0.24933883  0.37688604  0.12625041  1
  V  V9  1  0.00265655  0.25036857  0.75257279  1
  V  V10  1  0.37614867  -0.00060980  0.87298297  1
  V  V11  1  -0.00243530  0.38238134  0.37496157  1
  V  V12  1  0.62606754  0.87515437  0.75029479  1
  V  V13  1  0.13314858  0.62735613  0.50573995  1
  V  V14  1  0.24760936  0.61534954  0.37193229  1
  V  V15  1  0.00293460  0.62370541  0.63041169  1
  V  V16  1  0.87106286  -0.00208915  0.86841579  1
  V  V17  1  0.75102862  0.38130426  0.63311195  1
  V  V18  1  0.85663943  0.62678552  0.75363916  1
  V  V19  1  0.87616398  0.87596356  0.49937814  1
  V  V20  1  0.00653443  0.87782994  0.37004035  1
  V  V21  1  0.49559099  0.74563154  0.75055116  1
  V  V22  1  0.50179414  0.24692226  0.26761838  1
  V  V23  1  0.11851668  0.23994843  0.87655747  1
  V  V24  1  0.37973320  0.24527874  0.12177356  1
  V  V25  1  0.61830206  0.37155395  0.74782033  1
  V  V26  1  0.24720163  0.12274213  0.87870987  1
  V  V27  1  0.75027229  0.86533310  0.11977801  1
  V  V28  1  0.12460757  0.87265037  0.74940550  1
  V  V29  1  0.00387635  0.12889078  0.61971187  1
  V  V30  1  0.37190607  0.37770183  -0.00008048  1
  V  V31  1  -0.00242984  0.50471814  -0.00385547  1
  V  V32  1  0.37715780  0.13680199  0.75083317  1
  V  V33  1  0.87572422  0.61711265  0.25763132  1
  V  V34  1  0.63551193  0.74309889  0.87816443  1
  V  V35  1  0.37428977  0.50616635  0.86060082  1
  V  V36  1  0.23939788  0.39290461  0.63601012  1
  V  V37  1  0.63925955  0.62717476  0.00140607  1
  V  V38  1  0.62595351  0.12319957  -0.00340796  1
  V  V39  1  0.37068358  0.74593424  0.62368665  1
  V  V40  1  0.50209482  0.87275539  0.37479879  1
  V  V41  1  0.87373871  0.86765497  -0.00200168  1
  V  V42  1  0.49402022  0.62206759  0.62533161  1
  V  V43  1  0.12714739  0.23934057  0.38515183  1
  V  V44  1  0.37330922  0.74907851  0.12171742  1
  V  V45  1  0.49820750  0.13466534  0.63021193  1
  V  V46  1  0.14124805  0.63119165  0.00340243  1
  V  V47  1  0.62958705  0.36325097  0.27088110  1
  V  V48  1  0.00038323  0.25347476  0.24811246  1
  V  V49  1  0.25735082  0.63208998  0.86064910  1
  V  V50  1  0.23953041  0.24736130  0.00085673  1
  V  V51  1  0.75159333  0.87996918  0.62820151  1
  V  V52  1  0.62805692  0.00286530  0.63029976  1
  V  V53  1  0.00074779  0.62647579  0.12377385  1
  V  V54  1  0.49412410  0.36773188  0.86808866  1
  V  V55  1  0.00207491  0.00491455  0.49909814  1
  V  V56  1  0.87441486  0.25277296  0.62510659  1
  V  V57  1  0.50405817  0.62177284  0.12819984  1
  V  V58  1  0.25830138  0.24722837  0.50628408  1
  V  V59  1  0.62224867  0.62332706  0.49523145  1
  V  V60  1  0.12749298  0.00568575  0.62033281  1
  V  V61  1  0.62890986  0.48286315  0.12678607  1
  V  V62  1  0.62464420  0.13131659  0.49698540  1
  V  V63  1  0.12832464  0.49909292  0.12546507  1
  V  V64  1  0.36989292  0.61965767  0.25163000  1
  V  V65  1  0.36777651  0.00443272  0.37189564  1
  V  V66  1  0.36687440  0.87152595  -0.00064475  1
  V  V67  1  0.13230389  0.75207165  0.37605746  1
  V  V68  1  0.74786082  0.12234945  0.86421855  1
  V  V69  1  0.00163016  0.75348842  0.24864481  1
  V  V70  1  0.85733407  0.50100492  0.87060029  1
  V  V71  1  0.62569915  -0.00175243  0.12242225  1
  V  V72  1  0.24975259  0.87426923  0.62084106  1
  V  V73  1  0.24238977  0.87464513  0.13472085  1
  V  V74  1  0.00562800  0.00271788  -0.00248980  1
  V  V75  1  0.62736618  0.87249117  0.25022928  1
  V  V76  1  0.75121767  0.74916192  0.49827493  1
  V  V77  1  0.50004553  0.87149838  0.87608682  1
  V  V78  1  0.74906178  0.25777936  0.00004160  1
  V  V79  1  0.87334201  0.12819735  0.24203086  1
  V  V80  1  0.49199985  0.48773651  0.48857263  1
  V  V81  1  0.49912861  0.50052464  0.00226446  1
  V  V82  1  0.12918350  0.37938705  0.25393026  1
  V  V83  1  0.74649340  0.13208426  0.37425987  1
  V  V84  1  0.03714962  0.40791872  0.85455421  1
  Zn  Zn85  1  0.37652513  0.26720700  0.62560053  1
  Zn  Zn86  1  0.75790865  0.61499365  0.37915765  1
  Zn  Zn87  1  0.86963061  0.26476849  0.12459120  1
  Zn  Zn88  1  0.62798842  0.74903987  0.37386699  1
  Zn  Zn89  1  0.36961709  0.12140425  0.24655823  1
  Zn  Zn90  1  0.23165562  0.00715559  0.25838974  1
  Zn  Zn91  1  0.50138756  0.12332504  0.12484894  1
  Zn  Zn92  1  0.25062385  0.00243295  0.74791769  1
  Zn  Zn93  1  0.87065062  0.11979881  0.74521446  1
  Zn  Zn94  1  0.87202574  0.74451085  0.12066330  1
  Zn  Zn95  1  0.12325543  -0.00135605  0.12757884  1
  Zn  Zn96  1  0.50220580  0.74716045  0.25118391  1
  Zn  Zn97  1  0.87793924  0.37747723  -0.00518546  1
  Zn  Zn98  1  0.87660987  0.74992166  0.62663209  1
  Zn  Zn99  1  0.00149729  0.87305667  0.87400187  1
  Zn  Zn100  1  0.62039941  0.24762189  0.86834415  1
  Zn  Zn101  1  0.35906892  0.47436042  0.37791457  1
  Zn  Zn102  1  0.75724739  0.48585628  0.25381662  1
  Zn  Zn103  1  0.00044901  0.74917952  0.75286309  1
  Zn  Zn104  1  0.49944783  -0.00197147  0.00058397  1
  Zn  Zn105  1  0.13074932  0.75641036  0.88174050  1
  Zn  Zn106  1  0.74559058  0.25606775  0.49798150  1
  Zn  Zn107  1  0.18873950  0.18779389  0.19346712  1
  Zn  Zn108  1  0.18837954  0.19080405  0.68866399  1
  Zn  Zn109  1  0.18787884  0.69268577  0.18957396  1
  Zn  Zn110  1  0.18881734  0.68779727  0.68509349  1
  Zn  Zn111  1  0.68606252  0.18948623  0.18381010  1
  Zn  Zn112  1  0.68664636  0.19303310  0.68534515  1
  Zn  Zn113  1  0.68884307  0.68448725  0.18962583  1
  Zn  Zn114  1  0.68265956  0.69229021  0.68225208  1
  Zn  Zn115  1  0.30900111  0.30039629  0.31295599  1
  Zn  Zn116  1  0.30509523  0.31589910  0.81034493  1
  Zn  Zn117  1  0.31496100  0.80877531  0.30901735  1
  Zn  Zn118  1  0.31168688  0.81233977  0.80729810  1
  Zn  Zn119  1  0.81370345  0.31275529  0.31403752  1
  Zn  Zn120  1  0.81147449  0.31409976  0.81353372  1
  Zn  Zn121  1  0.81685306  0.80934756  0.31180120  1
  Zn  Zn122  1  0.81312420  0.81181526  0.81078978  1
  Zn  Zn123  1  0.18459339  0.43272427  0.44805627  1
  Zn  Zn124  1  0.18772349  0.44385565  0.92530945  1
  Zn  Zn125  1  0.18681098  0.93709670  0.44069513  1
  Zn  Zn126  1  0.18847561  0.93863076  0.94049839  1
  Zn  Zn127  1  0.68916716  0.44237951  0.43959681  1
  Zn  Zn128  1  0.68064865  0.43924047  0.93509149  1
  Zn  Zn129  1  0.68772095  0.94218408  0.44005109  1
  Zn  Zn130  1  0.68975432  0.93548862  0.93549755  1
  Zn  Zn131  1  0.31041888  0.05969969  0.06214300  1
  Zn  Zn132  1  0.31071682  0.06749932  0.55863395  1
  Zn  Zn133  1  0.31565695  0.55933407  0.06558066  1
  Zn  Zn134  1  0.31244090  0.55647046  0.56058857  1
  Zn  Zn135  1  0.81274258  0.06014123  0.05628799  1
  Zn  Zn136  1  0.81266845  0.06425551  0.56150015  1
  Zn  Zn137  1  0.81331127  0.55601199  0.06914261  1
  Zn  Zn138  1  0.81334816  0.56292155  0.56646637  1
  Zn  Zn139  1  0.42240132  0.41540406  0.22198129  1
  Zn  Zn140  1  0.43144390  0.43722104  0.68175437  1
  Zn  Zn141  1  0.43892185  0.93515757  0.18793582  1
  Zn  Zn142  1  0.43897276  0.93957379  0.68872087  1
  Zn  Zn143  1  0.93885014  0.43750024  0.18216420  1
  Zn  Zn144  1  0.93775445  0.44311692  0.69071768  1
  Zn  Zn145  1  0.93936372  0.93894206  0.18440712  1
  Zn  Zn146  1  0.94004412  0.93819004  0.68699122  1
  Zn  Zn147  1  0.06194621  0.06371885  0.30447474  1
  Zn  Zn148  1  0.05996246  0.06083469  0.80743765  1
  Zn  Zn149  1  0.06251929  0.56193983  0.31359006  1
  Zn  Zn150  1  0.06488943  0.57540433  0.81742657  1
  Zn  Zn151  1  0.56011195  0.06112415  0.31227897  1
  Zn  Zn152  1  0.56026884  0.06060078  0.81079020  1
  Zn  Zn153  1  0.56712666  0.55709791  0.30959236  1
  Zn  Zn154  1  0.56243896  0.56161459  0.81258742  1
  Zn  Zn155  1  0.43419191  0.18583986  0.44328878  1
  Zn  Zn156  1  0.43571565  0.18674596  0.94100959  1
  Zn  Zn157  1  0.43542067  0.68573131  0.43793324  1
  Zn  Zn158  1  0.44051968  0.68620019  0.94115790  1
  Zn  Zn159  1  0.93733276  0.19341967  0.43666165  1
  Zn  Zn160  1  0.93110376  0.18443659  0.93682615  1
  Zn  Zn161  1  0.94151283  0.69002505  0.43855198  1
  Zn  Zn162  1  0.94007929  0.68792185  0.93135121  1
  Zn  Zn163  1  0.05788217  0.31703602  0.05683128  1
  Zn  Zn164  1  0.06753967  0.31757709  0.56418239  1
  Zn  Zn165  1  0.05966374  0.81166142  0.05925252  1
  Zn  Zn166  1  0.06134180  0.81009252  0.56143219  1
  Zn  Zn167  1  0.55957569  0.31024200  0.05446088  1
  Zn  Zn168  1  0.56128236  0.31360168  0.55985952  1
  Zn  Zn169  1  0.55926327  0.80931450  0.06041207  1
  Zn  Zn170  1  0.56252531  0.81105384  0.56205282  1
  O  O171  1  0.11067380  0.12738730  0.12714989  1
  O  O172  1  0.11631130  0.11714800  0.63097903  1
  O  O173  1  0.12377413  0.62105392  0.11832647  1
  O  O174  1  0.11788173  0.63061655  0.61613386  1
  O  O175  1  0.62618493  0.11505728  0.11493538  1
  O  O176  1  0.61887870  0.11980817  0.62240680  1
  O  O177  1  0.61818426  0.62011185  0.12262108  1
  O  O178  1  0.61756895  0.61961115  0.61517489  1
  O  O179  1  0.38429260  0.38003818  0.32745624  1
  O  O180  1  0.37648097  0.38717677  0.87647637  1
  O  O181  1  0.38139556  0.87787716  0.38168317  1
  O  O182  1  0.37681356  0.87984481  0.87986282  1
  O  O183  1  0.88399868  0.36922512  0.38656013  1
  O  O184  1  0.87226143  0.39370431  0.87456346  1
  O  O185  1  0.88414686  0.88110568  0.37976618  1
  O  O186  1  0.87401391  0.88064084  0.88053387  1
  O  O187  1  0.26438388  -0.00972188  0.37505574  1
  O  O188  1  0.25724431  0.00695922  0.87445099  1
  O  O189  1  0.24582491  0.51083127  0.38097700  1
  O  O190  1  0.26891586  0.51403018  0.88192706  1
  O  O191  1  0.75740677  0.00846081  0.36981574  1
  O  O192  1  0.75780812  0.00901292  0.87749049  1
  O  O193  1  0.74467102  0.50319519  0.36574699  1
  O  O194  1  0.75849260  0.50394027  0.88005660  1
  O  O195  1  0.24539683  0.48444881  0.12024256  1
  O  O196  1  0.24367196  0.49392215  0.62276580  1
  O  O197  1  0.24842692  0.98474216  0.12232189  1
  O  O198  1  0.24309941  0.99514031  0.62385534  1
  O  O199  1  0.73226614  0.50367041  0.13532879  1
  O  O200  1  0.73785865  0.49270064  0.61924491  1
  O  O201  1  0.74094475  0.99323411  0.12856928  1
  O  O202  1  0.74118768  0.99247966  0.61956618  1
  O  O203  1  0.00438400  0.37206266  0.25783865  1
  O  O204  1  -0.00319617  0.36961850  0.76281557  1
  O  O205  1  -0.00808416  0.86712186  0.25961659  1
  O  O206  1  0.01057058  0.87226671  0.74912453  1
  O  O207  1  0.51822313  0.35200711  0.24033081  1
  O  O208  1  0.50475590  0.38199908  0.75618202  1
  O  O209  1  0.50885831  0.87323319  0.25858277  1
  O  O210  1  0.50601466  0.86677656  0.75437661  1
  O  O211  1  0.50207462  0.13606978  0.24575836  1
  O  O212  1  0.49121492  0.12177494  0.74159232  1
  O  O213  1  0.49737420  0.62478053  0.24153529  1
  O  O214  1  0.50577662  0.63181254  0.73468484  1
  O  O215  1  0.98960652  0.13399610  0.24105771  1
  O  O216  1  0.99440910  0.13260023  0.73758366  1
  O  O217  1  0.99280905  0.63013004  0.24593178  1
  O  O218  1  0.99905658  0.62724877  0.74296358  1
  O  O219  1  0.36448278  0.25649936  0.00430535  1
  O  O220  1  0.36286264  0.25191751  0.50089353  1
  O  O221  1  0.38005205  0.75586864  0.01297563  1
  O  O222  1  0.38098359  0.76329082  0.50826253  1
  O  O223  1  0.85985724  0.25278011  -0.00434555  1
  O  O224  1  0.87729674  0.26391130  0.51221080  1
  O  O225  1  0.88114055  0.76331846  -0.00030978  1
  O  O226  1  0.86835061  0.75627473  0.50257157  1
  O  O227  1  0.12279152  0.25013434  0.48775931  1
  O  O228  1  0.13476070  0.24509729  0.99942779  1
  O  O229  1  0.11664640  0.73887946  0.48834630  1
  O  O230  1  0.12339404  0.73440737  1.00146329  1
  O  O231  1  0.62644505  0.23562113  0.50563106  1
  O  O232  1  0.63248747  0.24115306  0.99307999  1
  O  O233  1  0.63216155  0.74103753  0.50000520  1
  O  O234  1  0.61896579  0.73936277  0.99041437  1
  O  O235  1  0.48743418  0.24717947  0.11783630  1
  O  O236  1  0.49454012  0.23850672  0.61913780  1
  O  O237  1  0.49356995  0.73986023  0.12743821  1
  O  O238  1  0.49259350  0.74376887  0.62970798  1
  O  O239  1  0.99578854  0.24497785  0.12618292  1
  O  O240  1  0.99581678  0.24716728  0.63085928  1
  O  O241  1  0.99908348  0.74451374  0.13275433  1
  O  O242  1  0.99619544  0.73766646  0.62597875  1
  O  O243  1  0.00763131  0.26204962  0.37152218  1
  O  O244  1  0.00502477  0.24212395  0.86819553  1
  O  O245  1  0.00655457  0.75962227  0.36904113  1
  O  O246  1  0.01034726  0.75409801  0.87109827  1
  O  O247  1  0.49742418  0.24429043  0.36599446  1
  O  O248  1  0.49727043  0.26469467  0.87898040  1
  O  O249  1  0.50149427  0.76266835  0.37671333  1
  O  O250  1  0.50272147  0.75255434  0.86606588  1
  O  O251  1  0.24764991  0.14522727  0.50350844  1
  O  O252  1  0.25616694  0.13221573  0.98697508  1
  O  O253  1  0.23780019  0.62408939  0.49385769  1
  O  O254  1  0.24289841  0.62330189  1.00081845  1
  O  O255  1  0.74252431  0.12592092  0.49223345  1
  O  O256  1  0.74059667  0.12946645  0.98886734  1
  O  O257  1  0.74381573  0.63236325  0.50090715  1
  O  O258  1  0.73801494  0.62390775  1.01031214  1
  O  O259  1  0.25288830  0.36752282  0.00457663  1
  O  O260  1  0.24035846  0.35957804  0.51281620  1
  O  O261  1  0.26281107  0.87625787  0.00698573  1
  O  O262  1  0.25761296  0.87625854  0.51202621  1
  O  O263  1  0.74463829  0.35926854  -0.01026186  1
  O  O264  1  0.75715026  0.37540035  0.50985687  1
  O  O265  1  0.75958620  0.87980981  0.00901599  1
  O  O266  1  0.75434844  0.87036674  0.50712757  1
  O  O267  1  0.11896523  0.48750095  0.24282718  1
  O  O268  1  0.11576093  0.47397785  0.82349206  1
  O  O269  1  0.11950195  0.99428087  0.24253423  1
  O  O270  1  0.12544246  0.99038503  0.73704882  1
  O  O271  1  0.61969693  0.47723813  0.24148284  1
  O  O272  1  0.61780349  0.49333385  0.73556168  1
  O  O273  1  0.63090724  0.99362274  0.24250690  1
  O  O274  1  0.62071623  0.99282038  0.73735708  1
  O  O275  1  0.38089176  -0.00126482  0.26569605  1
  O  O276  1  0.37385993  0.00460651  0.76182818  1
  O  O277  1  0.37680963  0.51839347  0.24823201  1
  O  O278  1  0.38187758  0.50677173  0.76270125  1
  O  O279  1  0.87002155  0.00831389  0.25367562  1
  O  O280  1  0.87948732  -0.00050993  0.76333718  1
  O  O281  1  0.87747322  0.51353695  0.24591487  1
  O  O282  1  0.87305913  0.51205819  0.76158635  1
  O  O283  1  0.11796658  0.37089086  0.36852412  1
  O  O284  1  0.12645509  0.34748319  0.88839309  1
  O  O285  1  0.11365550  0.86859678  0.38223947  1
  O  O286  1  0.12907792  0.87617965  0.86429952  1
  O  O287  1  0.62624885  0.36904614  0.36889522  1
  O  O288  1  0.61207462  0.37832004  0.86469222  1
  O  O289  1  0.61827629  0.87661580  0.37163367  1
  O  O290  1  0.61927067  0.86793064  0.87061695  1
  O  O291  1  0.37971508  0.13116035  0.12095290  1
  O  O292  1  0.38310749  0.12159540  0.63525694  1
  O  O293  1  0.38063078  0.63151302  0.13007342  1
  O  O294  1  0.38154323  0.63471569  0.61531753  1
  O  O295  1  0.87582909  0.12453381  0.13450230  1
  O  O296  1  0.87926318  0.13606796  0.62569027  1
  O  O297  1  0.88361045  0.62584432  0.13314471  1
  O  O298  1  0.88107861  0.62394275  0.63958399  1
  O  O299  1  0.25665022  0.25550232  0.11719637  1
  O  O300  1  0.25222638  0.25141929  0.61664592  1
  O  O301  1  0.25985259  0.76219935  0.12933339  1
  O  O302  1  0.26356250  0.75745504  0.62895597  1
  O  O303  1  0.75092200  0.24215330  0.10444304  1
  O  O304  1  0.75922755  0.25930157  0.62204059  1
  O  O305  1  0.75139210  0.76253326  0.12876959  1
  O  O306  1  0.75046553  0.75947236  0.61318892  1
  O  O307  1  0.23524521  0.25430813  0.38676308  1
  O  O308  1  0.24382220  0.24163955  0.88124911  1
  O  O309  1  0.23575842  0.74764546  0.36931788  1
  O  O310  1  0.25484654  0.73689495  0.87341024  1
  O  O311  1  0.75587129  0.23543343  0.37953020  1
  O  O312  1  0.74677911  0.24068289  0.88098012  1
  O  O313  1  0.75035765  0.74909120  0.38801481  1
  O  O314  1  0.73407393  0.75197069  0.86907937  1
  O  O315  1  -0.00983317  0.11626307  0.00847286  1
  O  O316  1  -0.00694100  0.12267194  0.51208512  1
  O  O317  1  0.00826557  0.61820831  0.00192212  1
  O  O318  1  0.00370731  0.61879450  0.50705595  1
  O  O319  1  0.51424411  0.12169456  -0.00235338  1
  O  O320  1  0.50627645  0.11885591  0.50728363  1
  O  O321  1  0.50403398  0.61810490  0.01328865  1
  O  O322  1  0.50624440  0.62132357  0.50727282  1
  O  O323  1  0.49978915  0.38927142  0.50197299  1
  O  O324  1  0.49218556  0.38156708  0.98997709  1
  O  O325  1  0.49422746  0.88052568  0.49558920  1
  O  O326  1  0.48787540  0.87502272  0.99351129  1
  O  O327  1  0.99523902  0.38367867  0.49626741  1
  O  O328  1  1.00735639  0.39393780  0.97898264  1
  O  O329  1  0.99417391  0.88235076  0.49329902  1
  O  O330  1  0.99112991  0.88432401  0.99918669  1
  O  O331  1  0.50342753  0.50242235  0.38844145  1
  O  O332  1  0.48880016  0.49736154  0.88141572  1
  O  O333  1  0.49381108  0.98853042  0.38172791  1
  O  O334  1  0.49247491  0.99024400  0.87544140  1
  O  O335  1  1.00213375  0.48891189  0.38309388  1
  O  O336  1  0.98395313  0.50721986  0.88056640  1
  O  O337  1  0.99594155  0.99532267  0.37873735  1
  O  O338  1  0.99269419  0.99952417  0.88122901  1
  O  O339  1  -0.00311913  0.01020518  0.11485421  1
  O  O340  1  0.00593127  0.00972966  0.61985300  1
  O  O341  1  0.00874986  0.50718142  0.11447842  1
  O  O342  1  -0.00245935  0.51227192  0.61899916  1
  O  O343  1  0.51365775  -0.00130397  0.12345561  1
  O  O344  1  0.50704390  0.00734760  0.62001605  1
  O  O345  1  0.51281621  0.50581880  0.12222930  1
  O  O346  1  0.50188589  0.50791349  0.61482676  1
  O  O347  1  0.23702027  0.36395877  0.23830181  1
  O  O348  1  0.24700790  0.37649252  0.73739707  1
  O  O349  1  0.25603564  0.87934762  0.23684935  1
  O  O350  1  0.24640741  0.88003483  0.73651490  1
  O  O351  1  0.73409087  0.36620502  0.25055567  1
  O  O352  1  0.74161197  0.37374361  0.73893988  1
  O  O353  1  0.74695344  0.88017459  0.24423545  1
  O  O354  1  0.74374633  0.86891872  0.73509622  1
  O  O355  1  0.25589629  0.11873573  0.24706471  1
  O  O356  1  0.25771912  0.12347969  0.76107948  1
  O  O357  1  0.25593867  0.62937963  0.25947674  1
  O  O358  1  0.24728197  0.62424618  0.76245276  1
  O  O359  1  0.75424081  0.12131781  0.25475806  1
  O  O360  1  0.74918627  0.12998445  0.75972382  1
  O  O361  1  0.76850713  0.62937191  0.25230566  1
  O  O362  1  0.75844365  0.62843249  0.74267109  1
  O  O363  1  0.38125005  0.10571739  0.37813615  1
  O  O364  1  0.37173505  0.11772845  0.86964855  1
  O  O365  1  0.36141224  0.63266775  0.36772388  1
  O  O366  1  0.36791570  0.61839237  0.87942029  1
  O  O367  1  0.87097914  0.12230358  0.36371747  1
  O  O368  1  0.86424953  0.11613364  0.87063368  1
  O  O369  1  0.88002652  0.62819254  0.36137807  1
  O  O370  1  0.87303966  0.61964943  0.86115430  1
  O  O371  1  0.12961506  0.37809832  0.12960709  1
  O  O372  1  0.13708563  0.37460784  0.62884737  1
  O  O373  1  0.14102369  0.86963149  0.11857854  1
  O  O374  1  0.13268735  0.87996300  0.62682539  1
  O  O375  1  0.62495544  0.38334003  0.11683360  1
  O  O376  1  0.62965968  0.38167547  0.62847211  1
  O  O377  1  0.63137370  0.87934131  0.12673483  1
  O  O378  1  0.63113701  0.88282475  0.62713710  1
  O  O379  1  0.11778495  0.26008332  0.25803731  1
  O  O380  1  0.11043229  0.24431045  0.75927490  1
  O  O381  1  0.10993012  0.74475949  0.25941980  1
  O  O382  1  0.12884512  0.76443843  0.74814345  1
  O  O383  1  0.61741534  0.25378471  0.25023229  1
  O  O384  1  0.62335770  0.26578454  0.74913990  1
  O  O385  1  0.62444013  0.75751376  0.25385892  1
  O  O386  1  0.61354537  0.75433446  0.75382742  1
  O  O387  1  0.38951248  0.24278297  0.24009993  1
  O  O388  1  0.37194492  0.23922355  0.75017694  1
  O  O389  1  0.38023013  0.74160768  0.23931540  1
  O  O390  1  0.38811466  0.75495012  0.73973979  1
  O  O391  1  0.88018457  0.24421778  0.24596973  1
  O  O392  1  0.88420256  0.25235697  0.74025244  1
  O  O393  1  0.88713522  0.74111601  0.24777457  1
  O  O394  1  0.87596480  0.73747590  0.74858531  1
  O  O395  1  0.38689345  0.50395835  0.48929930  1
  O  O396  1  0.38297113  0.49339433  0.99848604  1
  O  O397  1  0.37832120  0.99005953  0.49233986  1
  O  O398  1  0.37750809  0.99307258  0.98825177  1
  O  O399  1  0.88442123  0.49058312  0.50567352  1
  O  O400  1  0.88073874  0.50632766  0.98811979  1
  O  O401  1  0.88159834  0.99666896  0.49351450  1
  O  O402  1  0.88156980  0.99158114  0.98908419  1
  O  O403  1  0.10960786  -0.00392030  0.00336248  1
  O  O404  1  0.11814883  -0.00249574  0.51198777  1
  O  O405  1  0.12003919  0.51258654  0.00293562  1
  O  O406  1  0.11135733  0.51149241  0.49599659  1
  O  O407  1  0.62522957  0.00484147  0.00603430  1
  O  O408  1  0.62067147  0.00912074  0.51148939  1
  O  O409  1  0.61997210  0.50535429  0.01022281  1
  O  O410  1  0.61526062  0.50648567  0.50923906  1
  O  O411  1  0.36621335  0.36615762  0.12416691  1
  O  O412  1  0.35571000  0.37863561  0.62572411  1
  O  O413  1  0.37108802  0.86854899  0.11880027  1
  O  O414  1  0.36983970  0.87171161  0.61841528  1
  O  O415  1  0.88201498  0.37745233  0.10905373  1
  O  O416  1  0.86862827  0.37363295  0.62297681  1
  O  O417  1  0.86632185  0.87513005  0.11638133  1
  O  O418  1  0.86747473  0.87623316  0.61917657  1
  O  O419  1  0.11402847  0.14219591  0.37149841  1
  O  O420  1  0.13359707  0.12900907  0.87073068  1
  O  O421  1  0.13055041  0.63179775  0.38013808  1
  O  O422  1  0.14403547  0.62958268  0.88627397  1
  O  O423  1  0.63430940  0.11420821  0.38520167  1
  O  O424  1  0.62991336  0.12412275  0.87813747  1
  O  O425  1  0.62406481  0.62683220  0.38651037  1
  O  O426  1  0.61804858  0.63060226  0.88733054  1
