# generated using pymatgen
data_V85Zn86O256
_symmetry_space_group_name_H-M   'P 1'
_cell_length_a   16.94081989
_cell_length_b   16.94893420
_cell_length_c   16.93952254
_cell_angle_alpha   89.99959481
_cell_angle_beta   90.05235197
_cell_angle_gamma   90.01526228
_symmetry_Int_Tables_number   1
_chemical_formula_structural   V85Zn86O256
_chemical_formula_sum   'V85 Zn86 O256'
_cell_volume   4863.82328117
_cell_formula_units_Z   1
loop_
 _symmetry_equiv_pos_site_id
 _symmetry_equiv_pos_as_xyz
  1  'x, y, z'
loop_
 _atom_site_type_symbol
 _atom_site_label
 _atom_site_symmetry_multiplicity
 _atom_site_fract_x
 _atom_site_fract_y
 _atom_site_fract_z
 _atom_site_occupancy
  V  V0  1  -0.00167697  0.75014545  0.75001036  1
  V  V1  1  0.37712337  0.26026805  0.12838049  1
  V  V2  1  0.75919376  0.61694746  0.35906760  1
  V  V3  1  0.62585757  0.87646198  0.24779152  1
  V  V4  1  0.62582848  0.74712094  0.37246138  1
  V  V5  1  0.00606068  0.00411784  0.50001792  1
  V  V6  1  0.87407643  0.74849397  0.62624950  1
  V  V7  1  0.12308217  0.38284913  0.74729525  1
  V  V8  1  0.00075677  0.50121944  0.00191343  1
  V  V9  1  0.63583400  0.50046290  0.12899991  1
  V  V10  1  0.86824505  0.62511109  0.75927937  1
  V  V11  1  0.12022688  0.24444805  0.36157999  1
  V  V12  1  0.37127560  -0.00260578  0.88104218  1
  V  V13  1  0.38474664  0.37898621  0.49177832  1
  V  V14  1  0.49755137  0.12371373  0.62443693  1
  V  V15  1  0.37248762  0.62115431  0.74925937  1
  V  V16  1  0.23426952  0.37923613  0.13045851  1
  V  V17  1  0.00426492  0.61490770  0.62512547  1
  V  V18  1  0.49883422  0.62054695  0.61934676  1
  V  V19  1  0.00326715  0.25262853  0.75067202  1
  V  V20  1  0.50017523  0.87543794  0.37409959  1
  V  V21  1  0.87345662  0.38531173  0.49862213  1
  V  V22  1  0.62650765  0.00743406  0.11894443  1
  V  V23  1  0.12716062  0.62127362  0.00393105  1
  V  V24  1  0.24197238  0.38577434  0.61450992  1
  V  V25  1  0.61970433  0.49625501  0.62109632  1
  V  V26  1  0.13560521  0.87744723  0.25118484  1
  V  V27  1  0.37157179  0.49189766  0.87616836  1
  V  V28  1  0.24717073  0.87361109  0.62020061  1
  V  V29  1  0.37004051  0.74723531  0.61908280  1
  V  V30  1  0.49538586  0.49493258  -0.00012651  1
  V  V31  1  0.13186820  0.13063407  -0.01275322  1
  V  V32  1  0.00262205  0.37292051  0.87761156  1
  V  V33  1  0.75629755  0.25006595  0.50238061  1
  V  V34  1  0.00316396  0.00338179  0.00193209  1
  V  V35  1  0.74951925  0.00175785  0.74906371  1
  V  V36  1  0.36821325  0.12663189  0.75377508  1
  V  V37  1  0.87603116  0.74328071  0.12889534  1
  V  V38  1  0.87654780  0.14033791  0.24503538  1
  V  V39  1  0.62288944  0.24656320  0.88577498  1
  V  V40  1  0.75419268  0.00004598  0.24821922  1
  V  V41  1  0.74995379  0.12729988  0.37342489  1
  V  V42  1  0.00036729  0.87645080  0.87459626  1
  V  V43  1  0.62311474  0.37259130  0.75184418  1
  V  V44  1  0.62316614  0.61839940  0.49593415  1
  V  V45  1  0.12647562  0.74959335  0.87653020  1
  V  V46  1  0.37814498  0.75854783  0.11943794  1
  V  V47  1  0.37390712  0.87212555  0.49777449  1
  V  V48  1  0.00714126  0.37572842  0.36885279  1
  V  V49  1  0.49696497  0.74455110  0.24835691  1
  V  V50  1  0.74803644  0.87519099  0.62439003  1
  V  V51  1  0.62394540  0.12603203  0.49899592  1
  V  V52  1  0.75656532  0.36410451  0.13692344  1
  V  V53  1  0.00723090  0.62556696  0.13631741  1
  V  V54  1  0.37373733  0.12510617  0.24630052  1
  V  V55  1  0.62250499  0.87511393  0.75021863  1
  V  V56  1  0.75427565  0.37072380  0.62803459  1
  V  V57  1  0.23888101  0.24327132  0.50036003  1
  V  V58  1  0.87482096  0.87438737  0.00267262  1
  V  V59  1  0.49768695  0.75011602  0.74986443  1
  V  V60  1  0.74906023  0.74756449  0.49827471  1
  V  V61  1  0.63406757  0.62270754  -0.00699267  1
  V  V62  1  0.24859449  0.00414210  0.75220300  1
  V  V63  1  0.49814207  0.24961489  0.75159317  1
  V  V64  1  0.25526747  0.75652074  -0.00009106  1
  V  V65  1  0.00144844  0.75462102  0.25565835  1
  V  V66  1  0.87387188  0.13479820  0.74541301  1
  V  V67  1  0.87582540  0.00173557  0.87353888  1
  V  V68  1  0.49315027  0.62099471  0.12531893  1
  V  V69  1  0.74640940  0.12525520  0.88229357  1
  V  V70  1  0.12466168  0.87641283  0.74848128  1
  V  V71  1  0.61117413  0.25324218  0.37182718  1
  V  V72  1  0.36681161  0.00009822  0.36781780  1
  V  V73  1  0.25113980  0.62569281  0.36895632  1
  V  V74  1  0.00056626  0.13866249  0.12882271  1
  V  V75  1  0.61105997  0.37427203  0.25307108  1
  V  V76  1  0.49714829  0.87216312  0.88398843  1
  V  V77  1  0.13225514  0.00387844  0.13070128  1
  V  V78  1  0.00292447  0.13258324  0.62020185  1
  V  V79  1  0.87575213  0.87782503  0.49720608  1
  V  V80  1  0.38433843  0.50080377  0.36242232  1
  V  V81  1  0.74575578  0.50249797  0.76031841  1
  V  V82  1  0.25295991  0.25751324  -0.01120552  1
  V  V83  1  0.50316341  0.01006861  -0.00133988  1
  V  V84  1  0.87193562  0.36872996  0.00423465  1
  Zn  Zn85  1  0.87457076  0.49526678  0.33671374  1
  Zn  Zn86  1  0.24391679  0.50255544  0.74751750  1
  Zn  Zn87  1  0.13896689  0.75426949  0.38650304  1
  Zn  Zn88  1  0.62350913  -0.00018481  0.62277610  1
  Zn  Zn89  1  0.75640795  0.73974107  -0.00488718  1
  Zn  Zn90  1  0.25084720  0.62363163  0.87624930  1
  Zn  Zn91  1  0.75069562  0.87210395  0.12328722  1
  Zn  Zn92  1  0.00816696  0.49653425  0.50129533  1
  Zn  Zn93  1  0.13609484  0.62450387  0.50390424  1
  Zn  Zn94  1  0.22241559  0.49678012  0.24759932  1
  Zn  Zn95  1  0.49889385  0.00103015  0.49733480  1
  Zn  Zn96  1  0.00454266  0.87787044  0.37583448  1
  Zn  Zn97  1  0.24395642  0.12113239  0.37187087  1
  Zn  Zn98  1  0.12717938  0.00714780  0.62184176  1
  Zn  Zn99  1  0.75106606  0.24567703  0.00525562  1
  Zn  Zn100  1  0.87781059  0.00330077  0.37289156  1
  Zn  Zn101  1  0.63049928  0.74232924  0.87211069  1
  Zn  Zn102  1  0.37073320  0.25190417  0.62095948  1
  Zn  Zn103  1  0.25768991  0.88303698  0.12383323  1
  Zn  Zn104  1  0.86484533  0.50633445  0.89031429  1
  Zn  Zn105  1  0.50200199  0.13278734  0.12741807  1
  Zn  Zn106  1  0.49435245  0.36985841  0.88189074  1
  Zn  Zn107  1  0.19411116  0.18863647  0.18527327  1
  Zn  Zn108  1  0.18343380  0.19389620  0.68726382  1
  Zn  Zn109  1  0.19119293  0.68835247  0.19206672  1
  Zn  Zn110  1  0.18737427  0.68940923  0.68708456  1
  Zn  Zn111  1  0.68407648  0.18857166  0.19116164  1
  Zn  Zn112  1  0.68524388  0.18800803  0.68899948  1
  Zn  Zn113  1  0.68633712  0.68779716  0.18086281  1
  Zn  Zn114  1  0.68608338  0.68605964  0.68740425  1
  Zn  Zn115  1  0.30908440  0.31468826  0.31100554  1
  Zn  Zn116  1  0.30886491  0.31533793  0.80639178  1
  Zn  Zn117  1  0.31589393  0.81015209  0.30736808  1
  Zn  Zn118  1  0.31243903  0.81334428  0.81088472  1
  Zn  Zn119  1  0.80991678  0.31432334  0.31735056  1
  Zn  Zn120  1  0.81470268  0.31390388  0.81813536  1
  Zn  Zn121  1  0.81295743  0.81048937  0.31239319  1
  Zn  Zn122  1  0.80905565  0.81079061  0.81675193  1
  Zn  Zn123  1  0.18501155  0.44778314  0.43380550  1
  Zn  Zn124  1  0.18738398  0.43617726  0.93594534  1
  Zn  Zn125  1  0.18653451  0.93691987  0.43869317  1
  Zn  Zn126  1  0.18747556  0.93934405  0.93938642  1
  Zn  Zn127  1  0.68879791  0.43887202  0.43281502  1
  Zn  Zn128  1  0.68384902  0.43304436  0.94237557  1
  Zn  Zn129  1  0.68783834  0.93980904  0.43481245  1
  Zn  Zn130  1  0.68742012  0.93418722  0.93623208  1
  Zn  Zn131  1  0.31259925  0.06847614  0.06071331  1
  Zn  Zn132  1  0.31364882  0.06075968  0.56170176  1
  Zn  Zn133  1  0.31130745  0.56240917  0.06384579  1
  Zn  Zn134  1  0.31173141  0.55888804  0.55314992  1
  Zn  Zn135  1  0.81657348  0.06223606  0.06446650  1
  Zn  Zn136  1  0.81519726  0.06299441  0.56410842  1
  Zn  Zn137  1  0.85008919  0.52499182  0.12955839  1
  Zn  Zn138  1  0.80738679  0.56282734  0.56886611  1
  Zn  Zn139  1  0.43588268  0.43514872  0.18278276  1
  Zn  Zn140  1  0.43245314  0.43437006  0.68264993  1
  Zn  Zn141  1  0.43977768  0.94044416  0.18781071  1
  Zn  Zn142  1  0.43569722  0.93852170  0.68812118  1
  Zn  Zn143  1  1.00780846  0.45469797  0.20849522  1
  Zn  Zn144  1  0.92991606  0.43752757  0.69182520  1
  Zn  Zn145  1  0.94282982  0.93892598  0.18603054  1
  Zn  Zn146  1  0.93673221  0.94115219  0.68390058  1
  Zn  Zn147  1  0.06179579  0.06403073  0.31162667  1
  Zn  Zn148  1  0.06161496  0.06418858  0.80902047  1
  Zn  Zn149  1  0.06621548  0.56336744  0.32285908  1
  Zn  Zn150  1  0.05852860  0.56248284  0.81630675  1
  Zn  Zn151  1  0.55715002  0.06450664  0.30976294  1
  Zn  Zn152  1  0.56158153  0.06218395  0.81306776  1
  Zn  Zn153  1  0.56243919  0.55901866  0.31069202  1
  Zn  Zn154  1  0.55668494  0.55954728  0.81202590  1
  Zn  Zn155  1  0.42966492  0.18913420  0.43765803  1
  Zn  Zn156  1  0.43014110  0.18669606  0.93782547  1
  Zn  Zn157  1  0.43406966  0.68143395  0.43404438  1
  Zn  Zn158  1  0.43927430  0.68190197  0.93778766  1
  Zn  Zn159  1  0.93622550  0.18974704  0.43548968  1
  Zn  Zn160  1  0.93941287  0.18899533  0.93672867  1
  Zn  Zn161  1  0.93752303  0.68621185  0.43888902  1
  Zn  Zn162  1  0.93926702  0.68762095  0.93997172  1
  Zn  Zn163  1  0.06577029  0.31011101  0.05774926  1
  Zn  Zn164  1  0.05999359  0.31298604  0.56166840  1
  Zn  Zn165  1  0.06541916  0.81332527  0.06556448  1
  Zn  Zn166  1  0.06208195  0.80870471  0.56065884  1
  Zn  Zn167  1  0.56282226  0.31505189  0.06620171  1
  Zn  Zn168  1  0.56299174  0.30812405  0.56305547  1
  Zn  Zn169  1  0.56619866  0.81233991  0.06198390  1
  Zn  Zn170  1  0.55957997  0.80898488  0.56113216  1
  O  O171  1  0.11723115  0.12152040  0.12086720  1
  O  O172  1  0.10800675  0.12457884  0.63258735  1
  O  O173  1  0.11819792  0.63769704  0.11385391  1
  O  O174  1  0.10641863  0.62967692  0.63163265  1
  O  O175  1  0.62172908  0.11193079  0.13052867  1
  O  O176  1  0.61683612  0.12480095  0.61690944  1
  O  O177  1  0.61826400  0.61532582  0.11779453  1
  O  O178  1  0.62037028  0.61615877  0.61739940  1
  O  O179  1  0.37010788  0.38263927  0.38424456  1
  O  O180  1  0.37641984  0.38767584  0.86724379  1
  O  O181  1  0.37823457  0.87905949  0.38000550  1
  O  O182  1  0.38603562  0.88513197  0.86543552  1
  O  O183  1  0.87851569  0.37898744  0.38370133  1
  O  O184  1  0.88345816  0.38211645  0.88446371  1
  O  O185  1  0.87376448  0.87640313  0.38854298  1
  O  O186  1  0.88202467  0.88195894  0.88074612  1
  O  O187  1  0.26294624  0.00163776  0.38287593  1
  O  O188  1  0.25783352  -0.00823520  0.86274119  1
  O  O189  1  0.25799241  0.50526809  0.36531902  1
  O  O190  1  0.25711662  0.50284415  0.87079007  1
  O  O191  1  0.75163145  0.00843451  0.36527046  1
  O  O192  1  0.75378890  0.00681394  0.86867797  1
  O  O193  1  0.75587036  0.51224765  0.37211314  1
  O  O194  1  0.74671128  0.49303201  0.86415516  1
  O  O195  1  0.25450107  0.48249651  0.12236900  1
  O  O196  1  0.25240689  0.48806302  0.62591038  1
  O  O197  1  0.23687305  1.00062525  0.11570370  1
  O  O198  1  0.24906594  0.99293302  0.63333159  1
  O  O199  1  0.73903593  0.48630955  0.12405832  1
  O  O200  1  0.73697426  0.49215959  0.63585226  1
  O  O201  1  0.74417508  0.99832180  0.13046314  1
  O  O202  1  0.74738262  0.99332773  0.63094483  1
  O  O203  1  -0.00830697  0.35889887  0.27261526  1
  O  O204  1  0.00140891  0.37132126  0.75513096  1
  O  O205  1  0.01011913  0.87009244  0.25205969  1
  O  O206  1  0.00372009  0.87127629  0.75336642  1
  O  O207  1  0.51285069  0.37176067  0.24355842  1
  O  O208  1  0.50068448  0.36028979  0.74709485  1
  O  O209  1  0.50800395  0.86887772  0.25504505  1
  O  O210  1  0.50640202  0.87177531  0.75464956  1
  O  O211  1  0.48391587  0.12306948  0.24529304  1
  O  O212  1  0.49403276  0.13310691  0.74462282  1
  O  O213  1  0.51038330  0.63423885  0.23818081  1
  O  O214  1  0.48945835  0.62842960  0.74131477  1
  O  O215  1  0.99196758  0.12159457  0.23643952  1
  O  O216  1  0.99297781  0.13470413  0.74664980  1
  O  O217  1  1.00990327  0.63761613  0.24053481  1
  O  O218  1  0.99049328  0.62967921  0.74352608  1
  O  O219  1  0.35868434  0.24165211  0.00985090  1
  O  O220  1  0.36062631  0.26252823  0.49689607  1
  O  O221  1  0.36816395  0.74506129  0.00589669  1
  O  O222  1  0.38073274  0.76171240  0.50548160  1
  O  O223  1  0.87464940  0.26414606  -0.00388221  1
  O  O224  1  0.86017839  0.25844502  0.49571435  1
  O  O225  1  0.87820772  0.75868797  0.00812559  1
  O  O226  1  0.86878471  0.75699487  0.50600164  1
  O  O227  1  0.13653366  0.25206504  0.49654740  1
  O  O228  1  0.13656457  0.23848868  1.00023405  1
  O  O229  1  0.11741302  0.73841293  0.49726249  1
  O  O230  1  0.13021539  0.74397078  0.99352215  1
  O  O231  1  0.63160308  0.24086825  0.49523057  1
  O  O232  1  0.62465530  0.25243546  0.98860305  1
  O  O233  1  0.63058190  0.74313549  0.49301158  1
  O  O234  1  0.62414381  0.73247442  1.00178505  1
  O  O235  1  0.48149819  0.24938636  0.11249316  1
  O  O236  1  0.49702805  0.23850446  0.63243363  1
  O  O237  1  0.49686703  0.74353245  0.12808137  1
  O  O238  1  0.48816354  0.74365620  0.62960181  1
  O  O239  1  1.00371427  0.23694056  0.12225872  1
  O  O240  1  0.99797089  0.24392655  0.63341439  1
  O  O241  1  0.99618366  0.74676839  0.13414525  1
  O  O242  1  0.98962295  0.74432562  0.63347696  1
  O  O243  1  0.01415309  0.25716796  0.38511887  1
  O  O244  1  -0.00441771  0.26120689  0.86607438  1
  O  O245  1  -0.00561873  0.75146617  0.36205674  1
  O  O246  1  0.00533995  0.75668354  0.86922873  1
  O  O247  1  0.51259104  0.24689072  0.38236464  1
  O  O248  1  0.50342334  0.24838301  0.86943898  1
  O  O249  1  0.50512454  0.75201029  0.36572761  1
  O  O250  1  0.50122616  0.75688042  0.86866082  1
  O  O251  1  0.25680718  0.14056839  0.49814921  1
  O  O252  1  0.23752666  0.13534066  1.00068759  1
  O  O253  1  0.25406411  0.62040028  0.47907122  1
  O  O254  1  0.24273619  0.63531802  0.99982284  1
  O  O255  1  0.74375928  0.13116328  0.49801680  1
  O  O256  1  0.75841753  0.12557199  0.98636304  1
  O  O257  1  0.73965830  0.62948606  0.49731787  1
  O  O258  1  0.73240441  0.61824322  1.00225976  1
  O  O259  1  0.24271149  0.36213429  0.00622324  1
  O  O260  1  0.24992929  0.36988408  0.50692038  1
  O  O261  1  0.24395077  0.86060908  0.00272464  1
  O  O262  1  0.25676620  0.87811021  0.51284631  1
  O  O263  1  0.75583943  0.37165843  0.00958314  1
  O  O264  1  0.75241146  0.36903207  0.50671935  1
  O  O265  1  0.76639322  0.87897269  0.00087597  1
  O  O266  1  0.75414814  0.87073229  0.50514844  1
  O  O267  1  0.10792279  0.49237544  0.24831206  1
  O  O268  1  0.12255880  0.48788850  0.75371935  1
  O  O269  1  0.12119539  0.99262506  0.24152239  1
  O  O270  1  0.13286307  0.99479022  0.74889949  1
  O  O271  1  0.62157751  0.48647057  0.24222545  1
  O  O272  1  0.62739754  0.49277700  0.74513240  1
  O  O273  1  0.63472029  0.99589570  0.24470034  1
  O  O274  1  0.63016743  0.99213427  0.74769101  1
  O  O275  1  0.37561035  0.00596846  0.25750254  1
  O  O276  1  0.36734264  0.00657490  0.75585615  1
  O  O277  1  0.37683357  0.49143800  0.26164302  1
  O  O278  1  0.37409291  0.50699957  0.75450072  1
  O  O279  1  0.86374415  0.00262746  0.24757530  1
  O  O280  1  0.86895829  0.00701241  0.75572265  1
  O  O281  1  0.90143398  0.50193471  0.22782208  1
  O  O282  1  0.86181727  0.50850492  0.75367151  1
  O  O283  1  0.11179599  0.36672295  0.38176822  1
  O  O284  1  0.11020882  0.37912053  0.86779923  1
  O  O285  1  0.12529604  0.87192642  0.36721348  1
  O  O286  1  0.11923062  0.87034413  0.86971111  1
  O  O287  1  0.62885713  0.36980778  0.36149068  1
  O  O288  1  0.61993681  0.36491400  0.86831443  1
  O  O289  1  0.62108994  0.86806181  0.36875463  1
  O  O290  1  0.61639870  0.87505863  0.86246042  1
  O  O291  1  0.37484680  0.13460455  0.13064979  1
  O  O292  1  0.38128104  0.12620820  0.63426485  1
  O  O293  1  0.38869311  0.63330198  0.12052272  1
  O  O294  1  0.37750620  0.62946963  0.62540223  1
  O  O295  1  0.89103319  0.12182778  0.12908220  1
  O  O296  1  0.88236570  0.12130957  0.63970965  1
  O  O297  1  0.89060752  0.63790350  0.11811379  1
  O  O298  1  0.87760240  0.63063536  0.63769717  1
  O  O299  1  0.25684666  0.26081582  0.11680385  1
  O  O300  1  0.24864639  0.25851018  0.61327315  1
  O  O301  1  0.26277647  0.75048809  0.11869482  1
  O  O302  1  0.26272798  0.75763663  0.62952447  1
  O  O303  1  0.74261928  0.26052227  0.12217696  1
  O  O304  1  0.74067034  0.25954846  0.61654994  1
  O  O305  1  0.76100025  0.75100313  0.11856361  1
  O  O306  1  0.75453237  0.75545939  0.61978006  1
  O  O307  1  0.23608893  0.25331161  0.38458589  1
  O  O308  1  0.25666323  0.25547894  0.88924469  1
  O  O309  1  0.25757859  0.73239842  0.36480227  1
  O  O310  1  0.24540204  0.74888667  0.88100832  1
  O  O311  1  0.73999087  0.24445410  0.38467263  1
  O  O312  1  0.74093599  0.24223001  0.87562338  1
  O  O313  1  0.74434111  0.74034132  0.37893040  1
  O  O314  1  0.74298481  0.75371392  0.88322868  1
  O  O315  1  0.00906615  0.12415085  0.00814024  1
  O  O316  1  -0.01225722  0.11805292  0.51085547  1
  O  O317  1  0.00820435  0.62068394  0.00528427  1
  O  O318  1  -0.01183699  0.62155037  0.51958730  1
  O  O319  1  0.49830011  0.11252751  -0.00094711  1
  O  O320  1  0.50493117  0.12596784  0.50799602  1
  O  O321  1  0.50723925  0.61419279  0.00768434  1
  O  O322  1  0.51457031  0.63108678  0.50405486  1
  O  O323  1  0.48255028  0.36792311  0.50701806  1
  O  O324  1  0.50469609  0.39032460  1.00036890  1
  O  O325  1  0.49322694  0.87602076  0.49239947  1
  O  O326  1  0.50560172  0.88076011  0.98673726  1
  O  O327  1  0.98769123  0.37475230  0.49625772  1
  O  O328  1  0.99714369  0.38083827  0.99553899  1
  O  O329  1  0.99040853  0.88393458  0.50169653  1
  O  O330  1  0.99331959  0.88102267  0.99558451  1
  O  O331  1  0.48447555  0.50513836  0.37425903  1
  O  O332  1  0.49124926  0.49638974  0.88245604  1
  O  O333  1  0.49071337  0.99124874  0.37556212  1
  O  O334  1  0.49405422  0.99341806  0.87997481  1
  O  O335  1  0.99212071  0.48703112  0.38025362  1
  O  O336  1  0.99373906  0.49589449  0.88753214  1
  O  O337  1  0.99641847  0.99977966  0.38439868  1
  O  O338  1  0.99569681  0.99639315  0.88032550  1
  O  O339  1  0.01152796  0.00743999  0.11690783  1
  O  O340  1  0.00093609  0.01015460  0.61803060  1
  O  O341  1  0.00797452  0.51333694  0.10856498  1
  O  O342  1  -0.00736950  0.51311650  0.62989621  1
  O  O343  1  0.50759567  -0.00091405  0.11369502  1
  O  O344  1  0.50063934  0.01243940  0.62478313  1
  O  O345  1  0.50615257  0.50546566  0.11932190  1
  O  O346  1  0.51205478  0.50291522  0.62979896  1
  O  O347  1  0.24811256  0.37558753  0.23407186  1
  O  O348  1  0.23991262  0.37537099  0.73592807  1
  O  O349  1  0.23982266  0.87162353  0.24476211  1
  O  O350  1  0.24694978  0.88229893  0.73879507  1
  O  O351  1  0.74379122  0.37184225  0.23960546  1
  O  O352  1  0.74492909  0.37884973  0.74475951  1
  O  O353  1  0.74398157  0.88268324  0.24923953  1
  O  O354  1  0.74172082  0.87984472  0.74429467  1
  O  O355  1  0.26524666  0.12945210  0.25427913  1
  O  O356  1  0.25532545  0.11713721  0.74338929  1
  O  O357  1  0.24614159  0.61474761  0.25923286  1
  O  O358  1  0.26125013  0.62386727  0.74848617  1
  O  O359  1  0.75663232  0.11771321  0.25116309  1
  O  O360  1  0.75701428  0.12275225  0.75599133  1
  O  O361  1  0.74634191  0.62847017  0.26074196  1
  O  O362  1  0.75518080  0.61498073  0.74638768  1
  O  O363  1  0.37413079  0.11580744  0.36841161  1
  O  O364  1  0.37875740  0.11464329  0.86036191  1
  O  O365  1  0.36804087  0.60992373  0.37472125  1
  O  O366  1  0.37534761  0.61634373  0.86346751  1
  O  O367  1  0.86814318  0.12485377  0.36488388  1
  O  O368  1  0.86986082  0.12053239  0.86573486  1
  O  O369  1  0.86102492  0.62404280  0.37574035  1
  O  O370  1  0.87882819  0.62404941  0.86390183  1
  O  O371  1  0.13459169  0.37295185  0.12302961  1
  O  O372  1  0.13465207  0.37336647  0.62963380  1
  O  O373  1  0.12674219  0.88615851  0.13189064  1
  O  O374  1  0.13264146  0.87588404  0.63073423  1
  O  O375  1  0.63217747  0.37873937  0.13509031  1
  O  O376  1  0.63036801  0.37933550  0.62981545  1
  O  O377  1  0.62765725  0.88439418  0.13139369  1
  O  O378  1  0.62610668  0.87526962  0.63433456  1
  O  O379  1  0.12821704  0.24812123  0.26324200  1
  O  O380  1  0.11144041  0.26323594  0.74836282  1
  O  O381  1  0.11767747  0.76180376  0.25079274  1
  O  O382  1  0.11995570  0.75690267  0.75672583  1
  O  O383  1  0.62602883  0.26170950  0.25867866  1
  O  O384  1  0.61514936  0.25340117  0.75766282  1
  O  O385  1  0.61791943  0.75658103  0.25108207  1
  O  O386  1  0.61638374  0.75648556  0.74900254  1
  O  O387  1  0.37115300  0.24667935  0.23505447  1
  O  O388  1  0.37940034  0.24254542  0.74738790  1
  O  O389  1  0.39114526  0.75262918  0.23962957  1
  O  O390  1  0.37920598  0.74225645  0.74194756  1
  O  O391  1  0.86557158  0.23843436  0.25035547  1
  O  O392  1  0.88369073  0.24334449  0.75477405  1
  O  O393  1  0.88448379  0.75921905  0.23803255  1
  O  O394  1  0.87737935  0.74480815  0.74611971  1
  O  O395  1  0.37214185  0.48401078  0.48930393  1
  O  O396  1  0.38292591  0.50801129  0.98872983  1
  O  O397  1  0.37804827  0.98718774  0.49541542  1
  O  O398  1  0.37976686  1.00425161  0.98669747  1
  O  O399  1  0.87097964  0.48794811  0.50753543  1
  O  O400  1  0.88444065  0.48818393  1.00888193  1
  O  O401  1  0.88155186  0.99226664  0.49991110  1
  O  O402  1  0.88361126  0.99462904  0.99457061  1
  O  O403  1  0.12201256  0.01246676  0.00420143  1
  O  O404  1  0.11064489  -0.00285436  0.50267393  1
  O  O405  1  0.12078313  0.51543408  -0.00910997  1
  O  O406  1  0.12093161  0.51020000  0.50059332  1
  O  O407  1  0.61737804  -0.00518711  0.00732295  1
  O  O408  1  0.62307961  0.01378849  0.49951772  1
  O  O409  1  0.61855129  0.50640711  0.00794299  1
  O  O410  1  0.63036260  0.50625338  0.50830259  1
  O  O411  1  0.36848277  0.36262994  0.12230451  1
  O  O412  1  0.36073604  0.37321873  0.61394384  1
  O  O413  1  0.37786288  0.86332845  0.12556239  1
  O  O414  1  0.37047906  0.86816285  0.61798202  1
  O  O415  1  0.85781616  0.37532015  0.12101446  1
  O  O416  1  0.85938936  0.37694014  0.62117834  1
  O  O417  1  0.87767894  0.86788801  0.11641774  1
  O  O418  1  0.86928659  0.86966503  0.61611773  1
  O  O419  1  0.12508398  0.13847370  0.37391357  1
  O  O420  1  0.12001860  0.12304543  0.88921015  1
  O  O421  1  0.13855748  0.63196047  0.37626827  1
  O  O422  1  0.12576779  0.63492865  0.88033950  1
  O  O423  1  0.62890847  0.13059631  0.38031826  1
  O  O424  1  0.63550557  0.13278394  0.86746080  1
  O  O425  1  0.63362293  0.62629465  0.38021086  1
  O  O426  1  0.61654937  0.62199663  0.88887803  1
