# generated using pymatgen
data_V85Zn86O256
_symmetry_space_group_name_H-M   'P 1'
_cell_length_a   16.96216514
_cell_length_b   16.96198479
_cell_length_c   16.95122078
_cell_angle_alpha   89.95473343
_cell_angle_beta   90.00243887
_cell_angle_gamma   90.01440151
_symmetry_Int_Tables_number   1
_chemical_formula_structural   V85Zn86O256
_chemical_formula_sum   'V85 Zn86 O256'
_cell_volume   4877.06773421
_cell_formula_units_Z   1
loop_
 _symmetry_equiv_pos_site_id
 _symmetry_equiv_pos_as_xyz
  1  'x, y, z'
loop_
 _atom_site_type_symbol
 _atom_site_label
 _atom_site_symmetry_multiplicity
 _atom_site_fract_x
 _atom_site_fract_y
 _atom_site_fract_z
 _atom_site_occupancy
  V  V0  1  -0.00404688  0.23729259  0.24949343  1
  V  V1  1  0.75238470  0.75148673  -0.00564111  1
  V  V2  1  0.50325455  0.50886767  0.49502066  1
  V  V3  1  0.61994426  0.12216073  -0.00097073  1
  V  V4  1  0.00006363  0.36182089  0.87685044  1
  V  V5  1  0.87134351  0.62517253  0.25280977  1
  V  V6  1  0.24956322  0.87309433  0.63019097  1
  V  V7  1  -0.00123862  0.00002831  0.50039790  1
  V  V8  1  0.00004742  0.87393854  0.37521792  1
  V  V9  1  0.12908574  0.87073834  0.24421327  1
  V  V10  1  0.87531836  0.00645380  0.36872422  1
  V  V11  1  0.50269067  0.25333267  0.75302109  1
  V  V12  1  0.75269374  0.87527928  0.12203721  1
  V  V13  1  0.75025527  0.12504756  0.87554592  1
  V  V14  1  0.49737348  0.63584522  0.12504381  1
  V  V15  1  0.49976853  0.12635692  0.62604398  1
  V  V16  1  0.61831206  -0.00325368  0.12149983  1
  V  V17  1  0.50123654  0.50009303  0.00494615  1
  V  V18  1  0.49940655  0.00168964  0.49893082  1
  V  V19  1  0.37486981  0.25154350  0.62873451  1
  V  V20  1  0.87597263  0.75064010  0.62665855  1
  V  V21  1  0.25006671  0.50464779  0.75695562  1
  V  V22  1  0.74755588  0.00124386  0.74948763  1
  V  V23  1  -0.00183189  0.62193755  0.12790327  1
  V  V24  1  0.37395968  0.87372733  0.50101359  1
  V  V25  1  0.25434130  0.24877669  0.49980773  1
  V  V26  1  0.00712204  0.63096819  0.61977183  1
  V  V27  1  0.49200508  0.37737402  0.37802990  1
  V  V28  1  0.87596428  0.23721324  0.13015796  1
  V  V29  1  0.62320660  0.00000586  0.62437036  1
  V  V30  1  0.75043826  0.50935117  0.75414750  1
  V  V31  1  0.12288572  0.73755125  0.38191327  1
  V  V32  1  0.87114212  0.49560318  0.38634831  1
  V  V33  1  0.01253848  0.87506120  0.86687928  1
  V  V34  1  0.36000128  0.87027515  0.00588263  1
  V  V35  1  0.25043879  0.12555490  0.37263581  1
  V  V36  1  0.75108594  0.00839931  0.24683144  1
  V  V37  1  0.13217238  0.50893590  0.61541596  1
  V  V38  1  0.62102036  0.25141037  0.37275339  1
  V  V39  1  0.25121346  -0.00437490  0.24088104  1
  V  V40  1  0.23983706  0.13423266  0.88040193  1
  V  V41  1  0.62657935  0.74566867  0.87203357  1
  V  V42  1  0.74857635  0.49966112  0.24902603  1
  V  V43  1  0.74326993  0.62345403  0.38074123  1
  V  V44  1  0.87383544  0.51509141  0.88039371  1
  V  V45  1  0.37431528  -0.00079769  0.37309199  1
  V  V46  1  0.45600889  0.28906285  0.20275065  1
  V  V47  1  0.74874999  0.37885954  0.12448541  1
  V  V48  1  -0.05777956  0.30064293  0.69159236  1
  V  V49  1  0.63095705  0.61968167  0.00513176  1
  V  V50  1  0.74458866  0.74704014  0.50153884  1
  V  V51  1  0.12953052  0.36408544  0.75004245  1
  V  V52  1  0.37791246  0.62915944  0.75655988  1
  V  V53  1  0.87402260  0.37235333  0.00209949  1
  V  V54  1  0.37379278  0.12455352  0.75435899  1
  V  V55  1  0.38091189  0.49765726  0.87427138  1
  V  V56  1  0.76024023  0.25850741  0.50457935  1
  V  V57  1  0.62715812  0.12853283  0.49782894  1
  V  V58  1  -0.00334942  0.75006090  0.25171583  1
  V  V59  1  0.26828609  0.62238418  0.38156964  1
  V  V60  1  0.74825901  0.87683731  0.62568597  1
  V  V61  1  0.88025990  0.12480281  0.74461164  1
  V  V62  1  0.38223804  -0.00064630  0.88345312  1
  V  V63  1  0.11866346  0.13510887  0.00649568  1
  V  V64  1  0.12230846  0.37763008  0.25317543  1
  V  V65  1  0.49819998  0.85983257  0.88007113  1
  V  V66  1  0.35600303  0.74826342  0.12823924  1
  V  V67  1  0.12668682  0.12147512  0.50108330  1
  V  V68  1  0.62407631  0.75097534  0.37316561  1
  V  V69  1  0.12527048  0.24825750  0.37316017  1
  V  V70  1  0.38279425  0.74941708  0.62995874  1
  V  V71  1  0.87581511  0.75190607  0.11536394  1
  V  V72  1  -0.00127348  -0.00602480  0.00777783  1
  V  V73  1  0.87510862  -0.00708156  0.87771231  1
  V  V74  1  0.62703309  0.37605145  0.24806237  1
  V  V75  1  -0.00656117  0.37255554  0.38375836  1
  V  V76  1  0.12350059  -0.00426738  0.62917599  1
  V  V77  1  0.12412084  0.49532061  0.12842059  1
  V  V78  1  0.25346164  0.37713587  0.62761050  1
  V  V79  1  0.51058363  0.62661851  0.62848075  1
  V  V80  1  0.62836145  0.37835044  0.74730608  1
  V  V81  1  0.00246533  0.49947344  -0.00103495  1
  V  V82  1  0.49351193  0.12008419  0.12623219  1
  V  V83  1  0.24521852  -0.00206831  0.75557940  1
  V  V84  1  0.25973323  0.50520402  0.25624890  1
  Zn  Zn85  1  0.50077792  0.87438366  0.37202664  1
  Zn  Zn86  1  0.15137564  0.62887307  -0.00366125  1
  Zn  Zn87  1  0.37612049  0.12652650  0.24519551  1
  Zn  Zn88  1  0.75322446  0.12936524  0.37014538  1
  Zn  Zn89  1  0.87635798  0.63268151  0.75685639  1
  Zn  Zn90  1  0.63214821  0.50351163  0.62080245  1
  Zn  Zn91  1  0.50521255  0.37557844  0.88096178  1
  Zn  Zn92  1  0.12434307  -0.00201226  0.12463703  1
  Zn  Zn93  1  0.76204641  0.37616580  0.62523673  1
  Zn  Zn94  1  0.61313147  0.87207464  0.74866243  1
  Zn  Zn95  1  0.00221299  0.50341699  0.49903247  1
  Zn  Zn96  1  0.24491444  0.73992532  0.50721768  1
  Zn  Zn97  1  0.00059552  0.12844029  0.62848864  1
  Zn  Zn98  1  0.14986266  0.74045427  0.87204406  1
  Zn  Zn99  1  0.49345278  0.74835009  0.25295541  1
  Zn  Zn100  1  0.37498703  0.38018952  0.49629591  1
  Zn  Zn101  1  0.62778044  0.24992374  0.87485969  1
  Zn  Zn102  1  0.75078365  0.24701998  0.00284885  1
  Zn  Zn103  1  0.29211217  0.29949608  0.03795061  1
  Zn  Zn104  1  0.01049448  0.75480078  0.74805357  1
  Zn  Zn105  1  0.62206633  0.87420051  0.24861966  1
  Zn  Zn106  1  0.87263135  0.87800152  0.49813605  1
  Zn  Zn107  1  0.18486072  0.18416194  0.18355805  1
  Zn  Zn108  1  0.18809516  0.18464199  0.68906651  1
  Zn  Zn109  1  0.18317993  0.67834731  0.19240475  1
  Zn  Zn110  1  0.18867111  0.69013275  0.69502393  1
  Zn  Zn111  1  0.68415647  0.18995266  0.18514376  1
  Zn  Zn112  1  0.69021180  0.18991734  0.68509242  1
  Zn  Zn113  1  0.68696815  0.68821465  0.18701709  1
  Zn  Zn114  1  0.68963466  0.68898076  0.69170632  1
  Zn  Zn115  1  0.29740327  0.31723989  0.21354239  1
  Zn  Zn116  1  0.33575551  0.29405320  0.85504323  1
  Zn  Zn117  1  0.31029255  0.80823816  0.31229900  1
  Zn  Zn118  1  0.31477038  0.81313818  0.81175517  1
  Zn  Zn119  1  0.81166862  0.30951400  0.31447085  1
  Zn  Zn120  1  0.80674224  0.31855566  0.81903420  1
  Zn  Zn121  1  0.81059297  0.81729236  0.30961577  1
  Zn  Zn122  1  0.81214968  0.81337204  0.81088627  1
  Zn  Zn123  1  0.19102289  0.43595288  0.43544328  1
  Zn  Zn124  1  0.18336757  0.43091900  0.93333798  1
  Zn  Zn125  1  0.18709714  0.93301305  0.43566552  1
  Zn  Zn126  1  0.18529372  0.94075057  0.93927993  1
  Zn  Zn127  1  0.68282633  0.43575364  0.43970599  1
  Zn  Zn128  1  0.68887769  0.43811953  0.93413308  1
  Zn  Zn129  1  0.68853869  0.93752319  0.43611720  1
  Zn  Zn130  1  0.68571984  0.93573343  0.93986047  1
  Zn  Zn131  1  0.30999737  0.06255059  0.05721159  1
  Zn  Zn132  1  0.31263054  0.06145686  0.56475514  1
  Zn  Zn133  1  0.29229888  0.50510259  0.04559663  1
  Zn  Zn134  1  0.32181810  0.56240213  0.56296425  1
  Zn  Zn135  1  0.81132840  0.05976467  0.05983292  1
  Zn  Zn136  1  0.81267533  0.06561773  0.56017578  1
  Zn  Zn137  1  0.81305461  0.56377130  0.06270852  1
  Zn  Zn138  1  0.81220444  0.56562684  0.56627727  1
  Zn  Zn139  1  0.44248038  0.45738576  0.19010234  1
  Zn  Zn140  1  0.44068798  0.44162013  0.68656407  1
  Zn  Zn141  1  0.43825631  0.93049285  0.18725116  1
  Zn  Zn142  1  0.43623441  0.93765297  0.69346104  1
  Zn  Zn143  1  0.93579855  0.43284654  0.19322228  1
  Zn  Zn144  1  0.94285523  0.46362875  0.69192958  1
  Zn  Zn145  1  0.93496318  0.93499689  0.18852149  1
  Zn  Zn146  1  0.93466246  0.93906915  0.68824530  1
  Zn  Zn147  1  0.06541206  0.05799656  0.31138745  1
  Zn  Zn148  1  0.06024917  0.06308495  0.81386134  1
  Zn  Zn149  1  0.05839060  0.56164394  0.31619874  1
  Zn  Zn150  1  0.06387125  0.56154894  0.80580271  1
  Zn  Zn151  1  0.56190605  0.06295109  0.30758938  1
  Zn  Zn152  1  0.56201071  0.06084104  0.81239263  1
  Zn  Zn153  1  0.56377270  0.56276513  0.31053359  1
  Zn  Zn154  1  0.56366581  0.56785895  0.81519625  1
  Zn  Zn155  1  0.43697012  0.19037549  0.43459227  1
  Zn  Zn156  1  0.43853486  0.18421392  0.94326299  1
  Zn  Zn157  1  0.43966148  0.68943396  0.44368745  1
  Zn  Zn158  1  0.32058098  0.67739695  0.94755850  1
  Zn  Zn159  1  0.93916209  0.18379970  0.43762617  1
  Zn  Zn160  1  0.93571672  0.18249289  0.93996824  1
  Zn  Zn161  1  0.93210128  0.68734619  0.44139487  1
  Zn  Zn162  1  1.00407665  0.68485118  0.93434267  1
  Zn  Zn163  1  0.06070232  0.31216603  0.06824806  1
  Zn  Zn164  1  0.07281376  0.31776702  0.55693253  1
  Zn  Zn165  1  0.06416957  0.81270320  0.05931995  1
  Zn  Zn166  1  0.06387708  0.81534480  0.56171634  1
  Zn  Zn167  1  0.57114332  0.31240938  0.05800604  1
  Zn  Zn168  1  0.56515385  0.31638539  0.56334835  1
  Zn  Zn169  1  0.56083553  0.81492723  0.05475929  1
  Zn  Zn170  1  0.56243953  0.81227019  0.55900402  1
  O  O171  1  0.12458445  0.11865558  0.11022555  1
  O  O172  1  0.12652948  0.11228004  0.61987418  1
  O  O173  1  0.11330281  0.61160384  0.12725994  1
  O  O174  1  0.12145243  0.61999457  0.62551166  1
  O  O175  1  0.61844958  0.11802341  0.11768308  1
  O  O176  1  0.61987188  0.12075622  0.61723492  1
  O  O177  1  0.62096704  0.63174029  0.11101579  1
  O  O178  1  0.61455588  0.62744294  0.63090388  1
  O  O179  1  0.39329339  0.37055381  0.37511574  1
  O  O180  1  0.38768527  0.39505957  0.86014905  1
  O  O181  1  0.37154727  0.88385096  0.38396917  1
  O  O182  1  0.38252969  0.87910348  0.88454075  1
  O  O183  1  0.88117394  0.38382931  0.37042106  1
  O  O184  1  0.87945962  0.37855826  0.88866520  1
  O  O185  1  0.88176094  0.88414605  0.37597005  1
  O  O186  1  0.87197231  0.89155293  0.87148950  1
  O  O187  1  0.25593530  0.00758995  0.37111584  1
  O  O188  1  0.25598191  0.00317320  0.86874263  1
  O  O189  1  0.24570702  0.51356551  0.37024546  1
  O  O190  1  0.25836624  0.49697786  0.86085365  1
  O  O191  1  0.75705419  0.00019190  0.36540342  1
  O  O192  1  0.75474895  0.00807846  0.87238519  1
  O  O193  1  0.75305105  0.50609003  0.37356502  1
  O  O194  1  0.76234327  0.49728565  0.86850949  1
  O  O195  1  0.23569701  0.50434770  0.14952619  1
  O  O196  1  0.24928533  0.49401616  0.62859397  1
  O  O197  1  0.25026100  1.00298356  0.13831334  1
  O  O198  1  0.24496506  0.99469908  0.63365834  1
  O  O199  1  0.75779699  0.48670722  0.13191645  1
  O  O200  1  0.75206784  0.49596332  0.63486902  1
  O  O201  1  0.74555642  0.99346997  0.12916883  1
  O  O202  1  0.74386279  0.99373957  0.62627196  1
  O  O203  1  0.00780951  0.36882333  0.26348738  1
  O  O204  1  0.00115596  0.36987906  0.75122913  1
  O  O205  1  0.00472074  0.86851654  0.25750925  1
  O  O206  1  -0.00028414  0.88249814  0.76352819  1
  O  O207  1  0.50879643  0.37629695  0.25483829  1
  O  O208  1  0.50924804  0.36810921  0.74886163  1
  O  O209  1  0.50447059  0.86835708  0.25481480  1
  O  O210  1  0.49785253  0.88247298  0.77183481  1
  O  O211  1  0.49734579  0.12620967  0.23687386  1
  O  O212  1  0.49597632  0.13183765  0.74426304  1
  O  O213  1  0.51006927  0.62622501  0.23041903  1
  O  O214  1  0.49115200  0.61986193  0.74020363  1
  O  O215  1  1.00630058  0.13821480  0.25620907  1
  O  O216  1  0.98978779  0.12402142  0.74800446  1
  O  O217  1  0.99141089  0.62998099  0.24710877  1
  O  O218  1  0.99456262  0.62568123  0.73344495  1
  O  O219  1  0.36672444  0.26431279  -0.03627627  1
  O  O220  1  0.37003390  0.25137430  0.50900630  1
  O  O221  1  0.37398047  0.76116397  0.01460901  1
  O  O222  1  0.37096229  0.75912992  0.50933659  1
  O  O223  1  0.87387524  0.25614543  0.00845997  1
  O  O224  1  0.85786839  0.24312559  0.49331437  1
  O  O225  1  0.86674139  0.74282738  0.01382201  1
  O  O226  1  0.86290272  0.75506656  0.50956796  1
  O  O227  1  0.13383772  0.24209468  0.49356844  1
  O  O228  1  0.11649317  0.23517644  1.00386780  1
  O  O229  1  0.13117012  0.76088802  0.48723458  1
  O  O230  1  0.10229174  0.73630794  0.98880474  1
  O  O231  1  0.63129289  0.24428577  0.49506367  1
  O  O232  1  0.63130275  0.23817621  0.99535114  1
  O  O233  1  0.63748553  0.75406149  0.49076483  1
  O  O234  1  0.63415181  0.74382122  0.99277925  1
  O  O235  1  0.50682227  0.23996727  0.12441776  1
  O  O236  1  0.49558217  0.24725499  0.63469107  1
  O  O237  1  0.50431048  0.74210493  0.12486083  1
  O  O238  1  0.49337700  0.74203637  0.61779914  1
  O  O239  1  0.98853131  0.25508359  0.13792683  1
  O  O240  1  1.00023053  0.25101291  0.62306592  1
  O  O241  1  0.99091858  0.74467258  0.13145613  1
  O  O242  1  0.99282168  0.74994400  0.62534794  1
  O  O243  1  0.00382028  0.25498192  0.37144565  1
  O  O244  1  -0.00627538  0.26252189  0.87911091  1
  O  O245  1  0.00374672  0.75364574  0.37311009  1
  O  O246  1  -0.02008823  0.77480470  0.86861474  1
  O  O247  1  0.51359054  0.25869576  0.38165884  1
  O  O248  1  0.50464622  0.24958475  0.86194585  1
  O  O249  1  0.51048522  0.74843831  0.37555233  1
  O  O250  1  0.50904671  0.76017712  0.87717337  1
  O  O251  1  0.24574269  0.12662432  0.49439249  1
  O  O252  1  0.23531981  0.12078428  0.98931032  1
  O  O253  1  0.25655074  0.62298028  0.48735382  1
  O  O254  1  0.25933463  0.60601447  1.00813519  1
  O  O255  1  0.73792108  0.13183779  0.49813837  1
  O  O256  1  0.74182672  0.12422165  0.99142707  1
  O  O257  1  0.75318884  0.63490378  0.49307804  1
  O  O258  1  0.74003165  0.63447613  1.00664798  1
  O  O259  1  0.25399760  0.40224743  0.01219975  1
  O  O260  1  0.25399184  0.36814246  0.50698403  1
  O  O261  1  0.26107009  0.87572864  -0.00244366  1
  O  O262  1  0.26183327  0.87971079  0.51175532  1
  O  O263  1  0.75622915  0.37284254  0.00701187  1
  O  O264  1  0.74945720  0.36324461  0.50280158  1
  O  O265  1  0.74769790  0.86699897  0.01224688  1
  O  O266  1  0.74981113  0.87030648  0.51171366  1
  O  O267  1  0.12069063  0.49269385  0.24750612  1
  O  O268  1  0.13386466  0.49475734  0.73860784  1
  O  O269  1  0.13275934  0.99007678  0.24821473  1
  O  O270  1  0.13637184  1.00428855  0.74339300  1
  O  O271  1  0.63394609  0.48579826  0.25646520  1
  O  O272  1  0.63412338  0.49556118  0.75185522  1
  O  O273  1  0.63288288  0.99798488  0.23943310  1
  O  O274  1  0.63053396  0.99871603  0.74203046  1
  O  O275  1  0.36840349  -0.00179043  0.25851110  1
  O  O276  1  0.36432539  0.00741605  0.75707535  1
  O  O277  1  0.35817529  0.50062373  0.25275471  1
  O  O278  1  0.37030674  0.50900691  0.75206744  1
  O  O279  1  0.86553555  -0.00387300  0.25695651  1
  O  O280  1  0.86690396  0.00809066  0.75657271  1
  O  O281  1  0.86763922  0.50519615  0.26096857  1
  O  O282  1  0.86848293  0.50437545  0.76399783  1
  O  O283  1  0.11722409  0.36755376  0.37221454  1
  O  O284  1  0.11200323  0.38210506  0.86110075  1
  O  O285  1  0.11772365  0.86782444  0.36588678  1
  O  O286  1  0.11339451  0.87350402  0.87753392  1
  O  O287  1  0.61958530  0.36782406  0.36806895  1
  O  O288  1  0.62564005  0.37112160  0.86267870  1
  O  O289  1  0.62389961  0.86547901  0.37502183  1
  O  O290  1  0.61257731  0.87005724  0.87839269  1
  O  O291  1  0.38928958  0.11830522  0.12010782  1
  O  O292  1  0.37946853  0.13113158  0.63310704  1
  O  O293  1  0.39209874  0.64369376  0.12022184  1
  O  O294  1  0.38589511  0.63364608  0.63113916  1
  O  O295  1  0.86802481  0.13844857  0.12128142  1
  O  O296  1  0.87509322  0.12147233  0.63945061  1
  O  O297  1  0.87708269  0.63084740  0.13562464  1
  O  O298  1  0.88195326  0.63675506  0.62646593  1
  O  O299  1  0.25557460  0.25278480  0.13189688  1
  O  O300  1  0.25541754  0.25651023  0.62168685  1
  O  O301  1  0.25752278  0.74042986  0.12965730  1
  O  O302  1  0.25832225  0.75911346  0.62422407  1
  O  O303  1  0.75852562  0.26168854  0.12710976  1
  O  O304  1  0.74927097  0.25385725  0.60983224  1
  O  O305  1  0.75471076  0.75747113  0.11929172  1
  O  O306  1  0.75356916  0.75675025  0.61976089  1
  O  O307  1  0.24486694  0.23340780  0.38030465  1
  O  O308  1  0.23859435  0.23188575  0.86312913  1
  O  O309  1  0.24273062  0.73474243  0.37593360  1
  O  O310  1  0.26223316  0.74454967  0.87877872  1
  O  O311  1  0.73909789  0.24907731  0.38440935  1
  O  O312  1  0.75078971  0.23529465  0.87589855  1
  O  O313  1  0.74740772  0.74447669  0.38295619  1
  O  O314  1  0.74555069  0.75840140  0.88797582  1
  O  O315  1  0.01296867  0.11160016  -0.01020344  1
  O  O316  1  0.00793921  0.11738480  0.50429165  1
  O  O317  1  -0.01608071  0.60557585  0.01503640  1
  O  O318  1  -0.00415358  0.62524257  0.51361405  1
  O  O319  1  0.51253000  0.12563695  0.00603252  1
  O  O320  1  0.50954089  0.12350718  0.50544293  1
  O  O321  1  0.51581740  0.61758020  0.01142892  1
  O  O322  1  0.49948309  0.61536765  0.50835830  1
  O  O323  1  0.50063100  0.38332552  0.49333622  1
  O  O324  1  0.51719296  0.39579986  1.00063315  1
  O  O325  1  0.48760788  0.88127378  0.49781797  1
  O  O326  1  0.48916382  0.87516819  0.98607104  1
  O  O327  1  1.00305496  0.37684301  0.48737401  1
  O  O328  1  0.99414133  0.38119835  0.99619822  1
  O  O329  1  0.99810129  0.88387171  0.49244423  1
  O  O330  1  1.00030904  0.88932432  0.98894364  1
  O  O331  1  0.50656649  0.49550609  0.38627383  1
  O  O332  1  0.49825180  0.50307944  0.88639691  1
  O  O333  1  0.49071113  1.00078685  0.38076017  1
  O  O334  1  0.48428115  1.00216686  0.87381604  1
  O  O335  1  0.98924115  0.49233084  0.37816588  1
  O  O336  1  0.99122637  0.48851360  0.88398394  1
  O  O337  1  0.99402358  0.99453932  0.37894254  1
  O  O338  1  0.99359419  0.99112311  0.88027032  1
  O  O339  1  -0.00318536  -0.00540617  0.11088652  1
  O  O340  1  0.00874828  -0.00094481  0.61973696  1
  O  O341  1  0.00225681  0.50018857  0.12182468  1
  O  O342  1  0.01335276  0.51062808  0.61971741  1
  O  O343  1  0.51073902  0.00409222  0.12902611  1
  O  O344  1  0.50292179  0.00556569  0.61955469  1
  O  O345  1  0.49905065  0.51627846  0.11330700  1
  O  O346  1  0.50591602  0.50984641  0.61749732  1
  O  O347  1  0.23234222  0.39238712  0.26638141  1
  O  O348  1  0.24274068  0.38455405  0.74103719  1
  O  O349  1  0.23981520  0.88316812  0.25951243  1
  O  O350  1  0.25928932  0.88460732  0.73759843  1
  O  O351  1  0.74587598  0.37955670  0.24472415  1
  O  O352  1  0.74549855  0.38454958  0.74763677  1
  O  O353  1  0.74573437  0.88387446  0.23753696  1
  O  O354  1  0.74701056  0.88211875  0.73784360  1
  O  O355  1  0.25149147  0.11512479  0.25854543  1
  O  O356  1  0.25275176  0.11658773  0.75972378  1
  O  O357  1  0.24291294  0.61261925  0.26670384  1
  O  O358  1  0.26434164  0.61361873  0.73862112  1
  O  O359  1  0.74371903  0.11262242  0.24965617  1
  O  O360  1  0.75400501  0.12010058  0.75600187  1
  O  O361  1  0.75302240  0.61899590  0.25698490  1
  O  O362  1  0.75517712  0.61379923  0.74912787  1
  O  O363  1  0.36856328  0.11352954  0.37598039  1
  O  O364  1  0.36170522  0.11604575  0.87460087  1
  O  O365  1  0.36622188  0.63093537  0.37393806  1
  O  O366  1  0.38022290  0.61503749  0.86173001  1
  O  O367  1  0.87265195  0.11081778  0.37716429  1
  O  O368  1  0.86810523  0.11738577  0.86631592  1
  O  O369  1  0.86366887  0.61951951  0.37125842  1
  O  O370  1  0.88777067  0.61476930  0.87819039  1
  O  O371  1  0.11595613  0.38635030  0.13809144  1
  O  O372  1  0.13711293  0.38273999  0.62923175  1
  O  O373  1  0.11900554  0.87384966  0.13991501  1
  O  O374  1  0.13569355  0.88746203  0.62081529  1
  O  O375  1  0.63650894  0.36983878  0.13471049  1
  O  O376  1  0.62864352  0.37817190  0.63804878  1
  O  O377  1  0.63087092  0.88245366  0.12262015  1
  O  O378  1  0.62926771  0.88071110  0.62646554  1
  O  O379  1  0.11905773  0.25714284  0.25566974  1
  O  O380  1  0.12569430  0.26470690  0.74115837  1
  O  O381  1  0.11754597  0.75356534  0.25846107  1
  O  O382  1  0.12265808  0.74905557  0.75990128  1
  O  O383  1  0.62980133  0.26201959  0.25947950  1
  O  O384  1  0.61923489  0.25669836  0.74939502  1
  O  O385  1  0.62991438  0.75163428  0.26450922  1
  O  O386  1  0.63477240  0.75484445  0.76734788  1
  O  O387  1  0.38231919  0.24480636  0.26040382  1
  O  O388  1  0.38340097  0.24366372  0.75150271  1
  O  O389  1  0.37561361  0.75674418  0.23293975  1
  O  O390  1  0.37537779  0.74356819  0.73773930  1
  O  O391  1  0.88338980  0.25301107  0.24373336  1
  O  O392  1  0.87593960  0.24655492  0.75031818  1
  O  O393  1  0.87805230  0.74398373  0.24589552  1
  O  O394  1  0.87421596  0.75155970  0.73641212  1
  O  O395  1  0.39619491  0.49555875  0.50590564  1
  O  O396  1  0.39576844  0.50448828  0.99000415  1
  O  O397  1  0.37963459  0.99497835  0.49440499  1
  O  O398  1  0.36986009  0.98581675  0.99416835  1
  O  O399  1  0.87437437  0.50302394  0.48909255  1
  O  O400  1  0.87813529  0.49043777  0.99711609  1
  O  O401  1  0.88213640  0.99985724  0.49320160  1
  O  O402  1  0.88929918  1.00990299  0.99091700  1
  O  O403  1  0.11294824  0.00414639  0.00390210  1
  O  O404  1  0.12003073  0.00271501  0.50588394  1
  O  O405  1  0.11356375  0.49869231  0.01105659  1
  O  O406  1  0.12689874  0.49501898  0.51273139  1
  O  O407  1  0.63099254  0.00828039  0.01166979  1
  O  O408  1  0.61969185  0.00850422  0.50298954  1
  O  O409  1  0.62345175  0.51468969  -0.00590503  1
  O  O410  1  0.61064000  0.49635246  0.50469739  1
  O  O411  1  0.39282875  0.36037598  0.15130913  1
  O  O412  1  0.36521953  0.37043248  0.62798722  1
  O  O413  1  0.37591928  0.86447477  0.11369822  1
  O  O414  1  0.37208257  0.86970175  0.62065602  1
  O  O415  1  0.87071146  0.36960525  0.11593721  1
  O  O416  1  0.88725332  0.36876153  0.63998392  1
  O  O417  1  0.86562635  0.86383419  0.12950111  1
  O  O418  1  0.86568230  0.87067304  0.62282106  1
  O  O419  1  0.13271064  0.12583945  0.38101641  1
  O  O420  1  0.13473561  0.11663091  0.88441010  1
  O  O421  1  0.12269904  0.63547043  0.37625170  1
  O  O422  1  0.09943110  0.62712070  0.88761070  1
  O  O423  1  0.62468611  0.13252185  0.38170585  1
  O  O424  1  0.63252866  0.12209743  0.88182894  1
  O  O425  1  0.63760424  0.63130362  0.37236535  1
  O  O426  1  0.62147034  0.63629841  0.88988501  1
