# generated using pymatgen
data_V85Zn86O256
_symmetry_space_group_name_H-M   'P 1'
_cell_length_a   16.93238444
_cell_length_b   16.91555918
_cell_length_c   16.92825780
_cell_angle_alpha   90.07663505
_cell_angle_beta   90.00588197
_cell_angle_gamma   89.96487824
_symmetry_Int_Tables_number   1
_chemical_formula_structural   V85Zn86O256
_chemical_formula_sum   'V85 Zn86 O256'
_cell_volume   4848.59903837
_cell_formula_units_Z   1
loop_
 _symmetry_equiv_pos_site_id
 _symmetry_equiv_pos_as_xyz
  1  'x, y, z'
loop_
 _atom_site_type_symbol
 _atom_site_label
 _atom_site_symmetry_multiplicity
 _atom_site_fract_x
 _atom_site_fract_y
 _atom_site_fract_z
 _atom_site_occupancy
  V  V0  1  0.50542393  -0.00194037  0.49707480  1
  V  V1  1  0.12537682  0.74965477  0.37714861  1
  V  V2  1  0.12518336  0.87369135  0.24994634  1
  V  V3  1  0.37959846  0.87306264  0.51195594  1
  V  V4  1  0.38238698  0.63834383  0.74402498  1
  V  V5  1  0.88268286  0.50351479  0.87726049  1
  V  V6  1  0.62235187  0.75030810  0.87098043  1
  V  V7  1  0.13478124  0.37416337  0.24993504  1
  V  V8  1  0.25504630  0.49807463  0.74759775  1
  V  V9  1  0.25763906  0.74963528  0.50748134  1
  V  V10  1  0.63226667  0.63364077  0.49913346  1
  V  V11  1  0.75305688  0.12927346  0.38342800  1
  V  V12  1  0.25388078  0.12133968  0.37757949  1
  V  V13  1  0.87590996  0.74888665  0.12526950  1
  V  V14  1  0.86992730  0.25063031  0.12509608  1
  V  V15  1  -0.00311231  0.88383789  0.37670402  1
  V  V16  1  0.12326246  0.62468438  0.50195015  1
  V  V17  1  0.12023622  0.75152171  0.86317811  1
  V  V18  1  0.12408801  0.11711820  0.51023447  1
  V  V19  1  0.12686074  0.50041253  0.62808208  1
  V  V20  1  0.75343380  0.00064445  0.25288525  1
  V  V21  1  0.00020320  0.37531720  0.37461805  1
  V  V22  1  0.74903892  0.62322175  0.86837584  1
  V  V23  1  0.38246967  0.12112486  0.24175303  1
  V  V24  1  0.49934929  0.24707761  0.74870172  1
  V  V25  1  0.62250683  0.87735803  0.25896759  1
  V  V26  1  0.62855400  0.00274368  0.62491878  1
  V  V27  1  0.88117918  0.73790972  0.62534869  1
  V  V28  1  0.62913470  0.24224470  0.87373137  1
  V  V29  1  0.75168916  0.86710715  0.62516460  1
  V  V30  1  0.00020098  0.74874796  0.25115777  1
  V  V31  1  0.24897251  0.74989624  0.00338691  1
  V  V32  1  0.88365753  0.25304012  0.63003567  1
  V  V33  1  0.62065891  0.50970610  0.12774505  1
  V  V34  1  0.87550983  0.12260462  0.25626843  1
  V  V35  1  0.49951697  0.37295545  0.87545946  1
  V  V36  1  0.37630405  0.37114588  0.00812865  1
  V  V37  1  0.25928484  0.62453317  0.37440905  1
  V  V38  1  0.86664766  0.00617676  0.87646416  1
  V  V39  1  0.38071365  0.62668692  0.23175426  1
  V  V40  1  0.38084851  -0.00858649  0.37649006  1
  V  V41  1  0.61623923  0.37872959  0.25365831  1
  V  V42  1  0.37705865  0.50124873  0.87229690  1
  V  V43  1  0.12004920  0.62324645  -0.00286547  1
  V  V44  1  0.74861049  0.36946218  0.62010538  1
  V  V45  1  0.61918034  0.87396853  0.74775063  1
  V  V46  1  0.37374914  0.87338363  0.00575517  1
  V  V47  1  0.12687433  0.24799695  0.37715523  1
  V  V48  1  0.49839188  0.12052284  0.62876695  1
  V  V49  1  0.00013156  0.50083837  0.50106841  1
  V  V50  1  -0.00085814  0.12251041  0.12178735  1
  V  V51  1  0.22876180  0.00030177  0.74714473  1
  V  V52  1  0.75067818  0.24800209  -0.00356101  1
  V  V53  1  0.62658278  0.37678345  0.75048214  1
  V  V54  1  0.49826932  0.50857646  0.00544676  1
  V  V55  1  0.75094860  0.50291166  0.25337812  1
  V  V56  1  -0.00071977  0.61754343  0.12450674  1
  V  V57  1  0.86788803  0.87792093  0.49605115  1
  V  V58  1  -0.00265490  0.87417809  0.85747660  1
  V  V59  1  0.13081600  0.49853235  0.11984448  1
  V  V60  1  0.37286756  0.00411101  0.85907857  1
  V  V61  1  0.87885288  0.87533054  -0.00123668  1
  V  V62  1  0.50339861  0.50221231  0.49615173  1
  V  V63  1  0.50207368  0.24775921  0.24702570  1
  V  V64  1  -0.00087990  0.25055536  0.25127447  1
  V  V65  1  0.49547133  0.00687637  0.00266216  1
  V  V66  1  0.49727950  0.87157876  0.87350744  1
  V  V67  1  0.05964167  0.32162909  0.80631205  1
  V  V68  1  0.20903829  0.31609079  0.06898395  1
  V  V69  1  0.25237144  0.24811077  0.50123363  1
  V  V70  1  0.24987670  0.37377413  0.62477276  1
  V  V71  1  0.12650333  -0.00320493  0.11955240  1
  V  V72  1  0.74834862  0.74939618  0.00032721  1
  V  V73  1  0.87902923  0.38327944  -0.00089123  1
  V  V74  1  0.23497856  0.87683076  0.62852535  1
  V  V75  1  0.62458615  0.12589867  0.00090382  1
  V  V76  1  0.87073310  0.36791908  0.49912702  1
  V  V77  1  0.38156201  0.37465702  0.49121261  1
  V  V78  1  0.25191319  -0.00378772  0.25014789  1
  V  V79  1  0.62466195  0.25435187  0.38204795  1
  V  V80  1  0.62119306  0.00549047  0.12641694  1
  V  V81  1  0.24406804  0.13307039  0.87617545  1
  V  V82  1  0.87189087  0.13254151  0.75716443  1
  V  V83  1  0.37682331  0.24594702  0.62827992  1
  V  V84  1  0.49365838  0.75790278  0.24250337  1
  Zn  Zn85  1  0.74946749  0.50307522  0.74976519  1
  Zn  Zn86  1  0.74668919  0.00463447  0.75608707  1
  Zn  Zn87  1  0.62341169  0.50294040  0.62708231  1
  Zn  Zn88  1  0.74923370  0.87541818  0.12675079  1
  Zn  Zn89  1  -0.01102733  0.70648952  0.74765241  1
  Zn  Zn90  1  0.63205731  0.13077493  0.50361599  1
  Zn  Zn91  1  0.87399268  0.50296139  0.37670243  1
  Zn  Zn92  1  0.75629343  0.63383050  0.38040505  1
  Zn  Zn93  1  0.87534161  0.62429415  0.25446007  1
  Zn  Zn94  1  0.25491188  0.49803303  0.24788585  1
  Zn  Zn95  1  0.12906938  0.13986095  -0.00057559  1
  Zn  Zn96  1  0.25377972  0.86903905  0.12806964  1
  Zn  Zn97  1  0.74596908  0.37686904  0.12577557  1
  Zn  Zn98  1  0.00108955  0.00131925  -0.00347546  1
  Zn  Zn99  1  0.25074678  0.62861863  0.87198372  1
  Zn  Zn100  1  0.37901351  0.49707045  0.36983257  1
  Zn  Zn101  1  0.62438004  0.75399369  0.37406126  1
  Zn  Zn102  1  -0.00001852  -0.00106029  0.50788475  1
  Zn  Zn103  1  0.61770556  0.63146107  0.00421866  1
  Zn  Zn104  1  0.00569905  0.12337167  0.63982235  1
  Zn  Zn105  1  0.38012711  0.24202337  0.11842909  1
  Zn  Zn106  1  0.50005786  0.63827642  0.62343560  1
  Zn  Zn107  1  0.18670615  0.17845682  0.19327427  1
  Zn  Zn108  1  0.18751538  0.18969088  0.69709222  1
  Zn  Zn109  1  0.18912994  0.68522699  0.18739760  1
  Zn  Zn110  1  0.19133989  0.68433500  0.68593605  1
  Zn  Zn111  1  0.68647834  0.18755085  0.18876386  1
  Zn  Zn112  1  0.69426283  0.18832244  0.68892590  1
  Zn  Zn113  1  0.68629031  0.68964010  0.19133033  1
  Zn  Zn114  1  0.68499463  0.68875968  0.68482826  1
  Zn  Zn115  1  0.31577720  0.30687505  0.31102789  1
  Zn  Zn116  1  0.31309632  0.31474708  0.81181462  1
  Zn  Zn117  1  0.31589029  0.80980928  0.31636678  1
  Zn  Zn118  1  0.30279478  0.81926040  0.81842264  1
  Zn  Zn119  1  0.80791568  0.31540519  0.31290300  1
  Zn  Zn120  1  0.81513637  0.31731562  0.81310474  1
  Zn  Zn121  1  0.80985829  0.81025079  0.31423778  1
  Zn  Zn122  1  0.81240732  0.81164732  0.80719988  1
  Zn  Zn123  1  0.19193922  0.43808028  0.43601875  1
  Zn  Zn124  1  0.18372847  0.44120250  0.93033350  1
  Zn  Zn125  1  0.18995578  0.93477098  0.43849429  1
  Zn  Zn126  1  0.18500538  0.93456069  0.93355492  1
  Zn  Zn127  1  0.68640643  0.44030709  0.43592746  1
  Zn  Zn128  1  0.68693279  0.43556720  0.94074591  1
  Zn  Zn129  1  0.69288848  0.94091085  0.43618299  1
  Zn  Zn130  1  0.68678919  0.93519293  0.94066297  1
  Zn  Zn131  1  0.30971372  0.06003390  0.05838531  1
  Zn  Zn132  1  0.31338973  0.05862719  0.56877845  1
  Zn  Zn133  1  0.30720503  0.56050947  0.05778967  1
  Zn  Zn134  1  0.31801722  0.56295506  0.56183509  1
  Zn  Zn135  1  0.81009689  0.06350724  0.06329097  1
  Zn  Zn136  1  0.81897635  0.05987414  0.56771293  1
  Zn  Zn137  1  0.80530238  0.56572535  0.06469156  1
  Zn  Zn138  1  0.81004855  0.55319380  0.56393421  1
  Zn  Zn139  1  0.43839907  0.43727182  0.18753766  1
  Zn  Zn140  1  0.44032507  0.43879186  0.68121294  1
  Zn  Zn141  1  0.44006867  0.93756842  0.18506668  1
  Zn  Zn142  1  0.43296499  0.81539226  0.68927874  1
  Zn  Zn143  1  0.93743842  0.43747059  0.18615306  1
  Zn  Zn144  1  0.96119485  0.48789167  0.71195947  1
  Zn  Zn145  1  0.93699301  0.93718140  0.18751193  1
  Zn  Zn146  1  0.93552239  0.94622299  0.68409329  1
  Zn  Zn147  1  0.06521022  0.06210435  0.31283582  1
  Zn  Zn148  1  0.05539878  0.06766787  0.81804358  1
  Zn  Zn149  1  0.06544877  0.56135724  0.31305605  1
  Zn  Zn150  1  0.06751491  0.55415369  0.81886485  1
  Zn  Zn151  1  0.56499633  0.06646736  0.31534268  1
  Zn  Zn152  1  0.55961893  0.06101461  0.81142157  1
  Zn  Zn153  1  0.55800426  0.56791717  0.31530580  1
  Zn  Zn154  1  0.56125283  0.56403048  0.81378705  1
  Zn  Zn155  1  0.44272139  0.18420625  0.43587233  1
  Zn  Zn156  1  0.43353808  0.18523421  0.93421375  1
  Zn  Zn157  1  0.44537199  0.69190381  0.43222293  1
  Zn  Zn158  1  0.43372816  0.68890413  0.93563456  1
  Zn  Zn159  1  0.93906487  0.18872875  0.44031057  1
  Zn  Zn160  1  0.94201653  0.19374907  0.93174706  1
  Zn  Zn161  1  0.93507055  0.69102682  0.44076126  1
  Zn  Zn162  1  0.93790638  0.68622463  0.93640219  1
  Zn  Zn163  1  0.04542215  0.31268200  0.05985682  1
  Zn  Zn164  1  0.06324784  0.31323546  0.56716886  1
  Zn  Zn165  1  0.06225641  0.80923279  0.05969773  1
  Zn  Zn166  1  0.05527987  0.80897207  0.56422278  1
  Zn  Zn167  1  0.56169001  0.31676041  0.06572052  1
  Zn  Zn168  1  0.56134343  0.31494375  0.56206281  1
  Zn  Zn169  1  0.56113849  0.81720766  0.06667141  1
  Zn  Zn170  1  0.56359540  0.81398732  0.56071408  1
  O  O171  1  0.11736485  0.11606356  0.12372091  1
  O  O172  1  0.12674714  0.13267237  0.61213304  1
  O  O173  1  0.11943143  0.61733695  0.11948472  1
  O  O174  1  0.13612885  0.61456352  0.60981471  1
  O  O175  1  0.62776710  0.11383995  0.11918927  1
  O  O176  1  0.62338407  0.11944073  0.62311745  1
  O  O177  1  0.62616681  0.61408821  0.12336750  1
  O  O178  1  0.62271558  0.62345022  0.61411899  1
  O  O179  1  0.37070449  0.37424057  0.38739171  1
  O  O180  1  0.38042747  0.38263269  0.88127685  1
  O  O181  1  0.37055175  0.88728853  0.38563584  1
  O  O182  1  0.38046546  0.88426367  0.88111043  1
  O  O183  1  0.88185791  0.37566384  0.38082604  1
  O  O184  1  0.86295533  0.38775780  0.89168504  1
  O  O185  1  0.88171824  0.86898297  0.38715180  1
  O  O186  1  0.87912971  0.87883268  0.88107317  1
  O  O187  1  0.25835034  0.00271180  0.36989616  1
  O  O188  1  0.25664767  -0.00053766  0.86379129  1
  O  O189  1  0.25473383  0.51012119  0.37046893  1
  O  O190  1  0.26247746  0.50141660  0.86523406  1
  O  O191  1  0.74577842  0.01198474  0.36029407  1
  O  O192  1  0.76257454  -0.00551466  0.87903638  1
  O  O193  1  0.75233371  0.50404219  0.36559036  1
  O  O194  1  0.74929391  0.51096668  0.87898209  1
  O  O195  1  0.23600140  0.50311254  0.12911491  1
  O  O196  1  0.24911890  0.49289354  0.62740133  1
  O  O197  1  0.24176523  0.99651775  0.13128300  1
  O  O198  1  0.24905885  0.99486320  0.64013322  1
  O  O199  1  0.73862832  0.49877018  0.13244464  1
  O  O200  1  0.74666459  0.48551774  0.63156717  1
  O  O201  1  0.74261170  1.00097243  0.13590732  1
  O  O202  1  0.73952657  0.99190021  0.62462498  1
  O  O203  1  0.01040220  0.37023808  0.25354389  1
  O  O204  1  0.00211362  0.38464328  0.74968816  1
  O  O205  1  0.00381265  0.86902865  0.25678975  1
  O  O206  1  -0.00809114  0.87620586  0.75823556  1
  O  O207  1  0.50913332  0.36945959  0.25152721  1
  O  O208  1  0.50916151  0.36914117  0.75230876  1
  O  O209  1  0.50477982  0.86715031  0.24808703  1
  O  O210  1  0.50998306  0.87512740  0.75865346  1
  O  O211  1  0.49203197  0.13058542  0.25195523  1
  O  O212  1  0.50417900  0.12995042  0.73665273  1
  O  O213  1  0.48587277  0.63176617  0.24737528  1
  O  O214  1  0.48526180  0.62493555  0.75041127  1
  O  O215  1  0.99440110  0.12771335  0.24280865  1
  O  O216  1  0.98082251  0.12403350  0.75425215  1
  O  O217  1  1.00188611  0.63103871  0.24307970  1
  O  O218  1  0.99891394  0.59416195  0.74097077  1
  O  O219  1  0.38053790  0.26077749  0.00131660  1
  O  O220  1  0.37443518  0.25496394  0.50727530  1
  O  O221  1  0.36301656  0.76017652  -0.00924869  1
  O  O222  1  0.36841500  0.76064585  0.49069708  1
  O  O223  1  0.86794526  0.25872074  0.00323823  1
  O  O224  1  0.87787797  0.26178831  0.50540973  1
  O  O225  1  0.86838962  0.75518410  0.00456665  1
  O  O226  1  0.88091685  0.76517893  0.51310718  1
  O  O227  1  0.13274237  0.24262669  0.49487993  1
  O  O228  1  0.13638639  0.25847040  1.01684321  1
  O  O229  1  0.13113674  0.74124527  0.49650222  1
  O  O230  1  0.12827718  0.74232138  0.99011331  1
  O  O231  1  0.61947572  0.25013737  0.48665839  1
  O  O232  1  0.62885114  0.24752011  0.99421535  1
  O  O233  1  0.62177068  0.73726509  0.49680521  1
  O  O234  1  0.63149637  0.75602839  0.99139522  1
  O  O235  1  0.49958880  0.25279292  0.13982021  1
  O  O236  1  0.49520085  0.24209453  0.62728019  1
  O  O237  1  0.50395533  0.75049841  0.14062547  1
  O  O238  1  0.49751171  0.75232291  0.62485437  1
  O  O239  1  0.99172100  0.24108323  0.13257445  1
  O  O240  1  0.98713796  0.24556260  0.61980129  1
  O  O241  1  0.99734611  0.73948125  0.13069310  1
  O  O242  1  0.98675517  0.74652987  0.63076975  1
  O  O243  1  0.00685359  0.25582347  0.36937576  1
  O  O244  1  0.00410283  0.26595063  0.87350162  1
  O  O245  1  0.00715232  0.75780075  0.36999913  1
  O  O246  1  0.00137534  0.75269048  0.86520658  1
  O  O247  1  0.51199929  0.24301007  0.36230422  1
  O  O248  1  0.50473975  0.25361236  0.86803488  1
  O  O249  1  0.50855294  0.74514083  0.35285370  1
  O  O250  1  0.50685595  0.76339022  0.88218996  1
  O  O251  1  0.24355073  0.12775456  0.49785449  1
  O  O252  1  0.24815663  0.12020714  0.98275207  1
  O  O253  1  0.24963090  0.63186304  0.49388059  1
  O  O254  1  0.24035616  0.63218865  0.99535262  1
  O  O255  1  0.75562784  0.11884942  0.48623369  1
  O  O256  1  0.74329300  0.13941511  1.00469556  1
  O  O257  1  0.73443927  0.61550985  0.50056795  1
  O  O258  1  0.74451452  0.63856858  0.99377344  1
  O  O259  1  0.25739468  0.37725882  -0.00206570  1
  O  O260  1  0.25889071  0.36792632  0.50498942  1
  O  O261  1  0.25711033  0.86909196  -0.00089376  1
  O  O262  1  0.25738362  0.86898380  0.50671019  1
  O  O263  1  0.75294426  0.36294210  0.00550883  1
  O  O264  1  0.75905905  0.38164646  0.50642023  1
  O  O265  1  0.75998124  0.86483065  0.00088814  1
  O  O266  1  0.76028964  0.87725238  0.50566844  1
  O  O267  1  0.12681203  0.48921428  0.24171720  1
  O  O268  1  0.14063512  0.50513454  0.73541139  1
  O  O269  1  0.13028873  0.99447133  0.24053015  1
  O  O270  1  0.13091334  0.99974464  0.75577448  1
  O  O271  1  0.62536990  0.49672759  0.24678106  1
  O  O272  1  0.62427190  0.49062390  0.75041792  1
  O  O273  1  0.62878083  0.99817675  0.24351162  1
  O  O274  1  0.62561169  0.99313791  0.74322416  1
  O  O275  1  0.37433885  0.00254075  0.25795443  1
  O  O276  1  0.37355294  -0.00209429  0.76255304  1
  O  O277  1  0.37543877  0.51276907  0.24986871  1
  O  O278  1  0.37438932  0.50566178  0.75545377  1
  O  O279  1  0.86692284  0.01055587  0.24471744  1
  O  O280  1  0.86833942  0.00709816  0.76118112  1
  O  O281  1  0.86458793  0.49940939  0.25049218  1
  O  O282  1  0.86395869  0.49074202  0.77442089  1
  O  O283  1  0.12201239  0.36903345  0.36778607  1
  O  O284  1  0.12508975  0.37975238  0.86031804  1
  O  O285  1  0.11879037  0.86967528  0.37031487  1
  O  O286  1  0.10952710  0.86350399  0.88014224  1
  O  O287  1  0.62960840  0.36670226  0.36609406  1
  O  O288  1  0.61831677  0.36617305  0.86966629  1
  O  O289  1  0.62535007  0.88219405  0.36185579  1
  O  O290  1  0.61695190  0.87248245  0.86876147  1
  O  O291  1  0.37012367  0.12010438  0.13821693  1
  O  O292  1  0.38509341  0.13374760  0.61988494  1
  O  O293  1  0.36882756  0.62452852  0.13382824  1
  O  O294  1  0.37519621  0.62504272  0.64105500  1
  O  O295  1  0.88219818  0.12928579  0.13282329  1
  O  O296  1  0.87199958  0.13790469  0.63314665  1
  O  O297  1  0.88372833  0.62973687  0.12516247  1
  O  O298  1  0.86693959  0.63980485  0.61419653  1
  O  O299  1  0.25693727  0.24926615  0.13166054  1
  O  O300  1  0.25833155  0.25500843  0.62309019  1
  O  O301  1  0.24048939  0.75188926  0.10850538  1
  O  O302  1  0.24831662  0.75618630  0.61391794  1
  O  O303  1  0.75516755  0.25204103  0.11975865  1
  O  O304  1  0.75670580  0.26285086  0.62605598  1
  O  O305  1  0.75550578  0.75124260  0.11724100  1
  O  O306  1  0.75526217  0.76238139  0.62758797  1
  O  O307  1  0.24796428  0.24117741  0.38170507  1
  O  O308  1  0.25700640  0.23132823  0.86448849  1
  O  O309  1  0.24434949  0.74505461  0.38544120  1
  O  O310  1  0.23712591  0.75065597  0.88294682  1
  O  O311  1  0.73881859  0.24062086  0.36714288  1
  O  O312  1  0.73892581  0.25566405  0.88300037  1
  O  O313  1  0.73781634  0.74516335  0.36563807  1
  O  O314  1  0.74362766  0.74639758  0.88140038  1
  O  O315  1  0.00398916  0.12766910  0.01149390  1
  O  O316  1  0.01765058  0.12387088  0.49373522  1
  O  O317  1  0.01182945  0.63104970  0.00954218  1
  O  O318  1  0.01328402  0.61541039  0.49229095  1
  O  O319  1  0.50435822  0.11293832  -0.00624321  1
  O  O320  1  0.50341953  0.11522706  0.51024333  1
  O  O321  1  0.49819845  0.61290027  -0.00590486  1
  O  O322  1  0.50641322  0.61731207  0.50130622  1
  O  O323  1  0.49293090  0.38762915  0.50454022  1
  O  O324  1  0.49339252  0.38422734  0.99441292  1
  O  O325  1  0.49361077  0.88888856  0.50357464  1
  O  O326  1  0.49428553  0.88480136  0.99281882  1
  O  O327  1  0.99615399  0.37948647  0.49248508  1
  O  O328  1  0.97874337  0.38143756  1.00340639  1
  O  O329  1  0.99279603  0.87649293  0.49196671  1
  O  O330  1  0.98681972  0.87167526  0.99438902  1
  O  O331  1  0.49612718  0.50327260  0.38994529  1
  O  O332  1  0.49106592  0.49451664  0.88022288  1
  O  O333  1  0.49308107  1.00729998  0.38520434  1
  O  O334  1  0.48942226  0.99296751  0.87861016  1
  O  O335  1  1.00316970  0.49184653  0.38462341  1
  O  O336  1  0.98139550  0.50407102  0.88557402  1
  O  O337  1  1.00437338  0.98658390  0.37536570  1
  O  O338  1  0.98865510  0.99055251  0.87903585  1
  O  O339  1  0.00662595  0.00735631  0.12351479  1
  O  O340  1  -0.00264977  0.01143312  0.62056437  1
  O  O341  1  0.01011785  0.51110298  0.13006199  1
  O  O342  1  0.01548554  0.49062481  0.60817244  1
  O  O343  1  0.50725463  -0.00139196  0.11408894  1
  O  O344  1  0.51548035  0.00776709  0.61788719  1
  O  O345  1  0.50619209  0.49721552  0.11590402  1
  O  O346  1  0.50104226  0.50695520  0.61164619  1
  O  O347  1  0.23922368  0.37385711  0.25461259  1
  O  O348  1  0.26199042  0.38885374  0.73883107  1
  O  O349  1  0.24573539  0.87795632  0.24955721  1
  O  O350  1  0.24979192  0.88836387  0.74285420  1
  O  O351  1  0.73866060  0.38689952  0.24871845  1
  O  O352  1  0.73611802  0.37337402  0.74581902  1
  O  O353  1  0.74341091  0.88548611  0.24787307  1
  O  O354  1  0.73761538  0.87881560  0.74330070  1
  O  O355  1  0.25866972  0.11531554  0.25877599  1
  O  O356  1  0.24564666  0.10959797  0.75933125  1
  O  O357  1  0.26279163  0.62805327  0.25661143  1
  O  O358  1  0.26273067  0.61491842  0.74999734  1
  O  O359  1  0.75873542  0.12097106  0.25566765  1
  O  O360  1  0.76323788  0.12171368  0.75101542  1
  O  O361  1  0.75050546  0.61239861  0.24846385  1
  O  O362  1  0.74333278  0.62560133  0.76442130  1
  O  O363  1  0.37019370  0.11417661  0.37068118  1
  O  O364  1  0.36497422  0.10976408  0.87631974  1
  O  O365  1  0.36616706  0.62677729  0.37086680  1
  O  O366  1  0.37349205  0.61761754  0.86438084  1
  O  O367  1  0.87113724  0.13312951  0.36321964  1
  O  O368  1  0.87736273  0.11730385  0.87363598  1
  O  O369  1  0.87485441  0.62210243  0.37355249  1
  O  O370  1  0.86359097  0.61212762  0.88712229  1
  O  O371  1  0.13028058  0.37649727  0.12644963  1
  O  O372  1  0.14259684  0.38380126  0.61489894  1
  O  O373  1  0.12329539  0.88091197  0.13186859  1
  O  O374  1  0.13608827  0.87185808  0.61639721  1
  O  O375  1  0.62457830  0.38645465  0.13600405  1
  O  O376  1  0.63001795  0.37413209  0.63350046  1
  O  O377  1  0.62764604  0.88997990  0.13200926  1
  O  O378  1  0.63078701  0.88127027  0.63116369  1
  O  O379  1  0.12024971  0.25462188  0.25527146  1
  O  O380  1  0.11444066  0.25973883  0.74409103  1
  O  O381  1  0.12068742  0.75430099  0.25548810  1
  O  O382  1  0.12123878  0.73641208  0.76097242  1
  O  O383  1  0.61971342  0.25845819  0.25449778  1
  O  O384  1  0.62067127  0.25423028  0.75751843  1
  O  O385  1  0.61663018  0.76356299  0.24518833  1
  O  O386  1  0.62872989  0.75828771  0.76323387  1
  O  O387  1  0.38420339  0.23852090  0.24963216  1
  O  O388  1  0.38256967  0.25671789  0.73567335  1
  O  O389  1  0.38346242  0.74232276  0.24971526  1
  O  O390  1  0.36901171  0.74205677  0.75762658  1
  O  O391  1  0.87881449  0.24508866  0.24434743  1
  O  O392  1  0.86989119  0.24637854  0.74273496  1
  O  O393  1  0.88310300  0.75045762  0.24081760  1
  O  O394  1  0.87497184  0.75050707  0.73261533  1
  O  O395  1  0.38430645  0.49268867  0.49806197  1
  O  O396  1  0.37915250  0.49533741  0.99206133  1
  O  O397  1  0.38240261  0.99383434  0.49606652  1
  O  O398  1  0.38087801  0.99348664  0.99237023  1
  O  O399  1  0.88589679  0.48914209  0.50074361  1
  O  O400  1  0.86173949  0.48891863  0.99738410  1
  O  O401  1  0.87729558  0.98311568  0.50130723  1
  O  O402  1  0.87583546  0.99204853  0.99710177  1
  O  O403  1  0.12274820  -0.00322376  0.01196494  1
  O  O404  1  0.12863537  0.01484572  0.49552757  1
  O  O405  1  0.12919298  0.50892196  0.00678649  1
  O  O406  1  0.12347749  0.50572000  0.50436381  1
  O  O407  1  0.61820728  0.00400605  0.00563175  1
  O  O408  1  0.62054936  0.00206874  0.50577819  1
  O  O409  1  0.61476327  0.50018401  0.00899631  1
  O  O410  1  0.61428388  0.50470761  0.50242625  1
  O  O411  1  0.37414892  0.37524727  0.11213064  1
  O  O412  1  0.36812909  0.36871583  0.61396540  1
  O  O413  1  0.37324395  0.87936818  0.11030872  1
  O  O414  1  0.36401258  0.87604021  0.61462604  1
  O  O415  1  0.87077244  0.37009050  0.11671150  1
  O  O416  1  0.86622892  0.36660823  0.61621435  1
  O  O417  1  0.87417256  0.86825564  0.11659219  1
  O  O418  1  0.86663825  0.87180078  0.61716613  1
  O  O419  1  0.13501307  0.12976468  0.37951097  1
  O  O420  1  0.13766287  0.12104589  0.88079899  1
  O  O421  1  0.13802362  0.62784959  0.38213862  1
  O  O422  1  0.12702631  0.62849835  0.88349694  1
  O  O423  1  0.63595981  0.13414019  0.37789708  1
  O  O424  1  0.61917237  0.13560426  0.88066732  1
  O  O425  1  0.62540191  0.62250255  0.39085768  1
  O  O426  1  0.62807806  0.63545867  0.87955665  1
