# generated using pymatgen
data_V85Zn86O256
_symmetry_space_group_name_H-M   'P 1'
_cell_length_a   16.91725963
_cell_length_b   16.93127424
_cell_length_c   16.93573037
_cell_angle_alpha   90.09622965
_cell_angle_beta   90.02937103
_cell_angle_gamma   90.00527242
_symmetry_Int_Tables_number   1
_chemical_formula_structural   V85Zn86O256
_chemical_formula_sum   'V85 Zn86 O256'
_cell_volume   4850.90665916
_cell_formula_units_Z   1
loop_
 _symmetry_equiv_pos_site_id
 _symmetry_equiv_pos_as_xyz
  1  'x, y, z'
loop_
 _atom_site_type_symbol
 _atom_site_label
 _atom_site_symmetry_multiplicity
 _atom_site_fract_x
 _atom_site_fract_y
 _atom_site_fract_z
 _atom_site_occupancy
  V  V0  1  0.74553665  0.48795486  0.75021712  1
  V  V1  1  -0.00119064  0.87382173  0.37358654  1
  V  V2  1  0.88024068  0.49407442  0.87389760  1
  V  V3  1  0.62996666  0.24670138  0.86325617  1
  V  V4  1  0.37812718  0.38109488  0.50360122  1
  V  V5  1  0.36659655  0.49816608  0.37272049  1
  V  V6  1  0.63554029  0.12774954  -0.00017095  1
  V  V7  1  -0.00738883  0.87705409  0.87679232  1
  V  V8  1  0.37617547  0.63143830  0.76170774  1
  V  V9  1  0.87883596  0.62409170  0.24479246  1
  V  V10  1  0.86924549  0.74635948  0.11779884  1
  V  V11  1  0.74764729  0.62572439  0.37461310  1
  V  V12  1  0.12145838  0.12597300  0.50183908  1
  V  V13  1  0.74794529  0.49720661  0.24890511  1
  V  V14  1  0.12508215  0.12171183  -0.00241378  1
  V  V15  1  0.25049399  0.87419002  0.12306351  1
  V  V16  1  0.49454476  0.87629417  0.85937445  1
  V  V17  1  0.25281426  0.24431649  -0.00316699  1
  V  V18  1  0.38378151  0.75209806  0.62724801  1
  V  V19  1  0.87398758  0.87593452  0.49844231  1
  V  V20  1  0.62108250  0.49045073  0.62384404  1
  V  V21  1  0.11992723  0.37882953  0.76048229  1
  V  V22  1  0.50489811  0.36879384  0.85950396  1
  V  V23  1  0.50288797  0.75122940  0.24633499  1
  V  V24  1  0.24528804  0.01508815  0.75762406  1
  V  V25  1  0.12453603  0.87419233  0.24873997  1
  V  V26  1  0.25536954  0.12155963  0.37850455  1
  V  V27  1  -0.00372062  0.37272965  0.37862660  1
  V  V28  1  0.25477569  -0.00183408  0.25388737  1
  V  V29  1  0.00015834  0.24777888  0.74597229  1
  V  V30  1  0.24954118  0.50762870  0.76174118  1
  V  V31  1  0.49071532  0.88386865  0.37208529  1
  V  V32  1  0.74501677  -0.00001997  0.24593798  1
  V  V33  1  0.50323388  0.24965619  0.25672382  1
  V  V34  1  0.87396057  0.49700053  0.37706946  1
  V  V35  1  0.74877917  0.87687177  0.62773646  1
  V  V36  1  0.38437363  0.13575780  0.75482710  1
  V  V37  1  0.88018382  0.11761913  0.75662666  1
  V  V38  1  -0.00883202  0.00351362  -0.00011100  1
  V  V39  1  0.24955677  0.87635031  0.62703692  1
  V  V40  1  0.64214836  0.24843844  0.38067891  1
  V  V41  1  0.37354073  0.62074019  0.24781682  1
  V  V42  1  0.11937862  0.00465236  0.62627171  1
  V  V43  1  0.37568137  0.12261456  0.25544369  1
  V  V44  1  0.86957030  0.00904415  0.37242609  1
  V  V45  1  0.62805933  0.50273848  0.11863708  1
  V  V46  1  0.50202151  0.38035631  0.37936915  1
  V  V47  1  0.88800821  0.12987587  0.23964125  1
  V  V48  1  0.76193035  0.37157590  0.60894499  1
  V  V49  1  0.62076137  0.00195094  0.62237843  1
  V  V50  1  0.74779669  0.00469088  0.76521809  1
  V  V51  1  0.08673589  0.34836306  0.22136215  1
  V  V52  1  0.12149981  0.25138821  0.87818834  1
  V  V53  1  0.00168386  0.74420075  0.24100030  1
  V  V54  1  0.61866536  0.62105470  0.49972508  1
  V  V55  1  0.25247105  0.74901265  0.50066876  1
  V  V56  1  0.86677321  0.62537675  0.75028822  1
  V  V57  1  0.37622569  0.87904467  -0.00181908  1
  V  V58  1  0.12591325  0.62369642  0.49994292  1
  V  V59  1  0.12438912  0.74657665  0.37430939  1
  V  V60  1  0.75165979  0.36355158  0.12274047  1
  V  V61  1  0.63929295  0.12768732  0.49852164  1
  V  V62  1  0.11781993  0.00423059  0.12627764  1
  V  V63  1  0.25642723  0.38339952  0.13637907  1
  V  V64  1  0.12830794  0.74195257  0.87520262  1
  V  V65  1  0.25437975  0.74039960  -0.00443604  1
  V  V66  1  0.50350580  0.12441631  0.12379315  1
  V  V67  1  0.37796117  0.37380775  -0.00315292  1
  V  V68  1  0.11933976  0.50479813  0.13182698  1
  V  V69  1  -0.00055179  -0.00030605  0.50158014  1
  V  V70  1  0.12453584  0.87598191  0.75234676  1
  V  V71  1  0.50020111  0.62254543  0.62799626  1
  V  V72  1  -0.00252160  0.75095195  0.75078359  1
  V  V73  1  0.12114518  0.25218836  0.37082002  1
  V  V74  1  0.37583622  0.24922233  0.12679794  1
  V  V75  1  0.62434455  0.76053721  0.37127946  1
  V  V76  1  0.74941247  0.75104347  0.49962432  1
  V  V77  1  0.88270623  0.37039323  -0.00507950  1
  V  V78  1  -0.00673407  0.50071824  0.50083079  1
  V  V79  1  0.24829610  0.25550278  0.50479425  1
  V  V80  1  -0.00197703  0.62585482  0.62599701  1
  V  V81  1  0.12640555  0.49503485  0.62622948  1
  V  V82  1  0.50476931  0.49943992  -0.00138142  1
  V  V83  1  0.86442333  0.87264788  -0.00164620  1
  V  V84  1  0.74311501  0.62680042  0.89176392  1
  Zn  Zn85  1  0.38358828  0.25728513  0.63245287  1
  Zn  Zn86  1  0.50457265  0.62576408  0.12096706  1
  Zn  Zn87  1  0.37693402  0.50497269  0.87690493  1
  Zn  Zn88  1  0.62130709  -0.00981608  0.12406511  1
  Zn  Zn89  1  0.25022269  0.37833498  0.62877231  1
  Zn  Zn90  1  0.62783803  0.37171479  0.24974000  1
  Zn  Zn91  1  0.74043722  0.86740440  0.12754616  1
  Zn  Zn92  1  0.49061830  0.01101669  0.49422525  1
  Zn  Zn93  1  0.86671242  0.23702755  0.61519269  1
  Zn  Zn94  1  0.91001381  0.25287605  0.12889239  1
  Zn  Zn95  1  0.62142508  0.74451421  0.87341297  1
  Zn  Zn96  1  0.61872186  0.86956297  0.74660216  1
  Zn  Zn97  1  0.37219070  0.88597711  0.49850512  1
  Zn  Zn98  1  0.12352616  0.62270556  0.00222248  1
  Zn  Zn99  1  0.37724262  0.74839524  0.12368132  1
  Zn  Zn100  1  0.87367493  0.75138230  0.62462192  1
  Zn  Zn101  1  0.24915716  0.61942411  0.37252701  1
  Zn  Zn102  1  0.50446663  0.13659339  0.62371563  1
  Zn  Zn103  1  0.49730289  0.00462190  -0.00391969  1
  Zn  Zn104  1  0.00081268  0.50465779  0.00019873  1
  Zn  Zn105  1  0.75964647  0.24502779  -0.00555080  1
  Zn  Zn106  1  0.36831678  0.00971284  0.87925116  1
  Zn  Zn107  1  0.18882498  0.18498146  0.18261744  1
  Zn  Zn108  1  0.18128237  0.19162853  0.68498766  1
  Zn  Zn109  1  0.19442826  0.68753229  0.18744316  1
  Zn  Zn110  1  0.18952491  0.68634079  0.68828409  1
  Zn  Zn111  1  0.69173325  0.18014670  0.19353041  1
  Zn  Zn112  1  0.69264482  0.18590175  0.68556332  1
  Zn  Zn113  1  0.68687592  0.68550540  0.18728517  1
  Zn  Zn114  1  0.68258183  0.68905837  0.69154903  1
  Zn  Zn115  1  0.31398821  0.30849864  0.31780635  1
  Zn  Zn116  1  0.30706745  0.31610840  0.81566148  1
  Zn  Zn117  1  0.31464433  0.80806183  0.31163234  1
  Zn  Zn118  1  0.31413119  0.81610191  0.81285118  1
  Zn  Zn119  1  0.82028473  0.31279634  0.30953877  1
  Zn  Zn120  1  0.81332381  0.30753873  0.80857799  1
  Zn  Zn121  1  0.81229137  0.81527921  0.30987398  1
  Zn  Zn122  1  0.80529659  0.80905285  0.81422927  1
  Zn  Zn123  1  0.18265150  0.43413862  0.43401899  1
  Zn  Zn124  1  0.19022196  0.43682909  0.94310861  1
  Zn  Zn125  1  0.18893221  0.93607264  0.43796805  1
  Zn  Zn126  1  0.18466500  0.93255094  0.93745676  1
  Zn  Zn127  1  0.68598479  0.43672909  0.43863712  1
  Zn  Zn128  1  0.69057836  0.43145445  0.93528524  1
  Zn  Zn129  1  0.68744359  0.94187029  0.43674800  1
  Zn  Zn130  1  0.67623642  0.93611561  0.94189108  1
  Zn  Zn131  1  0.31062918  0.06270137  0.06768259  1
  Zn  Zn132  1  0.31331298  0.06567646  0.56915708  1
  Zn  Zn133  1  0.31592143  0.56084436  0.06315780  1
  Zn  Zn134  1  0.31345604  0.56205258  0.56495052  1
  Zn  Zn135  1  0.81529946  0.06379387  0.06941915  1
  Zn  Zn136  1  0.81349440  0.06177780  0.56865740  1
  Zn  Zn137  1  0.81572071  0.55730474  0.06330316  1
  Zn  Zn138  1  0.80850695  0.56220171  0.56497592  1
  Zn  Zn139  1  0.44145355  0.43768039  0.18973061  1
  Zn  Zn140  1  0.43521282  0.44348884  0.68625087  1
  Zn  Zn141  1  0.43920665  0.93560424  0.18769984  1
  Zn  Zn142  1  0.42978249  0.94933231  0.68224751  1
  Zn  Zn143  1  0.93246991  0.43858427  0.18259396  1
  Zn  Zn144  1  0.93834590  0.43524596  0.69062030  1
  Zn  Zn145  1  0.93333545  0.93434552  0.18589655  1
  Zn  Zn146  1  0.93392749  0.94071755  0.68938805  1
  Zn  Zn147  1  0.06310880  0.06211756  0.31539908  1
  Zn  Zn148  1  0.06061624  0.06444875  0.81949775  1
  Zn  Zn149  1  0.06587271  0.55524581  0.30726861  1
  Zn  Zn150  1  0.05881435  0.56582794  0.81428792  1
  Zn  Zn151  1  0.56796002  0.06696766  0.31513205  1
  Zn  Zn152  1  0.56200088  0.06016199  0.81559116  1
  Zn  Zn153  1  0.56086385  0.56286838  0.31137463  1
  Zn  Zn154  1  0.56226508  0.55888690  0.80900744  1
  Zn  Zn155  1  0.44090381  0.19197173  0.44582856  1
  Zn  Zn156  1  0.44087525  0.18770701  0.93348064  1
  Zn  Zn157  1  0.43856730  0.68796998  0.43738581  1
  Zn  Zn158  1  0.46253817  0.70023023  0.94536613  1
  Zn  Zn159  1  0.93195660  0.18528877  0.43545756  1
  Zn  Zn160  1  0.93817415  0.18502678  0.93369012  1
  Zn  Zn161  1  0.93646207  0.68643474  0.43406982  1
  Zn  Zn162  1  0.93863149  0.68307797  0.93780434  1
  Zn  Zn163  1  0.06674992  0.32044141  0.05003336  1
  Zn  Zn164  1  0.02441082  0.29130408  0.54452847  1
  Zn  Zn165  1  0.06101710  0.81145865  0.05983928  1
  Zn  Zn166  1  0.06280234  0.81292053  0.56402043  1
  Zn  Zn167  1  0.56622985  0.31119120  0.06182223  1
  Zn  Zn168  1  0.56335129  0.31042327  0.56249079  1
  Zn  Zn169  1  0.56894939  0.80892321  0.05098479  1
  Zn  Zn170  1  0.56167126  0.81487000  0.55722431  1
  O  O171  1  0.12658400  0.11484919  0.11485642  1
  O  O172  1  0.12822046  0.11637687  0.61405296  1
  O  O173  1  0.13236700  0.60695247  0.13362638  1
  O  O174  1  0.11739708  0.61625942  0.62261809  1
  O  O175  1  0.61821829  0.12663259  0.11723628  1
  O  O176  1  0.62768808  0.11852438  0.61742757  1
  O  O177  1  0.62529779  0.60780543  0.12858068  1
  O  O178  1  0.61879593  0.62008185  0.61831610  1
  O  O179  1  0.38140359  0.38090178  0.38020462  1
  O  O180  1  0.38624815  0.37384984  0.88172078  1
  O  O181  1  0.38714784  0.87205521  0.37624651  1
  O  O182  1  0.37544339  0.88729777  0.88096043  1
  O  O183  1  0.88293160  0.38424526  0.37518270  1
  O  O184  1  0.86692701  0.38156304  0.88179235  1
  O  O185  1  0.88073030  0.88208078  0.38034592  1
  O  O186  1  0.88535187  0.86572922  0.88156660  1
  O  O187  1  0.24243657  0.00938254  0.36597927  1
  O  O188  1  0.24362190  -0.00247033  0.85998838  1
  O  O189  1  0.26202666  0.49730910  0.37528161  1
  O  O190  1  0.25266758  0.49788586  0.86575356  1
  O  O191  1  0.76057051  -0.00532560  0.36374215  1
  O  O192  1  0.74173874  -0.00587163  0.86271256  1
  O  O193  1  0.75379889  0.50327237  0.36772782  1
  O  O194  1  0.75578779  0.50478123  0.86629385  1
  O  O195  1  0.24670598  0.48698602  0.12435465  1
  O  O196  1  0.24084592  0.50213149  0.63610014  1
  O  O197  1  0.23886341  0.99384135  0.13365174  1
  O  O198  1  0.23687886  0.99692016  0.63545523  1
  O  O199  1  0.74721772  0.48988194  0.13138637  1
  O  O200  1  0.74406246  0.49122183  0.63028664  1
  O  O201  1  0.74938869  0.99633647  0.13598247  1
  O  O202  1  0.74050154  0.98901051  0.62839196  1
  O  O203  1  -0.00606331  0.38489251  0.26668366  1
  O  O204  1  0.01293393  0.36884876  0.75033191  1
  O  O205  1  0.00464982  0.86604619  0.25393497  1
  O  O206  1  0.00256041  0.87192016  0.75736013  1
  O  O207  1  0.50297440  0.36221939  0.25550445  1
  O  O208  1  0.49593657  0.37850870  0.76177205  1
  O  O209  1  0.49643922  0.86613244  0.26126305  1
  O  O210  1  0.49702092  0.89063706  0.75667357  1
  O  O211  1  0.49693218  0.13383440  0.24843077  1
  O  O212  1  0.48602015  0.12233700  0.74907090  1
  O  O213  1  0.49193980  0.63305934  0.25011674  1
  O  O214  1  0.49270858  0.62170877  0.73663382  1
  O  O215  1  0.98754461  0.11825674  0.25144336  1
  O  O216  1  0.98879553  0.12833547  0.75616188  1
  O  O217  1  0.99108834  0.63149003  0.25592016  1
  O  O218  1  0.98728618  0.63007713  0.74640231  1
  O  O219  1  0.37001142  0.25326937  0.00499222  1
  O  O220  1  0.36365858  0.26380482  0.49916713  1
  O  O221  1  0.36932160  0.75858864  0.00097839  1
  O  O222  1  0.36594067  0.75132117  0.50784174  1
  O  O223  1  0.88000834  0.25426021  0.00684166  1
  O  O224  1  0.91717304  0.25619149  0.51701394  1
  O  O225  1  0.88195318  0.75698911  0.00915253  1
  O  O226  1  0.86766366  0.75586347  0.49910527  1
  O  O227  1  0.12587430  0.24298861  0.49210228  1
  O  O228  1  0.13095718  0.24267478  0.99692986  1
  O  O229  1  0.13081387  0.74359268  0.49587935  1
  O  O230  1  0.13384565  0.75035199  0.99204987  1
  O  O231  1  0.62802727  0.24594030  0.48671724  1
  O  O232  1  0.62820419  0.24084716  0.99428150  1
  O  O233  1  0.63024258  0.74169158  0.49186633  1
  O  O234  1  0.57307125  0.72980463  0.97510518  1
  O  O235  1  0.49707404  0.24273389  0.13502531  1
  O  O236  1  0.49681105  0.25034585  0.62494879  1
  O  O237  1  0.50076754  0.74841029  0.13849928  1
  O  O238  1  0.48887812  0.74646892  0.62046321  1
  O  O239  1  1.02145018  0.29185558  0.15060986  1
  O  O240  1  1.02208059  0.24460419  0.64767938  1
  O  O241  1  0.99288013  0.75273923  0.13648167  1
  O  O242  1  0.99828294  0.74446178  0.63263835  1
  O  O243  1  0.01216194  0.25807986  0.37521414  1
  O  O244  1  0.01478309  0.24582806  0.86721780  1
  O  O245  1  0.00517094  0.75403577  0.36542993  1
  O  O246  1  0.00710597  0.75617449  0.86807202  1
  O  O247  1  0.50423996  0.25981515  0.36956635  1
  O  O248  1  0.50925580  0.26290737  0.87723406  1
  O  O249  1  0.50591169  0.75724203  0.36729584  1
  O  O250  1  0.47494460  0.77634661  0.85733565  1
  O  O251  1  0.24098431  0.13159151  0.49446700  1
  O  O252  1  0.24221971  0.13465223  1.00745729  1
  O  O253  1  0.24428423  0.63198777  0.49897443  1
  O  O254  1  0.24827900  0.63720728  1.00461997  1
  O  O255  1  0.74010332  0.12093569  0.50192062  1
  O  O256  1  0.73973906  0.12655234  1.00637160  1
  O  O257  1  0.74367075  0.63214713  0.49438967  1
  O  O258  1  0.75001076  0.61743890  0.99023725  1
  O  O259  1  0.26280283  0.36804414  0.00891565  1
  O  O260  1  0.25346869  0.36954450  0.50076384  1
  O  O261  1  0.25735975  0.87016061  0.00469427  1
  O  O262  1  0.24917218  0.86665204  0.50772621  1
  O  O263  1  0.76164014  0.37147851  0.00762551  1
  O  O264  1  0.75664180  0.38116018  0.51005183  1
  O  O265  1  0.76209098  0.87983700  -0.00408695  1
  O  O266  1  0.75386356  0.87125447  0.50621706  1
  O  O267  1  0.11898459  0.47709100  0.23550454  1
  O  O268  1  0.12867799  0.49803557  0.74799822  1
  O  O269  1  0.13146010  0.99577706  0.24374199  1
  O  O270  1  0.12882458  0.99964579  0.74546914  1
  O  O271  1  0.63669241  0.49725489  0.24661484  1
  O  O272  1  0.63435695  0.50355512  0.73629146  1
  O  O273  1  0.64134872  1.00810127  0.24879071  1
  O  O274  1  0.63539127  0.99901827  0.74276734  1
  O  O275  1  0.36157169  0.00486839  0.24610443  1
  O  O276  1  0.35794065  0.01545541  0.74892087  1
  O  O277  1  0.38121238  0.50779314  0.25901868  1
  O  O278  1  0.36623600  0.51085310  0.75314762  1
  O  O279  1  0.87286085  0.00674141  0.25508234  1
  O  O280  1  0.86457190  0.00796616  0.75222459  1
  O  O281  1  0.86556103  0.50660479  0.25267562  1
  O  O282  1  0.86767496  0.50555505  0.75485775  1
  O  O283  1  0.11697248  0.36654456  0.36421185  1
  O  O284  1  0.12754391  0.36772663  0.87190210  1
  O  O285  1  0.11996069  0.86766076  0.36819542  1
  O  O286  1  0.11343642  0.86685913  0.87011602  1
  O  O287  1  0.61932441  0.36591666  0.37455180  1
  O  O288  1  0.61319923  0.36305777  0.87735099  1
  O  O289  1  0.61799685  0.86409831  0.37908970  1
  O  O290  1  0.60331800  0.87455771  0.87586618  1
  O  O291  1  0.38100117  0.13188667  0.13444861  1
  O  O292  1  0.37227291  0.13314117  0.64140974  1
  O  O293  1  0.38017876  0.62541769  0.13412796  1
  O  O294  1  0.38327167  0.63167175  0.62910387  1
  O  O295  1  0.88416060  0.13159465  0.13417902  1
  O  O296  1  0.86913186  0.12453934  0.64475200  1
  O  O297  1  0.87256141  0.62863682  0.13651913  1
  O  O298  1  0.88010296  0.62650690  0.63232064  1
  O  O299  1  0.25630920  0.25849402  0.11665203  1
  O  O300  1  0.24588470  0.25519653  0.61226875  1
  O  O301  1  0.25136351  0.75890232  0.11585899  1
  O  O302  1  0.25298777  0.75416747  0.61460224  1
  O  O303  1  0.74540516  0.26053117  0.12643834  1
  O  O304  1  0.75034362  0.26762402  0.62719702  1
  O  O305  1  0.76452155  0.74879844  0.13178876  1
  O  O306  1  0.74954137  0.76246855  0.61976120  1
  O  O307  1  0.23981276  0.24596220  0.38566724  1
  O  O308  1  0.24027934  0.25606142  0.89057969  1
  O  O309  1  0.24437039  0.75004615  0.38685953  1
  O  O310  1  0.24081097  0.76014907  0.88464426  1
  O  O311  1  0.74008960  0.25761477  0.37169197  1
  O  O312  1  0.73439208  0.25677064  0.87733123  1
  O  O313  1  0.74237914  0.74674047  0.37679538  1
  O  O314  1  0.74979110  0.73074289  0.87807540  1
  O  O315  1  0.00724637  0.11319741  -0.00352826  1
  O  O316  1  0.01540379  0.11372589  0.48853018  1
  O  O317  1  0.00945420  0.61867086  -0.00701549  1
  O  O318  1  0.00598153  0.61939812  0.50408564  1
  O  O319  1  0.50467105  0.12788957  0.01105548  1
  O  O320  1  0.51430076  0.12600491  0.50108800  1
  O  O321  1  0.48599062  0.60073192  0.00338647  1
  O  O322  1  0.50869721  0.63097961  0.51135744  1
  O  O323  1  0.49042115  0.37235508  0.49065277  1
  O  O324  1  0.48983345  0.37814553  0.99952091  1
  O  O325  1  0.49729284  0.87588431  0.48280841  1
  O  O326  1  0.48348938  0.87986559  0.99266350  1
  O  O327  1  1.01321225  0.39078743  0.48696431  1
  O  O328  1  0.98720652  0.38172705  0.99663402  1
  O  O329  1  0.99507775  0.87967629  0.49462960  1
  O  O330  1  0.99278659  0.88093401  0.99324935  1
  O  O331  1  0.49507143  0.48515451  0.36899833  1
  O  O332  1  0.50233050  0.48550752  0.88095081  1
  O  O333  1  0.50591959  0.98622515  0.37007839  1
  O  O334  1  0.49127299  0.99332491  0.87735159  1
  O  O335  1  0.99562884  0.49662132  0.38329537  1
  O  O336  1  0.98326352  0.50084681  0.86960223  1
  O  O337  1  0.99390029  0.99142884  0.38039680  1
  O  O338  1  1.00441667  0.98874055  0.88695164  1
  O  O339  1  0.01228296  -0.01003858  0.11745304  1
  O  O340  1  0.01173848  -0.00615304  0.61981593  1
  O  O341  1  0.01494970  0.49351175  0.12299567  1
  O  O342  1  0.00455971  0.50507398  0.61890374  1
  O  O343  1  0.50040431  0.01497872  0.12935991  1
  O  O344  1  0.51353679  0.00422850  0.62473131  1
  O  O345  1  0.51171605  0.49522859  0.11837193  1
  O  O346  1  0.50985581  0.50803165  0.62529948  1
  O  O347  1  0.25855328  0.36870592  0.23502198  1
  O  O348  1  0.23766727  0.38460227  0.74945993  1
  O  O349  1  0.24560176  0.88028557  0.24656619  1
  O  O350  1  0.24293081  0.88585432  0.74466357  1
  O  O351  1  0.75282410  0.38238664  0.24245423  1
  O  O352  1  0.75286859  0.38585441  0.74304849  1
  O  O353  1  0.75977235  0.89290283  0.24583346  1
  O  O354  1  0.75277376  0.88608804  0.74243625  1
  O  O355  1  0.25329228  0.11773547  0.25752594  1
  O  O356  1  0.24587210  0.11677786  0.74874835  1
  O  O357  1  0.26779589  0.63207899  0.25591584  1
  O  O358  1  0.26060705  0.61809708  0.74728093  1
  O  O359  1  0.76724722  0.10989291  0.24566707  1
  O  O360  1  0.75548289  0.10946380  0.74968172  1
  O  O361  1  0.75692109  0.61718543  0.25616661  1
  O  O362  1  0.76003413  0.61508672  0.74526909  1
  O  O363  1  0.36163732  0.13441978  0.37285951  1
  O  O364  1  0.37297239  0.12652134  0.86211702  1
  O  O365  1  0.37700375  0.61344645  0.37186676  1
  O  O366  1  0.38907295  0.62918945  0.86282271  1
  O  O367  1  0.87896796  0.11386309  0.36609712  1
  O  O368  1  0.86852034  0.13460781  0.85663526  1
  O  O369  1  0.86824476  0.61858825  0.36499779  1
  O  O370  1  0.86260080  0.61673955  0.86774372  1
  O  O371  1  0.14179532  0.37990842  0.12461568  1
  O  O372  1  0.12381152  0.39080916  0.63384719  1
  O  O373  1  0.13092245  0.88019753  0.13005288  1
  O  O374  1  0.12956376  0.88202882  0.63241611  1
  O  O375  1  0.63398892  0.38238417  0.12829620  1
  O  O376  1  0.63498231  0.38780363  0.61324527  1
  O  O377  1  0.62816544  0.87686795  0.11231040  1
  O  O378  1  0.63065610  0.88214942  0.62382592  1
  O  O379  1  0.13412029  0.25614584  0.25665366  1
  O  O380  1  0.12652700  0.25895399  0.76214562  1
  O  O381  1  0.11928288  0.75238754  0.25257692  1
  O  O382  1  0.12051420  0.75611953  0.75529209  1
  O  O383  1  0.62017307  0.24796391  0.26213922  1
  O  O384  1  0.62747907  0.24018872  0.76472984  1
  O  O385  1  0.61727890  0.74192981  0.26102391  1
  O  O386  1  0.63039273  0.75746938  0.76020704  1
  O  O387  1  0.38338207  0.24327682  0.24792750  1
  O  O388  1  0.36344778  0.23866362  0.75161040  1
  O  O389  1  0.38507632  0.74151690  0.24915970  1
  O  O390  1  0.36159780  0.74292917  0.73557905  1
  O  O391  1  0.87634068  0.23470767  0.24766944  1
  O  O392  1  0.88504514  0.24337570  0.74344063  1
  O  O393  1  0.88287723  0.74202141  0.24551937  1
  O  O394  1  0.87762585  0.74125089  0.74879371  1
  O  O395  1  0.37029380  0.48861198  0.49270883  1
  O  O396  1  0.37856740  0.48799093  0.99630050  1
  O  O397  1  0.37714851  0.99957445  0.50716974  1
  O  O398  1  0.37206606  0.99463992  1.00026067  1
  O  O399  1  0.88715424  0.50934288  0.49565495  1
  O  O400  1  0.87556642  0.49113295  0.99045092  1
  O  O401  1  0.87871170  0.99760792  0.49179616  1
  O  O402  1  0.88529521  0.99186728  1.00811850  1
  O  O403  1  0.12018033  0.00494007  0.00672467  1
  O  O404  1  0.12278518  0.00529457  0.50775391  1
  O  O405  1  0.12744362  0.49894647  0.01619384  1
  O  O406  1  0.12007236  0.50601783  0.50780379  1
  O  O407  1  0.61869918  0.01557040  0.00184756  1
  O  O408  1  0.62272626  0.00878649  0.50538202  1
  O  O409  1  0.61800446  0.48904477  0.00728432  1
  O  O410  1  0.63086047  0.51451309  0.50623236  1
  O  O411  1  0.37024473  0.37067908  0.12000316  1
  O  O412  1  0.36982414  0.37739402  0.61787759  1
  O  O413  1  0.36757962  0.87458972  0.11750573  1
  O  O414  1  0.36732520  0.86788738  0.62530086  1
  O  O415  1  0.86864873  0.36983621  0.11664915  1
  O  O416  1  0.86360423  0.37763965  0.62568871  1
  O  O417  1  0.87277005  0.86362287  0.11522887  1
  O  O418  1  0.86673632  0.87627489  0.61709921  1
  O  O419  1  0.13517213  0.13175827  0.37851029  1
  O  O420  1  0.12642881  0.13164350  0.88971823  1
  O  O421  1  0.12730796  0.62818108  0.37827574  1
  O  O422  1  0.12683369  0.63898602  0.87107686  1
  O  O423  1  0.62664416  0.14071569  0.38113671  1
  O  O424  1  0.61577965  0.13783525  0.88691790  1
  O  O425  1  0.62797020  0.63048599  0.38263281  1
  O  O426  1  0.64195734  0.61662254  0.86935559  1
