# generated using pymatgen
data_V85Zn86O256
_symmetry_space_group_name_H-M   'P 1'
_cell_length_a   16.95988076
_cell_length_b   16.96974520
_cell_length_c   16.95771159
_cell_angle_alpha   90.07648846
_cell_angle_beta   89.95525389
_cell_angle_gamma   89.88179884
_symmetry_Int_Tables_number   1
_chemical_formula_structural   V85Zn86O256
_chemical_formula_sum   'V85 Zn86 O256'
_cell_volume   4880.49549221
_cell_formula_units_Z   1
loop_
 _symmetry_equiv_pos_site_id
 _symmetry_equiv_pos_as_xyz
  1  'x, y, z'
loop_
 _atom_site_type_symbol
 _atom_site_label
 _atom_site_symmetry_multiplicity
 _atom_site_fract_x
 _atom_site_fract_y
 _atom_site_fract_z
 _atom_site_occupancy
  V  V0  1  0.50338510  0.13173497  0.63939145  1
  V  V1  1  -0.00197764  0.50790375  0.49706606  1
  V  V2  1  0.50134159  0.62692317  0.62693367  1
  V  V3  1  0.58932203  0.14881807  -0.00968365  1
  V  V4  1  0.60759137  0.36582126  0.76307484  1
  V  V5  1  0.62456235  0.87759081  0.24500027  1
  V  V6  1  0.35817275  0.86904405  -0.00190614  1
  V  V7  1  0.12953286  -0.00498595  0.62306588  1
  V  V8  1  0.75671150  0.24957267  -0.00450665  1
  V  V9  1  0.00521911  0.11791652  0.62590467  1
  V  V10  1  0.50094512  0.62666454  0.12403355  1
  V  V11  1  0.36558459  0.13516517  0.75748851  1
  V  V12  1  0.23671679  0.24149721  0.48793294  1
  V  V13  1  0.62568447  0.62286462  -0.01150975  1
  V  V14  1  0.88633687  0.24565319  0.12305345  1
  V  V15  1  0.62605386  0.49980036  0.12237052  1
  V  V16  1  0.49914447  0.49277209  -0.00393717  1
  V  V17  1  0.49813144  0.75217464  0.24980008  1
  V  V18  1  0.74564600  0.62629654  0.37189415  1
  V  V19  1  0.75355566  0.37388471  0.12291697  1
  V  V20  1  0.88207238  -0.01661834  0.87588615  1
  V  V21  1  0.63018972  0.24482556  0.36951433  1
  V  V22  1  0.87446997  0.24469402  0.62503065  1
  V  V23  1  0.74927286  0.12917936  0.87788218  1
  V  V24  1  0.62691554  0.37250179  0.24605637  1
  V  V25  1  0.75045890  0.49861182  0.24863267  1
  V  V26  1  0.74489776  0.87465562  0.62534342  1
  V  V27  1  0.25199643  0.63019552  0.87846872  1
  V  V28  1  0.62574091  0.49890098  0.62989934  1
  V  V29  1  0.10882464  0.12424214  -0.00269187  1
  V  V30  1  0.25268793  0.23426809  0.00501488  1
  V  V31  1  0.37508955  0.62515538  0.75033458  1
  V  V32  1  0.49945621  0.24356232  0.23268146  1
  V  V33  1  0.00116044  0.37499293  0.87647337  1
  V  V34  1  0.50050825  0.49956435  0.50052298  1
  V  V35  1  0.87628925  0.12098950  0.75399824  1
  V  V36  1  0.13227102  -0.00243369  0.12002559  1
  V  V37  1  0.24932298  0.37371875  0.62369438  1
  V  V38  1  0.25122572  0.00034781  0.25474616  1
  V  V39  1  0.62078925  0.87101072  0.75320673  1
  V  V40  1  0.87450915  0.62573408  0.24608474  1
  V  V41  1  0.36100082  0.37504181  0.01652653  1
  V  V42  1  -0.05733265  0.58504852  0.68120013  1
  V  V43  1  0.62747029  0.12513305  0.49750454  1
  V  V44  1  0.24701356  0.62754534  0.38064596  1
  V  V45  1  0.74616623  0.24857065  0.49891978  1
  V  V46  1  -0.00516361  -0.01934814  0.00496841  1
  V  V47  1  0.86137484  0.00567959  0.37751885  1
  V  V48  1  0.87972106  0.75005556  0.62452755  1
  V  V49  1  0.50583503  0.74779445  0.76816144  1
  V  V50  1  0.12689656  0.37376197  0.75068331  1
  V  V51  1  0.61618388  0.01128996  0.11889168  1
  V  V52  1  0.13168352  0.62908548  0.00412355  1
  V  V53  1  0.12395012  0.50620988  0.62511761  1
  V  V54  1  0.87551392  0.12285041  0.24228028  1
  V  V55  1  0.00442195  0.24551730  0.75112516  1
  V  V56  1  0.00353590  0.50334989  -0.00197657  1
  V  V57  1  0.87888774  0.38381393  -0.00244299  1
  V  V58  1  0.12363737  0.75724608  0.88027974  1
  V  V59  1  0.24890627  0.49366681  0.24385243  1
  V  V60  1  0.13810741  0.87105781  0.74543887  1
  V  V61  1  0.37004567  -0.00294742  0.87354423  1
  V  V62  1  0.37563673  0.48964353  0.87483812  1
  V  V63  1  0.68450145  0.79663450  0.93579056  1
  V  V64  1  0.49605418  -0.01166709  -0.00446403  1
  V  V65  1  0.49454360  0.88057202  0.37324618  1
  V  V66  1  -0.00295030  0.75186014  0.25264305  1
  V  V67  1  0.05154206  0.05840949  0.45245563  1
  V  V68  1  0.12714763  0.36315408  0.24788469  1
  V  V69  1  0.74220268  0.75238526  0.49848856  1
  V  V70  1  0.87409666  0.37577173  0.49661057  1
  V  V71  1  -0.00109730  0.75811295  0.75171610  1
  V  V72  1  0.49884324  0.00632289  0.49926973  1
  V  V73  1  0.74592240  0.00552056  0.24612963  1
  V  V74  1  0.36044129  0.75519615  0.12514917  1
  V  V75  1  0.37384484  0.36939442  0.49777363  1
  V  V76  1  0.87878037  0.87941481  0.49825769  1
  V  V77  1  0.86944822  0.75725703  0.11413241  1
  V  V78  1  0.50287443  0.37284271  0.37302358  1
  V  V79  1  0.74670580  0.37220215  0.63143075  1
  V  V80  1  0.76618289  0.61444414  0.87490235  1
  V  V81  1  0.37524488  0.50002529  0.37444534  1
  V  V82  1  0.12995403  0.87136286  0.24507975  1
  V  V83  1  0.36620875  0.13315293  0.24211677  1
  V  V84  1  0.37496597  0.62590004  0.25110605  1
  Zn  Zn85  1  0.62294085  0.62638119  0.50046389  1
  Zn  Zn86  1  0.62489107  0.00193048  0.63105634  1
  Zn  Zn87  1  0.36816004  0.76231633  0.62878224  1
  Zn  Zn88  1  0.00485513  0.24398585  0.25540746  1
  Zn  Zn89  1  0.12094174  0.63092816  0.50189518  1
  Zn  Zn90  1  0.87591821  0.49966959  0.37115595  1
  Zn  Zn91  1  0.62194717  0.75295916  0.37444492  1
  Zn  Zn92  1  0.36950097  0.87988716  0.50867523  1
  Zn  Zn93  1  0.37850474  0.25344791  0.62947057  1
  Zn  Zn94  1  0.76513131  0.50355951  0.74985510  1
  Zn  Zn95  1  0.00166503  0.62417342  0.12597143  1
  Zn  Zn96  1  0.12509438  0.75219613  0.37743313  1
  Zn  Zn97  1  0.24992493  0.49854333  0.75129725  1
  Zn  Zn98  1  0.74876708  -0.00267868  0.75327895  1
  Zn  Zn99  1  0.13264671  0.23907616  0.87094497  1
  Zn  Zn100  1  0.24483725  0.76573104  0.51158292  1
  Zn  Zn101  1  0.01104254  0.36987961  0.37814701  1
  Zn  Zn102  1  0.25103406  0.00058687  0.74831449  1
  Zn  Zn103  1  0.12894907  0.49687747  0.12394037  1
  Zn  Zn104  1  0.74929640  0.87451698  0.11484887  1
  Zn  Zn105  1  -0.00125735  0.87822889  0.37502997  1
  Zn  Zn106  1  0.36802616  0.01218344  0.37816635  1
  Zn  Zn107  1  0.18762713  0.18576048  0.17676467  1
  Zn  Zn108  1  0.18905253  0.18825083  0.67819429  1
  Zn  Zn109  1  0.18621027  0.68201357  0.19363694  1
  Zn  Zn110  1  0.18885484  0.68704767  0.68990778  1
  Zn  Zn111  1  0.68914121  0.18642778  0.17493037  1
  Zn  Zn112  1  0.68620041  0.18873516  0.69267614  1
  Zn  Zn113  1  0.68678433  0.68983847  0.18211599  1
  Zn  Zn114  1  0.68885494  0.68692455  0.69322462  1
  Zn  Zn115  1  0.31176539  0.31058689  0.30958395  1
  Zn  Zn116  1  0.30871882  0.31032636  0.81936538  1
  Zn  Zn117  1  0.31138615  0.81500716  0.31722419  1
  Zn  Zn118  1  0.31465283  0.80980620  0.81479517  1
  Zn  Zn119  1  0.81826140  0.30769552  0.31289040  1
  Zn  Zn120  1  0.81572671  0.31310464  0.81274223  1
  Zn  Zn121  1  0.81030281  0.81654364  0.30987754  1
  Zn  Zn122  1  0.81405207  0.80731994  0.80529022  1
  Zn  Zn123  1  0.18760471  0.43594338  0.43397906  1
  Zn  Zn124  1  0.18768092  0.43972361  0.93541765  1
  Zn  Zn125  1  0.19030388  0.93312045  0.42856682  1
  Zn  Zn126  1  0.18788582  0.93975569  0.93330427  1
  Zn  Zn127  1  0.68751341  0.43698766  0.43789586  1
  Zn  Zn128  1  0.69150460  0.43944842  0.93303464  1
  Zn  Zn129  1  0.68294080  0.93854706  0.43515604  1
  Zn  Zn130  1  0.68750706  0.95908013  0.93555960  1
  Zn  Zn131  1  0.31533598  0.06012332  0.06785057  1
  Zn  Zn132  1  0.31469094  0.06659544  0.56635747  1
  Zn  Zn133  1  0.31419687  0.56576685  0.06313399  1
  Zn  Zn134  1  0.31269104  0.56327307  0.56465695  1
  Zn  Zn135  1  0.81358449  0.05890600  0.06148719  1
  Zn  Zn136  1  0.80928152  0.06043256  0.56581766  1
  Zn  Zn137  1  0.81210954  0.56558941  0.06011548  1
  Zn  Zn138  1  0.80430929  0.56007799  0.55679957  1
  Zn  Zn139  1  0.44094420  0.43761125  0.18824814  1
  Zn  Zn140  1  0.43727024  0.43735832  0.68814592  1
  Zn  Zn141  1  0.43187435  0.94028135  0.18393691  1
  Zn  Zn142  1  0.44210416  0.94322057  0.69351647  1
  Zn  Zn143  1  0.94385599  0.43595829  0.18524994  1
  Zn  Zn144  1  0.94012920  0.42133833  0.68296550  1
  Zn  Zn145  1  0.93766697  0.93508003  0.18436832  1
  Zn  Zn146  1  0.94176457  0.93591439  0.68647662  1
  Zn  Zn147  1  0.05846033  0.06085712  0.29211326  1
  Zn  Zn148  1  0.06409890  0.05464671  0.81570485  1
  Zn  Zn149  1  0.06328831  0.55807276  0.31400952  1
  Zn  Zn150  1  0.06736484  0.56112016  0.81941168  1
  Zn  Zn151  1  0.55919311  0.06704607  0.31109948  1
  Zn  Zn152  1  0.56034856  0.05881680  0.81889364  1
  Zn  Zn153  1  0.56319072  0.56250118  0.31172219  1
  Zn  Zn154  1  0.56339621  0.55554687  0.81235132  1
  Zn  Zn155  1  0.43844805  0.18814717  0.43073516  1
  Zn  Zn156  1  0.42606167  0.18354061  0.94626879  1
  Zn  Zn157  1  0.43338852  0.69259974  0.44070286  1
  Zn  Zn158  1  0.43455602  0.68577427  0.94210015  1
  Zn  Zn159  1  0.92606790  0.19002314  0.42989260  1
  Zn  Zn160  1  0.93969872  0.18869769  0.93523435  1
  Zn  Zn161  1  0.93190832  0.68864042  0.43517644  1
  Zn  Zn162  1  0.94357420  0.68988212  0.93642679  1
  Zn  Zn163  1  0.07082589  0.31248400  0.06678485  1
  Zn  Zn164  1  0.06140206  0.31221452  0.56147394  1
  Zn  Zn165  1  0.06289264  0.80800444  0.06842851  1
  Zn  Zn166  1  0.06268237  0.81167710  0.56258221  1
  Zn  Zn167  1  0.56093080  0.31236965  0.04538852  1
  Zn  Zn168  1  0.56230182  0.31166476  0.56429182  1
  Zn  Zn169  1  0.55254759  0.81685757  0.06837504  1
  Zn  Zn170  1  0.53190014  0.82943092  0.58074870  1
  O  O171  1  0.12542598  0.11228688  0.10839632  1
  O  O172  1  0.11085392  0.11887040  0.62771164  1
  O  O173  1  0.12320647  0.62408817  0.11656055  1
  O  O174  1  0.12986400  0.60926149  0.62296972  1
  O  O175  1  0.62525777  0.12122152  0.10142603  1
  O  O176  1  0.61636681  0.12560304  0.62268657  1
  O  O177  1  0.62267399  0.61959426  0.11284666  1
  O  O178  1  0.62143035  0.61464708  0.62617780  1
  O  O179  1  0.38202005  0.37981649  0.37993467  1
  O  O180  1  0.36969019  0.38739568  0.88341220  1
  O  O181  1  0.38850787  0.88468340  0.37147986  1
  O  O182  1  0.37167706  0.87839757  0.88860595  1
  O  O183  1  0.86018061  0.38110416  0.39144811  1
  O  O184  1  0.89151363  0.37017237  0.88217252  1
  O  O185  1  0.87390181  0.88776364  0.37959516  1
  O  O186  1  0.86945821  0.88537831  0.86993802  1
  O  O187  1  0.24697173  0.00779088  0.35857818  1
  O  O188  1  0.26409613  -0.00174293  0.87080316  1
  O  O189  1  0.25887354  0.50394064  0.36640857  1
  O  O190  1  0.25764329  0.51108236  0.87353914  1
  O  O191  1  0.75163372  -0.00324069  0.36119476  1
  O  O192  1  0.76678900  0.01065651  0.87447497  1
  O  O193  1  0.74879587  0.50984631  0.36842941  1
  O  O194  1  0.75848011  0.50912810  0.87026770  1
  O  O195  1  0.25334032  0.50803569  0.14137484  1
  O  O196  1  0.24238638  0.48884690  0.62487049  1
  O  O197  1  0.23790576  1.00080441  0.13252153  1
  O  O198  1  0.23315352  1.00958357  0.62579472  1
  O  O199  1  0.74580897  0.49426181  0.12823786  1
  O  O200  1  0.74193423  0.49237455  0.62762362  1
  O  O201  1  0.73656618  0.99593998  0.12442830  1
  O  O202  1  0.74692304  0.98606850  0.63015420  1
  O  O203  1  0.01527971  0.37538442  0.25124530  1
  O  O204  1  0.00612010  0.36651329  0.75701299  1
  O  O205  1  0.00418794  0.86718942  0.25127553  1
  O  O206  1  0.00901547  0.86213920  0.74726464  1
  O  O207  1  0.50754733  0.36619503  0.25342988  1
  O  O208  1  0.50775598  0.37275293  0.75004489  1
  O  O209  1  0.50513833  0.87405583  0.25342402  1
  O  O210  1  0.51348299  0.86457199  0.75351902  1
  O  O211  1  0.49952274  0.14022986  0.24426656  1
  O  O212  1  0.49751848  0.12337373  0.74220557  1
  O  O213  1  0.49494547  0.63087397  0.24563222  1
  O  O214  1  0.49563100  0.62698244  0.74698019  1
  O  O215  1  0.98172658  0.12573015  0.24435755  1
  O  O216  1  0.99501492  0.12506998  0.74506196  1
  O  O217  1  0.98988813  0.62962251  0.25020849  1
  O  O218  1  1.00597779  0.63308915  0.74880393  1
  O  O219  1  0.36045981  0.26285355  -0.00103695  1
  O  O220  1  0.37660169  0.26266463  0.49961525  1
  O  O221  1  0.37636430  0.76126545  0.00783568  1
  O  O222  1  0.37284905  0.75752522  0.50694861  1
  O  O223  1  0.87461296  0.25938240  0.00430812  1
  O  O224  1  0.86416833  0.25502667  0.50680348  1
  O  O225  1  0.88158481  0.74450739  0.01657311  1
  O  O226  1  0.86248829  0.75705858  0.50407521  1
  O  O227  1  0.13667108  0.25417990  0.50062217  1
  O  O228  1  0.12743076  0.23439153  0.99998810  1
  O  O229  1  0.12620019  0.74726579  0.49552890  1
  O  O230  1  0.11837930  0.74181092  0.99219375  1
  O  O231  1  0.62796060  0.24553991  0.49117182  1
  O  O232  1  0.65435398  0.24763257  1.01467294  1
  O  O233  1  0.63715422  0.75092328  0.50072241  1
  O  O234  1  0.62054741  0.74386119  0.99896881  1
  O  O235  1  0.50743589  0.25800471  0.13589400  1
  O  O236  1  0.49779911  0.23508094  0.62067187  1
  O  O237  1  0.49216735  0.74352382  0.13266878  1
  O  O238  1  0.50554629  0.73090181  0.63620518  1
  O  O239  1  0.98863585  0.25545067  0.12790970  1
  O  O240  1  0.99332958  0.24129176  0.62984417  1
  O  O241  1  0.98829153  0.74654776  0.13689667  1
  O  O242  1  0.98703364  0.74876902  0.62949610  1
  O  O243  1  -0.02601483  0.26355616  0.36430437  1
  O  O244  1  0.00759402  0.25583953  0.86840013  1
  O  O245  1  -0.00406802  0.75160933  0.36246063  1
  O  O246  1  0.01126699  0.74585823  0.86451949  1
  O  O247  1  0.51312057  0.25678478  0.36588378  1
  O  O248  1  0.52843731  0.23136418  0.95682658  1
  O  O249  1  0.50151818  0.76062353  0.36790247  1
  O  O250  1  0.50112925  0.74038863  0.86707501  1
  O  O251  1  0.25651839  0.14411931  0.50619482  1
  O  O252  1  0.24814073  0.13109318  1.00208886  1
  O  O253  1  0.24938434  0.61552877  0.48572644  1
  O  O254  1  0.24115720  0.62217801  0.99337373  1
  O  O255  1  0.73518763  0.13175990  0.51020095  1
  O  O256  1  0.76396770  0.13310019  0.98608390  1
  O  O257  1  0.74654052  0.63279278  0.48889952  1
  O  O258  1  0.74124865  0.61973637  0.98666061  1
  O  O259  1  0.25997311  0.38224448  0.00420947  1
  O  O260  1  0.25747811  0.37157974  0.50544980  1
  O  O261  1  0.25936494  0.87560020  0.00077401  1
  O  O262  1  0.25759689  0.87894227  0.49444546  1
  O  O263  1  0.76260394  0.37140520  -0.00017017  1
  O  O264  1  0.75160399  0.37021079  0.51298150  1
  O  O265  1  0.73556438  0.86415029  -0.00684205  1
  O  O266  1  0.75278039  0.86991395  0.50589616  1
  O  O267  1  0.13517734  0.49563100  0.24670591  1
  O  O268  1  0.12508747  0.49240822  0.74274400  1
  O  O269  1  0.12984976  0.99366829  0.23782386  1
  O  O270  1  0.12707319  0.98867041  0.74414010  1
  O  O271  1  0.63093498  0.49414863  0.24278147  1
  O  O272  1  0.62557142  0.48799452  0.73917021  1
  O  O273  1  0.62799152  1.00022509  0.23997072  1
  O  O274  1  0.62754907  0.98818912  0.75513164  1
  O  O275  1  0.36570810  0.00888243  0.24936831  1
  O  O276  1  0.37398655  0.00867072  0.75688028  1
  O  O277  1  0.37181865  0.50396856  0.25626044  1
  O  O278  1  0.37540240  0.50651342  0.75943131  1
  O  O279  1  0.86567749  0.00328515  0.25124724  1
  O  O280  1  0.87681147  0.00369665  0.75987988  1
  O  O281  1  0.86912490  0.50791479  0.24783866  1
  O  O282  1  0.88578177  0.51183181  0.73182539  1
  O  O283  1  0.12628725  0.37988652  0.35605355  1
  O  O284  1  0.11593474  0.37610671  0.86787026  1
  O  O285  1  0.11695135  0.87541766  0.35905338  1
  O  O286  1  0.13145030  0.86254314  0.86692804  1
  O  O287  1  0.62244815  0.36895935  0.36606837  1
  O  O288  1  0.62525013  0.38207430  0.86144732  1
  O  O289  1  0.61607908  0.87700987  0.35992612  1
  O  O290  1  0.63735675  0.86537521  0.87409817  1
  O  O291  1  0.37960459  0.12128465  0.14208508  1
  O  O292  1  0.38652889  0.12781773  0.64032575  1
  O  O293  1  0.38191327  0.63250203  0.13118732  1
  O  O294  1  0.38494455  0.61565075  0.63955307  1
  O  O295  1  0.86976882  0.13283671  0.12914116  1
  O  O296  1  0.88172736  0.12233312  0.63676354  1
  O  O297  1  0.87302011  0.63274442  0.13516215  1
  O  O298  1  0.87132061  0.63418587  0.61847659  1
  O  O299  1  0.24259765  0.25496888  0.10341690  1
  O  O300  1  0.25350526  0.26338476  0.61612219  1
  O  O301  1  0.26215428  0.74400552  0.13300029  1
  O  O302  1  0.25859507  0.73685109  0.62214931  1
  O  O303  1  0.76469355  0.25766426  0.11760655  1
  O  O304  1  0.75493126  0.25572062  0.62263914  1
  O  O305  1  0.76404350  0.75307974  0.12648790  1
  O  O306  1  0.75679916  0.75741596  0.61995789  1
  O  O307  1  0.25388468  0.25416713  0.38956480  1
  O  O308  1  0.24259415  0.26086165  0.89803545  1
  O  O309  1  0.24853680  0.73814106  0.37444759  1
  O  O310  1  0.24243935  0.73690080  0.87054317  1
  O  O311  1  0.73695891  0.25383248  0.37891874  1
  O  O312  1  0.75823064  0.24240307  0.88212585  1
  O  O313  1  0.74718395  0.74542419  0.38045459  1
  O  O314  1  0.75018489  0.74115324  0.87903023  1
  O  O315  1  0.00721010  0.11701418  -0.00125307  1
  O  O316  1  -0.00993340  0.12385436  0.50696172  1
  O  O317  1  0.01081756  0.61772642  -0.00088854  1
  O  O318  1  -0.00287574  0.61252592  0.49395629  1
  O  O319  1  0.49026530  0.10117707  0.00440293  1
  O  O320  1  0.50919753  0.12310052  0.50582494  1
  O  O321  1  0.50612358  0.61641017  0.00537082  1
  O  O322  1  0.50175011  0.61828059  0.50862645  1
  O  O323  1  0.49482896  0.37962306  0.49512595  1
  O  O324  1  0.48648662  0.38917751  1.00305861  1
  O  O325  1  0.50971810  0.89154154  0.48578617  1
  O  O326  1  0.48953734  0.88321159  1.00098254  1
  O  O327  1  0.98855748  0.38354588  0.50242452  1
  O  O328  1  0.99929443  0.37965932  0.99398140  1
  O  O329  1  0.98136916  0.86904847  0.49791317  1
  O  O330  1  1.00340763  0.88283363  0.99952219  1
  O  O331  1  0.49615932  0.49353247  0.37930349  1
  O  O332  1  0.48792880  0.50778577  0.88571553  1
  O  O333  1  0.50103935  0.99736308  0.38197034  1
  O  O334  1  0.48497099  0.99907763  0.88331348  1
  O  O335  1  0.99457935  0.49261986  0.38358771  1
  O  O336  1  1.00407089  0.49164477  0.88769961  1
  O  O337  1  0.99213756  1.00323825  0.38291565  1
  O  O338  1  0.98893174  0.99922681  0.88627200  1
  O  O339  1  0.00794756  -0.00604200  0.11072298  1
  O  O340  1  0.00936586  0.00708203  0.62532699  1
  O  O341  1  0.00181274  0.50320112  0.11059388  1
  O  O342  1  0.00278404  0.50719631  0.62212936  1
  O  O343  1  0.51217900  -0.00602918  0.11946290  1
  O  O344  1  0.50447448  0.01687939  0.61770750  1
  O  O345  1  0.50667926  0.50702582  0.11864040  1
  O  O346  1  0.50704034  0.50728419  0.62236552  1
  O  O347  1  0.24129068  0.38145333  0.25191513  1
  O  O348  1  0.24590452  0.37550160  0.74191212  1
  O  O349  1  0.24175939  0.88477923  0.25372399  1
  O  O350  1  0.24157581  0.87337017  0.74856362  1
  O  O351  1  0.74652541  0.37899805  0.24379031  1
  O  O352  1  0.75693660  0.38010842  0.73870022  1
  O  O353  1  0.74016003  0.88660981  0.24553179  1
  O  O354  1  0.74024056  0.87113081  0.74168667  1
  O  O355  1  0.25990417  0.12312485  0.24402010  1
  O  O356  1  0.26362093  0.12561574  0.74502975  1
  O  O357  1  0.25701340  0.61685166  0.26162712  1
  O  O358  1  0.26013754  0.62011987  0.75889702  1
  O  O359  1  0.75472124  0.11181521  0.23927239  1
  O  O360  1  0.75719023  0.12289235  0.75957578  1
  O  O361  1  0.75319094  0.62103218  0.25393589  1
  O  O362  1  0.74638992  0.62234633  0.76902286  1
  O  O363  1  0.38719386  0.12452662  0.35136291  1
  O  O364  1  0.37952657  0.11952495  0.86203650  1
  O  O365  1  0.37208253  0.61863568  0.36949780  1
  O  O366  1  0.36876988  0.61907915  0.87000182  1
  O  O367  1  0.86949333  0.11124489  0.36395800  1
  O  O368  1  0.87357893  0.12135817  0.86428903  1
  O  O369  1  0.86177440  0.62486133  0.36293749  1
  O  O370  1  0.86396199  0.62718268  0.88118111  1
  O  O371  1  0.12540467  0.38023525  0.14018517  1
  O  O372  1  0.12979857  0.38287036  0.63058972  1
  O  O373  1  0.12156027  0.87989825  0.13631749  1
  O  O374  1  0.11864274  0.88330328  0.63364813  1
  O  O375  1  0.63250857  0.38058228  0.12586096  1
  O  O376  1  0.63132234  0.37932381  0.63186649  1
  O  O377  1  0.62524021  0.88246920  0.13361350  1
  O  O378  1  0.62850519  0.87613379  0.63452917  1
  O  O379  1  0.12514084  0.25820161  0.24422205  1
  O  O380  1  0.12228484  0.25423206  0.74982197  1
  O  O381  1  0.11532941  0.75553391  0.25030854  1
  O  O382  1  0.11896598  0.75472928  0.75524191  1
  O  O383  1  0.62057009  0.25041778  0.25144047  1
  O  O384  1  0.62974413  0.26793643  0.75020725  1
  O  O385  1  0.61775290  0.76091193  0.24711770  1
  O  O386  1  0.61818401  0.75670449  0.75118149  1
  O  O387  1  0.38697565  0.24434697  0.24822430  1
  O  O388  1  0.37307280  0.23939845  0.75257205  1
  O  O389  1  0.38048202  0.74776564  0.24483323  1
  O  O390  1  0.38553690  0.74036768  0.75040197  1
  O  O391  1  0.86782605  0.23824107  0.23750735  1
  O  O392  1  0.88234239  0.24010753  0.74424069  1
  O  O393  1  0.87824128  0.74388089  0.24475374  1
  O  O394  1  0.88478509  0.74916425  0.73872225  1
  O  O395  1  0.38081970  0.48901808  0.49546900  1
  O  O396  1  0.37904449  0.49329790  0.99660771  1
  O  O397  1  0.38760556  1.00561731  0.49825547  1
  O  O398  1  0.37547406  0.98776182  0.99640103  1
  O  O399  1  0.88014939  0.49217348  0.50146642  1
  O  O400  1  0.88283237  0.48913193  1.00402328  1
  O  O401  1  0.86183595  0.99213082  0.48998441  1
  O  O402  1  0.88757055  0.99812384  0.99266546  1
  O  O403  1  0.11471854  0.00278897  0.00154395  1
  O  O404  1  0.11646676  -0.00451302  0.50378197  1
  O  O405  1  0.12064911  0.50936962  0.00187650  1
  O  O406  1  0.11333414  0.49672415  0.50813876  1
  O  O407  1  0.61102077  0.00486743  0.00316145  1
  O  O408  1  0.61853082  0.01015742  0.50219781  1
  O  O409  1  0.61754570  0.50390339  0.00185436  1
  O  O410  1  0.61915034  0.49906953  0.51207721  1
  O  O411  1  0.37461637  0.37977294  0.11420302  1
  O  O412  1  0.36725462  0.37532984  0.61740205  1
  O  O413  1  0.37676086  0.86692031  0.11205149  1
  O  O414  1  0.41934365  0.86692737  0.61574078  1
  O  O415  1  0.87253569  0.36958449  0.11618909  1
  O  O416  1  0.86662253  0.36659754  0.61444430  1
  O  O417  1  0.87007916  0.86214211  0.12557294  1
  O  O418  1  0.86630198  0.86961986  0.61861672  1
  O  O419  1  0.10466269  0.11102087  0.38831155  1
  O  O420  1  0.12388201  0.11984148  0.89134128  1
  O  O421  1  0.13421984  0.62534600  0.37663750  1
  O  O422  1  0.13401856  0.63281158  0.88262311  1
  O  O423  1  0.62147513  0.13385515  0.38431057  1
  O  O424  1  0.63471711  0.11886479  0.89025507  1
  O  O425  1  0.63435787  0.62957447  0.37496007  1
  O  O426  1  0.63023166  0.61769232  0.88543066  1
