# generated using pymatgen
data_V85Zn86O256
_symmetry_space_group_name_H-M   'P 1'
_cell_length_a   16.95140053
_cell_length_b   16.94220236
_cell_length_c   16.94381206
_cell_angle_alpha   89.96017070
_cell_angle_beta   89.92964979
_cell_angle_gamma   89.99557220
_symmetry_Int_Tables_number   1
_chemical_formula_structural   V85Zn86O256
_chemical_formula_sum   'V85 Zn86 O256'
_cell_volume   4866.15728758
_cell_formula_units_Z   1
loop_
 _symmetry_equiv_pos_site_id
 _symmetry_equiv_pos_as_xyz
  1  'x, y, z'
loop_
 _atom_site_type_symbol
 _atom_site_label
 _atom_site_symmetry_multiplicity
 _atom_site_fract_x
 _atom_site_fract_y
 _atom_site_fract_z
 _atom_site_occupancy
  V  V0  1  -0.00567551  0.87757982  0.37400850  1
  V  V1  1  0.87585575  0.37996932  -0.00452619  1
  V  V2  1  0.38039250  0.62056496  0.75150903  1
  V  V3  1  0.86270413  0.00296427  0.88276380  1
  V  V4  1  0.12580009  0.12572925  0.00134272  1
  V  V5  1  0.62251671  0.74452687  0.37868799  1
  V  V6  1  0.00413257  0.74951884  0.74464223  1
  V  V7  1  0.87584817  0.24925338  0.13127051  1
  V  V8  1  0.50263784  -0.00003030  -0.00021672  1
  V  V9  1  0.62578918  0.50999872  0.12277236  1
  V  V10  1  0.87055559  0.62260563  0.75456151  1
  V  V11  1  0.87595358  0.00539428  0.37050844  1
  V  V12  1  0.12704680  0.74660125  0.37661573  1
  V  V13  1  0.12448856  0.25435264  0.87393938  1
  V  V14  1  0.25093756  -0.01117309  0.74176426  1
  V  V15  1  0.74732740  0.00657325  0.24375705  1
  V  V16  1  0.37966877  0.86798365  0.00328055  1
  V  V17  1  0.69107579  0.43340859  0.68876465  1
  V  V18  1  0.88292805  0.12131630  0.75450192  1
  V  V19  1  0.74800734  0.85607649  0.12945792  1
  V  V20  1  0.12111567  0.50292982  0.12551694  1
  V  V21  1  0.62963183  0.12384889  -0.00594144  1
  V  V22  1  0.75188604  0.24920395  -0.00572080  1
  V  V23  1  0.12518528  0.37381103  0.73500272  1
  V  V24  1  0.24903782  0.25501926  0.50738543  1
  V  V25  1  0.12786334  0.75863423  0.87041586  1
  V  V26  1  0.24904764  0.62967500  0.39144135  1
  V  V27  1  0.63157596  -0.00350950  0.62359973  1
  V  V28  1  0.62607851  0.25953483  0.87381188  1
  V  V29  1  0.49524246  0.37897953  0.87368428  1
  V  V30  1  0.12400883  0.87395029  0.24952288  1
  V  V31  1  0.75166428  0.12868620  0.37509357  1
  V  V32  1  0.62324146  0.37533569  0.25005922  1
  V  V33  1  0.49415648  0.62893717  0.12078215  1
  V  V34  1  0.20168469  0.80592787  0.55540301  1
  V  V35  1  0.37525312  0.12529646  0.24981631  1
  V  V36  1  0.49092242  0.50130333  -0.00254193  1
  V  V37  1  0.87106026  0.85673897  0.00599320  1
  V  V38  1  -0.00019045  0.50028029  -0.01184129  1
  V  V39  1  -0.00615486  0.74942394  0.24395938  1
  V  V40  1  0.75682045  0.49902804  0.25620656  1
  V  V41  1  0.37196753  0.63328185  0.24989276  1
  V  V42  1  0.50582884  0.75260012  0.75102137  1
  V  V43  1  0.51442917  0.62044721  0.61958557  1
  V  V44  1  0.86372974  0.88023762  0.50185044  1
  V  V45  1  0.37809958  -0.00197248  0.87496693  1
  V  V46  1  0.50044852  0.25027120  0.24746633  1
  V  V47  1  0.37565671  0.26093192  0.62678321  1
  V  V48  1  0.25178483  -0.00004833  0.24886583  1
  V  V49  1  0.25548096  0.86825581  0.12681919  1
  V  V50  1  0.50248451  0.12418875  0.12386920  1
  V  V51  1  0.24810076  0.50551452  0.25345284  1
  V  V52  1  0.50208990  0.00537085  0.50104171  1
  V  V53  1  0.12801562  0.51799265  0.61878230  1
  V  V54  1  0.87275743  0.62754328  0.25021107  1
  V  V55  1  0.63370313  0.74452941  0.88705849  1
  V  V56  1  0.37661850  0.12637798  0.74645224  1
  V  V57  1  0.25147357  0.12477787  0.87597495  1
  V  V58  1  0.75037386  0.37504172  0.12610296  1
  V  V59  1  0.50576091  0.87677768  0.37202687  1
  V  V60  1  0.24967065  0.12582424  0.37733533  1
  V  V61  1  0.12551552  -0.00070346  0.12477884  1
  V  V62  1  0.25110563  0.37524128  0.12500166  1
  V  V63  1  0.87861348  0.23506302  0.62019891  1
  V  V64  1  0.25446608  0.61826248  0.87421703  1
  V  V65  1  0.00184768  0.51365842  0.50095570  1
  V  V66  1  0.49560629  0.37587994  0.37869972  1
  V  V67  1  0.87773251  0.74459329  0.62205705  1
  V  V68  1  0.25427569  0.74868090  0.00045748  1
  V  V69  1  0.25452391  0.49350126  0.74534754  1
  V  V70  1  0.12600239  0.62581031  -0.00197186  1
  V  V71  1  0.87232922  0.38301143  0.51006030  1
  V  V72  1  0.74959037  0.62201404  0.38282339  1
  V  V73  1  -0.00306249  0.12515743  0.13333941  1
  V  V74  1  0.37842381  0.74898253  0.62060737  1
  V  V75  1  0.50900843  0.25391000  0.74581857  1
  V  V76  1  0.37655847  0.87718320  0.50497677  1
  V  V77  1  -0.00397161  -0.00120642  0.00092902  1
  V  V78  1  0.50213805  0.75349326  0.24640666  1
  V  V79  1  0.12291280  0.24975290  0.37829498  1
  V  V80  1  0.11425640  0.11226900  0.51424048  1
  V  V81  1  0.74345848  0.74968898  0.50762686  1
  V  V82  1  -0.00587288  0.37959256  0.37810991  1
  V  V83  1  0.74984202  0.00026572  0.74894950  1
  V  V84  1  0.12223149  0.37677638  0.25267584  1
  Zn  Zn85  1  0.37659795  0.00024152  0.37663085  1
  Zn  Zn86  1  0.36929948  0.37438407  -0.00696525  1
  Zn  Zn87  1  0.62694651  0.24898050  0.37698686  1
  Zn  Zn88  1  -0.00408812  0.24804454  0.25444042  1
  Zn  Zn89  1  0.74770808  0.25403487  0.50800921  1
  Zn  Zn90  1  -0.00116154  0.87399800  0.87579875  1
  Zn  Zn91  1  0.74939488  0.62240023  0.89294485  1
  Zn  Zn92  1  0.62786753  0.13261748  0.50276373  1
  Zn  Zn93  1  -0.00627735  0.63023147  0.12050250  1
  Zn  Zn94  1  0.37431222  0.50235327  0.37821204  1
  Zn  Zn95  1  0.00523855  0.24387240  0.74313552  1
  Zn  Zn96  1  0.50468683  0.12747973  0.62450362  1
  Zn  Zn97  1  0.63724726  0.87218887  0.74969249  1
  Zn  Zn98  1  0.36986075  0.38053689  0.50248302  1
  Zn  Zn99  1  0.50670707  0.87391100  0.87456582  1
  Zn  Zn100  1  -0.00149857  0.37519166  0.86798513  1
  Zn  Zn101  1  0.25073178  0.25050713  0.00139127  1
  Zn  Zn102  1  0.62560956  -0.00814606  0.12677999  1
  Zn  Zn103  1  0.37326590  0.25107642  0.12161203  1
  Zn  Zn104  1  0.82610841  0.46346026  0.82078234  1
  Zn  Zn105  1  0.08713239  0.92992728  0.70332583  1
  Zn  Zn106  1  0.50610805  0.51012505  0.49642487  1
  Zn  Zn107  1  0.18463293  0.18959303  0.19028508  1
  Zn  Zn108  1  0.19033272  0.18323487  0.68794287  1
  Zn  Zn109  1  0.18505607  0.68835463  0.18912978  1
  Zn  Zn110  1  0.18943896  0.68514875  0.69420648  1
  Zn  Zn111  1  0.68758822  0.18618739  0.18514392  1
  Zn  Zn112  1  0.69345404  0.18450199  0.68667419  1
  Zn  Zn113  1  0.68153779  0.68546153  0.19392293  1
  Zn  Zn114  1  0.68843461  0.68660273  0.69085942  1
  Zn  Zn115  1  0.31147549  0.31223009  0.31029372  1
  Zn  Zn116  1  0.31250327  0.31285234  0.81226900  1
  Zn  Zn117  1  0.31559554  0.81196208  0.31756193  1
  Zn  Zn118  1  0.31854294  0.80959343  0.81352422  1
  Zn  Zn119  1  0.81519365  0.31569483  0.31559389  1
  Zn  Zn120  1  0.81093184  0.30103384  0.80642205  1
  Zn  Zn121  1  0.80777681  0.81251463  0.31099876  1
  Zn  Zn122  1  0.81294362  0.81124421  0.81593016  1
  Zn  Zn123  1  0.18630984  0.43897588  0.43956032  1
  Zn  Zn124  1  0.18638981  0.43715531  0.93485424  1
  Zn  Zn125  1  0.18366469  0.94112180  0.43138830  1
  Zn  Zn126  1  0.19183117  0.93936330  0.93809666  1
  Zn  Zn127  1  0.68627665  0.44164521  0.44200194  1
  Zn  Zn128  1  0.69933043  0.47517024  0.95837742  1
  Zn  Zn129  1  0.68576039  0.93889412  0.43312154  1
  Zn  Zn130  1  0.68876576  0.92896218  0.94061839  1
  Zn  Zn131  1  0.31507360  0.06055433  0.06210145  1
  Zn  Zn132  1  0.31031876  0.06611976  0.56303594  1
  Zn  Zn133  1  0.31392113  0.56222873  0.06597725  1
  Zn  Zn134  1  0.31967822  0.55891406  0.56548822  1
  Zn  Zn135  1  0.81265998  0.06557985  0.06428568  1
  Zn  Zn136  1  0.81219397  0.06258587  0.56138953  1
  Zn  Zn137  1  0.81543442  0.56771183  0.06671922  1
  Zn  Zn138  1  0.80979058  0.56228658  0.56915922  1
  Zn  Zn139  1  0.43432666  0.44326926  0.19095489  1
  Zn  Zn140  1  0.44615050  0.43864891  0.69019326  1
  Zn  Zn141  1  0.43800690  0.93841395  0.18770709  1
  Zn  Zn142  1  0.44037801  0.93738430  0.68518253  1
  Zn  Zn143  1  0.93773159  0.43850936  0.18628572  1
  Zn  Zn144  1  0.94512376  0.43661226  0.67943600  1
  Zn  Zn145  1  0.93011714  0.93656892  0.18756297  1
  Zn  Zn146  1  0.92004302  0.93027606  0.68867722  1
  Zn  Zn147  1  0.06345432  0.06198626  0.31600780  1
  Zn  Zn148  1  0.06143665  0.06412958  0.81902802  1
  Zn  Zn149  1  0.06042475  0.56579714  0.31700324  1
  Zn  Zn150  1  0.06387276  0.56780299  0.80550845  1
  Zn  Zn151  1  0.56842312  0.06202935  0.31296066  1
  Zn  Zn152  1  0.56519129  0.06633584  0.81206909  1
  Zn  Zn153  1  0.56283745  0.56331668  0.31112372  1
  Zn  Zn154  1  0.57444781  0.55794932  0.81154306  1
  Zn  Zn155  1  0.43704749  0.19249246  0.43788110  1
  Zn  Zn156  1  0.43717505  0.19127692  0.93752839  1
  Zn  Zn157  1  0.43573498  0.68817658  0.43889615  1
  Zn  Zn158  1  0.44265744  0.68641649  0.93414525  1
  Zn  Zn159  1  0.93821940  0.18618016  0.43957178  1
  Zn  Zn160  1  0.93952038  0.18693806  0.93859315  1
  Zn  Zn161  1  0.93187306  0.69099283  0.43186952  1
  Zn  Zn162  1  0.94156049  0.68453116  0.93012017  1
  Zn  Zn163  1  0.06299587  0.31372143  0.06131657  1
  Zn  Zn164  1  0.05886037  0.31008170  0.56088952  1
  Zn  Zn165  1  0.06400830  0.81250470  0.06081624  1
  Zn  Zn166  1  0.03124238  0.85399946  0.57719696  1
  Zn  Zn167  1  0.56236515  0.31720527  0.06001413  1
  Zn  Zn168  1  0.58680123  0.34516030  0.54962899  1
  Zn  Zn169  1  0.56498767  0.81078148  0.06381831  1
  Zn  Zn170  1  0.56349098  0.81584185  0.56367826  1
  O  O171  1  0.11987979  0.11921395  0.12030471  1
  O  O172  1  0.12590733  0.12679972  0.61356507  1
  O  O173  1  0.12359318  0.61788664  0.11785326  1
  O  O174  1  0.12600845  0.61615578  0.62578186  1
  O  O175  1  0.61455104  0.12511251  0.11555290  1
  O  O176  1  0.62403942  0.11376971  0.62233229  1
  O  O177  1  0.61128022  0.61647311  0.13436139  1
  O  O178  1  0.61259231  0.62991586  0.62610555  1
  O  O179  1  0.38222428  0.38007293  0.36804999  1
  O  O180  1  0.38935724  0.37166006  0.87401814  1
  O  O181  1  0.38525286  0.87423488  0.38835324  1
  O  O182  1  0.37917173  0.88227319  0.88437033  1
  O  O183  1  0.89002681  0.37116470  0.38388955  1
  O  O184  1  0.87808564  0.37441720  0.88153295  1
  O  O185  1  0.87637430  0.88368417  0.37532810  1
  O  O186  1  0.87471207  0.88125411  0.89273688  1
  O  O187  1  0.25255717  0.00884129  0.36709908  1
  O  O188  1  0.26478454  0.00452386  0.87324108  1
  O  O189  1  0.24559382  0.51143469  0.36908560  1
  O  O190  1  0.24462919  0.51267315  0.86665627  1
  O  O191  1  0.75434312  0.00759234  0.36397982  1
  O  O192  1  0.75934796  -0.00035724  0.87610891  1
  O  O193  1  0.73999625  0.50965931  0.36784633  1
  O  O194  1  0.73517623  0.51042979  0.86086283  1
  O  O195  1  0.23817909  0.49668008  0.13115424  1
  O  O196  1  0.23857744  0.50365218  0.63117441  1
  O  O197  1  0.24620110  0.99033385  0.12910210  1
  O  O198  1  0.25523919  1.00310103  0.64295589  1
  O  O199  1  0.74110067  0.49274871  0.13788152  1
  O  O200  1  0.74085524  0.48885237  0.61836969  1
  O  O201  1  0.75017284  1.00017508  0.13553710  1
  O  O202  1  0.74340560  1.00214973  0.63375452  1
  O  O203  1  0.00573239  0.37673589  0.25885693  1
  O  O204  1  0.01141192  0.37223809  0.75045484  1
  O  O205  1  0.00081327  0.86838134  0.25529017  1
  O  O206  1  -0.00101800  0.86244603  0.75871376  1
  O  O207  1  0.50462919  0.36819954  0.25132489  1
  O  O208  1  0.49839288  0.36190799  0.75779451  1
  O  O209  1  0.49141624  0.86642853  0.25936580  1
  O  O210  1  0.49767701  0.86138824  0.75098148  1
  O  O211  1  0.49863454  0.13017853  0.24314882  1
  O  O212  1  0.49106768  0.13428988  0.75199307  1
  O  O213  1  0.49096343  0.63263299  0.24496077  1
  O  O214  1  0.49588866  0.63407419  0.74347422  1
  O  O215  1  1.00656678  0.12643780  0.23695249  1
  O  O216  1  0.98919158  0.12129697  0.75239628  1
  O  O217  1  0.99059611  0.63174582  0.25209722  1
  O  O218  1  0.99150503  0.64168137  0.75402146  1
  O  O219  1  0.36940781  0.25375338  0.00443943  1
  O  O220  1  0.36546232  0.24689732  0.51092711  1
  O  O221  1  0.37169183  0.76130876  -0.00613577  1
  O  O222  1  0.37968884  0.75887191  0.51260801  1
  O  O223  1  0.87024412  0.25938049  0.00519568  1
  O  O224  1  0.87585964  0.25564631  0.50964534  1
  O  O225  1  0.88178587  0.75864827  -0.00052309  1
  O  O226  1  0.86491869  0.75482011  0.50320849  1
  O  O227  1  0.13026856  0.24404423  0.49197138  1
  O  O228  1  0.12784088  0.24528580  0.99224148  1
  O  O229  1  0.13318191  0.76139058  0.49495367  1
  O  O230  1  0.13351410  0.74350701  0.99457745  1
  O  O231  1  0.63179400  0.25261544  0.49504660  1
  O  O232  1  0.63333802  0.24562891  0.99638393  1
  O  O233  1  0.63068368  0.75554355  0.49082008  1
  O  O234  1  0.62092363  0.74947011  0.98566543  1
  O  O235  1  0.49983080  0.24408548  0.13286315  1
  O  O236  1  0.49263524  0.24596941  0.63531890  1
  O  O237  1  0.50455874  0.74282806  0.13451374  1
  O  O238  1  0.49500999  0.74366140  0.63050060  1
  O  O239  1  0.99397393  0.24296111  0.12537264  1
  O  O240  1  0.98457145  0.25257770  0.62664506  1
  O  O241  1  1.00919260  0.74850692  0.13994910  1
  O  O242  1  0.99001763  0.75807203  0.63158221  1
  O  O243  1  0.00733857  0.25641446  0.37464119  1
  O  O244  1  0.01451258  0.24884210  0.87270064  1
  O  O245  1  0.00716331  0.75512890  0.36491048  1
  O  O246  1  0.01257708  0.75230152  0.86956657  1
  O  O247  1  0.49974993  0.25211018  0.35818082  1
  O  O248  1  0.50631886  0.25521001  0.86830580  1
  O  O249  1  0.50536207  0.75556072  0.37142145  1
  O  O250  1  0.50841304  0.75187800  0.86583417  1
  O  O251  1  0.24348338  0.13374414  0.49243279  1
  O  O252  1  0.24383654  0.12324499  0.99461846  1
  O  O253  1  0.25684713  0.62360358  0.49025424  1
  O  O254  1  0.24987094  0.62907750  0.99312673  1
  O  O255  1  0.75037339  0.12791656  0.48841520  1
  O  O256  1  0.74159074  0.13710889  1.00671554  1
  O  O257  1  0.75540908  0.63174326  0.48940146  1
  O  O258  1  0.73096936  0.58486599  1.00178977  1
  O  O259  1  0.24966265  0.37720515  0.01013509  1
  O  O260  1  0.25145412  0.35925851  0.49242116  1
  O  O261  1  0.25907038  0.87016164  0.00756741  1
  O  O262  1  0.25673817  0.87414497  0.49695985  1
  O  O263  1  0.75862659  0.37348977  0.00693382  1
  O  O264  1  0.77243691  0.37211430  0.48434673  1
  O  O265  1  0.76356632  0.87469396  0.01356218  1
  O  O266  1  0.75551708  0.86288233  0.48684052  1
  O  O267  1  0.12692716  0.49882669  0.24301789  1
  O  O268  1  0.12966707  0.49624901  0.73674351  1
  O  O269  1  0.13149051  0.99333680  0.24496010  1
  O  O270  1  0.14499581  1.00075531  0.76615825  1
  O  O271  1  0.63002551  0.49315495  0.24211952  1
  O  O272  1  0.62115930  0.49012441  0.73613469  1
  O  O273  1  0.64182259  0.99812745  0.24829078  1
  O  O274  1  0.63410633  1.00158801  0.74539537  1
  O  O275  1  0.36946062  0.00748489  0.25328249  1
  O  O276  1  0.37208533  0.00607832  0.75661446  1
  O  O277  1  0.36625298  0.51524231  0.25309283  1
  O  O278  1  0.36691081  0.50797493  0.74287807  1
  O  O279  1  0.86106448  -0.00230151  0.25785577  1
  O  O280  1  0.87166330  0.00256691  0.76312350  1
  O  O281  1  0.86190788  0.50194046  0.24959920  1
  O  O282  1  0.89233543  0.51862595  0.74354467  1
  O  O283  1  0.11712319  0.36732233  0.37375027  1
  O  O284  1  0.12495014  0.36744153  0.86503779  1
  O  O285  1  0.11537041  0.86920190  0.36874660  1
  O  O286  1  0.12731571  0.86169515  0.88411839  1
  O  O287  1  0.61669615  0.37180253  0.35968732  1
  O  O288  1  0.61233879  0.36042961  0.88195920  1
  O  O289  1  0.61128526  0.86723800  0.37700438  1
  O  O290  1  0.62531842  0.86281644  0.87164042  1
  O  O291  1  0.38758742  0.12363172  0.12968984  1
  O  O292  1  0.37691954  0.13062888  0.63700644  1
  O  O293  1  0.38319874  0.62513400  0.13503864  1
  O  O294  1  0.38037497  0.63374350  0.63502600  1
  O  O295  1  0.88564830  0.13660608  0.11821859  1
  O  O296  1  0.87991823  0.12932190  0.62995962  1
  O  O297  1  0.87832407  0.61980090  0.14246224  1
  O  O298  1  0.87364624  0.63809645  0.63115123  1
  O  O299  1  0.24769544  0.26149776  0.12568516  1
  O  O300  1  0.26014779  0.24495996  0.61780823  1
  O  O301  1  0.24560785  0.76216911  0.12081897  1
  O  O302  1  0.25767479  0.74378379  0.61889805  1
  O  O303  1  0.75688479  0.25559523  0.11638104  1
  O  O304  1  0.77156153  0.24485287  0.62560333  1
  O  O305  1  0.74878022  0.75716025  0.13414936  1
  O  O306  1  0.75193948  0.74546770  0.61113262  1
  O  O307  1  0.24268175  0.24321273  0.37940389  1
  O  O308  1  0.24005776  0.24370656  0.87485706  1
  O  O309  1  0.23921727  0.74396061  0.37134621  1
  O  O310  1  0.24672087  0.74021028  0.87764971  1
  O  O311  1  0.75397899  0.23583116  0.36868823  1
  O  O312  1  0.74341952  0.25392334  0.88718846  1
  O  O313  1  0.73979461  0.74268290  0.37908646  1
  O  O314  1  0.73921616  0.74444069  0.87547837  1
  O  O315  1  0.00636894  0.11717730  0.00946532  1
  O  O316  1  0.01629931  0.12485210  0.49496556  1
  O  O317  1  0.00474180  0.61748672  0.00142420  1
  O  O318  1  -0.00724627  0.61215423  0.49073823  1
  O  O319  1  0.50487649  0.12021974  0.00708843  1
  O  O320  1  0.50037841  0.11417924  0.49679413  1
  O  O321  1  0.49359041  0.61772446  0.01093776  1
  O  O322  1  0.49916197  0.62826502  0.51451492  1
  O  O323  1  0.48766231  0.35182139  0.47865410  1
  O  O324  1  0.49276938  0.38041573  0.99298784  1
  O  O325  1  0.49410998  0.88667481  0.49491781  1
  O  O326  1  0.49409737  0.88149007  1.00140904  1
  O  O327  1  0.99228725  0.38194311  0.49511258  1
  O  O328  1  0.99382523  0.38198319  0.99633647  1
  O  O329  1  0.97960941  0.86499760  0.47781157  1
  O  O330  1  0.98802515  0.88154582  1.00483945  1
  O  O331  1  0.49902324  0.48985977  0.37294632  1
  O  O332  1  0.50851529  0.49195690  0.88523501  1
  O  O333  1  0.49982392  0.99330942  0.38000718  1
  O  O334  1  0.49139390  0.99887441  0.87798549  1
  O  O335  1  1.01101464  0.49145604  0.39004349  1
  O  O336  1  1.00979851  0.50009814  0.88540331  1
  O  O337  1  0.98908124  0.99052189  0.36505974  1
  O  O338  1  0.99486491  0.99610807  0.89029443  1
  O  O339  1  0.00166209  0.00535796  0.11861910  1
  O  O340  1  0.01008905  -0.04448488  0.62625257  1
  O  O341  1  0.01174987  0.49968921  0.11793180  1
  O  O342  1  0.01653943  0.49942512  0.61230693  1
  O  O343  1  0.50518080  0.00724848  0.12108042  1
  O  O344  1  0.50583832  0.00517470  0.61649261  1
  O  O345  1  0.50304955  0.51018522  0.12370907  1
  O  O346  1  0.49571639  0.51918573  0.62656510  1
  O  O347  1  0.24093877  0.38367220  0.24596222  1
  O  O348  1  0.24400999  0.38853292  0.75605145  1
  O  O349  1  0.24845053  0.87819917  0.24417202  1
  O  O350  1  0.26026550  0.88976677  0.75442028  1
  O  O351  1  0.74313285  0.38107563  0.24935538  1
  O  O352  1  0.76563905  0.38842124  0.75020050  1
  O  O353  1  0.75572687  0.88308023  0.23397667  1
  O  O354  1  0.75597059  0.89262104  0.75615959  1
  O  O355  1  0.25390221  0.12147393  0.25634751  1
  O  O356  1  0.26028515  0.11772462  0.75848894  1
  O  O357  1  0.25609670  0.62425483  0.25466768  1
  O  O358  1  0.25903611  0.61596235  0.75628512  1
  O  O359  1  0.74907194  0.11413990  0.25327114  1
  O  O360  1  0.76674241  0.11089499  0.74958826  1
  O  O361  1  0.75365854  0.61766507  0.25778521  1
  O  O362  1  0.76952069  0.62923016  0.74613121  1
  O  O363  1  0.36273452  0.12702904  0.37043140  1
  O  O364  1  0.37249407  0.11854374  0.86758420  1
  O  O365  1  0.36612518  0.62699337  0.36866081  1
  O  O366  1  0.36941600  0.63094944  0.86052684  1
  O  O367  1  0.87106193  0.11266560  0.37871750  1
  O  O368  1  0.87959156  0.11449822  0.87081603  1
  O  O369  1  0.86213450  0.62679718  0.36316347  1
  O  O370  1  0.87114361  0.62850522  0.86029443  1
  O  O371  1  0.13153538  0.38247621  0.13083568  1
  O  O372  1  0.12567199  0.37641112  0.63283205  1
  O  O373  1  0.13279473  0.88079132  0.12992053  1
  O  O374  1  0.14470617  0.85933867  0.61935944  1
  O  O375  1  0.62984677  0.37901342  0.13572982  1
  O  O376  1  0.64032754  0.35444173  0.64926500  1
  O  O377  1  0.64419641  0.87523712  0.11724667  1
  O  O378  1  0.61921640  0.89088527  0.63054171  1
  O  O379  1  0.12267817  0.25670623  0.26356938  1
  O  O380  1  0.12736436  0.25663122  0.75466027  1
  O  O381  1  0.11865767  0.75667268  0.25892935  1
  O  O382  1  0.11967279  0.74749537  0.75836026  1
  O  O383  1  0.61776277  0.25731678  0.24797681  1
  O  O384  1  0.61815265  0.23419464  0.76278372  1
  O  O385  1  0.61022127  0.74847828  0.26163327  1
  O  O386  1  0.61917288  0.75457770  0.75276712  1
  O  O387  1  0.38201862  0.24267591  0.24400609  1
  O  O388  1  0.37951542  0.24326657  0.74485040  1
  O  O389  1  0.38485196  0.74084735  0.25549633  1
  O  O390  1  0.38161030  0.74399485  0.73960317  1
  O  O391  1  0.87699864  0.25721794  0.23514198  1
  O  O392  1  0.88006353  0.23732036  0.74153708  1
  O  O393  1  0.88299214  0.74226533  0.25549618  1
  O  O394  1  0.88105768  0.74531429  0.74248336  1
  O  O395  1  0.38442996  0.49538702  0.49689727  1
  O  O396  1  0.38640877  0.49603799  1.00554459  1
  O  O397  1  0.38113175  0.99497583  0.49971831  1
  O  O398  1  0.38187157  0.99226535  0.99272247  1
  O  O399  1  0.88697631  0.49017388  0.50999491  1
  O  O400  1  0.88699671  0.48816436  1.00764030  1
  O  O401  1  0.86487237  0.98757214  0.48875236  1
  O  O402  1  0.88089410  0.99799378  0.99788433  1
  O  O403  1  0.11736186  0.00250869  0.00604730  1
  O  O404  1  0.13064233  0.01365127  0.49837715  1
  O  O405  1  0.11980346  0.50551652  0.00661073  1
  O  O406  1  0.11964425  0.49969012  0.51178083  1
  O  O407  1  0.62111658  0.00704528  0.00055217  1
  O  O408  1  0.61842542  0.00097320  0.50582661  1
  O  O409  1  0.60473197  0.48306395  0.02175326  1
  O  O410  1  0.60315747  0.45450074  0.51102163  1
  O  O411  1  0.35860240  0.37803885  0.13061263  1
  O  O412  1  0.38046164  0.36391672  0.62561449  1
  O  O413  1  0.36694278  0.88055200  0.11539966  1
  O  O414  1  0.37939037  0.86852354  0.61295727  1
  O  O415  1  0.87140426  0.36880422  0.11714917  1
  O  O416  1  0.87907075  0.36661613  0.61228455  1
  O  O417  1  0.86508625  0.87456049  0.11403771  1
  O  O418  1  0.86525336  0.86085403  0.61090922  1
  O  O419  1  0.13492057  0.13183361  0.37724705  1
  O  O420  1  0.13140993  0.13192539  0.88226148  1
  O  O421  1  0.13149519  0.63928354  0.37325190  1
  O  O422  1  0.13507335  0.63340128  0.87941683  1
  O  O423  1  0.63663671  0.12741537  0.37747669  1
  O  O424  1  0.61846158  0.13481971  0.89058229  1
  O  O425  1  0.63165992  0.63529133  0.37190431  1
  O  O426  1  0.62402465  0.64222265  0.86828568  1
