# generated using pymatgen
data_V85Zn86O256
_symmetry_space_group_name_H-M   'P 1'
_cell_length_a   16.96363775
_cell_length_b   16.97229818
_cell_length_c   16.95940982
_cell_angle_alpha   90.01813261
_cell_angle_beta   90.01761652
_cell_angle_gamma   89.94883128
_symmetry_Int_Tables_number   1
_chemical_formula_structural   V85Zn86O256
_chemical_formula_sum   'V85 Zn86 O256'
_cell_volume   4882.81378802
_cell_formula_units_Z   1
loop_
 _symmetry_equiv_pos_site_id
 _symmetry_equiv_pos_as_xyz
  1  'x, y, z'
loop_
 _atom_site_type_symbol
 _atom_site_label
 _atom_site_symmetry_multiplicity
 _atom_site_fract_x
 _atom_site_fract_y
 _atom_site_fract_z
 _atom_site_occupancy
  V  V0  1  0.70123131  0.82548235  0.07024237  1
  V  V1  1  0.25166823  0.50152865  0.25323350  1
  V  V2  1  0.74882773  0.13697370  0.87777398  1
  V  V3  1  0.24830515  0.12360454  0.87550733  1
  V  V4  1  0.74464849  -0.01354577  0.24460379  1
  V  V5  1  0.49569391  0.63677699  0.12440727  1
  V  V6  1  -0.00318491  0.75790431  0.75356615  1
  V  V7  1  0.62041245  0.00316386  0.12607861  1
  V  V8  1  0.00266214  0.50098943  0.50138809  1
  V  V9  1  0.38218922  0.86770035  0.00300844  1
  V  V10  1  0.87445216  0.87091271  0.49439573  1
  V  V11  1  0.37632329  0.75008110  0.62903713  1
  V  V12  1  0.12007481  0.75751506  0.37683807  1
  V  V13  1  0.87519502  0.24908889  0.62164396  1
  V  V14  1  0.37956869  0.63778574  0.24993247  1
  V  V15  1  0.73670764  0.62153239  0.38414124  1
  V  V16  1  0.37754010  0.50452748  0.37798775  1
  V  V17  1  0.75538923  0.49370457  0.76332795  1
  V  V18  1  -0.00678425  0.37973043  0.87412899  1
  V  V19  1  0.51635482  0.37425961  0.87369270  1
  V  V20  1  0.50955120  0.50858228  0.50327810  1
  V  V21  1  0.37357990  0.86775256  0.49825740  1
  V  V22  1  0.61326413  0.87575805  0.76013993  1
  V  V23  1  0.49945747  0.12704346  0.62310097  1
  V  V24  1  0.12741373  0.62410651  -0.00050271  1
  V  V25  1  0.25080189  0.38096079  0.63094183  1
  V  V26  1  0.12787457  0.50403913  0.63107400  1
  V  V27  1  -0.00273668  -0.00463420  0.48824119  1
  V  V28  1  0.61595084  0.13306335  0.00010851  1
  V  V29  1  0.13016205  0.37690391  0.25242575  1
  V  V30  1  0.37501587  0.25061186  0.62776011  1
  V  V31  1  0.05645453  0.06597231  0.18071624  1
  V  V32  1  0.12523839  0.76041122  0.87776857  1
  V  V33  1  0.25376710  0.37546876  0.12740162  1
  V  V34  1  0.13072289  0.25128028  0.37524726  1
  V  V35  1  0.62390623  -0.00151645  0.62253023  1
  V  V36  1  0.12735807  0.63241077  0.50276215  1
  V  V37  1  0.74656518  0.25101208  0.49078450  1
  V  V38  1  0.87590754  0.12390425  0.75260103  1
  V  V39  1  0.61112427  0.49727675  0.13489857  1
  V  V40  1  0.24987733  -0.00054973  0.75049772  1
  V  V41  1  0.37521712  0.12594133  0.75105740  1
  V  V42  1  0.87696665  0.37321477  0.49835787  1
  V  V43  1  0.61787785  0.76623175  0.37665199  1
  V  V44  1  0.12293070  0.00013566  0.62722267  1
  V  V45  1  0.00023424  0.24999749  0.74904643  1
  V  V46  1  0.87633506  -0.01644999  0.87960468  1
  V  V47  1  0.87118755  0.75781254  0.11202628  1
  V  V48  1  -0.00032790  0.12255007  0.62287965  1
  V  V49  1  0.37229842  0.11698858  0.26208520  1
  V  V50  1  0.24293012  0.89284377  0.12804416  1
  V  V51  1  0.51565109  0.25239558  0.75267218  1
  V  V52  1  0.87412921  0.25114462  0.12094079  1
  V  V53  1  0.38550872  0.23878589  0.12397558  1
  V  V54  1  0.63201920  0.51697078  0.63072937  1
  V  V55  1  0.37696281  0.38072045  0.50349624  1
  V  V56  1  0.00316476  0.24979891  0.24559587  1
  V  V57  1  0.37544289  0.37700786  -0.00251244  1
  V  V58  1  0.37083670  0.61395378  0.75010020  1
  V  V59  1  0.49711032  -0.00315556  0.49019208  1
  V  V60  1  -0.00266543  0.62571709  0.12921625  1
  V  V61  1  0.75024237  0.00291017  0.74878854  1
  V  V62  1  0.25027688  0.74950192  0.01239465  1
  V  V63  1  -0.00041446  -0.01234040  -0.00319947  1
  V  V64  1  0.12304871  0.25041923  0.87499536  1
  V  V65  1  0.87359368  0.50262940  0.37118032  1
  V  V66  1  0.86446250  0.62654883  0.25355455  1
  V  V67  1  -0.00389305  0.75783476  0.25597522  1
  V  V68  1  0.24882844  0.87006166  0.62441494  1
  V  V69  1  0.87173186  0.12217767  0.24091032  1
  V  V70  1  0.12662949  0.37874876  0.75133960  1
  V  V71  1  0.74867768  0.12341743  0.36776660  1
  V  V72  1  0.75098063  0.87238683  0.62702657  1
  V  V73  1  0.24737273  0.24959529  0.00008274  1
  V  V74  1  0.11432730  0.12121534  0.00026043  1
  V  V75  1  0.73808426  0.37306709  0.62430582  1
  V  V76  1  0.12564459  0.50072804  0.12683282  1
  V  V77  1  0.00272268  0.37520350  0.37493785  1
  V  V78  1  0.74821255  0.38467538  0.12970740  1
  V  V79  1  0.24900464  0.63417491  0.37884168  1
  V  V80  1  0.25119888  0.24775611  0.49736719  1
  V  V81  1  0.62402318  0.12676778  0.49014909  1
  V  V82  1  -0.00508298  0.50005873  -0.00305148  1
  V  V83  1  0.38231009  -0.00551003  0.87690379  1
  V  V84  1  0.12891064  0.12157148  0.49300319  1
  Zn  Zn85  1  0.63249624  0.36191122  0.26417023  1
  Zn  Zn86  1  0.74216148  0.74054042  0.51040291  1
  Zn  Zn87  1  0.49990702  0.00013236  0.00183970  1
  Zn  Zn88  1  0.12414271  0.88413800  0.24977948  1
  Zn  Zn89  1  0.74312677  0.25745577  -0.00071688  1
  Zn  Zn90  1  0.50714962  0.63380081  0.62653635  1
  Zn  Zn91  1  0.50198586  0.50597811  -0.00693729  1
  Zn  Zn92  1  0.36661044  0.49070035  0.86649649  1
  Zn  Zn93  1  0.87430088  0.74438565  0.62675576  1
  Zn  Zn94  1  0.50740877  0.24761955  0.25631782  1
  Zn  Zn95  1  0.56873011  0.80743669  0.20092704  1
  Zn  Zn96  1  0.73528771  0.65032818  0.88770904  1
  Zn  Zn97  1  -0.00224088  0.62559349  0.63193834  1
  Zn  Zn98  1  0.35621580  -0.00484004  0.37328817  1
  Zn  Zn99  1  0.49262247  0.87367720  0.35940427  1
  Zn  Zn100  1  0.51327980  0.36972805  0.37651621  1
  Zn  Zn101  1  0.49625710  0.74672292  0.76375939  1
  Zn  Zn102  1  0.86881738  0.37885624  -0.00273991  1
  Zn  Zn103  1  0.12520334  0.87720915  0.75511551  1
  Zn  Zn104  1  0.24949224  0.61936608  0.87209625  1
  Zn  Zn105  1  0.87741576  -0.00684595  0.36786933  1
  Zn  Zn106  1  0.87728240  0.61395010  0.76046739  1
  Zn  Zn107  1  0.19587219  0.19393271  0.18681825  1
  Zn  Zn108  1  0.18727772  0.18832960  0.68489562  1
  Zn  Zn109  1  0.18654413  0.68910145  0.19171722  1
  Zn  Zn110  1  0.18939037  0.69047860  0.69052784  1
  Zn  Zn111  1  0.68406553  0.18992246  0.18275204  1
  Zn  Zn112  1  0.69032402  0.18446969  0.68026139  1
  Zn  Zn113  1  0.67015886  0.66056419  0.05191789  1
  Zn  Zn114  1  0.70170732  0.70381759  0.72501752  1
  Zn  Zn115  1  0.34333511  0.30125666  0.32550592  1
  Zn  Zn116  1  0.31324003  0.31045297  0.81179519  1
  Zn  Zn117  1  0.30837830  0.81774401  0.31032323  1
  Zn  Zn118  1  0.31156546  0.80750877  0.81721224  1
  Zn  Zn119  1  0.81378986  0.31024241  0.31001693  1
  Zn  Zn120  1  0.81050336  0.31637020  0.80957429  1
  Zn  Zn121  1  0.80464004  0.80288764  0.31533553  1
  Zn  Zn122  1  0.82643962  0.78200514  0.84078107  1
  Zn  Zn123  1  0.19144580  0.44130917  0.44139713  1
  Zn  Zn124  1  0.18820208  0.43969752  0.93640459  1
  Zn  Zn125  1  0.18348836  0.92958577  0.44527675  1
  Zn  Zn126  1  0.19119656  0.93919786  0.94284039  1
  Zn  Zn127  1  0.68780930  0.44252435  0.43801458  1
  Zn  Zn128  1  0.68167445  0.50686221  0.94357897  1
  Zn  Zn129  1  0.69100190  0.93855943  0.43781227  1
  Zn  Zn130  1  0.68939832  0.95304819  0.93430639  1
  Zn  Zn131  1  0.31105065  0.06216335  0.05870938  1
  Zn  Zn132  1  0.31172496  0.05906525  0.55958973  1
  Zn  Zn133  1  0.31666488  0.56257379  0.06401561  1
  Zn  Zn134  1  0.31105267  0.56702582  0.56526744  1
  Zn  Zn135  1  0.80764087  0.05924690  0.06102263  1
  Zn  Zn136  1  0.81290849  0.06099960  0.55948455  1
  Zn  Zn137  1  0.81553502  0.55859913  0.07068530  1
  Zn  Zn138  1  0.81741985  0.56338173  0.56662982  1
  Zn  Zn139  1  0.43739738  0.43232539  0.19426867  1
  Zn  Zn140  1  0.44820072  0.43760126  0.68869554  1
  Zn  Zn141  1  0.43371071  0.93929801  0.18224448  1
  Zn  Zn142  1  0.43540809  0.94189973  0.68193237  1
  Zn  Zn143  1  0.93765644  0.43617515  0.18855433  1
  Zn  Zn144  1  0.93530959  0.43667513  0.68485510  1
  Zn  Zn145  1  0.92996634  0.93113737  0.18762557  1
  Zn  Zn146  1  0.93721578  0.93327450  0.68850994  1
  Zn  Zn147  1  0.19294312  0.06461642  0.31401466  1
  Zn  Zn148  1  0.05918296  0.05951859  0.81546216  1
  Zn  Zn149  1  0.05992765  0.56818013  0.31341050  1
  Zn  Zn150  1  0.06262633  0.56719986  0.81418101  1
  Zn  Zn151  1  0.55771722  0.06583731  0.30524550  1
  Zn  Zn152  1  0.56360881  0.06621541  0.81375202  1
  Zn  Zn153  1  0.56098406  0.55767349  0.30698232  1
  Zn  Zn154  1  0.55994852  0.56274429  0.80978879  1
  Zn  Zn155  1  0.43589027  0.18544341  0.43648916  1
  Zn  Zn156  1  0.43807401  0.19245225  0.93406750  1
  Zn  Zn157  1  0.44124336  0.68942820  0.44049280  1
  Zn  Zn158  1  0.43472083  0.68314553  0.93749092  1
  Zn  Zn159  1  0.93858383  0.18291789  0.43073347  1
  Zn  Zn160  1  0.93637620  0.18667216  0.93751985  1
  Zn  Zn161  1  0.93786811  0.68832051  0.44214507  1
  Zn  Zn162  1  0.94176333  0.68375535  0.93430003  1
  Zn  Zn163  1  0.06177077  0.31370384  0.06293452  1
  Zn  Zn164  1  0.06478219  0.31252797  0.56336249  1
  Zn  Zn165  1  0.06300122  0.81047090  0.06916237  1
  Zn  Zn166  1  0.05941164  0.81305507  0.56638292  1
  Zn  Zn167  1  0.56564138  0.31959395  0.06158070  1
  Zn  Zn168  1  0.56116094  0.31186093  0.55579875  1
  Zn  Zn169  1  0.56620029  0.81077362  -0.06604028  1
  Zn  Zn170  1  0.56226008  0.81026469  0.55784585  1
  O  O171  1  0.11948317  0.12530526  0.12275485  1
  O  O172  1  0.11909696  0.12099943  0.61558130  1
  O  O173  1  0.11881504  0.62217551  0.11731662  1
  O  O174  1  0.12667716  0.61931712  0.61991574  1
  O  O175  1  0.63126992  0.11717121  0.10754407  1
  O  O176  1  0.62110734  0.11517485  0.61287326  1
  O  O177  1  0.60819033  0.60849292  0.13081530  1
  O  O178  1  0.62995729  0.61703770  0.63386455  1
  O  O179  1  0.36000257  0.39581154  0.39291427  1
  O  O180  1  0.37306314  0.37068614  0.88630096  1
  O  O181  1  0.37300274  0.87648222  0.38466202  1
  O  O182  1  0.36171924  0.88430704  0.89074260  1
  O  O183  1  0.88119048  0.38173415  0.37842165  1
  O  O184  1  0.89057317  0.36614343  0.87768219  1
  O  O185  1  0.86506321  0.87419459  0.39038960  1
  O  O186  1  0.86774463  0.88561616  0.87463618  1
  O  O187  1  0.24417385  0.00050487  0.38672814  1
  O  O188  1  0.25609513  0.00667616  0.86936863  1
  O  O189  1  0.25462144  0.51434341  0.37420293  1
  O  O190  1  0.25371851  0.50502182  0.87762259  1
  O  O191  1  0.75210923  0.01188585  0.36835866  1
  O  O192  1  0.76328786  0.01174211  0.86823110  1
  O  O193  1  0.76326765  0.51025150  0.38128497  1
  O  O194  1  0.75334013  0.47200592  0.86031838  1
  O  O195  1  0.24535513  0.49480560  0.13142547  1
  O  O196  1  0.24068146  0.49141863  0.62039425  1
  O  O197  1  0.24276499  0.99136368  0.11845933  1
  O  O198  1  0.24365259  0.99521804  0.63246518  1
  O  O199  1  0.74020144  0.48926433  0.12962278  1
  O  O200  1  0.74152529  0.49089986  0.62205798  1
  O  O201  1  0.73993329  1.00093937  0.13377094  1
  O  O202  1  0.74120892  0.99941473  0.62828986  1
  O  O203  1  0.01033053  0.37196450  0.25777077  1
  O  O204  1  0.00608285  0.37102402  0.75533924  1
  O  O205  1  0.00239277  0.86183824  0.24569399  1
  O  O206  1  0.00900648  0.86399790  0.74716362  1
  O  O207  1  0.50140335  0.36753112  0.25773745  1
  O  O208  1  0.49702581  0.36465035  0.76187612  1
  O  O209  1  0.49193788  0.87233673  0.24749194  1
  O  O210  1  0.51285304  0.89012333  0.74734031  1
  O  O211  1  0.47875766  0.13156299  0.25271851  1
  O  O212  1  0.49438192  0.13168730  0.74447342  1
  O  O213  1  0.48884097  0.62018305  0.24180635  1
  O  O214  1  0.48762330  0.62606892  0.74395493  1
  O  O215  1  0.99520039  0.12625905  0.23928129  1
  O  O216  1  0.99564011  0.13001116  0.74395239  1
  O  O217  1  0.99218394  0.63435024  0.24547288  1
  O  O218  1  0.99707709  0.63804076  0.75307448  1
  O  O219  1  0.36864984  0.25475807  0.00821030  1
  O  O220  1  0.36806582  0.25887002  0.50940677  1
  O  O221  1  0.36450225  0.76175044  -0.00324677  1
  O  O222  1  0.37696170  0.76156335  0.50751686  1
  O  O223  1  0.87976755  0.25218860  0.01324343  1
  O  O224  1  0.86925113  0.25100430  0.50197151  1
  O  O225  1  0.88283888  0.74671313  0.01442810  1
  O  O226  1  0.87256638  0.75790566  0.50706611  1
  O  O227  1  0.13251110  0.24323904  0.49712633  1
  O  O228  1  0.12721420  0.24328430  0.99549950  1
  O  O229  1  0.11723505  0.74179846  0.49309664  1
  O  O230  1  0.12824928  0.74254224  0.99710695  1
  O  O231  1  0.63455192  0.23817382  0.50370325  1
  O  O232  1  0.62524349  0.23678630  1.00502399  1
  O  O233  1  0.62847231  0.75006697  0.48750299  1
  O  O234  1  0.63906797  0.76509772  1.01137946  1
  O  O235  1  0.48529579  0.25403071  0.12241556  1
  O  O236  1  0.49394526  0.24600616  0.62900160  1
  O  O237  1  0.50972899  0.73394542  0.12671542  1
  O  O238  1  0.48585871  0.75253643  0.62525010  1
  O  O239  1  0.99106115  0.25974157  0.13520525  1
  O  O240  1  0.99628635  0.24262009  0.62803238  1
  O  O241  1  0.98881509  0.74377101  0.13271768  1
  O  O242  1  1.00407083  0.74633513  0.64098987  1
  O  O243  1  0.00830997  0.25514622  0.36742887  1
  O  O244  1  0.00634727  0.25574899  0.86920775  1
  O  O245  1  0.00736128  0.74371115  0.36719025  1
  O  O246  1  0.01152492  0.75002689  0.86500720  1
  O  O247  1  0.45418572  0.26825602  0.36602493  1
  O  O248  1  0.49813357  0.26042191  0.86368295  1
  O  O249  1  0.51317308  0.75381148  0.38139406  1
  O  O250  1  0.49686753  0.75038654  0.87593184  1
  O  O251  1  0.24033378  0.13597117  0.51005938  1
  O  O252  1  0.23638107  0.12921771  0.99540935  1
  O  O253  1  0.23690086  0.62253207  0.49338388  1
  O  O254  1  0.24281942  0.63126396  1.00472278  1
  O  O255  1  0.74364464  0.12981702  0.49137656  1
  O  O256  1  0.74324191  0.12874101  0.99060166  1
  O  O257  1  0.75672569  0.62375769  0.48754640  1
  O  O258  1  0.74457937  0.60034726  0.99462864  1
  O  O259  1  0.25460708  0.36861388  0.00710843  1
  O  O260  1  0.25506042  0.37056241  0.51301067  1
  O  O261  1  0.25231712  0.86791365  0.01124003  1
  O  O262  1  0.25862313  0.87804019  0.51668429  1
  O  O263  1  0.75424732  0.37243656  0.02039503  1
  O  O264  1  0.75805470  0.36546046  0.50347501  1
  O  O265  1  0.74923199  0.88359937  0.00579347  1
  O  O266  1  0.75593223  0.87667032  0.51277162  1
  O  O267  1  0.13059606  0.49786215  0.24707692  1
  O  O268  1  0.11938214  0.49715231  0.73753250  1
  O  O269  1  0.11208650  1.00910864  0.24484754  1
  O  O270  1  0.13184546  1.00037985  0.74663563  1
  O  O271  1  0.62184672  0.48802543  0.23879770  1
  O  O272  1  0.63599372  0.49347762  0.73385406  1
  O  O273  1  0.63398412  1.01049684  0.24032379  1
  O  O274  1  0.62789001  0.99938368  0.74030841  1
  O  O275  1  0.37337411  0.01424224  0.24974082  1
  O  O276  1  0.36802339  0.00553769  0.75560620  1
  O  O277  1  0.36913031  0.50547151  0.26360704  1
  O  O278  1  0.37593196  0.51123332  0.74164815  1
  O  O279  1  0.86685713  0.00640406  0.24801063  1
  O  O280  1  0.87242524  0.00369634  0.76002806  1
  O  O281  1  0.88621804  0.50828239  0.26449720  1
  O  O282  1  0.86158775  0.49514750  0.74813613  1
  O  O283  1  0.12376467  0.37093517  0.37319934  1
  O  O284  1  0.11759184  0.36921898  0.86919889  1
  O  O285  1  0.12765710  0.86072300  0.37145160  1
  O  O286  1  0.13274847  0.86345393  0.87743951  1
  O  O287  1  0.62680414  0.37232345  0.38044787  1
  O  O288  1  0.61160876  0.37879557  0.88094544  1
  O  O289  1  0.62104725  0.86985485  0.37863059  1
  O  O290  1  0.62288507  0.88744826  0.86402289  1
  O  O291  1  0.37165430  0.13646458  0.12145764  1
  O  O292  1  0.38111185  0.12896058  0.62926198  1
  O  O293  1  0.38457383  0.62131417  0.13795560  1
  O  O294  1  0.37412720  0.63465653  0.63308162  1
  O  O295  1  0.86809879  0.13300022  0.13402805  1
  O  O296  1  0.87952917  0.12891877  0.63056736  1
  O  O297  1  0.87736771  0.63171979  0.13649431  1
  O  O298  1  0.87936645  0.62693123  0.63557111  1
  O  O299  1  0.25582506  0.25854990  0.11512369  1
  O  O300  1  0.25441854  0.25844874  0.61715355  1
  O  O301  1  0.24506971  0.75206800  0.11490495  1
  O  O302  1  0.26057730  0.76029221  0.63000943  1
  O  O303  1  0.76099252  0.25620743  0.12248032  1
  O  O304  1  0.75560585  0.25387837  0.61249992  1
  O  O305  1  0.75634812  0.74757694  0.11618322  1
  O  O306  1  0.75047797  0.76027374  0.63017373  1
  O  O307  1  0.25054742  0.25802413  0.39150571  1
  O  O308  1  0.24237873  0.24352817  0.88029410  1
  O  O309  1  0.24040460  0.73910784  0.37051777  1
  O  O310  1  0.24085657  0.74302358  0.88779548  1
  O  O311  1  0.75880498  0.23770018  0.38457599  1
  O  O312  1  0.75529496  0.24081985  0.87664332  1
  O  O313  1  0.74001760  0.73495946  0.38285629  1
  O  O314  1  0.72160374  0.74870690  0.83204099  1
  O  O315  1  0.01020928  0.11918724  -0.00281358  1
  O  O316  1  0.00695033  0.11883671  0.50414491  1
  O  O317  1  0.00721978  0.61834123  0.00608040  1
  O  O318  1  0.01164781  0.61737376  0.50331632  1
  O  O319  1  0.51316803  0.12450342  -0.00853738  1
  O  O320  1  0.50624523  0.12121767  0.50126275  1
  O  O321  1  0.48589363  0.61944026  0.01900258  1
  O  O322  1  0.49403968  0.61173259  0.50841846  1
  O  O323  1  0.48937369  0.38541259  0.50077169  1
  O  O324  1  0.49042321  0.36774893  0.98675890  1
  O  O325  1  0.49000562  0.88415573  0.49921255  1
  O  O326  1  0.48395834  0.87585286  1.00075432  1
  O  O327  1  0.99761258  0.37953117  0.49418423  1
  O  O328  1  1.00316239  0.38399704  0.99084013  1
  O  O329  1  0.98802842  0.88453092  0.50903076  1
  O  O330  1  1.00489133  0.88910048  1.00854622  1
  O  O331  1  0.49108883  0.50037133  0.38580170  1
  O  O332  1  0.48938856  0.48301280  0.87382247  1
  O  O333  1  0.49808674  1.00012354  0.38488265  1
  O  O334  1  0.48420036  1.00553254  0.87458679  1
  O  O335  1  0.99769681  0.49554267  0.38391708  1
  O  O336  1  1.00730181  0.49177589  0.88418999  1
  O  O337  1  0.99720792  1.00067786  0.38957239  1
  O  O338  1  0.98519806  0.99976362  0.88120564  1
  O  O339  1  -0.00218710  0.00479813  0.12231099  1
  O  O340  1  0.00485357  0.00738293  0.62257668  1
  O  O341  1  0.00765379  0.50517204  0.12128066  1
  O  O342  1  0.00867083  0.49898648  0.61676413  1
  O  O343  1  0.51610446  -0.00262376  0.12263994  1
  O  O344  1  0.50556023  0.00863438  0.61316512  1
  O  O345  1  0.50325328  0.50095871  0.12859800  1
  O  O346  1  0.51825238  0.50027577  0.62171856  1
  O  O347  1  0.24718112  0.38189634  0.24583782  1
  O  O348  1  0.24408850  0.36810826  0.73771799  1
  O  O349  1  0.24751809  0.87568133  0.23306055  1
  O  O350  1  0.24985623  0.88217243  0.74204494  1
  O  O351  1  0.75340303  0.36811222  0.23494974  1
  O  O352  1  0.75519068  0.38005506  0.73339193  1
  O  O353  1  0.75343380  0.88853792  0.25885358  1
  O  O354  1  0.73184312  0.88893648  0.73550266  1
  O  O355  1  0.26218834  0.12631014  0.24669409  1
  O  O356  1  0.25461595  0.12033811  0.75412011  1
  O  O357  1  0.25547444  0.61901599  0.25824094  1
  O  O358  1  0.26643426  0.62956328  0.74994534  1
  O  O359  1  0.75669961  0.12082933  0.25479536  1
  O  O360  1  0.75525748  0.12130856  0.75453802  1
  O  O361  1  0.76477907  0.62456931  0.26950260  1
  O  O362  1  0.75111089  0.59931584  0.75323593  1
  O  O363  1  0.36875248  0.11912746  0.36568791  1
  O  O364  1  0.36691573  0.11981335  0.87119970  1
  O  O365  1  0.36855740  0.61993262  0.37524074  1
  O  O366  1  0.37385757  0.61915085  0.85997998  1
  O  O367  1  0.86826275  0.12222143  0.35954662  1
  O  O368  1  0.86877851  0.12361216  0.86642312  1
  O  O369  1  0.87583851  0.61752418  0.37234664  1
  O  O370  1  0.85601040  0.66143945  0.86668878  1
  O  O371  1  0.13388426  0.38029100  0.13128584  1
  O  O372  1  0.13245420  0.38256678  0.62985425  1
  O  O373  1  0.13812988  0.87324055  0.12893122  1
  O  O374  1  0.13374193  0.88261299  0.62572714  1
  O  O375  1  0.63545721  0.37662135  0.13391077  1
  O  O376  1  0.63685422  0.37342502  0.61769293  1
  O  O377  1  0.63465903  0.87841398  0.12942919  1
  O  O378  1  0.62740030  0.88956373  0.62160200  1
  O  O379  1  0.12390816  0.25612432  0.25610479  1
  O  O380  1  0.11844851  0.25590852  0.75337878  1
  O  O381  1  0.11365812  0.74752603  0.25991688  1
  O  O382  1  0.12103426  0.75126059  0.76183754  1
  O  O383  1  0.62125710  0.24521157  0.25333667  1
  O  O384  1  0.61421284  0.24261994  0.74227807  1
  O  O385  1  0.63111758  0.74722545  0.27682264  1
  O  O386  1  0.60800207  0.77575122  0.73407596  1
  O  O387  1  0.36693375  0.23818596  0.23131469  1
  O  O388  1  0.37937801  0.24249109  0.74328893  1
  O  O389  1  0.36993464  0.73574635  0.25817959  1
  O  O390  1  0.37719500  0.74476812  0.74389424  1
  O  O391  1  0.88323177  0.24085624  0.24270699  1
  O  O392  1  0.88165862  0.24469350  0.74155151  1
  O  O393  1  0.87877717  0.74303749  0.24734305  1
  O  O394  1  0.89296823  0.76461704  0.74584787  1
  O  O395  1  0.38105355  0.49645110  0.50050612  1
  O  O396  1  0.37742698  0.48334613  1.00453904  1
  O  O397  1  0.38286517  0.99021233  0.50095280  1
  O  O398  1  0.37639164  0.99292092  0.99235674  1
  O  O399  1  0.88483421  0.49403234  0.49250403  1
  O  O400  1  0.89190806  0.49755636  1.00713589  1
  O  O401  1  0.88239528  0.99384598  0.49751919  1
  O  O402  1  0.88227511  1.00673950  0.98603826  1
  O  O403  1  0.11382005  0.00931594  -0.00794326  1
  O  O404  1  0.11591015  0.00634953  0.50753400  1
  O  O405  1  0.11796108  0.50713077  0.00784675  1
  O  O406  1  0.12050847  0.50650382  0.50999897  1
  O  O407  1  0.62157405  0.00979568  0.00675319  1
  O  O408  1  0.61822739  0.00697343  0.50399577  1
  O  O409  1  0.61177508  0.47991592  0.02701488  1
  O  O410  1  0.61943698  0.49834422  0.51566995  1
  O  O411  1  0.36810082  0.36569691  0.11961368  1
  O  O412  1  0.36964232  0.37472966  0.61936427  1
  O  O413  1  0.36047533  0.88273361  0.10891265  1
  O  O414  1  0.36817086  0.87022885  0.62090628  1
  O  O415  1  0.86779825  0.36942832  0.12662103  1
  O  O416  1  0.87043094  0.36673460  0.61465058  1
  O  O417  1  0.87080020  0.85669132  0.12662247  1
  O  O418  1  0.86329297  0.87768750  0.61807871  1
  O  O419  1  0.12688754  0.13440784  0.38780357  1
  O  O420  1  0.12755634  0.13072486  0.88174508  1
  O  O421  1  0.13115277  0.63181230  0.38350801  1
  O  O422  1  0.12518510  0.63166801  0.89000628  1
  O  O423  1  0.63185354  0.11968163  0.38387399  1
  O  O424  1  0.63615544  0.11764290  0.88788116  1
  O  O425  1  0.63700708  0.61364631  0.37595270  1
  O  O426  1  0.63095651  0.59506252  0.88729806  1
