# generated using pymatgen
data_V85Zn86O256
_symmetry_space_group_name_H-M   'P 1'
_cell_length_a   16.93449828
_cell_length_b   16.93809047
_cell_length_c   16.94154442
_cell_angle_alpha   89.95520517
_cell_angle_beta   89.95368586
_cell_angle_gamma   90.01348036
_symmetry_Int_Tables_number   1
_chemical_formula_structural   V85Zn86O256
_chemical_formula_sum   'V85 Zn86 O256'
_cell_volume   4859.47659379
_cell_formula_units_Z   1
loop_
 _symmetry_equiv_pos_site_id
 _symmetry_equiv_pos_as_xyz
  1  'x, y, z'
loop_
 _atom_site_type_symbol
 _atom_site_label
 _atom_site_symmetry_multiplicity
 _atom_site_fract_x
 _atom_site_fract_y
 _atom_site_fract_z
 _atom_site_occupancy
  V  V0  1  0.00369591  0.87618141  0.87534927  1
  V  V1  1  0.74563479  0.75258617  0.49786506  1
  V  V2  1  0.61492558  0.74632404  0.36333548  1
  V  V3  1  0.37203924  0.12831125  0.23963937  1
  V  V4  1  0.76324192  0.12725671  0.87577028  1
  V  V5  1  -0.00343989  0.24670849  0.75353270  1
  V  V6  1  0.24736715  0.49307686  0.25129062  1
  V  V7  1  0.74714525  0.12252939  0.37702893  1
  V  V8  1  0.69824527  0.83319687  0.67687110  1
  V  V9  1  0.12747499  0.25667998  0.37656445  1
  V  V10  1  0.74801159  0.62644014  0.87766151  1
  V  V11  1  0.75177424  0.75293728  -0.00034706  1
  V  V12  1  0.62487771  -0.00805551  0.12398272  1
  V  V13  1  0.62411088  0.12756768  0.00856595  1
  V  V14  1  0.75646538  0.25368132  -0.00056633  1
  V  V15  1  -0.00693291  0.12621393  0.62835649  1
  V  V16  1  0.87643001  0.75246693  0.62670754  1
  V  V17  1  0.87552808  0.49381913  0.88110846  1
  V  V18  1  0.62191302  0.24815844  0.87304219  1
  V  V19  1  0.13775184  0.62112576  0.48860410  1
  V  V20  1  0.87124642  0.87567978  0.50462954  1
  V  V21  1  0.87682565  0.75049809  0.12938423  1
  V  V22  1  0.87698662  0.25362868  0.12526944  1
  V  V23  1  0.76293034  0.01226896  0.74398868  1
  V  V24  1  0.23788383  0.88066542  0.13219069  1
  V  V25  1  0.61689893  0.62493407  0.49760052  1
  V  V26  1  0.38536367  0.75310302  0.12495779  1
  V  V27  1  0.25711697  0.62234227  0.87508900  1
  V  V28  1  0.62273252  0.24587793  0.37575279  1
  V  V29  1  0.87390472  0.12516783  0.25220567  1
  V  V30  1  0.37929581  0.00410786  0.87056805  1
  V  V31  1  0.74641210  0.25256815  0.50703563  1
  V  V32  1  0.25049078  0.00754469  0.75071073  1
  V  V33  1  0.62480019  0.37352468  0.24826865  1
  V  V34  1  0.00248443  0.62477086  0.62479825  1
  V  V35  1  0.49946841  0.49895573  0.49987541  1
  V  V36  1  0.00941809  0.75079817  0.26534765  1
  V  V37  1  0.36658144  0.01043473  0.37355522  1
  V  V38  1  0.24364005  0.86896002  0.62828343  1
  V  V39  1  0.25048777  0.75113616  0.00331806  1
  V  V40  1  0.49899044  0.00485500  0.00247999  1
  V  V41  1  0.37031250  0.37082413  -0.00468279  1
  V  V42  1  0.25507827  0.36975707  0.62652123  1
  V  V43  1  0.87060105  0.37982685  0.50130434  1
  V  V44  1  0.25018597  0.36556499  0.12205204  1
  V  V45  1  0.44456546  0.18026297  0.69105057  1
  V  V46  1  0.62681417  0.49201402  0.62303713  1
  V  V47  1  0.37481554  0.37288984  0.50174367  1
  V  V48  1  0.36897809  0.62596472  0.24831810  1
  V  V49  1  0.12935294  0.75310674  0.86974044  1
  V  V50  1  0.00363369  0.25647935  0.25350632  1
  V  V51  1  0.75190909  0.49364715  0.74622251  1
  V  V52  1  0.62296497  0.62578147  -0.00252106  1
  V  V53  1  0.60122063  -0.01038778  0.66165691  1
  V  V54  1  0.12521049  0.12890161  0.49983984  1
  V  V55  1  0.49941624  0.62424399  0.12952046  1
  V  V56  1  0.00795486  0.75464360  0.74471586  1
  V  V57  1  0.12690163  0.49432046  0.12791648  1
  V  V58  1  0.37075512  0.50053274  0.37374400  1
  V  V59  1  0.50637859  0.00603804  0.49523628  1
  V  V60  1  0.75488233  0.62159257  0.37595968  1
  V  V61  1  0.12423649  0.37396844  0.75336227  1
  V  V62  1  0.00273401  0.62590139  0.12586732  1
  V  V63  1  0.38188352  0.75200503  0.63537103  1
  V  V64  1  0.49486455  0.37678583  0.87112284  1
  V  V65  1  0.49630079  0.87298902  0.36364055  1
  V  V66  1  0.75629766  0.49814265  0.25447249  1
  V  V67  1  0.86756051  0.25175856  0.63059751  1
  V  V68  1  0.87785535  0.62336073  0.75061069  1
  V  V69  1  0.12367415  0.50008254  0.62637204  1
  V  V70  1  0.25472046  0.24598426  0.50140951  1
  V  V71  1  0.75183535  0.37731689  0.11943289  1
  V  V72  1  0.50024260  0.37283292  0.37258794  1
  V  V73  1  0.62413770  0.36984465  0.74763691  1
  V  V74  1  -0.00474432  0.38198218  0.37586700  1
  V  V75  1  0.37240636  0.87259298  0.49879198  1
  V  V76  1  0.49291286  0.50117106  -0.00487554  1
  V  V77  1  0.12335616  -0.00464375  0.63002910  1
  V  V78  1  0.13214497  0.24738456  0.88510696  1
  V  V79  1  -0.00207582  0.49295635  0.00242800  1
  V  V80  1  -0.00523082  0.00136076  0.49905714  1
  V  V81  1  0.87383197  -0.01016032  0.37400755  1
  V  V82  1  0.38016186  0.87625544  -0.00408128  1
  V  V83  1  0.26194660  0.49929503  0.75410268  1
  V  V84  1  0.00947076  0.11890047  0.12777446  1
  Zn  Zn85  1  0.00653871  -0.00585695  0.00923129  1
  Zn  Zn86  1  0.21232604  0.77339040  0.43958398  1
  Zn  Zn87  1  0.62272307  0.87190281  0.24476590  1
  Zn  Zn88  1  0.62475003  0.49936970  0.12468426  1
  Zn  Zn89  1  -0.00542305  0.50172321  0.49701747  1
  Zn  Zn90  1  0.50158017  0.62954576  0.63144846  1
  Zn  Zn91  1  0.13869239  0.11744814  0.01202515  1
  Zn  Zn92  1  0.87814029  0.87955096  0.00149572  1
  Zn  Zn93  1  0.37961747  0.24151917  0.10960922  1
  Zn  Zn94  1  0.87814013  0.62200867  0.25654779  1
  Zn  Zn95  1  0.11363438  0.87772367  0.29663311  1
  Zn  Zn96  1  0.23420889  0.00765646  0.25120361  1
  Zn  Zn97  1  0.50251131  0.24141477  0.23721000  1
  Zn  Zn98  1  0.88292091  0.00237960  0.87714126  1
  Zn  Zn99  1  0.55359920  0.83990727  0.80342288  1
  Zn  Zn100  1  0.12708958  0.62288929  -0.00080639  1
  Zn  Zn101  1  0.38749187  0.62739373  0.75798534  1
  Zn  Zn102  1  0.74745427  -0.00298589  0.24769865  1
  Zn  Zn103  1  -0.00333320  0.37202648  0.88069005  1
  Zn  Zn104  1  0.75402800  0.87730541  0.12631151  1
  Zn  Zn105  1  0.25655199  0.12931332  0.88136972  1
  Zn  Zn106  1  0.62104245  0.12406420  0.51829615  1
  Zn  Zn107  1  0.19149968  0.18960160  0.19693393  1
  Zn  Zn108  1  0.18538910  0.18713078  0.68769985  1
  Zn  Zn109  1  0.18816874  0.68748803  0.19012114  1
  Zn  Zn110  1  0.19278752  0.68631209  0.68503764  1
  Zn  Zn111  1  0.68838800  0.18632900  0.18841096  1
  Zn  Zn112  1  0.67639318  0.17718391  0.68887968  1
  Zn  Zn113  1  0.68783813  0.68566088  0.18523743  1
  Zn  Zn114  1  0.67915751  0.66942686  0.69352026  1
  Zn  Zn115  1  0.31041908  0.31153377  0.31231877  1
  Zn  Zn116  1  0.31738902  0.30688465  0.80731436  1
  Zn  Zn117  1  0.31818651  0.81574708  0.30342522  1
  Zn  Zn118  1  0.31027694  0.82107902  0.81133309  1
  Zn  Zn119  1  0.81207416  0.31200548  0.31473246  1
  Zn  Zn120  1  0.81169984  0.31341309  0.81202768  1
  Zn  Zn121  1  0.80863430  0.80968253  0.30871552  1
  Zn  Zn122  1  0.81903408  0.81058719  0.81818100  1
  Zn  Zn123  1  0.18595833  0.43767074  0.43899542  1
  Zn  Zn124  1  0.18583252  0.43760613  0.93796202  1
  Zn  Zn125  1  0.18846010  0.94723624  0.44429543  1
  Zn  Zn126  1  0.18683337  0.94044680  0.94019074  1
  Zn  Zn127  1  0.68861567  0.43456605  0.43655054  1
  Zn  Zn128  1  0.68419231  0.43965030  0.93684453  1
  Zn  Zn129  1  0.68601714  0.93274455  0.43327047  1
  Zn  Zn130  1  0.69321584  0.94224592  0.93294441  1
  Zn  Zn131  1  0.30578676  0.06008733  0.05975601  1
  Zn  Zn132  1  0.31548957  0.06388743  0.56526491  1
  Zn  Zn133  1  0.31293937  0.55921109  0.06082875  1
  Zn  Zn134  1  0.31506164  0.56178081  0.56795037  1
  Zn  Zn135  1  0.81808419  0.06176744  0.06117685  1
  Zn  Zn136  1  0.80842366  0.06522127  0.56502770  1
  Zn  Zn137  1  0.81501970  0.56395168  0.06505964  1
  Zn  Zn138  1  0.80922501  0.56429914  0.56319519  1
  Zn  Zn139  1  0.43712820  0.43295208  0.18315059  1
  Zn  Zn140  1  0.44071187  0.43378840  0.68584672  1
  Zn  Zn141  1  0.43578866  0.94320392  0.18338919  1
  Zn  Zn142  1  0.42962605  0.94540578  0.68260720  1
  Zn  Zn143  1  0.93630479  0.43637353  0.18867618  1
  Zn  Zn144  1  0.93715001  0.43285587  0.68705177  1
  Zn  Zn145  1  0.94152991  0.93288624  0.19505412  1
  Zn  Zn146  1  0.93627827  0.93448121  0.68801109  1
  Zn  Zn147  1  0.06117604  0.06711205  0.31638773  1
  Zn  Zn148  1  0.06595510  0.06423399  0.81228276  1
  Zn  Zn149  1  0.06377840  0.56096214  0.31021771  1
  Zn  Zn150  1  0.06660568  0.56422464  0.81479986  1
  Zn  Zn151  1  0.55831151  0.06163627  0.30906688  1
  Zn  Zn152  1  0.56588993  0.05843044  0.82297828  1
  Zn  Zn153  1  0.56202620  0.55877964  0.31002029  1
  Zn  Zn154  1  0.56204172  0.56262783  0.81230581  1
  Zn  Zn155  1  0.43646945  0.18695422  0.43727967  1
  Zn  Zn156  1  0.43968767  0.18673713  0.93243849  1
  Zn  Zn157  1  0.40093071  0.70492902  0.41855247  1
  Zn  Zn158  1  0.44057301  0.69358389  0.92914591  1
  Zn  Zn159  1  0.93434321  0.18952892  0.43947355  1
  Zn  Zn160  1  0.94285493  0.19007185  0.94396682  1
  Zn  Zn161  1  0.93687332  0.68376580  0.44432846  1
  Zn  Zn162  1  0.93861742  0.68569299  0.93835565  1
  Zn  Zn163  1  0.06283029  0.31392689  0.06553057  1
  Zn  Zn164  1  0.05969039  0.31436610  0.56380520  1
  Zn  Zn165  1  0.06344399  0.80849465  0.06019841  1
  Zn  Zn166  1  0.07398360  0.82438477  0.52009840  1
  Zn  Zn167  1  0.56138745  0.31196061  0.06091638  1
  Zn  Zn168  1  0.55842820  0.30930853  0.56515939  1
  Zn  Zn169  1  0.56537001  0.81396456  -0.03735387  1
  Zn  Zn170  1  0.55379972  0.81403190  0.55249652  1
  O  O171  1  0.11222176  0.13408866  0.13196173  1
  O  O172  1  0.11269497  0.12180308  0.61790902  1
  O  O173  1  0.11917870  0.61457223  0.12459759  1
  O  O174  1  0.12333004  0.61070567  0.62626808  1
  O  O175  1  0.63142765  0.12138896  0.11229595  1
  O  O176  1  0.62028606  0.09341230  0.63182129  1
  O  O177  1  0.61548795  0.62243382  0.11845664  1
  O  O178  1  0.62324334  0.61155260  0.61509615  1
  O  O179  1  0.38059098  0.38242078  0.37938314  1
  O  O180  1  0.38823887  0.37248061  0.87523895  1
  O  O181  1  0.38002850  0.88531611  0.38025718  1
  O  O182  1  0.36647160  0.88738651  0.88745507  1
  O  O183  1  0.88216321  0.36671348  0.38800392  1
  O  O184  1  0.87668193  0.38956214  0.87129727  1
  O  O185  1  0.86796053  0.88562522  0.37968070  1
  O  O186  1  0.88977132  0.87381858  0.87934081  1
  O  O187  1  0.26469952  -0.00321474  0.37584118  1
  O  O188  1  0.25573173  -0.00034719  0.86503648  1
  O  O189  1  0.25918010  0.49056174  0.36548505  1
  O  O190  1  0.24188865  0.50950926  0.86553359  1
  O  O191  1  0.75521795  0.00810110  0.37464273  1
  O  O192  1  0.76037103  0.01220946  0.86936821  1
  O  O193  1  0.74249426  0.50811882  0.36669866  1
  O  O194  1  0.75711271  0.50694097  0.87095128  1
  O  O195  1  0.24313830  0.49327874  0.12986486  1
  O  O196  1  0.24308145  0.49051525  0.63354150  1
  O  O197  1  0.25339136  0.98366037  0.13076046  1
  O  O198  1  0.24153551  0.99505473  0.62845944  1
  O  O199  1  0.74990496  0.49166574  0.13066158  1
  O  O200  1  0.74173315  0.50382594  0.63595256  1
  O  O201  1  0.74216977  1.00065881  0.12425971  1
  O  O202  1  0.74900281  1.00198802  0.64209616  1
  O  O203  1  -0.00669457  0.36428791  0.25892143  1
  O  O204  1  0.00835674  0.36570987  0.75200350  1
  O  O205  1  0.00281318  0.85597363  0.25431544  1
  O  O206  1  -0.00268223  0.85953292  0.75439181  1
  O  O207  1  0.50757126  0.37427821  0.25650247  1
  O  O208  1  0.51482165  0.38175643  0.75736102  1
  O  O209  1  0.49945698  0.88047571  0.25972195  1
  O  O210  1  0.53122079  0.92261969  0.72551098  1
  O  O211  1  0.47883342  0.12650751  0.25949269  1
  O  O212  1  0.50176694  0.12016955  0.75216751  1
  O  O213  1  0.49116233  0.61381886  0.23464042  1
  O  O214  1  0.49987212  0.62293210  0.74533981  1
  O  O215  1  0.99439664  0.13786298  0.24536866  1
  O  O216  1  1.00456566  0.13810555  0.74323284  1
  O  O217  1  0.99912180  0.62966717  0.24151879  1
  O  O218  1  0.99730314  0.63086324  0.74510281  1
  O  O219  1  0.37890504  0.26584141  -0.00771840  1
  O  O220  1  0.36240033  0.25492092  0.49374626  1
  O  O221  1  0.36567327  0.75706537  0.00418368  1
  O  O222  1  0.38252111  0.76808859  0.51367043  1
  O  O223  1  0.86473273  0.25032223  0.00861685  1
  O  O224  1  0.86507592  0.25596630  0.50910992  1
  O  O225  1  0.86606705  0.74495320  0.00902107  1
  O  O226  1  0.86698548  0.75488965  0.50686242  1
  O  O227  1  0.13153759  0.24691557  0.49939516  1
  O  O228  1  0.12060561  0.25268620  0.98622496  1
  O  O229  1  0.13099291  0.72587550  0.50963906  1
  O  O230  1  0.13767304  0.74577614  0.99309920  1
  O  O231  1  0.62997972  0.24499998  0.49537588  1
  O  O232  1  0.63686103  0.24632248  0.99418087  1
  O  O233  1  0.62679883  0.74161716  0.49353400  1
  O  O234  1  0.63987046  0.73434035  1.00654684  1
  O  O235  1  0.49219227  0.25608842  0.12567884  1
  O  O236  1  0.50799283  0.23439908  0.63001399  1
  O  O237  1  0.48661586  0.73730089  0.11503132  1
  O  O238  1  0.48693260  0.75492264  0.62551775  1
  O  O239  1  0.99416873  0.24915944  0.13468223  1
  O  O240  1  0.99267359  0.24437658  0.63256383  1
  O  O241  1  0.99686688  0.74071640  0.13075206  1
  O  O242  1  0.99693395  0.74186561  0.63197598  1
  O  O243  1  0.00337988  0.25743335  0.37078437  1
  O  O244  1  0.00724122  0.25264666  0.86910243  1
  O  O245  1  -0.00438938  0.73908213  0.36305671  1
  O  O246  1  0.00907469  0.75302496  0.86791200  1
  O  O247  1  0.51193414  0.25330881  0.37603473  1
  O  O248  1  0.51620902  0.25923498  0.88051161  1
  O  O249  1  0.50259021  0.75957836  0.38048268  1
  O  O250  1  0.50099335  0.76898092  0.87750118  1
  O  O251  1  0.23962858  0.13535632  0.50958228  1
  O  O252  1  0.24973059  0.13029180  0.99640219  1
  O  O253  1  0.23730119  0.61183693  0.50104798  1
  O  O254  1  0.25066981  0.63251592  0.99404119  1
  O  O255  1  0.74398310  0.13359836  0.49476811  1
  O  O256  1  0.74666434  0.13496390  0.99437020  1
  O  O257  1  0.73788243  0.62930493  0.49433297  1
  O  O258  1  0.74376597  0.62649064  0.99523453  1
  O  O259  1  0.25954871  0.38286179  0.00663178  1
  O  O260  1  0.25389504  0.36974640  0.50931369  1
  O  O261  1  0.25773419  0.86845602  0.01012051  1
  O  O262  1  0.26012307  0.87740375  0.51123968  1
  O  O263  1  0.74469073  0.37020497  0.01105634  1
  O  O264  1  0.75386240  0.36041144  0.49692634  1
  O  O265  1  0.75717937  0.86398777  0.00344654  1
  O  O266  1  0.75969221  0.86666187  0.49347055  1
  O  O267  1  0.13546767  0.50226829  0.24141851  1
  O  O268  1  0.12994200  0.48883782  0.74628311  1
  O  O269  1  0.12458230  0.98830401  0.27359589  1
  O  O270  1  0.12765512  1.00155341  0.73492506  1
  O  O271  1  0.63474584  0.49031543  0.24715074  1
  O  O272  1  0.63354977  0.49323450  0.74194194  1
  O  O273  1  0.62453147  1.00221101  0.23748802  1
  O  O274  1  0.64954563  1.00251043  0.76022205  1
  O  O275  1  0.37256674  0.00831098  0.26088609  1
  O  O276  1  0.36361337  -0.00532485  0.75976290  1
  O  O277  1  0.36900093  0.50207899  0.25475225  1
  O  O278  1  0.36417647  0.49948716  0.74529782  1
  O  O279  1  0.87421118  0.00557236  0.25951516  1
  O  O280  1  0.86668829  -0.00087507  0.75458786  1
  O  O281  1  0.86121238  0.50153528  0.24786071  1
  O  O282  1  0.86882631  0.50315281  0.75405939  1
  O  O283  1  0.11191247  0.36421266  0.38608448  1
  O  O284  1  0.12191446  0.36677247  0.86809820  1
  O  O285  1  0.13170738  0.85467081  0.41028811  1
  O  O286  1  0.12150531  0.85983661  0.87742207  1
  O  O287  1  0.62170654  0.36504524  0.36919357  1
  O  O288  1  0.62014933  0.36864003  0.86791104  1
  O  O289  1  0.61435735  0.86330517  0.37214222  1
  O  O290  1  0.62915458  0.86752906  0.88512964  1
  O  O291  1  0.37157903  0.12375203  0.13634269  1
  O  O292  1  0.38255840  0.12303606  0.63269766  1
  O  O293  1  0.38035719  0.62829286  0.12882491  1
  O  O294  1  0.37572716  0.64239129  0.62460882  1
  O  O295  1  0.88215852  0.13758839  0.13190191  1
  O  O296  1  0.88552591  0.13531682  0.62041981  1
  O  O297  1  0.88462140  0.63322474  0.12912680  1
  O  O298  1  0.88015352  0.63064873  0.63016592  1
  O  O299  1  0.25363189  0.26301215  0.13009926  1
  O  O300  1  0.24187312  0.26267011  0.61869126  1
  O  O301  1  0.25741475  0.75405284  0.11822962  1
  O  O302  1  0.26122494  0.75971164  0.62787852  1
  O  O303  1  0.75675807  0.25650980  0.11933282  1
  O  O304  1  0.75449894  0.23887799  0.61892674  1
  O  O305  1  0.76023938  0.74783078  0.11901151  1
  O  O306  1  0.74980552  0.75424495  0.62474760  1
  O  O307  1  0.23828000  0.25896096  0.38744355  1
  O  O308  1  0.23480469  0.25125096  0.86636808  1
  O  O309  1  0.29389344  0.73553872  0.37779385  1
  O  O310  1  0.24615938  0.74719534  0.88048418  1
  O  O311  1  0.73989936  0.24381634  0.38267332  1
  O  O312  1  0.74565712  0.24839219  0.88309132  1
  O  O313  1  0.73757961  0.74024977  0.37817658  1
  O  O314  1  0.76039618  0.73442436  0.88371930  1
  O  O315  1  0.00319839  0.13020263  0.02202935  1
  O  O316  1  0.00331706  0.12394239  0.51023558  1
  O  O317  1  0.00253722  0.61754927  0.01201630  1
  O  O318  1  0.00693915  0.61960817  0.50971295  1
  O  O319  1  0.51271124  0.11866420  -0.00633826  1
  O  O320  1  0.50354073  0.11040593  0.49015590  1
  O  O321  1  0.50498061  0.61953519  0.00278163  1
  O  O322  1  0.51104744  0.61898600  0.50189180  1
  O  O323  1  0.49444191  0.37742824  0.49394632  1
  O  O324  1  0.49658849  0.38419214  0.99062232  1
  O  O325  1  0.49233803  0.88640712  0.48663342  1
  O  O326  1  0.48474289  0.88370184  1.01030553  1
  O  O327  1  0.98886689  0.37618647  0.49455140  1
  O  O328  1  0.99989628  0.38837400  1.00177725  1
  O  O329  1  0.98068515  0.88478456  0.50012389  1
  O  O330  1  0.99973217  0.87098615  0.98935624  1
  O  O331  1  0.49613242  0.49065014  0.38054236  1
  O  O332  1  0.50837044  0.48931174  0.88456864  1
  O  O333  1  0.48974939  0.99357139  0.37982389  1
  O  O334  1  0.49343391  0.99706903  0.88958655  1
  O  O335  1  1.00058839  0.48600889  0.37389400  1
  O  O336  1  0.99445382  0.50116062  0.88455581  1
  O  O337  1  0.98215278  1.01401382  0.38748182  1
  O  O338  1  1.00388821  0.98355755  0.86469400  1
  O  O339  1  -0.00384105  0.01684104  0.13438416  1
  O  O340  1  0.00273570  0.00737179  0.62184259  1
  O  O341  1  0.00567554  0.50407326  0.12272461  1
  O  O342  1  0.00774719  0.50451697  0.62689970  1
  O  O343  1  0.50783436  0.00175314  0.11244485  1
  O  O344  1  0.49987657  -0.00555562  0.60044358  1
  O  O345  1  0.50090259  0.50588219  0.11332374  1
  O  O346  1  0.50849590  0.49935682  0.61571340  1
  O  O347  1  0.25721298  0.38588508  0.23884741  1
  O  O348  1  0.24464489  0.37899698  0.74475410  1
  O  O349  1  0.24403189  0.87244038  0.23881250  1
  O  O350  1  0.24840347  0.88658341  0.73508653  1
  O  O351  1  0.74535974  0.37889253  0.24360318  1
  O  O352  1  0.74039597  0.38668504  0.75590849  1
  O  O353  1  0.74242755  0.87685244  0.24523104  1
  O  O354  1  0.75579504  0.88216521  0.74697911  1
  O  O355  1  0.26371435  0.12166805  0.25328272  1
  O  O356  1  0.24225857  0.11194615  0.75222075  1
  O  O357  1  0.26278240  0.61164538  0.24204174  1
  O  O358  1  0.25466955  0.61548786  0.75664742  1
  O  O359  1  0.75722531  0.12448975  0.25932988  1
  O  O360  1  0.75427483  0.11863663  0.75797691  1
  O  O361  1  0.74912167  0.61590893  0.25846002  1
  O  O362  1  0.75422413  0.61450151  0.75965436  1
  O  O363  1  0.37211741  0.11238276  0.37542038  1
  O  O364  1  0.37492539  0.10963663  0.87856552  1
  O  O365  1  0.38905645  0.60613438  0.36143439  1
  O  O366  1  0.36166959  0.62967995  0.87479634  1
  O  O367  1  0.86146668  0.12252640  0.37427440  1
  O  O368  1  0.86658808  0.13116014  0.88029097  1
  O  O369  1  0.85866959  0.62635291  0.37918315  1
  O  O370  1  0.87097874  0.61447403  0.86912166  1
  O  O371  1  0.13324903  0.38586353  0.12112975  1
  O  O372  1  0.12951677  0.38347828  0.63211317  1
  O  O373  1  0.13954759  0.86842652  0.12158035  1
  O  O374  1  0.13168668  0.88454556  0.60937143  1
  O  O375  1  0.63517373  0.37502819  0.13138791  1
  O  O376  1  0.62228029  0.38361669  0.63119365  1
  O  O377  1  0.62604780  0.88950198  0.12213942  1
  O  O378  1  0.63561437  0.88630943  0.61193975  1
  O  O379  1  0.11651466  0.24849626  0.26456725  1
  O  O380  1  0.11772976  0.26035552  0.75393700  1
  O  O381  1  0.11332597  0.74805941  0.25438030  1
  O  O382  1  0.11868112  0.74327321  0.75612477  1
  O  O383  1  0.62474963  0.25517581  0.25832785  1
  O  O384  1  0.63588135  0.25911398  0.75966046  1
  O  O385  1  0.62208284  0.74566019  0.26050948  1
  O  O386  1  0.63591994  0.77194085  0.72992977  1
  O  O387  1  0.37388325  0.23554023  0.25395869  1
  O  O388  1  0.38837594  0.24549171  0.74715986  1
  O  O389  1  0.37620731  0.73736718  0.23684645  1
  O  O390  1  0.37322668  0.75496051  0.73816323  1
  O  O391  1  0.88066576  0.24478741  0.24567951  1
  O  O392  1  0.88303798  0.25600499  0.74304647  1
  O  O393  1  0.88374746  0.74442755  0.24444995  1
  O  O394  1  0.88253747  0.74175954  0.74531235  1
  O  O395  1  0.37876960  0.49573877  0.49236641  1
  O  O396  1  0.38613023  0.49135502  0.99902280  1
  O  O397  1  0.38077797  0.99478796  0.49045977  1
  O  O398  1  0.38206176  0.99443452  0.99754861  1
  O  O399  1  0.87124906  0.48414133  0.50859541  1
  O  O400  1  0.88370121  0.50629341  0.99228145  1
  O  O401  1  0.87260831  0.99356060  0.49719031  1
  O  O402  1  0.88874273  0.99898568  0.99684815  1
  O  O403  1  0.11728917  0.00611401  -0.00404102  1
  O  O404  1  0.11674930  0.01240532  0.50879820  1
  O  O405  1  0.11663443  0.50312960  0.00772450  1
  O  O406  1  0.12039034  0.50448165  0.51041383  1
  O  O407  1  0.62079681  0.00978791  0.00448201  1
  O  O408  1  0.61083805  0.00107622  0.48866232  1
  O  O409  1  0.61794924  0.51053958  0.00288552  1
  O  O410  1  0.62269096  0.50309865  0.50570891  1
  O  O411  1  0.36607950  0.37570504  0.11212174  1
  O  O412  1  0.36540571  0.37923889  0.61686267  1
  O  O413  1  0.36751852  0.86695231  0.12148881  1
  O  O414  1  0.36763367  0.86987876  0.61940509  1
  O  O415  1  0.86691120  0.36237373  0.13068883  1
  O  O416  1  0.87663382  0.35992005  0.61830887  1
  O  O417  1  0.87936207  0.86117422  0.12483593  1
  O  O418  1  0.87362340  0.86628882  0.61760050  1
  O  O419  1  0.11585920  0.14004182  0.39307213  1
  O  O420  1  0.12390146  0.14183501  0.87439846  1
  O  O421  1  0.12443011  0.61609101  0.38973989  1
  O  O422  1  0.13607927  0.63573777  0.87660156  1
  O  O423  1  0.63449147  0.13046582  0.37195950  1
  O  O424  1  0.63825457  0.13353443  0.88442676  1
  O  O425  1  0.62653710  0.62865600  0.38056061  1
  O  O426  1  0.63712753  0.61909992  0.88351628  1
