# generated using pymatgen
data_V85Zn86O256
_symmetry_space_group_name_H-M   'P 1'
_cell_length_a   16.94273325
_cell_length_b   16.95768312
_cell_length_c   16.95823877
_cell_angle_alpha   90.00042271
_cell_angle_beta   90.01669644
_cell_angle_gamma   90.05812203
_symmetry_Int_Tables_number   1
_chemical_formula_structural   V85Zn86O256
_chemical_formula_sum   'V85 Zn86 O256'
_cell_volume   4872.26041569
_cell_formula_units_Z   1
loop_
 _symmetry_equiv_pos_site_id
 _symmetry_equiv_pos_as_xyz
  1  'x, y, z'
loop_
 _atom_site_type_symbol
 _atom_site_label
 _atom_site_symmetry_multiplicity
 _atom_site_fract_x
 _atom_site_fract_y
 _atom_site_fract_z
 _atom_site_occupancy
  V  V0  1  0.25017299  0.37015308  0.12225909  1
  V  V1  1  0.75323333  0.62615301  0.37887405  1
  V  V2  1  0.12405948  -0.00059686  0.62777487  1
  V  V3  1  0.87271908  0.12459228  0.25395169  1
  V  V4  1  0.37646005  0.24903830  0.12278266  1
  V  V5  1  0.12104668  0.62352852  0.49713810  1
  V  V6  1  0.38978524  -0.00554497  0.87968462  1
  V  V7  1  0.87609710  0.62381601  0.25129176  1
  V  V8  1  -0.00011068  0.75404573  0.25134563  1
  V  V9  1  0.86979488  0.00064214  0.37653973  1
  V  V10  1  0.74843019  0.24377226  0.00177683  1
  V  V11  1  0.49987670  0.76563509  0.76526655  1
  V  V12  1  0.37742823  0.37511080  0.49792008  1
  V  V13  1  0.37278478  0.11481125  0.24433408  1
  V  V14  1  0.61741518  0.87252655  0.25148948  1
  V  V15  1  0.24741350  0.62664729  0.37036339  1
  V  V16  1  0.64064987  0.87933079  0.75563767  1
  V  V17  1  0.74033609  0.74895679  -0.00902854  1
  V  V18  1  0.50374555  0.88036954  0.38678769  1
  V  V19  1  0.25329278  0.61690133  0.87490833  1
  V  V20  1  0.88223776  0.50166206  0.38636873  1
  V  V21  1  -0.00204596  0.87042226  0.37757271  1
  V  V22  1  0.00062917  -0.00534763  -0.00453178  1
  V  V23  1  0.37990629  0.12136238  0.74904485  1
  V  V24  1  0.61519814  0.12044481  -0.00192114  1
  V  V25  1  0.24846366  0.12008585  0.36765014  1
  V  V26  1  0.12862138  0.25024734  0.37389502  1
  V  V27  1  0.87561602  0.37416629  0.00427670  1
  V  V28  1  0.25392150  0.49897851  0.25050059  1
  V  V29  1  0.25025851  0.12009746  0.87607958  1
  V  V30  1  0.62507198  0.49197384  0.63247107  1
  V  V31  1  0.87376561  0.74910344  0.12573730  1
  V  V32  1  0.12601875  0.12692284  0.50212074  1
  V  V33  1  0.86806796  0.12322057  0.74817489  1
  V  V34  1  0.74777785  0.36637878  0.63060503  1
  V  V35  1  0.00523423  0.37921691  0.38522004  1
  V  V36  1  0.70148534  0.43304349  0.07424079  1
  V  V37  1  0.62564379  0.62449181  0.50857283  1
  V  V38  1  0.37822983  0.50622914  0.37458448  1
  V  V39  1  0.74764909  0.00368134  0.25125776  1
  V  V40  1  0.12925550  -0.00780494  0.13831662  1
  V  V41  1  0.62680179  0.36834683  0.27390065  1
  V  V42  1  0.00073441  0.37426320  0.87414319  1
  V  V43  1  0.62184063  0.12192254  0.48423768  1
  V  V44  1  0.87045457  -0.00170158  0.87184587  1
  V  V45  1  0.50498860  0.25484812  0.74772710  1
  V  V46  1  0.16762720  0.80853760  0.31543568  1
  V  V47  1  0.13135843  0.50218985  0.62570900  1
  V  V48  1  0.87090569  0.49761197  0.87294426  1
  V  V49  1  0.37790332  0.00320839  0.38289549  1
  V  V50  1  0.24976156  0.87507650  0.62845971  1
  V  V51  1  0.37765550  0.75105934  0.62815804  1
  V  V52  1  0.11246177  0.75304775  0.87293316  1
  V  V53  1  0.37505707  0.61540775  0.75607336  1
  V  V54  1  0.87736024  0.75474708  0.63026560  1
  V  V55  1  0.37681225  0.37953218  -0.00943934  1
  V  V56  1  0.74847157  0.49398440  0.25194018  1
  V  V57  1  0.11130773  0.87123595  0.75464218  1
  V  V58  1  0.12468231  0.12235677  0.00074091  1
  V  V59  1  0.12698417  0.62635720  -0.00324052  1
  V  V60  1  -0.00073183  0.12261649  0.12578936  1
  V  V61  1  0.62512966  0.25183341  0.87102166  1
  V  V62  1  0.75042831  0.87430584  0.12681290  1
  V  V63  1  -0.00172579  0.50054065  0.00100150  1
  V  V64  1  0.61618662  -0.00076867  0.12139758  1
  V  V65  1  0.25067249  -0.00358983  0.75213979  1
  V  V66  1  0.24649437  0.75252224  0.50054553  1
  V  V67  1  0.62076991  0.75038278  0.37660722  1
  V  V68  1  0.00032967  0.24835496  0.74793804  1
  V  V69  1  0.63190181  -0.00163831  0.62487833  1
  V  V70  1  0.13167628  0.37947476  0.75109074  1
  V  V71  1  0.74877880  0.75692698  0.51360756  1
  V  V72  1  0.37881046  0.74277527  0.13507735  1
  V  V73  1  0.74761302  0.24510682  0.48279000  1
  V  V74  1  0.50221910  0.49573157  0.49817197  1
  V  V75  1  0.12715285  0.37354730  0.24963759  1
  V  V76  1  0.00257287  0.62317591  0.62659816  1
  V  V77  1  -0.00122968  -0.00059718  0.50030909  1
  V  V78  1  0.37417549  0.25023443  0.62433526  1
  V  V79  1  0.00033192  0.62503300  0.12584624  1
  V  V80  1  0.87824574  0.87202507  -0.00549524  1
  V  V81  1  0.25144208  0.75537132  -0.00265642  1
  V  V82  1  0.38874344  0.87574736  0.00063399  1
  V  V83  1  0.87962160  0.62553817  0.74978577  1
  V  V84  1  0.87089409  0.25203169  0.12671147  1
  Zn  Zn85  1  0.50658129  0.62219917  0.14128959  1
  Zn  Zn86  1  0.74877082  0.49527669  0.74778718  1
  Zn  Zn87  1  0.12683741  0.49930395  0.12276771  1
  Zn  Zn88  1  0.74548747  0.62598928  0.87673513  1
  Zn  Zn89  1  0.74695150  0.11984204  0.87064219  1
  Zn  Zn90  1  0.25092965  0.25279078  0.50017975  1
  Zn  Zn91  1  0.49808703  0.12344577  0.12473196  1
  Zn  Zn92  1  0.50716986  0.25207119  0.25569887  1
  Zn  Zn93  1  0.25369935  0.38225822  0.62938813  1
  Zn  Zn94  1  0.24948022  0.24749508  -0.00327894  1
  Zn  Zn95  1  0.86881030  0.87879511  0.50726504  1
  Zn  Zn96  1  -0.00112613  0.12572049  0.62491675  1
  Zn  Zn97  1  0.12447330  0.24764105  0.87447033  1
  Zn  Zn98  1  0.87629389  0.37337276  0.50223028  1
  Zn  Zn99  1  -0.00069058  0.25142010  0.25055732  1
  Zn  Zn100  1  0.24903504  0.87461962  0.13657314  1
  Zn  Zn101  1  0.87598750  0.24851850  0.62073655  1
  Zn  Zn102  1  0.37994583  0.88050763  0.50616249  1
  Zn  Zn103  1  0.49675523  0.38150332  0.86668632  1
  Zn  Zn104  1  0.49732620  0.50973725  -0.00678353  1
  Zn  Zn105  1  0.49974837  0.11910133  0.61315809  1
  Zn  Zn106  1  0.50041747  0.62602983  0.62875140  1
  Zn  Zn107  1  0.18932482  0.18569902  0.18768188  1
  Zn  Zn108  1  0.18922808  0.18840976  0.68894781  1
  Zn  Zn109  1  0.19646059  0.68090913  0.17779143  1
  Zn  Zn110  1  0.18955608  0.68840172  0.69162142  1
  Zn  Zn111  1  0.68618707  0.18829441  0.18933320  1
  Zn  Zn112  1  0.68567806  0.18268390  0.68114076  1
  Zn  Zn113  1  0.68977640  0.68780488  0.19100982  1
  Zn  Zn114  1  0.68139617  0.68031669  0.71079763  1
  Zn  Zn115  1  0.34078751  0.30003982  0.32368826  1
  Zn  Zn116  1  0.31052680  0.30545843  0.81096894  1
  Zn  Zn117  1  0.33048756  0.81300425  0.31554853  1
  Zn  Zn118  1  0.31133990  0.81103831  0.81627730  1
  Zn  Zn119  1  0.81642123  0.31676020  0.31267168  1
  Zn  Zn120  1  0.81205221  0.30912222  0.81324405  1
  Zn  Zn121  1  0.80871552  0.81372641  0.31699529  1
  Zn  Zn122  1  0.81954095  0.81394744  0.81069794  1
  Zn  Zn123  1  0.19209609  0.43950880  0.44190886  1
  Zn  Zn124  1  0.18751214  0.43739909  0.93772877  1
  Zn  Zn125  1  0.19225841  0.94377150  0.44240290  1
  Zn  Zn126  1  0.18892766  0.93526255  0.93816100  1
  Zn  Zn127  1  0.69325834  0.43654428  0.44310085  1
  Zn  Zn128  1  0.65302531  0.46178511  0.89998464  1
  Zn  Zn129  1  0.68787016  0.94099077  0.44180552  1
  Zn  Zn130  1  0.68767315  0.93492607  0.93757826  1
  Zn  Zn131  1  0.30988898  0.05493813  0.06234377  1
  Zn  Zn132  1  0.31029494  0.06457737  0.56219440  1
  Zn  Zn133  1  0.34810071  0.53765364  0.08528732  1
  Zn  Zn134  1  0.31165073  0.56663504  0.56400971  1
  Zn  Zn135  1  0.80959321  0.06106209  0.06366173  1
  Zn  Zn136  1  0.80855570  0.06737445  0.56250382  1
  Zn  Zn137  1  0.62823008  0.62314946  0.02342467  1
  Zn  Zn138  1  0.81043871  0.56370774  0.56873170  1
  Zn  Zn139  1  0.47091648  0.47391983  0.21022088  1
  Zn  Zn140  1  0.43993574  0.43713421  0.68385127  1
  Zn  Zn141  1  0.43543019  0.93305507  0.19013232  1
  Zn  Zn142  1  0.44378028  0.94221887  0.68240831  1
  Zn  Zn143  1  0.93684202  0.43785632  0.19071927  1
  Zn  Zn144  1  0.94206034  0.43697867  0.68282970  1
  Zn  Zn145  1  0.94028358  0.93582600  0.18622971  1
  Zn  Zn146  1  0.93485435  0.93967716  0.68721256  1
  Zn  Zn147  1  0.05736440  0.06285269  0.31483927  1
  Zn  Zn148  1  0.05865365  0.06014872  0.81322990  1
  Zn  Zn149  1  0.06655307  0.56259810  0.31223080  1
  Zn  Zn150  1  0.06342079  0.56271841  0.81178468  1
  Zn  Zn151  1  0.55714002  0.06180486  0.30902406  1
  Zn  Zn152  1  0.56650896  0.06080962  0.80720126  1
  Zn  Zn153  1  0.57034506  0.56659292  0.31548727  1
  Zn  Zn154  1  0.55976540  0.57733600  0.81475674  1
  Zn  Zn155  1  0.44333525  0.19325924  0.43045167  1
  Zn  Zn156  1  0.43749097  0.18855709  0.93519795  1
  Zn  Zn157  1  0.43848362  0.68701909  0.43989041  1
  Zn  Zn158  1  0.44204497  0.68801878  0.94159434  1
  Zn  Zn159  1  0.93846451  0.19034916  0.43573247  1
  Zn  Zn160  1  0.93745280  0.18527715  0.93532877  1
  Zn  Zn161  1  0.93799571  0.69045671  0.44256519  1
  Zn  Zn162  1  0.93224097  0.68430077  0.93761686  1
  Zn  Zn163  1  0.06097530  0.30906969  0.06372098  1
  Zn  Zn164  1  0.06515313  0.31281501  0.56518349  1
  Zn  Zn165  1  0.06348395  0.81262866  0.06212614  1
  Zn  Zn166  1  0.06115485  0.81045587  0.56474183  1
  Zn  Zn167  1  0.55617936  0.31033621  0.06189862  1
  Zn  Zn168  1  0.56378290  0.30689027  0.55698141  1
  Zn  Zn169  1  0.55951894  0.80755303  0.06848014  1
  Zn  Zn170  1  0.56532480  0.81486242  0.57027532  1
  O  O171  1  0.12097122  0.11542092  0.11844030  1
  O  O172  1  0.12469894  0.12019582  0.61744087  1
  O  O173  1  0.11893693  0.62118508  0.11490120  1
  O  O174  1  0.12186290  0.62193129  0.62191776  1
  O  O175  1  0.62466406  0.11589007  0.11838549  1
  O  O176  1  0.62149501  0.11575703  0.61575971  1
  O  O177  1  0.62131081  0.62262498  0.13669264  1
  O  O178  1  0.62513260  0.61541290  0.62041357  1
  O  O179  1  0.36163315  0.39633111  0.38989989  1
  O  O180  1  0.37575385  0.35972762  0.88752434  1
  O  O181  1  0.38604713  0.88393966  0.38055382  1
  O  O182  1  0.37058319  0.88148996  0.89015757  1
  O  O183  1  0.88800603  0.38374609  0.37585583  1
  O  O184  1  0.87949601  0.37927897  0.88196652  1
  O  O185  1  0.88202986  0.88254145  0.37880881  1
  O  O186  1  0.87639520  0.88169137  0.88567179  1
  O  O187  1  0.25779842  0.01187998  0.37744038  1
  O  O188  1  0.25621964  0.00723525  0.87128874  1
  O  O189  1  0.25341689  0.51032344  0.37000305  1
  O  O190  1  0.24055081  0.51790559  0.87652689  1
  O  O191  1  0.76281428  -0.00606950  0.36793752  1
  O  O192  1  0.76658764  0.00219762  0.88305117  1
  O  O193  1  0.76072573  0.50579816  0.37222816  1
  O  O194  1  0.75687517  0.50086976  0.86803292  1
  O  O195  1  0.25305867  0.48647302  0.13258223  1
  O  O196  1  0.23710100  0.50349074  0.62623282  1
  O  O197  1  0.23409016  0.99471812  0.12622442  1
  O  O198  1  0.24390980  0.99530002  0.63109000  1
  O  O199  1  0.75841078  0.48828039  0.13759194  1
  O  O200  1  0.74248614  0.48385107  0.61993375  1
  O  O201  1  0.74300234  0.99232528  0.13326505  1
  O  O202  1  0.73335256  1.00431096  0.62060393  1
  O  O203  1  0.01463743  0.37549037  0.25589347  1
  O  O204  1  0.00774349  0.36652136  0.75365598  1
  O  O205  1  -0.00247868  0.86226506  0.25740821  1
  O  O206  1  0.01262048  0.87907329  0.74800713  1
  O  O207  1  0.52699957  0.38187350  0.24459636  1
  O  O208  1  0.49344238  0.35929946  0.74974325  1
  O  O209  1  0.51290051  0.87709271  0.26124846  1
  O  O210  1  0.49612554  0.86728896  0.75164694  1
  O  O211  1  0.48792367  0.12914752  0.24656940  1
  O  O212  1  0.48748771  0.13124920  0.75084893  1
  O  O213  1  0.48573584  0.58275210  0.24905126  1
  O  O214  1  0.48707685  0.64098363  0.74779762  1
  O  O215  1  0.99072724  0.12651143  0.24337253  1
  O  O216  1  0.99435759  0.13402922  0.75025805  1
  O  O217  1  0.99705408  0.63529431  0.24953375  1
  O  O218  1  0.99057339  0.62086309  0.74120803  1
  O  O219  1  0.37133616  0.24964537  0.00877772  1
  O  O220  1  0.37490061  0.25836585  0.50808056  1
  O  O221  1  0.36924952  0.76097335  0.00289550  1
  O  O222  1  0.36342645  0.75014863  0.50729928  1
  O  O223  1  0.86735119  0.25164674  0.00560067  1
  O  O224  1  0.86296386  0.24763819  0.50045257  1
  O  O225  1  0.86949579  0.75624856  0.00628357  1
  O  O226  1  0.86494805  0.74993443  0.50992931  1
  O  O227  1  0.12777455  0.24281236  0.49440710  1
  O  O228  1  0.12314667  0.23321581  0.99878738  1
  O  O229  1  0.13958838  0.74287900  0.50806998  1
  O  O230  1  0.13157339  0.74772031  0.99423527  1
  O  O231  1  0.63754029  0.23830280  0.49953825  1
  O  O232  1  0.63145699  0.24101257  0.99620933  1
  O  O233  1  0.63117506  0.74274636  0.50102281  1
  O  O234  1  0.63927255  0.75904880  1.00305929  1
  O  O235  1  0.48941790  0.24696637  0.13141024  1
  O  O236  1  0.49049092  0.24503086  0.63008238  1
  O  O237  1  0.48416779  0.74193666  0.12322833  1
  O  O238  1  0.48534433  0.74989936  0.62391310  1
  O  O239  1  0.98870400  0.24039519  0.12603475  1
  O  O240  1  0.99778449  0.24847493  0.63391704  1
  O  O241  1  0.99571561  0.74681394  0.13353252  1
  O  O242  1  0.99143099  0.73615062  0.61948148  1
  O  O243  1  0.00929893  0.25992919  0.37141137  1
  O  O244  1  0.00153824  0.25659518  0.86773932  1
  O  O245  1  -0.00224875  0.76240812  0.37075850  1
  O  O246  1  0.01319603  0.74537138  0.88324292  1
  O  O247  1  0.45054871  0.26950187  0.35201311  1
  O  O248  1  0.50792949  0.24836260  0.86505848  1
  O  O249  1  0.51417471  0.75500557  0.38044145  1
  O  O250  1  0.49991485  0.75427428  0.86272907  1
  O  O251  1  0.23755339  0.12566436  0.49302797  1
  O  O252  1  0.24133110  0.12102518  0.99277362  1
  O  O253  1  0.24331387  0.63394784  0.49247187  1
  O  O254  1  0.24175107  0.63844718  0.99115693  1
  O  O255  1  0.74045868  0.13801637  0.49980997  1
  O  O256  1  0.74356212  0.13400216  0.99975025  1
  O  O257  1  0.74055678  0.62984653  0.49790272  1
  O  O258  1  0.74280433  0.64412701  0.99541713  1
  O  O259  1  0.25299626  0.36966882  0.00474441  1
  O  O260  1  0.26149384  0.37417365  0.50747497  1
  O  O261  1  0.25400860  0.86422432  0.00207451  1
  O  O262  1  0.25105250  0.86836757  0.50867381  1
  O  O263  1  0.75710334  0.36690715  0.00963153  1
  O  O264  1  0.75320622  0.36026934  0.50611651  1
  O  O265  1  0.75983471  0.86976226  0.00739235  1
  O  O266  1  0.74970203  0.86091682  0.49830523  1
  O  O267  1  0.13666077  0.49184425  0.24751709  1
  O  O268  1  0.11916456  0.48965007  0.74191419  1
  O  O269  1  0.11594670  1.00263120  0.23603476  1
  O  O270  1  0.12994353  0.99411284  0.74671414  1
  O  O271  1  0.64320553  0.48911733  0.26290002  1
  O  O272  1  0.62389222  0.49535998  0.73381320  1
  O  O273  1  0.63229511  0.99400774  0.24530780  1
  O  O274  1  0.62673368  0.99114190  0.73944980  1
  O  O275  1  0.37648649  0.00823453  0.25809962  1
  O  O276  1  0.37071059  0.00495944  0.75668279  1
  O  O277  1  0.35917899  0.48577033  0.26284490  1
  O  O278  1  0.38488592  0.51666927  0.74867773  1
  O  O279  1  0.86958446  0.00465351  0.25478362  1
  O  O280  1  0.88274137  0.00908334  0.76049101  1
  O  O281  1  0.86821582  0.50340748  0.25995424  1
  O  O282  1  0.88263292  0.49968414  0.76339946  1
  O  O283  1  0.12381171  0.37271473  0.36949746  1
  O  O284  1  0.11880241  0.37240904  0.86827302  1
  O  O285  1  0.11774231  0.87749042  0.37865263  1
  O  O286  1  0.12867440  0.86685225  0.86655744  1
  O  O287  1  0.62562030  0.37277668  0.37280527  1
  O  O288  1  0.62618175  0.35374953  0.87630902  1
  O  O289  1  0.62124373  0.87147466  0.37226271  1
  O  O290  1  0.62772540  0.88408315  0.85562389  1
  O  O291  1  0.37409836  0.12445180  0.12832950  1
  O  O292  1  0.37695361  0.12977977  0.63180383  1
  O  O293  1  0.35964924  0.64470148  0.12099846  1
  O  O294  1  0.37383834  0.63388739  0.63749171  1
  O  O295  1  0.87864583  0.12749103  0.13506692  1
  O  O296  1  0.87908208  0.12584870  0.63357388  1
  O  O297  1  0.88523102  0.63519103  0.13727826  1
  O  O298  1  0.88791847  0.62891956  0.62588469  1
  O  O299  1  0.24951286  0.25867253  0.11945898  1
  O  O300  1  0.26410402  0.24894727  0.62428813  1
  O  O301  1  0.25536536  0.75700823  0.11522765  1
  O  O302  1  0.25916313  0.75430149  0.61989586  1
  O  O303  1  0.76269755  0.24260016  0.11763035  1
  O  O304  1  0.75113790  0.25857981  0.61939949  1
  O  O305  1  0.75767078  0.75660450  0.11979219  1
  O  O306  1  0.76016729  0.73845312  0.61927732  1
  O  O307  1  0.24769897  0.23753973  0.37709449  1
  O  O308  1  0.24606584  0.23205367  0.87541752  1
  O  O309  1  0.24455787  0.74982598  0.37769545  1
  O  O310  1  0.24264162  0.74430720  0.88276350  1
  O  O311  1  0.75408855  0.25093021  0.38465130  1
  O  O312  1  0.74561519  0.24555983  0.88556878  1
  O  O313  1  0.74166237  0.74401953  0.38610691  1
  O  O314  1  0.75832861  0.75600361  0.89057533  1
  O  O315  1  0.00516141  0.11692607  0.00604050  1
  O  O316  1  0.01181487  0.11975084  0.49716072  1
  O  O317  1  0.00340824  0.61722073  0.00436294  1
  O  O318  1  0.01578431  0.63072755  0.50403427  1
  O  O319  1  0.51210613  0.12779666  0.00250110  1
  O  O320  1  0.51653466  0.13593483  0.49520001  1
  O  O321  1  0.51724940  0.62479342  -0.00700259  1
  O  O322  1  0.51163562  0.61962703  0.50389111  1
  O  O323  1  0.48857478  0.38223611  0.50659553  1
  O  O324  1  0.48461592  0.37563187  0.99701369  1
  O  O325  1  0.50093527  0.87071649  0.48999154  1
  O  O326  1  0.48734358  0.87244369  1.00374302  1
  O  O327  1  1.00064619  0.37247769  0.48858269  1
  O  O328  1  0.99631332  0.38044415  0.99538615  1
  O  O329  1  0.99755704  0.88055072  0.49316022  1
  O  O330  1  0.98932966  0.88229320  1.00686205  1
  O  O331  1  0.49190527  0.50341266  0.39118197  1
  O  O332  1  0.53699358  0.49021630  0.88337596  1
  O  O333  1  0.49141302  0.99156952  0.37333490  1
  O  O334  1  0.48793999  1.00616441  0.87269413  1
  O  O335  1  0.99445184  0.49206171  0.36921879  1
  O  O336  1  0.99522370  0.49382228  0.88186666  1
  O  O337  1  0.99037933  0.98967177  0.37849640  1
  O  O338  1  0.99136503  1.00372262  0.89011296  1
  O  O339  1  0.00687534  0.00379041  0.11585394  1
  O  O340  1  0.00630178  0.00192063  0.61669440  1
  O  O341  1  -0.00114905  0.50607606  0.11741983  1
  O  O342  1  0.01125157  0.51348179  0.62446947  1
  O  O343  1  0.51352008  -0.00152810  0.13127668  1
  O  O344  1  0.51513974  0.00574603  0.62427095  1
  O  O345  1  0.46216582  0.51396467  0.10391595  1
  O  O346  1  0.50775963  0.50192977  0.61498558  1
  O  O347  1  0.23962977  0.37620758  0.24294311  1
  O  O348  1  0.23595471  0.36780684  0.74970237  1
  O  O349  1  0.23890206  0.86150868  0.25922042  1
  O  O350  1  0.24528441  0.88033959  0.74510245  1
  O  O351  1  0.74094078  0.38117086  0.25565449  1
  O  O352  1  0.75397835  0.37354758  0.73474299  1
  O  O353  1  0.74338399  0.88507430  0.24735044  1
  O  O354  1  0.73910091  0.86772588  0.74802719  1
  O  O355  1  0.25523665  0.12248623  0.25791707  1
  O  O356  1  0.25966546  0.11849176  0.75619349  1
  O  O357  1  0.24476491  0.61372060  0.25855827  1
  O  O358  1  0.26654543  0.63287842  0.75874003  1
  O  O359  1  0.75635289  0.11137060  0.24559415  1
  O  O360  1  0.76438284  0.13229916  0.75136282  1
  O  O361  1  0.75899810  0.61709672  0.26010195  1
  O  O362  1  0.77667153  0.60958052  0.72804753  1
  O  O363  1  0.36784591  0.11769388  0.36712622  1
  O  O364  1  0.36810403  0.11750361  0.86992618  1
  O  O365  1  0.36240391  0.61583844  0.38330755  1
  O  O366  1  0.36911604  0.63143627  0.86424941  1
  O  O367  1  0.88261393  0.11632039  0.36155735  1
  O  O368  1  0.87423881  0.11653711  0.86757256  1
  O  O369  1  0.87508218  0.61990672  0.37180133  1
  O  O370  1  0.86990485  0.61664823  0.86672887  1
  O  O371  1  0.13025145  0.37543273  0.13105900  1
  O  O372  1  0.12643593  0.38477999  0.63184716  1
  O  O373  1  0.12429328  0.88852823  0.12456999  1
  O  O374  1  0.13057028  0.87878124  0.63282446  1
  O  O375  1  0.63328112  0.37577356  0.12164698  1
  O  O376  1  0.63769749  0.37775812  0.61635454  1
  O  O377  1  0.62840092  0.87884449  0.13434030  1
  O  O378  1  0.62248116  0.89096087  0.63087531  1
  O  O379  1  0.12420394  0.25652834  0.25565125  1
  O  O380  1  0.11543465  0.25473922  0.75076857  1
  O  O381  1  0.11799846  0.74394820  0.24841500  1
  O  O382  1  0.12854730  0.75933619  0.75983357  1
  O  O383  1  0.62715861  0.26354254  0.25149537  1
  O  O384  1  0.61504061  0.23726903  0.75652523  1
  O  O385  1  0.63688767  0.76236366  0.26509044  1
  O  O386  1  0.60692815  0.77174702  0.73338418  1
  O  O387  1  0.35930943  0.23464178  0.22824270  1
  O  O388  1  0.38010962  0.23987989  0.74325022  1
  O  O389  1  0.37424352  0.75121368  0.23468556  1
  O  O390  1  0.38369593  0.75060788  0.74479499  1
  O  O391  1  0.87442931  0.24217253  0.24389341  1
  O  O392  1  0.88582489  0.24272057  0.75014760  1
  O  O393  1  0.88064297  0.74616310  0.24827877  1
  O  O394  1  0.87467296  0.73994519  0.74228384  1
  O  O395  1  0.38276506  0.49753352  0.49923338  1
  O  O396  1  0.36564102  0.48028112  0.98417271  1
  O  O397  1  0.37162545  1.00098654  0.48793565  1
  O  O398  1  0.37169267  0.98463583  0.99493854  1
  O  O399  1  0.87169607  0.50034384  0.48876195  1
  O  O400  1  0.88731639  0.49431440  0.98667842  1
  O  O401  1  0.87806238  1.00120586  0.49236597  1
  O  O402  1  0.88164613  0.99216013  0.99786036  1
  O  O403  1  0.11797333  0.00597896  0.00472699  1
  O  O404  1  0.12000944  0.00778613  0.50698459  1
  O  O405  1  0.11268660  0.50419748  0.00006041  1
  O  O406  1  0.13049609  0.51237122  0.50912335  1
  O  O407  1  0.63372793  0.00768712  0.00991400  1
  O  O408  1  0.62900012  0.01449594  0.50537057  1
  O  O409  1  0.64870352  0.49641217  0.01212476  1
  O  O410  1  0.61985384  0.50590103  0.50462320  1
  O  O411  1  0.36350837  0.36340540  0.10884111  1
  O  O412  1  0.37278683  0.36758538  0.62025537  1
  O  O413  1  0.37184455  0.86810569  0.11700120  1
  O  O414  1  0.36768917  0.87008561  0.62471981  1
  O  O415  1  0.88375480  0.36248038  0.11932353  1
  O  O416  1  0.86441330  0.37378429  0.62102849  1
  O  O417  1  0.87089453  0.86901854  0.11871287  1
  O  O418  1  0.88081975  0.85991903  0.62524660  1
  O  O419  1  0.13020352  0.12746226  0.38004284  1
  O  O420  1  0.13181961  0.12046783  0.88301114  1
  O  O421  1  0.13644896  0.62275213  0.38342272  1
  O  O422  1  0.13001965  0.63363951  0.87766563  1
  O  O423  1  0.62594320  0.11630605  0.38481728  1
  O  O424  1  0.62784670  0.12917678  0.88193643  1
  O  O425  1  0.63148690  0.63307158  0.38582477  1
  O  O426  1  0.65170851  0.63972212  0.81719629  1
