# generated using pymatgen
data_V85Zn86O256
_symmetry_space_group_name_H-M   'P 1'
_cell_length_a   16.94485664
_cell_length_b   16.94141629
_cell_length_c   16.93150739
_cell_angle_alpha   89.96804070
_cell_angle_beta   90.00548611
_cell_angle_gamma   89.95949255
_symmetry_Int_Tables_number   1
_chemical_formula_structural   V85Zn86O256
_chemical_formula_sum   'V85 Zn86 O256'
_cell_volume   4860.52363942
_cell_formula_units_Z   1
loop_
 _symmetry_equiv_pos_site_id
 _symmetry_equiv_pos_as_xyz
  1  'x, y, z'
loop_
 _atom_site_type_symbol
 _atom_site_label
 _atom_site_symmetry_multiplicity
 _atom_site_fract_x
 _atom_site_fract_y
 _atom_site_fract_z
 _atom_site_occupancy
  V  V0  1  0.50125246  0.75886688  0.25715485  1
  V  V1  1  0.49762423  0.23696570  0.75342090  1
  V  V2  1  0.49748251  0.87176308  0.87229532  1
  V  V3  1  0.25116495  0.49028685  0.74259670  1
  V  V4  1  0.37152508  0.87434491  -0.00063709  1
  V  V5  1  0.62673181  0.74761878  0.87056934  1
  V  V6  1  0.12495914  0.25381726  0.86837069  1
  V  V7  1  0.00800573  -0.00471369  -0.00635734  1
  V  V8  1  0.25540967  -0.00231244  0.74276027  1
  V  V9  1  0.50088719  0.00003962  0.00202598  1
  V  V10  1  0.12135599  0.12515354  0.50230986  1
  V  V11  1  0.87546182  0.37698673  0.50230672  1
  V  V12  1  0.24481415  0.87654703  0.14043311  1
  V  V13  1  -0.00711822  0.00323661  0.50469938  1
  V  V14  1  0.12379839  0.00439996  0.62509979  1
  V  V15  1  0.24870652  0.63217499  0.37692011  1
  V  V16  1  0.87442714  0.00094131  0.37591863  1
  V  V17  1  0.74718662  0.75476471  0.00242893  1
  V  V18  1  0.87537457  0.50219720  0.37562589  1
  V  V19  1  -0.00968767  0.25008249  0.24143619  1
  V  V20  1  -0.01665456  0.49661671  -0.00487101  1
  V  V21  1  -0.00021661  0.62837436  0.12150703  1
  V  V22  1  0.62454048  0.50054748  0.12796238  1
  V  V23  1  -0.00791397  0.74380021  0.73048812  1
  V  V24  1  0.12111283  0.63153980  0.50553926  1
  V  V25  1  0.37058815  0.37452642  0.50559366  1
  V  V26  1  0.25041670  0.62436962  0.87307446  1
  V  V27  1  0.62262819  0.88107021  0.74186134  1
  V  V28  1  0.01324080  0.87339153  0.36955729  1
  V  V29  1  0.37555219  0.62387786  0.74581111  1
  V  V30  1  0.12258062  0.49361304  0.62340485  1
  V  V31  1  0.87368363  0.61735722  0.74152303  1
  V  V32  1  0.00023299  0.38214960  0.37533350  1
  V  V33  1  0.63443411  0.87609797  0.25159880  1
  V  V34  1  0.49853283  0.49924852  0.00169305  1
  V  V35  1  0.62802744  0.11528693  0.50668338  1
  V  V36  1  0.76623437  0.25750053  0.00201809  1
  V  V37  1  0.37958269  0.00754387  0.86900939  1
  V  V38  1  0.87427543  0.63028224  0.24829405  1
  V  V39  1  0.37775849  0.62625013  0.25435637  1
  V  V40  1  0.24902487  0.75223623  -0.00123242  1
  V  V41  1  0.75264057  0.37254394  0.62979904  1
  V  V42  1  0.37114394  0.75610300  0.62353181  1
  V  V43  1  0.25156056  0.50004766  0.24895770  1
  V  V44  1  0.25156381  0.12485289  0.86818292  1
  V  V45  1  0.32278046  0.19054349  0.18432627  1
  V  V46  1  0.62754650  0.50001489  0.62889495  1
  V  V47  1  0.49899380  0.24881142  0.24875754  1
  V  V48  1  0.87312018  0.87788308  -0.00464174  1
  V  V49  1  0.87262909  0.85822217  0.50120884  1
  V  V50  1  0.89238622  0.24057216  0.63575378  1
  V  V51  1  0.24827387  0.75928681  0.49936984  1
  V  V52  1  0.12955621  0.49664852  0.11907385  1
  V  V53  1  0.37435714  0.49838289  0.87536623  1
  V  V54  1  0.50141637  0.62830525  0.12802631  1
  V  V55  1  0.62517366  0.37363382  0.25278489  1
  V  V56  1  -0.01110368  0.37598704  0.87067198  1
  V  V57  1  0.74348903  0.86661825  0.61549779  1
  V  V58  1  0.74965915  0.50097940  0.25156374  1
  V  V59  1  0.37289181  0.24540060  0.62983010  1
  V  V60  1  0.12510782  0.62244311  -0.00445544  1
  V  V61  1  0.37505765  0.00630876  0.35925320  1
  V  V62  1  0.25516456  0.25093039  -0.00090916  1
  V  V63  1  0.50237647  0.11759456  0.62650593  1
  V  V64  1  0.62461575  0.25010518  0.88148800  1
  V  V65  1  0.12823453  0.37861989  0.24792605  1
  V  V66  1  0.62955269  0.13014501  0.00377677  1
  V  V67  1  0.75353191  0.12580006  0.37431153  1
  V  V68  1  0.12266010  0.25065558  0.37682691  1
  V  V69  1  0.24795368  0.25254400  0.50547543  1
  V  V70  1  0.50089842  0.49761491  0.50080303  1
  V  V71  1  0.12799640  0.87179511  0.74031982  1
  V  V72  1  0.49905706  0.12334098  0.13290788  1
  V  V73  1  0.76464828  0.37370533  0.12517930  1
  V  V74  1  -0.00789180  0.87443074  0.86554526  1
  V  V75  1  0.38119314  0.88180782  0.49635139  1
  V  V76  1  0.12111394  -0.00351847  0.13819986  1
  V  V77  1  0.63014822  0.75517882  0.38025469  1
  V  V78  1  0.63558389  -0.00377342  0.12629676  1
  V  V79  1  0.74907525  0.24921757  0.50359742  1
  V  V80  1  0.87219287  0.75966784  0.12626108  1
  V  V81  1  0.62222793  0.37175008  0.75209290  1
  V  V82  1  0.36945187  0.37483037  0.01540095  1
  V  V83  1  0.63290451  0.62797120  0.50186844  1
  V  V84  1  0.12366775  0.74934355  0.86913906  1
  Zn  Zn85  1  0.76039013  0.49171101  0.76528349  1
  Zn  Zn86  1  0.49979202  0.74667615  0.74642245  1
  Zn  Zn87  1  0.87009696  0.10359572  0.78560185  1
  Zn  Zn88  1  0.49555483  0.37269955  0.87619118  1
  Zn  Zn89  1  0.75914314  -0.00635988  0.75606798  1
  Zn  Zn90  1  0.37487734  0.75318778  0.12742285  1
  Zn  Zn91  1  0.62760339  0.62353126  -0.00286511  1
  Zn  Zn92  1  0.86568237  0.12730719  0.22310410  1
  Zn  Zn93  1  0.50011703  0.62493200  0.62401164  1
  Zn  Zn94  1  0.01951253  0.76721523  0.24384534  1
  Zn  Zn95  1  0.75563180  0.63080125  0.38318024  1
  Zn  Zn96  1  0.50479310  -0.00243283  0.49632615  1
  Zn  Zn97  1  -0.00316980  0.50723905  0.50587199  1
  Zn  Zn98  1  0.12491914  0.36935401  0.74572366  1
  Zn  Zn99  1  0.24985224  0.12162836  0.36751625  1
  Zn  Zn100  1  0.37549986  0.49947251  0.37865244  1
  Zn  Zn101  1  0.75403643  0.00029628  0.24674406  1
  Zn  Zn102  1  -0.00804193  0.13696939  0.10413836  1
  Zn  Zn103  1  0.49931506  0.37118847  0.37793346  1
  Zn  Zn104  1  0.12910740  0.12139377  -0.00327938  1
  Zn  Zn105  1  0.76525990  0.61903594  0.87990925  1
  Zn  Zn106  1  0.62317633  0.24724573  0.37702768  1
  Zn  Zn107  1  0.15964442  0.18659998  0.18329410  1
  Zn  Zn108  1  0.18781296  0.18327235  0.68729323  1
  Zn  Zn109  1  0.18878858  0.68937952  0.18524715  1
  Zn  Zn110  1  0.19015549  0.68491610  0.68327128  1
  Zn  Zn111  1  0.68828817  0.18931019  0.18516220  1
  Zn  Zn112  1  0.69034647  0.18381736  0.69462127  1
  Zn  Zn113  1  0.68884742  0.69141589  0.18766230  1
  Zn  Zn114  1  0.69381432  0.69047020  0.68625758  1
  Zn  Zn115  1  0.30825163  0.31743320  0.32396934  1
  Zn  Zn116  1  0.31718083  0.31305255  0.81518277  1
  Zn  Zn117  1  0.31633448  0.81431726  0.31852562  1
  Zn  Zn118  1  0.31187248  0.81413110  0.80947915  1
  Zn  Zn119  1  0.81236897  0.31284023  0.31436050  1
  Zn  Zn120  1  0.81123845  0.30303204  0.81461130  1
  Zn  Zn121  1  0.81365864  0.81373717  0.31510708  1
  Zn  Zn122  1  0.81018985  0.80892822  0.80600509  1
  Zn  Zn123  1  0.18879255  0.44089108  0.43734358  1
  Zn  Zn124  1  0.18977761  0.43460085  0.93473272  1
  Zn  Zn125  1  0.19293344  0.94295001  0.43532389  1
  Zn  Zn126  1  0.18703703  0.93451068  0.93055120  1
  Zn  Zn127  1  0.68860468  0.43851131  0.43821272  1
  Zn  Zn128  1  0.68693149  0.43559630  0.93963786  1
  Zn  Zn129  1  0.69069388  0.93627495  0.43634131  1
  Zn  Zn130  1  0.68970472  0.93773045  0.93374319  1
  Zn  Zn131  1  0.30584017  0.05353331  0.05711017  1
  Zn  Zn132  1  0.31100818  0.06631522  0.56220541  1
  Zn  Zn133  1  0.31392330  0.56496485  0.06535681  1
  Zn  Zn134  1  0.30990545  0.56389292  0.56331961  1
  Zn  Zn135  1  0.84024224  0.08995274  0.00900783  1
  Zn  Zn136  1  0.79858970  0.07355860  0.60216043  1
  Zn  Zn137  1  0.80827476  0.56860121  0.06483495  1
  Zn  Zn138  1  0.81487793  0.56380365  0.57002577  1
  Zn  Zn139  1  0.43776034  0.43717644  0.19088381  1
  Zn  Zn140  1  0.43970652  0.43182215  0.68569737  1
  Zn  Zn141  1  0.43942373  0.93475192  0.18574161  1
  Zn  Zn142  1  0.43738518  0.93496850  0.68438457  1
  Zn  Zn143  1  0.94254583  0.44472238  0.18859859  1
  Zn  Zn144  1  0.94099298  0.43599395  0.68861584  1
  Zn  Zn145  1  0.93509251  0.94387205  0.18579961  1
  Zn  Zn146  1  0.93105020  0.93837022  0.68330241  1
  Zn  Zn147  1  0.05677561  0.06680643  0.31653706  1
  Zn  Zn148  1  0.06075213  0.06185326  0.80701881  1
  Zn  Zn149  1  0.07692028  0.59412249  0.29930323  1
  Zn  Zn150  1  0.05838696  0.56053196  0.80883425  1
  Zn  Zn151  1  0.56176833  0.06014058  0.31707347  1
  Zn  Zn152  1  0.59271371  0.05121792  0.82231329  1
  Zn  Zn153  1  0.56400472  0.56555949  0.31837603  1
  Zn  Zn154  1  0.56422491  0.56100956  0.81390740  1
  Zn  Zn155  1  0.43653347  0.18240397  0.43683181  1
  Zn  Zn156  1  0.43901922  0.18748827  0.94274901  1
  Zn  Zn157  1  0.44115301  0.68711602  0.43934524  1
  Zn  Zn158  1  0.43678077  0.68662257  0.93853979  1
  Zn  Zn159  1  0.93530269  0.19025384  0.44096832  1
  Zn  Zn160  1  0.95462752  0.17318608  0.89983632  1
  Zn  Zn161  1  0.94507021  0.68960461  0.43104294  1
  Zn  Zn162  1  0.93718424  0.68974186  0.93195760  1
  Zn  Zn163  1  0.06515336  0.31648593  0.05488430  1
  Zn  Zn164  1  0.06290716  0.31823870  0.56247629  1
  Zn  Zn165  1  0.06320657  0.81389776  0.06004491  1
  Zn  Zn166  1  0.06338065  0.81832153  0.55739708  1
  Zn  Zn167  1  0.55952467  0.31472378  0.06990754  1
  Zn  Zn168  1  0.56210998  0.30856390  0.56524157  1
  Zn  Zn169  1  0.56375404  0.81422201  0.06395054  1
  Zn  Zn170  1  0.55751396  0.80879670  0.56122288  1
  O  O171  1  0.11511558  0.10863534  0.11534253  1
  O  O172  1  0.12267197  0.11333735  0.62012159  1
  O  O173  1  0.12051270  0.61412856  0.11382566  1
  O  O174  1  0.13151809  0.61544899  0.61103403  1
  O  O175  1  0.61529832  0.11891862  0.12274567  1
  O  O176  1  0.61591989  0.13269296  0.61655980  1
  O  O177  1  0.61438991  0.62183896  0.12521443  1
  O  O178  1  0.62466653  0.61656985  0.62231996  1
  O  O179  1  0.37885053  0.37848101  0.39040860  1
  O  O180  1  0.37689227  0.38428170  0.88562995  1
  O  O181  1  0.37277084  0.88698237  0.38813987  1
  O  O182  1  0.38099405  0.88191259  0.87835546  1
  O  O183  1  0.88064259  0.38100815  0.38097638  1
  O  O184  1  0.88999024  0.36980476  0.86995902  1
  O  O185  1  0.87724858  0.88411323  0.38385764  1
  O  O186  1  0.88380078  0.86135814  0.88141037  1
  O  O187  1  0.26582980  0.00424849  0.37528093  1
  O  O188  1  0.25878331  0.00586534  0.86702992  1
  O  O189  1  0.25215191  0.50768112  0.36396664  1
  O  O190  1  0.25599239  0.50701618  0.86711776  1
  O  O191  1  0.75820500  0.00787366  0.37274748  1
  O  O192  1  0.69862560  0.01061881  0.85264086  1
  O  O193  1  0.75770683  0.50319423  0.36935855  1
  O  O194  1  0.73134675  0.51057014  0.87283019  1
  O  O195  1  0.24314482  0.50810138  0.13908890  1
  O  O196  1  0.24059408  0.50332337  0.63275522  1
  O  O197  1  0.23488735  0.98756473  0.12160755  1
  O  O198  1  0.24292281  1.00636852  0.63630917  1
  O  O199  1  0.74265832  0.49532285  0.13033021  1
  O  O200  1  0.74320739  0.48670654  0.62912342  1
  O  O201  1  0.73461294  1.00475095  0.12741962  1
  O  O202  1  0.75607851  0.97205402  0.62827308  1
  O  O203  1  0.00799851  0.37046605  0.25400809  1
  O  O204  1  0.00674485  0.38189033  0.76695077  1
  O  O205  1  -0.00227392  0.88044530  0.26435847  1
  O  O206  1  0.00630928  0.86273293  0.75038839  1
  O  O207  1  0.50671805  0.36787061  0.25280704  1
  O  O208  1  0.50790285  0.36142016  0.74938546  1
  O  O209  1  0.50768610  0.86242254  0.24602932  1
  O  O210  1  0.49943362  0.86716508  0.75696272  1
  O  O211  1  0.50326677  0.13082312  0.24057419  1
  O  O212  1  0.51131543  0.13403448  0.74497475  1
  O  O213  1  0.49717090  0.63163823  0.24561272  1
  O  O214  1  0.48585385  0.62376952  0.74961745  1
  O  O215  1  0.99848918  0.14499315  0.25156102  1
  O  O216  1  0.98178799  0.13549122  0.79165491  1
  O  O217  1  0.98025162  0.60948056  0.23572628  1
  O  O218  1  0.99606184  0.63791297  0.74966359  1
  O  O219  1  0.36476471  0.25850845  -0.00235233  1
  O  O220  1  0.36671333  0.25458213  0.50492479  1
  O  O221  1  0.36812417  0.75606183  0.00259432  1
  O  O222  1  0.37080946  0.76002360  0.50266057  1
  O  O223  1  0.86204405  0.25626372  0.00179138  1
  O  O224  1  0.86580232  0.25921944  0.50711084  1
  O  O225  1  0.86972791  0.75772248  0.00616256  1
  O  O226  1  0.87640887  0.76011618  0.49112493  1
  O  O227  1  0.12867080  0.24525114  0.49928441  1
  O  O228  1  0.14084622  0.24967779  0.99419706  1
  O  O229  1  0.13342299  0.74073285  0.50645650  1
  O  O230  1  0.12927672  0.74353807  0.99104519  1
  O  O231  1  0.63692239  0.24574182  0.49885495  1
  O  O232  1  0.61763700  0.24654687  0.99717368  1
  O  O233  1  0.61910629  0.74027757  0.49224347  1
  O  O234  1  0.63235313  0.75295667  0.99319650  1
  O  O235  1  0.49799726  0.24217230  0.13891310  1
  O  O236  1  0.49292873  0.24125358  0.63281400  1
  O  O237  1  0.49942191  0.74246233  0.13276324  1
  O  O238  1  0.48504223  0.74458572  0.62512058  1
  O  O239  1  1.01058384  0.25165382  0.13677564  1
  O  O240  1  0.99026046  0.26174008  0.62860948  1
  O  O241  1  0.99384330  0.74575458  0.12643922  1
  O  O242  1  1.00574666  0.75200026  0.63297662  1
  O  O243  1  0.00221515  0.26324932  0.36743617  1
  O  O244  1  0.01539561  0.27027562  0.89407582  1
  O  O245  1  -0.00029893  0.77010022  0.37093979  1
  O  O246  1  0.00946861  0.75842482  0.86598853  1
  O  O247  1  0.50020898  0.24780471  0.36242502  1
  O  O248  1  0.50155802  0.25172201  0.86850778  1
  O  O249  1  0.51294327  0.74240579  0.36539390  1
  O  O250  1  0.50199545  0.76043468  0.87598590  1
  O  O251  1  0.23577139  0.13230324  0.50020980  1
  O  O252  1  0.25269788  0.12989732  0.98723963  1
  O  O253  1  0.24664064  0.63546913  0.49434165  1
  O  O254  1  0.24631219  0.63164259  0.99429252  1
  O  O255  1  0.74489978  0.13245965  0.50248504  1
  O  O256  1  0.73273343  0.14444473  1.01191852  1
  O  O257  1  0.73689806  0.61720090  0.50295294  1
  O  O258  1  0.74727480  0.63985134  0.99802295  1
  O  O259  1  0.25797172  0.36531302  -0.00125795  1
  O  O260  1  0.25768691  0.36646859  0.49685789  1
  O  O261  1  0.25402125  0.86834847  0.00090829  1
  O  O262  1  0.25696667  0.86355904  0.49518149  1
  O  O263  1  0.74399784  0.36606795  0.01222512  1
  O  O264  1  0.75386725  0.36893285  0.50798573  1
  O  O265  1  0.75819646  0.86667205  -0.00834842  1
  O  O266  1  0.76094019  0.87275593  0.50376366  1
  O  O267  1  0.13072124  0.49814985  0.24224783  1
  O  O268  1  0.13356264  0.50351718  0.73750958  1
  O  O269  1  0.11732035  1.00680744  0.23659218  1
  O  O270  1  0.12978662  0.99371212  0.74278062  1
  O  O271  1  0.62970228  0.49506420  0.24863535  1
  O  O272  1  0.61931187  0.49223201  0.73852659  1
  O  O273  1  0.62396887  0.99185717  0.24514544  1
  O  O274  1  0.60420772  0.97901973  0.73177701  1
  O  O275  1  0.37816123  -0.00404760  0.26056022  1
  O  O276  1  0.36691525  -0.00765710  0.75724422  1
  O  O277  1  0.36794072  0.50517103  0.25339969  1
  O  O278  1  0.37010856  0.50380415  0.75116042  1
  O  O279  1  0.87512832  0.00632167  0.26234277  1
  O  O280  1  0.87499689  -0.01050644  0.76150968  1
  O  O281  1  0.86680095  0.50570897  0.25530237  1
  O  O282  1  0.87701947  0.51159363  0.74747298  1
  O  O283  1  0.11706177  0.37366156  0.36935145  1
  O  O284  1  0.12225686  0.36817417  0.87145638  1
  O  O285  1  0.11166261  0.88243544  0.38038281  1
  O  O286  1  0.12068645  0.86706223  0.85896246  1
  O  O287  1  0.62459364  0.37302988  0.36419154  1
  O  O288  1  0.61691153  0.36494068  0.87189971  1
  O  O289  1  0.62558457  0.86814980  0.36777614  1
  O  O290  1  0.61422256  0.86366898  0.86535825  1
  O  O291  1  0.37662723  0.12137221  0.12752961  1
  O  O292  1  0.38378826  0.13832285  0.61889594  1
  O  O293  1  0.38653725  0.62805019  0.13331414  1
  O  O294  1  0.37621332  0.63050502  0.63170184  1
  O  O295  1  0.88304115  0.11166796  0.11323365  1
  O  O296  1  0.88912405  0.14318475  0.60934419  1
  O  O297  1  0.87803789  0.63846935  0.12856456  1
  O  O298  1  0.87913937  0.62628659  0.63955340  1
  O  O299  1  0.25500117  0.23789101  0.12146201  1
  O  O300  1  0.25679297  0.24413392  0.61523727  1
  O  O301  1  0.24936104  0.76034940  0.11895616  1
  O  O302  1  0.26217956  0.74480427  0.61456242  1
  O  O303  1  0.74497909  0.26210820  0.11497309  1
  O  O304  1  0.75335505  0.26075467  0.61953129  1
  O  O305  1  0.75828106  0.75009202  0.11510876  1
  O  O306  1  0.75775956  0.76622466  0.62852682  1
  O  O307  1  0.24121267  0.24719496  0.38794975  1
  O  O308  1  0.24911664  0.24273427  0.88070573  1
  O  O309  1  0.25390965  0.74101419  0.38304592  1
  O  O310  1  0.24369682  0.74391512  0.87671166  1
  O  O311  1  0.75094676  0.24393073  0.38586860  1
  O  O312  1  0.73793136  0.25996341  0.89309138  1
  O  O313  1  0.73577598  0.74708570  0.36951260  1
  O  O314  1  0.74018893  0.74728936  0.88044972  1
  O  O315  1  0.00861885  0.10858031  -0.01122814  1
  O  O316  1  0.01269952  0.11766105  0.49051321  1
  O  O317  1  0.00463448  0.61591318  0.00054521  1
  O  O318  1  0.01748878  0.62504540  0.49311311  1
  O  O319  1  0.50537571  0.12214509  0.01439865  1
  O  O320  1  0.51172784  0.12800686  0.50823546  1
  O  O321  1  0.49784093  0.61509713  0.00973721  1
  O  O322  1  0.51080979  0.61469522  0.50263896  1
  O  O323  1  0.49504336  0.38007973  0.50028384  1
  O  O324  1  0.49234430  0.38728700  1.00476736  1
  O  O325  1  0.48535723  0.87772637  0.50121477  1
  O  O326  1  0.49371929  0.87975682  0.99323165  1
  O  O327  1  0.99456218  0.38033676  0.49071979  1
  O  O328  1  1.00156913  0.39149051  0.99348341  1
  O  O329  1  0.99009402  0.88207002  0.49037593  1
  O  O330  1  0.99474652  0.87406371  0.98725638  1
  O  O331  1  0.50051846  0.49788098  0.38986466  1
  O  O332  1  0.49372522  0.49935740  0.88609737  1
  O  O333  1  0.48275012  1.00752261  0.38134185  1
  O  O334  1  0.49688443  0.98979883  0.87848604  1
  O  O335  1  0.99416377  0.49008749  0.37216635  1
  O  O336  1  1.00482311  0.49062803  0.88691555  1
  O  O337  1  0.99402404  0.99429220  0.38290247  1
  O  O338  1  1.01263008  0.97923016  0.87942506  1
  O  O339  1  0.01319325  -0.01098715  0.11296531  1
  O  O340  1  0.00719638  -0.00586102  0.61139759  1
  O  O341  1  0.00753560  0.50535309  0.11084901  1
  O  O342  1  0.01731669  0.49820577  0.62418729  1
  O  O343  1  0.50393242  0.00716976  0.12071597  1
  O  O344  1  0.48979481  0.01517812  0.61962820  1
  O  O345  1  0.50381933  0.50867118  0.12290775  1
  O  O346  1  0.50830005  0.49880781  0.61607384  1
  O  O347  1  0.23646754  0.38352242  0.25715778  1
  O  O348  1  0.25031389  0.38781737  0.75474446  1
  O  O349  1  0.25083992  0.86696125  0.23880156  1
  O  O350  1  0.23997386  0.88516139  0.75346643  1
  O  O351  1  0.74261801  0.37846463  0.24555474  1
  O  O352  1  0.74257536  0.37337148  0.74528978  1
  O  O353  1  0.73851038  0.87747405  0.25106948  1
  O  O354  1  0.73703508  0.87183227  0.74199233  1
  O  O355  1  0.25544669  0.14094024  0.24230499  1
  O  O356  1  0.25072226  0.11527810  0.76070554  1
  O  O357  1  0.25935882  0.62046665  0.25823580  1
  O  O358  1  0.26060801  0.61712432  0.75306493  1
  O  O359  1  0.75243058  0.12741523  0.25973856  1
  O  O360  1  0.76866942  0.10835786  0.71683530  1
  O  O361  1  0.76097214  0.62064919  0.24819324  1
  O  O362  1  0.76432089  0.62304913  0.74936570  1
  O  O363  1  0.36831614  0.11251954  0.37714461  1
  O  O364  1  0.37406687  0.11217691  0.87835298  1
  O  O365  1  0.36774255  0.62188113  0.37351058  1
  O  O366  1  0.37029220  0.61907785  0.86756507  1
  O  O367  1  0.86337107  0.12073323  0.38017871  1
  O  O368  1  0.85241974  0.12768816  0.90130913  1
  O  O369  1  0.87556626  0.62223967  0.36636895  1
  O  O370  1  0.87788339  0.63499026  0.85391738  1
  O  O371  1  0.12162888  0.38901894  0.13202476  1
  O  O372  1  0.12903934  0.38846684  0.62644574  1
  O  O373  1  0.13405149  0.88151550  0.12587194  1
  O  O374  1  0.12322431  0.88589879  0.63306226  1
  O  O375  1  0.62752832  0.38208562  0.13907625  1
  O  O376  1  0.63230638  0.37888125  0.63099568  1
  O  O377  1  0.61874659  0.88596109  0.13499799  1
  O  O378  1  0.63385287  0.86407034  0.62623225  1
  O  O379  1  0.11631782  0.26217118  0.25667004  1
  O  O380  1  0.13436481  0.25076010  0.76366466  1
  O  O381  1  0.10809914  0.70055316  0.25852870  1
  O  O382  1  0.12121077  0.75458236  0.74855368  1
  O  O383  1  0.61680873  0.25777258  0.25173437  1
  O  O384  1  0.62181409  0.25182046  0.76113928  1
  O  O385  1  0.62014088  0.75753397  0.25528995  1
  O  O386  1  0.62024818  0.75362252  0.75536747  1
  O  O387  1  0.37589154  0.25500511  0.24723354  1
  O  O388  1  0.38387089  0.25305411  0.74197011  1
  O  O389  1  0.38505875  0.74605822  0.25147912  1
  O  O390  1  0.37217263  0.74202190  0.74131887  1
  O  O391  1  0.88762806  0.25234936  0.24952938  1
  O  O392  1  0.86889415  0.24552847  0.73547755  1
  O  O393  1  0.87643402  0.74492487  0.24265579  1
  O  O394  1  0.88913180  0.74738510  0.74474761  1
  O  O395  1  0.38245938  0.49221464  0.50477674  1
  O  O396  1  0.37904477  0.49591472  0.99742306  1
  O  O397  1  0.37125270  0.98744587  0.50236262  1
  O  O398  1  0.38088081  0.99329827  0.99057123  1
  O  O399  1  0.87707770  0.49673517  0.49499964  1
  O  O400  1  0.88545292  0.50657061  1.00256806  1
  O  O401  1  0.88320702  0.99836025  0.48961439  1
  O  O402  1  0.89038253  0.98167761  0.99892346  1
  O  O403  1  0.11782785  -0.00707822  0.00301885  1
  O  O404  1  0.12092854  0.00648323  0.50677014  1
  O  O405  1  0.12648318  0.50430051  0.00535970  1
  O  O406  1  0.12714948  0.50687692  0.51127672  1
  O  O407  1  0.61856648  0.00875868  0.00870278  1
  O  O408  1  0.62525363  0.01134396  0.49694029  1
  O  O409  1  0.61367228  0.50150302  0.00989632  1
  O  O410  1  0.61989126  0.50201605  0.51112032  1
  O  O411  1  0.37353970  0.38063577  0.11502849  1
  O  O412  1  0.37979770  0.36156638  0.61399114  1
  O  O413  1  0.36164991  0.87653993  0.11889468  1
  O  O414  1  0.37411573  0.86733853  0.61227106  1
  O  O415  1  0.86321788  0.38324809  0.13239219  1
  O  O416  1  0.86861019  0.37122431  0.62189463  1
  O  O417  1  0.88041020  0.86524633  0.11695317  1
  O  O418  1  0.87368245  0.87260857  0.60446697  1
  O  O419  1  0.12820036  0.13276031  0.38120213  1
  O  O420  1  0.13809829  0.13193472  0.87664303  1
  O  O421  1  0.14038064  0.61383674  0.39485262  1
  O  O422  1  0.12991240  0.62887910  0.87630590  1
  O  O423  1  0.63838224  0.12597578  0.38314412  1
  O  O424  1  0.61218836  0.14245645  0.89078058  1
  O  O425  1  0.63022893  0.63185712  0.38517327  1
  O  O426  1  0.61520428  0.64094934  0.87812360  1
