# generated using pymatgen
data_V85Zn86O256
_symmetry_space_group_name_H-M   'P 1'
_cell_length_a   16.94835792
_cell_length_b   16.96039042
_cell_length_c   16.95892155
_cell_angle_alpha   89.95636341
_cell_angle_beta   89.96074762
_cell_angle_gamma   90.04527394
_symmetry_Int_Tables_number   1
_chemical_formula_structural   V85Zn86O256
_chemical_formula_sum   'V85 Zn86 O256'
_cell_volume   4874.85093133
_cell_formula_units_Z   1
loop_
 _symmetry_equiv_pos_site_id
 _symmetry_equiv_pos_as_xyz
  1  'x, y, z'
loop_
 _atom_site_type_symbol
 _atom_site_label
 _atom_site_symmetry_multiplicity
 _atom_site_fract_x
 _atom_site_fract_y
 _atom_site_fract_z
 _atom_site_occupancy
  V  V0  1  0.87206169  0.12663362  0.75207241  1
  V  V1  1  0.57320297  0.05935051  0.58197621  1
  V  V2  1  0.24411065  0.49822768  0.74706277  1
  V  V3  1  0.32112003  0.17073947  0.30668343  1
  V  V4  1  0.87175826  0.25171611  0.62870582  1
  V  V5  1  0.25261411  0.37788972  0.12258348  1
  V  V6  1  0.62407299  0.62761995  -0.00471639  1
  V  V7  1  0.37546990  0.50437383  0.37961446  1
  V  V8  1  0.50521786  0.49742186  0.00338328  1
  V  V9  1  0.25264172  0.87455801  0.12574422  1
  V  V10  1  -0.01091214  0.62489181  0.12190768  1
  V  V11  1  0.28327380  0.12063440  0.86924552  1
  V  V12  1  0.87264031  0.86813219  0.01569165  1
  V  V13  1  0.25105543  0.75161614  0.00176876  1
  V  V14  1  0.01087862  0.62401158  0.61995307  1
  V  V15  1  -0.00931226  0.74844868  0.24416337  1
  V  V16  1  0.11938050  0.35734439  0.24980637  1
  V  V17  1  0.12221311  0.62441485  0.00278719  1
  V  V18  1  0.50560224  0.61909628  0.12657518  1
  V  V19  1  0.75242203  0.87462311  0.62511396  1
  V  V20  1  0.37816609  0.00003009  0.37606045  1
  V  V21  1  0.37615562  0.37412541  0.00166569  1
  V  V22  1  0.50588207  0.24452969  0.25336080  1
  V  V23  1  0.12864118  0.88073224  0.75014313  1
  V  V24  1  0.01246846  0.25659118  0.75385929  1
  V  V25  1  0.75068082  -0.00231005  0.24093794  1
  V  V26  1  0.74800994  0.12412143  0.37379949  1
  V  V27  1  0.37457796  0.63292722  0.75164157  1
  V  V28  1  0.62782916  0.25133927  0.87790958  1
  V  V29  1  0.00758076  0.50084042  0.49718648  1
  V  V30  1  0.49263828  0.37127974  0.87035225  1
  V  V31  1  0.37584028  0.75771980  0.62175132  1
  V  V32  1  0.62924053  0.87522200  0.24226637  1
  V  V33  1  -0.00540830  0.87279997  0.37550476  1
  V  V34  1  0.37614361  0.75037799  0.12679392  1
  V  V35  1  0.75036560  0.75256678  0.01505582  1
  V  V36  1  0.12661224  0.13113252  0.48220911  1
  V  V37  1  -0.00487147  -0.00346102  0.49789908  1
  V  V38  1  0.62649626  0.62797845  0.49989340  1
  V  V39  1  0.50227917  0.63251697  0.62451500  1
  V  V40  1  0.50144589  0.00341926  -0.00402695  1
  V  V41  1  0.75039731  0.38331784  0.10862149  1
  V  V42  1  -0.00574763  0.12624309  0.62147206  1
  V  V43  1  0.50100521  0.75082909  0.24993846  1
  V  V44  1  0.24435173  0.74620938  0.50044561  1
  V  V45  1  0.74913453  0.63337033  0.87354406  1
  V  V46  1  0.62734076  0.24770714  0.38182476  1
  V  V47  1  0.51037861  0.75046683  0.75703608  1
  V  V48  1  0.12095277  -0.00317276  0.12841287  1
  V  V49  1  0.37452740  0.62457952  0.25105189  1
  V  V50  1  0.87199420  -0.00109858  0.37958865  1
  V  V51  1  0.12462822  0.75456056  0.87522386  1
  V  V52  1  0.74486445  0.24988728  0.50211789  1
  V  V53  1  0.87168886  -0.00310505  0.87769799  1
  V  V54  1  0.50237574  0.87855221  0.38037315  1
  V  V55  1  0.87310359  0.50021950  0.36589119  1
  V  V56  1  0.63284712  0.87489614  0.75464432  1
  V  V57  1  0.87968119  0.75100779  0.61932165  1
  V  V58  1  0.64508467  0.38238361  0.25105739  1
  V  V59  1  0.25368770  -0.00164880  0.25555970  1
  V  V60  1  0.86747027  0.25223137  0.10648967  1
  V  V61  1  0.88374897  0.13150600  0.24221424  1
  V  V62  1  0.63031331  0.12986649  0.00389938  1
  V  V63  1  0.50296189  0.37579105  0.37596378  1
  V  V64  1  0.37750566  0.24326975  0.12166098  1
  V  V65  1  0.74916732  0.50168423  0.75089213  1
  V  V66  1  -0.00156020  0.87373595  0.87798294  1
  V  V67  1  0.25074511  0.63195159  0.87545689  1
  V  V68  1  0.61552615  0.36976834  0.74787024  1
  V  V69  1  0.87692899  0.37845204  0.50145800  1
  V  V70  1  0.37349849  0.22218882  0.65986783  1
  V  V71  1  0.12394245  0.00409184  0.62413642  1
  V  V72  1  0.37415393  0.36675604  0.50471402  1
  V  V73  1  -0.00174202  0.00533395  0.00656978  1
  V  V74  1  0.51198535  0.87414851  0.87813293  1
  V  V75  1  0.37627350  0.87952399  -0.00681735  1
  V  V76  1  0.87923236  0.48987811  0.87819682  1
  V  V77  1  -0.00035800  0.74969305  0.74919986  1
  V  V78  1  0.62607490  0.75175571  0.37581275  1
  V  V79  1  0.74548894  0.37665342  0.62574968  1
  V  V80  1  0.62269512  0.50130113  0.62461179  1
  V  V81  1  0.24352398  0.50443832  0.25115624  1
  V  V82  1  0.74981086  0.62125775  0.36750520  1
  V  V83  1  0.75488565  0.75446809  0.49810738  1
  V  V84  1  0.11933622  0.74030506  0.37888246  1
  Zn  Zn85  1  0.27178574  0.01679035  0.74141240  1
  Zn  Zn86  1  0.24179162  0.62273455  0.37962505  1
  Zn  Zn87  1  0.01233685  0.35945036  0.37615455  1
  Zn  Zn88  1  0.12508837  0.87008894  0.25352572  1
  Zn  Zn89  1  0.12020587  0.50099039  0.12657594  1
  Zn  Zn90  1  0.37194369  0.87999286  0.49691579  1
  Zn  Zn91  1  -0.00588362  0.49166132  0.00057082  1
  Zn  Zn92  1  0.15765197  0.19327988  -0.04509091  1
  Zn  Zn93  1  0.04811078  0.36000488  0.87339836  1
  Zn  Zn94  1  0.75221157  0.13199504  0.87974353  1
  Zn  Zn95  1  0.37500374  0.50161879  0.87487294  1
  Zn  Zn96  1  0.49879957  0.50098669  0.50199891  1
  Zn  Zn97  1  0.62518754  0.00032880  0.12393294  1
  Zn  Zn98  1  0.24844428  0.87958588  0.62035102  1
  Zn  Zn99  1  0.50053161  0.12094570  0.12976738  1
  Zn  Zn100  1  0.87721017  0.62198579  0.74878780  1
  Zn  Zn101  1  0.25145192  0.24415592  0.49236300  1
  Zn  Zn102  1  0.75302044  -0.00041666  0.74948148  1
  Zn  Zn103  1  0.86651991  0.62264403  0.23986887  1
  Zn  Zn104  1  0.24700245  0.36367466  0.62438414  1
  Zn  Zn105  1  0.02366962  0.15799979  0.11351379  1
  Zn  Zn106  1  0.12599277  0.49253571  0.62274692  1
  Zn  Zn107  1  0.17899346  0.19926210  0.15120660  1
  Zn  Zn108  1  0.19197706  0.18377181  0.68354278  1
  Zn  Zn109  1  0.18106975  0.68785568  0.19031852  1
  Zn  Zn110  1  0.18731083  0.69010735  0.68628265  1
  Zn  Zn111  1  0.69185178  0.19241683  0.18705640  1
  Zn  Zn112  1  0.68049790  0.18736584  0.69427231  1
  Zn  Zn113  1  0.68354828  0.68413636  0.18645601  1
  Zn  Zn114  1  0.68897466  0.69112598  0.68633761  1
  Zn  Zn115  1  0.31232942  0.33217069  0.31254930  1
  Zn  Zn116  1  0.26226912  0.31381264  0.82492471  1
  Zn  Zn117  1  0.31169293  0.81172981  0.31566996  1
  Zn  Zn118  1  0.34508497  0.85964840  0.78352101  1
  Zn  Zn119  1  0.83968842  0.30055501  0.32470336  1
  Zn  Zn120  1  0.80900385  0.31313222  0.81173241  1
  Zn  Zn121  1  0.81336632  0.81299781  0.31103784  1
  Zn  Zn122  1  0.81683954  0.80873302  0.81607842  1
  Zn  Zn123  1  0.18789805  0.43113799  0.43578015  1
  Zn  Zn124  1  0.18915296  0.44167448  0.93750270  1
  Zn  Zn125  1  0.18381224  0.93415233  0.43717579  1
  Zn  Zn126  1  0.17649706  1.01516308  0.93313182  1
  Zn  Zn127  1  0.68881545  0.43814967  0.43723710  1
  Zn  Zn128  1  0.68303934  0.44252692  0.93251534  1
  Zn  Zn129  1  0.68414526  0.93982090  0.44102731  1
  Zn  Zn130  1  0.68759829  0.93669850  0.94111497  1
  Zn  Zn131  1  0.31341672  0.06045050  0.06211037  1
  Zn  Zn132  1  0.30910901  0.06600579  0.55896275  1
  Zn  Zn133  1  0.31581849  0.56153960  0.06295331  1
  Zn  Zn134  1  0.31230877  0.56845159  0.56293281  1
  Zn  Zn135  1  0.81215630  0.06277823  0.06103850  1
  Zn  Zn136  1  0.77286505  0.07576119  0.57555135  1
  Zn  Zn137  1  0.80864196  0.55734495  0.05932008  1
  Zn  Zn138  1  0.81659384  0.56569336  0.56128351  1
  Zn  Zn139  1  0.44081161  0.43581372  0.19196125  1
  Zn  Zn140  1  0.43187426  0.44332942  0.68647627  1
  Zn  Zn141  1  0.43923429  0.94056720  0.18902333  1
  Zn  Zn142  1  0.44724116  1.01660666  0.68986879  1
  Zn  Zn143  1  0.93545117  0.43264307  0.18154494  1
  Zn  Zn144  1  0.94063877  0.43666320  0.69022419  1
  Zn  Zn145  1  0.93425619  0.93554684  0.19194729  1
  Zn  Zn146  1  0.93574320  0.93646694  0.68688055  1
  Zn  Zn147  1  0.06052284  0.06014731  0.30410754  1
  Zn  Zn148  1  0.05672221  0.06692480  0.81028589  1
  Zn  Zn149  1  0.05464976  0.56022851  0.31093558  1
  Zn  Zn150  1  0.06282235  0.56616574  0.81246504  1
  Zn  Zn151  1  0.56433708  0.06231099  0.31571936  1
  Zn  Zn152  1  0.56623659  0.06416003  0.80559942  1
  Zn  Zn153  1  0.56411507  0.55987434  0.31252429  1
  Zn  Zn154  1  0.56135886  0.55965849  0.81504441  1
  Zn  Zn155  1  0.45272468  0.18223735  0.45419439  1
  Zn  Zn156  1  0.44353888  0.19168451  0.93812739  1
  Zn  Zn157  1  0.43793430  0.69094601  0.43836955  1
  Zn  Zn158  1  0.43804295  0.69161260  0.93813418  1
  Zn  Zn159  1  0.93544300  0.18708869  0.43785275  1
  Zn  Zn160  1  0.94264443  0.18658819  0.93531308  1
  Zn  Zn161  1  0.93614981  0.68346154  0.43727213  1
  Zn  Zn162  1  0.93226173  0.68368969  0.93643472  1
  Zn  Zn163  1  0.05683611  0.32207743  0.06257752  1
  Zn  Zn164  1  0.06505322  0.31284971  0.56584403  1
  Zn  Zn165  1  0.06229601  0.81443540  0.06466734  1
  Zn  Zn166  1  0.06237274  0.81608781  0.55963927  1
  Zn  Zn167  1  0.56734645  0.31335119  0.06705480  1
  Zn  Zn168  1  0.54853363  0.30514547  0.56744574  1
  Zn  Zn169  1  0.56493213  0.80935637  0.06177618  1
  Zn  Zn170  1  0.54052658  0.86134481  0.58828997  1
  O  O171  1  0.12304355  0.09986187  0.14154267  1
  O  O172  1  0.11535946  0.11539112  0.61818173  1
  O  O173  1  0.11527277  0.62468583  0.11726049  1
  O  O174  1  0.11326858  0.62286723  0.62640673  1
  O  O175  1  0.62267679  0.12746417  0.11800306  1
  O  O176  1  0.66521900  0.11029573  0.61528781  1
  O  O177  1  0.61318337  0.62670372  0.11506728  1
  O  O178  1  0.62186610  0.62369548  0.61750205  1
  O  O179  1  0.38258091  0.38649149  0.38293095  1
  O  O180  1  0.37826361  0.37809716  0.88710423  1
  O  O181  1  0.38432443  0.88205888  0.37329836  1
  O  O182  1  0.39073124  0.86537154  0.89011456  1
  O  O183  1  0.85496445  0.39113415  0.39491116  1
  O  O184  1  0.86721387  0.39121220  0.87007152  1
  O  O185  1  0.88540949  0.88324455  0.37112168  1
  O  O186  1  0.88088657  0.87969410  0.88187449  1
  O  O187  1  0.25418403  -0.00809247  0.36145288  1
  O  O188  1  0.26110055  0.01246563  0.86038105  1
  O  O189  1  0.25695224  0.50232391  0.36894056  1
  O  O190  1  0.25452051  0.51743539  0.86495100  1
  O  O191  1  0.75504576  0.00604715  0.36993524  1
  O  O192  1  0.76407300  -0.00221476  0.87687925  1
  O  O193  1  0.75744125  0.51398047  0.38432802  1
  O  O194  1  0.75469166  0.50874962  0.86724771  1
  O  O195  1  0.25276598  0.49650484  0.13600200  1
  O  O196  1  0.24790219  0.51380040  0.64046039  1
  O  O197  1  0.24712680  0.99121525  0.13448228  1
  O  O198  1  0.23722311  0.99956962  0.62655429  1
  O  O199  1  0.75435513  0.48331363  0.12672342  1
  O  O200  1  0.74333856  0.49803646  0.63146359  1
  O  O201  1  0.74814792  1.00149181  0.13793912  1
  O  O202  1  0.77066576  0.97670435  0.63049570  1
  O  O203  1  0.01896687  0.38207219  0.24664173  1
  O  O204  1  0.00038053  0.36074785  0.75465148  1
  O  O205  1  -0.00067883  0.86570571  0.25809802  1
  O  O206  1  0.00615799  0.86768740  0.75451613  1
  O  O207  1  0.50388298  0.36358839  0.25938665  1
  O  O208  1  0.50418204  0.38752465  0.75866893  1
  O  O209  1  0.50809394  0.86974150  0.25836881  1
  O  O210  1  0.51479854  0.86574760  0.76185764  1
  O  O211  1  0.50719424  0.13946975  0.24961926  1
  O  O212  1  0.53675816  0.08625937  0.69754079  1
  O  O213  1  0.49813544  0.62810361  0.24267611  1
  O  O214  1  0.49466357  0.63278450  0.74845594  1
  O  O215  1  0.98568249  0.11993172  0.23792490  1
  O  O216  1  0.98710996  0.13231032  0.74145058  1
  O  O217  1  0.99524717  0.63026172  0.23896916  1
  O  O218  1  0.99972944  0.63390284  0.74120835  1
  O  O219  1  0.38663224  0.26526637  0.00985396  1
  O  O220  1  0.37564198  0.25918246  0.49134742  1
  O  O221  1  0.37064269  0.75571733  0.00908354  1
  O  O222  1  0.36661102  0.75023614  0.50614658  1
  O  O223  1  0.86959751  0.24074629  0.00746498  1
  O  O224  1  0.86603744  0.25984889  0.51196349  1
  O  O225  1  0.86052625  0.75458344  -0.00447583  1
  O  O226  1  0.86713154  0.74604848  0.50662154  1
  O  O227  1  0.12115777  0.23429730  0.49766922  1
  O  O228  1  0.11594021  0.22566033  1.05311498  1
  O  O229  1  0.12972910  0.75313908  0.49150562  1
  O  O230  1  0.13103728  0.74299591  0.99677252  1
  O  O231  1  0.62803688  0.25865416  0.49046148  1
  O  O232  1  0.61624541  0.24154324  0.99139546  1
  O  O233  1  0.63459306  0.73734546  0.49290725  1
  O  O234  1  0.63791099  0.74140518  1.00252307  1
  O  O235  1  0.49272405  0.25388497  0.13780863  1
  O  O236  1  0.46521983  0.25718707  0.63007868  1
  O  O237  1  0.49602106  0.74171853  0.13065646  1
  O  O238  1  0.49469579  0.75230879  0.63429303  1
  O  O239  1  0.97318728  0.26089397  0.12490763  1
  O  O240  1  0.98946444  0.24538150  0.63138849  1
  O  O241  1  1.00445962  0.74127990  0.13424837  1
  O  O242  1  0.99736925  0.74474926  0.62802532  1
  O  O243  1  -0.05175194  0.26884545  0.36579487  1
  O  O244  1  0.00329423  0.24633616  0.85897777  1
  O  O245  1  0.00154528  0.75514955  0.37243836  1
  O  O246  1  0.00313536  0.75181647  0.86697428  1
  O  O247  1  0.51014698  0.25274430  0.37341657  1
  O  O248  1  0.50831705  0.26634735  0.87631152  1
  O  O249  1  0.50718524  0.75348473  0.36623809  1
  O  O250  1  0.49966023  0.75603358  0.86627295  1
  O  O251  1  0.23133548  0.12602008  0.49644423  1
  O  O252  1  0.25131177  0.10402070  0.97950863  1
  O  O253  1  0.25200093  0.63980610  0.49610106  1
  O  O254  1  0.24674501  0.63116394  0.99503611  1
  O  O255  1  0.76345793  0.13653816  0.48041024  1
  O  O256  1  0.73480080  0.11843885  0.99584511  1
  O  O257  1  0.74525673  0.63409688  0.49422587  1
  O  O258  1  0.74274757  0.63121998  0.99510553  1
  O  O259  1  0.26262182  0.38827540  0.01533476  1
  O  O260  1  0.25906920  0.36318006  0.49356337  1
  O  O261  1  0.26211270  0.86947612  0.01320946  1
  O  O262  1  0.25009749  0.86301206  0.50074554  1
  O  O263  1  0.73775874  0.37928285  0.01011333  1
  O  O264  1  0.75234467  0.37060871  0.50956297  1
  O  O265  1  0.75455673  0.85887142  -0.00186560  1
  O  O266  1  0.74374001  0.86112459  0.50706981  1
  O  O267  1  0.13727309  0.50461411  0.25040922  1
  O  O268  1  0.14128834  0.50717962  0.75176878  1
  O  O269  1  0.13385216  0.98921289  0.24824214  1
  O  O270  1  0.11366017  0.99306413  0.73818981  1
  O  O271  1  0.62452014  0.48063398  0.25669282  1
  O  O272  1  0.63260874  0.49365778  0.74621696  1
  O  O273  1  0.63303163  0.99229423  0.25027960  1
  O  O274  1  0.63842367  0.97820091  0.76479982  1
  O  O275  1  0.36796499  0.00056115  0.26045123  1
  O  O276  1  0.37044198  -0.03735921  0.74353564  1
  O  O277  1  0.36667916  0.50280849  0.26080905  1
  O  O278  1  0.36912827  0.52102692  0.75105985  1
  O  O279  1  0.86737151  0.00735412  0.25529412  1
  O  O280  1  0.87760483  0.00730709  0.76021199  1
  O  O281  1  0.87980589  0.49933220  0.26307495  1
  O  O282  1  0.86167522  0.50011879  0.75268631  1
  O  O283  1  0.12787840  0.37080142  0.35622655  1
  O  O284  1  0.16210025  0.36074813  0.86828884  1
  O  O285  1  0.10937433  0.86603906  0.37527059  1
  O  O286  1  0.11486649  0.86960218  0.86575926  1
  O  O287  1  0.62314310  0.36858370  0.36896610  1
  O  O288  1  0.61567113  0.37262185  0.86633550  1
  O  O289  1  0.62001224  0.87087350  0.36907058  1
  O  O290  1  0.61834923  0.86836201  0.87623244  1
  O  O291  1  0.37861427  0.13899704  0.11857634  1
  O  O292  1  0.37079443  0.11792989  0.64227185  1
  O  O293  1  0.38507943  0.63008308  0.13081304  1
  O  O294  1  0.38260975  0.63725741  0.63210044  1
  O  O295  1  0.86738787  0.13433286  0.13143806  1
  O  O296  1  0.87179505  0.13127534  0.63280256  1
  O  O297  1  0.88453502  0.62095774  0.12116801  1
  O  O298  1  0.88320497  0.63585144  0.62841954  1
  O  O299  1  0.26785395  0.26574196  0.13158412  1
  O  O300  1  0.26962634  0.24479252  0.62025545  1
  O  O301  1  0.25434889  0.75584690  0.12393656  1
  O  O302  1  0.25648042  0.75094270  0.61739322  1
  O  O303  1  0.75846097  0.26273522  0.12514490  1
  O  O304  1  0.75312683  0.25903656  0.62526960  1
  O  O305  1  0.75111701  0.74349673  0.11353295  1
  O  O306  1  0.76068495  0.75264536  0.61743304  1
  O  O307  1  0.26502904  0.23522699  0.36097612  1
  O  O308  1  0.25126977  0.22220384  0.89084835  1
  O  O309  1  0.23701015  0.74959897  0.38005369  1
  O  O310  1  0.24314552  0.74120244  0.88184707  1
  O  O311  1  0.74501369  0.24356133  0.37887379  1
  O  O312  1  0.73303400  0.25234479  0.87123749  1
  O  O313  1  0.74712084  0.74460235  0.38197473  1
  O  O314  1  0.75292914  0.73574586  0.88045593  1
  O  O315  1  -0.01219594  0.10834417  0.01065690  1
  O  O316  1  0.00302004  0.11706248  0.50212553  1
  O  O317  1  0.00714891  0.62511253  0.00449065  1
  O  O318  1  -0.00559358  0.61408047  0.50840512  1
  O  O319  1  0.50948589  0.11690699  0.00108363  1
  O  O320  1  0.51815282  0.12288624  0.52502589  1
  O  O321  1  0.50553641  0.62089581  0.00516541  1
  O  O322  1  0.51026300  0.62722403  0.50521407  1
  O  O323  1  0.49304877  0.37883588  0.49337491  1
  O  O324  1  0.49762758  0.38287401  0.99726743  1
  O  O325  1  0.49656825  0.86055723  0.48183322  1
  O  O326  1  0.49779330  0.87858553  0.99613586  1
  O  O327  1  0.99068271  0.38045645  0.49753908  1
  O  O328  1  1.01975793  0.38392248  0.98012441  1
  O  O329  1  0.99941297  0.88937743  0.49337368  1
  O  O330  1  0.98933019  0.87459582  0.99568340  1
  O  O331  1  0.49190180  0.49570398  0.37752272  1
  O  O332  1  0.49664044  0.49075632  0.88394398  1
  O  O333  1  0.49264779  0.99063629  0.37029046  1
  O  O334  1  0.50856526  0.99005513  0.88723049  1
  O  O335  1  0.98996167  0.49455562  0.38210525  1
  O  O336  1  0.98375931  0.50255126  0.86624303  1
  O  O337  1  0.99309103  0.99246276  0.37683907  1
  O  O338  1  0.98781452  0.99258278  0.88625411  1
  O  O339  1  0.00777357  -0.01246659  0.12053483  1
  O  O340  1  -0.00085739  0.00585448  0.61411830  1
  O  O341  1  0.00060963  0.50806472  0.11958137  1
  O  O342  1  0.00124100  0.50752640  0.61877585  1
  O  O343  1  0.50330796  0.00155134  0.11452338  1
  O  O344  1  0.51000931  -0.02711094  0.60242124  1
  O  O345  1  0.49497733  0.50889750  0.11920526  1
  O  O346  1  0.50621687  0.51321933  0.62403642  1
  O  O347  1  0.24164803  0.38567688  0.24215260  1
  O  O348  1  0.26667574  0.39791892  0.74425868  1
  O  O349  1  0.25272980  0.87929731  0.23976265  1
  O  O350  1  0.23165737  0.86796001  0.74456725  1
  O  O351  1  0.74399032  0.37165469  0.25666267  1
  O  O352  1  0.73817251  0.38344869  0.74453696  1
  O  O353  1  0.74143423  0.88449267  0.25780705  1
  O  O354  1  0.74820974  0.86572763  0.74433568  1
  O  O355  1  0.25705063  0.11740460  0.24773623  1
  O  O356  1  0.24650778  0.12646053  0.76623406  1
  O  O357  1  0.25618130  0.62035600  0.25270591  1
  O  O358  1  0.25743331  0.62845458  0.75788062  1
  O  O359  1  0.75431926  0.11649129  0.25740192  1
  O  O360  1  0.76144689  0.12296784  0.75699629  1
  O  O361  1  0.74921269  0.62967094  0.26216252  1
  O  O362  1  0.74760218  0.61780703  0.75619910  1
  O  O363  1  0.38334229  0.12074617  0.37396530  1
  O  O364  1  0.38306564  0.12453143  0.86897981  1
  O  O365  1  0.37583343  0.61899396  0.36807576  1
  O  O366  1  0.36793668  0.62989517  0.86826619  1
  O  O367  1  0.86986545  0.11731040  0.35852823  1
  O  O368  1  0.87498528  0.11665342  0.86907345  1
  O  O369  1  0.86610561  0.61636516  0.37343759  1
  O  O370  1  0.86452809  0.61622939  0.86855323  1
  O  O371  1  0.13670401  0.38222708  0.13476822  1
  O  O372  1  0.13541270  0.37908430  0.61973213  1
  O  O373  1  0.13692309  0.87743365  0.12995354  1
  O  O374  1  0.11981202  0.88830762  0.63005285  1
  O  O375  1  0.63960876  0.36748791  0.14106310  1
  O  O376  1  0.62175479  0.37950826  0.63132509  1
  O  O377  1  0.62164071  0.87436647  0.13934388  1
  O  O378  1  0.64140198  0.86303637  0.64127805  1
  O  O379  1  0.12552961  0.25914117  0.23965991  1
  O  O380  1  0.10945493  0.24313252  0.73863876  1
  O  O381  1  0.11237004  0.75119280  0.26033869  1
  O  O382  1  0.11412999  0.75636961  0.75205323  1
  O  O383  1  0.62135510  0.25865147  0.26142928  1
  O  O384  1  0.62150713  0.26343075  0.75506465  1
  O  O385  1  0.62214026  0.75645368  0.25611886  1
  O  O386  1  0.61648982  0.75232445  0.75115325  1
  O  O387  1  0.37946738  0.24341664  0.25127119  1
  O  O388  1  0.35824603  0.25417524  0.75211416  1
  O  O389  1  0.38085316  0.74411189  0.24673515  1
  O  O390  1  0.38338843  0.74854534  0.74336277  1
  O  O391  1  0.86290153  0.23166786  0.23619967  1
  O  O392  1  0.87827460  0.24429088  0.74631634  1
  O  O393  1  0.88659995  0.74438805  0.25523893  1
  O  O394  1  0.88821855  0.74768726  0.74438927  1
  O  O395  1  0.37355757  0.50013597  0.48898579  1
  O  O396  1  0.38722584  0.49323516  0.99992385  1
  O  O397  1  0.36364088  0.99999614  0.48125240  1
  O  O398  1  0.38660168  0.98721691  1.00710531  1
  O  O399  1  0.88417994  0.49473279  0.49758191  1
  O  O400  1  0.87553381  0.50363507  0.98171730  1
  O  O401  1  0.88058038  1.00856962  0.48278342  1
  O  O402  1  0.87801160  0.98878100  0.99751796  1
  O  O403  1  0.10853472  -0.01738984  0.01537539  1
  O  O404  1  0.11529384  0.00773346  0.50383612  1
  O  O405  1  0.12994925  0.51757315  0.00093631  1
  O  O406  1  0.11126983  0.49563714  0.49459190  1
  O  O407  1  0.61909769  0.00615377  0.00371646  1
  O  O408  1  0.63079887  0.00613659  0.51384406  1
  O  O409  1  0.61204933  0.50840672  -0.00139307  1
  O  O410  1  0.62532630  0.51226808  0.50539938  1
  O  O411  1  0.37232390  0.37081766  0.12207847  1
  O  O412  1  0.36762986  0.38982266  0.60729228  1
  O  O413  1  0.37180596  0.86894359  0.12057977  1
  O  O414  1  0.37258483  0.86099461  0.61687856  1
  O  O415  1  0.86007391  0.36568335  0.12418642  1
  O  O416  1  0.86877622  0.37409307  0.61764372  1
  O  O417  1  0.87468713  0.87371796  0.11488614  1
  O  O418  1  0.87298945  0.85749225  0.62899951  1
  O  O419  1  0.11518928  0.12145995  0.38429412  1
  O  O420  1  0.11490771  0.10715569  0.89305898  1
  O  O421  1  0.11956790  0.63682346  0.37217831  1
  O  O422  1  0.13055172  0.63352164  0.88202826  1
  O  O423  1  0.63539228  0.13532757  0.37166188  1
  O  O424  1  0.62237400  0.13598044  0.87864393  1
  O  O425  1  0.63142410  0.62863478  0.38099989  1
  O  O426  1  0.63176156  0.61900257  0.88731665  1
