# generated using pymatgen
data_V85Zn86O256
_symmetry_space_group_name_H-M   'P 1'
_cell_length_a   16.92221799
_cell_length_b   16.92057300
_cell_length_c   16.91873689
_cell_angle_alpha   90.00230489
_cell_angle_beta   89.99761050
_cell_angle_gamma   90.04064904
_symmetry_Int_Tables_number   1
_chemical_formula_structural   V85Zn86O256
_chemical_formula_sum   'V85 Zn86 O256'
_cell_volume   4844.40203493
_cell_formula_units_Z   1
loop_
 _symmetry_equiv_pos_site_id
 _symmetry_equiv_pos_as_xyz
  1  'x, y, z'
loop_
 _atom_site_type_symbol
 _atom_site_label
 _atom_site_symmetry_multiplicity
 _atom_site_fract_x
 _atom_site_fract_y
 _atom_site_fract_z
 _atom_site_occupancy
  V  V0  1  -0.00172039  0.37895166  0.87233277  1
  V  V1  1  0.49603563  0.49572659  0.00279487  1
  V  V2  1  0.87765635  0.12752263  0.74625111  1
  V  V3  1  0.24971500  0.50199558  0.74959309  1
  V  V4  1  0.88013724  0.88071756  0.50278776  1
  V  V5  1  0.62421554  0.50277969  0.12600327  1
  V  V6  1  0.12727805  0.50075247  0.12666416  1
  V  V7  1  0.00763035  0.01257882  0.00617500  1
  V  V8  1  0.38328619  0.86618578  -0.00011293  1
  V  V9  1  0.50152370  0.50120847  0.50167843  1
  V  V10  1  0.38093862  0.63636577  0.75448243  1
  V  V11  1  0.12434636  0.37594604  0.74914040  1
  V  V12  1  0.62220898  0.63067586  0.50100013  1
  V  V13  1  0.12666549  0.50180058  0.61471418  1
  V  V14  1  -0.00031202  0.63084402  0.13603068  1
  V  V15  1  0.04861729  0.18931369  0.19208511  1
  V  V16  1  0.12547712  0.24590193  0.38018738  1
  V  V17  1  0.00765836  0.87788539  0.87250747  1
  V  V18  1  0.75308160  0.50238721  0.25118574  1
  V  V19  1  0.61659557  -0.00178157  0.62210258  1
  V  V20  1  0.37770424  0.36993123  0.50259045  1
  V  V21  1  0.87363835  0.12283857  0.24546125  1
  V  V22  1  0.87575194  0.00004054  0.87554227  1
  V  V23  1  0.88532675  0.00064088  0.37902735  1
  V  V24  1  0.24210936  0.86524537  0.62535523  1
  V  V25  1  0.37403783  0.49273584  0.87815148  1
  V  V26  1  0.75003868  0.25010186  -0.00025782  1
  V  V27  1  0.87364711  0.75417949  0.13304841  1
  V  V28  1  -0.00674630  0.36859575  0.37228084  1
  V  V29  1  0.25741252  0.25953326  -0.00453766  1
  V  V30  1  0.48719888  0.12706198  0.62111282  1
  V  V31  1  0.25375454  0.36882453  0.62579963  1
  V  V32  1  0.63134742  0.62537997  -0.00373869  1
  V  V33  1  0.50127398  -0.00343388  -0.01008403  1
  V  V34  1  0.49763682  0.63747171  0.13005985  1
  V  V35  1  0.24525755  0.63179280  0.38824420  1
  V  V36  1  0.75659711  0.37737863  0.62594918  1
  V  V37  1  0.74452277  0.50008709  0.75878389  1
  V  V38  1  0.37101743  0.12721090  0.74832136  1
  V  V39  1  0.25038929  0.24716711  0.50156142  1
  V  V40  1  0.86978066  0.62594732  0.75863588  1
  V  V41  1  0.50090742  0.12247548  0.12446500  1
  V  V42  1  0.49966041  0.37581574  0.37573296  1
  V  V43  1  0.25125607  0.75077246  0.00955412  1
  V  V44  1  0.00877088  0.75456723  0.74988545  1
  V  V45  1  0.37613233  0.64140764  0.25097834  1
  V  V46  1  0.25378333  0.11592226  0.37538148  1
  V  V47  1  0.75363071  0.25486277  0.50026203  1
  V  V48  1  0.74636341  0.62662118  0.37590325  1
  V  V49  1  0.00468126  0.12186195  0.60778959  1
  V  V50  1  0.63103966  -0.00749815  0.12846636  1
  V  V51  1  0.24886890  0.62797340  0.87231430  1
  V  V52  1  0.61294129  0.75130678  0.87103792  1
  V  V53  1  -0.00077731  0.50372470  0.00060207  1
  V  V54  1  0.61849485  0.11980237  0.49999789  1
  V  V55  1  0.87420444  0.87696058  0.00476692  1
  V  V56  1  0.62541173  0.12345669  -0.00117844  1
  V  V57  1  0.74752277  0.11926313  0.37498519  1
  V  V58  1  0.24091766  -0.00864331  0.75028880  1
  V  V59  1  0.62405319  0.24848928  0.37442195  1
  V  V60  1  0.62373422  0.49491166  0.63024914  1
  V  V61  1  0.60544749  0.87400336  0.75419752  1
  V  V62  1  0.25421073  0.49906567  0.25434790  1
  V  V63  1  0.87005547  0.75035236  0.62881316  1
  V  V64  1  0.74639272  0.75307467  0.49723891  1
  V  V65  1  0.87432446  0.24980064  0.12975109  1
  V  V66  1  0.74726114  -0.00448894  0.74925503  1
  V  V67  1  0.75313634  0.75172050  -0.00676236  1
  V  V68  1  0.38086032  0.11395569  0.25352552  1
  V  V69  1  0.62896751  0.85821071  0.25302841  1
  V  V70  1  0.12004610  0.86582827  0.24958225  1
  V  V71  1  0.12413139  0.24623266  0.87890427  1
  V  V72  1  0.62536163  0.37582659  0.25076843  1
  V  V73  1  -0.01061996  0.49341462  0.50188330  1
  V  V74  1  0.49957668  0.25608193  0.74405709  1
  V  V75  1  0.62376324  0.25762162  0.86914217  1
  V  V76  1  0.38161732  0.25945308  0.12043456  1
  V  V77  1  0.12473275  0.62859515  -0.00137069  1
  V  V78  1  0.24849886  0.12119855  0.88270789  1
  V  V79  1  0.49434626  0.87621467  0.36454367  1
  V  V80  1  0.37795566  0.89594184  0.49766892  1
  V  V81  1  0.87491378  0.37621050  0.00172095  1
  V  V82  1  0.74888981  0.12624319  0.87237180  1
  V  V83  1  0.00481574  0.62648236  0.62097961  1
  V  V84  1  0.37996692  0.75088970  0.61467448  1
  Zn  Zn85  1  0.49961557  0.24929030  0.25033956  1
  Zn  Zn86  1  0.13002762  0.75686298  0.87037245  1
  Zn  Zn87  1  0.88127539  0.63232053  0.26085874  1
  Zn  Zn88  1  0.75057261  0.37687343  0.12608353  1
  Zn  Zn89  1  0.12587555  0.37305714  0.24864860  1
  Zn  Zn90  1  0.37777290  -0.00522705  0.87244186  1
  Zn  Zn91  1  0.49799468  0.37391519  0.87527155  1
  Zn  Zn92  1  0.25755128  0.38028508  0.12258467  1
  Zn  Zn93  1  -0.00275280  0.86315509  0.37197999  1
  Zn  Zn94  1  0.87805528  0.25369521  0.62059166  1
  Zn  Zn95  1  0.25333290  0.87936972  0.12737025  1
  Zn  Zn96  1  0.12516519  0.00290853  0.12782281  1
  Zn  Zn97  1  0.74342398  0.87500442  0.62423594  1
  Zn  Zn98  1  -0.00099293  0.24996198  0.74556009  1
  Zn  Zn99  1  0.86842935  0.50531455  0.87964198  1
  Zn  Zn100  1  0.50408588  0.62929675  0.63256428  1
  Zn  Zn101  1  0.75170991  -0.00822228  0.24611292  1
  Zn  Zn102  1  0.25082638  -0.00483914  0.24839804  1
  Zn  Zn103  1  0.11326689  0.74444853  0.38632727  1
  Zn  Zn104  1  0.37500827  0.50276031  0.37662588  1
  Zn  Zn105  1  0.11408627  -0.00577180  0.61749984  1
  Zn  Zn106  1  0.87135180  0.49591021  0.38092044  1
  Zn  Zn107  1  0.21001882  0.18541425  0.18426023  1
  Zn  Zn108  1  0.18430393  0.18610245  0.69034702  1
  Zn  Zn109  1  0.18908445  0.68629597  0.19273199  1
  Zn  Zn110  1  0.19157397  0.68730952  0.56367118  1
  Zn  Zn111  1  0.68764504  0.18598357  0.18803808  1
  Zn  Zn112  1  0.68533283  0.18711565  0.68515045  1
  Zn  Zn113  1  0.69334898  0.68839070  0.18180965  1
  Zn  Zn114  1  0.68567199  0.68599682  0.69036764  1
  Zn  Zn115  1  0.31483336  0.31007712  0.30982144  1
  Zn  Zn116  1  0.31432904  0.31017267  0.80883284  1
  Zn  Zn117  1  0.30639579  0.81652460  0.31933643  1
  Zn  Zn118  1  0.31507825  0.81350650  0.81674001  1
  Zn  Zn119  1  0.81173097  0.31035367  0.31170172  1
  Zn  Zn120  1  0.81117204  0.31589332  0.80890920  1
  Zn  Zn121  1  0.81057651  0.81370283  0.31656039  1
  Zn  Zn122  1  0.81133210  0.81454601  0.81592656  1
  Zn  Zn123  1  0.18545897  0.43446778  0.43511371  1
  Zn  Zn124  1  0.18688298  0.43838084  0.93807696  1
  Zn  Zn125  1  0.18103020  0.92581659  0.44301155  1
  Zn  Zn126  1  0.18899162  0.93711154  0.94257656  1
  Zn  Zn127  1  0.68627098  0.43921047  0.44012084  1
  Zn  Zn128  1  0.68566727  0.43608216  0.93946002  1
  Zn  Zn129  1  0.68233587  0.93553253  0.43326186  1
  Zn  Zn130  1  0.68784627  0.93364031  0.93675079  1
  Zn  Zn131  1  0.31521670  0.05995008  0.06204310  1
  Zn  Zn132  1  0.26568304  0.04197856  0.54322419  1
  Zn  Zn133  1  0.31454448  0.56726628  0.06508862  1
  Zn  Zn134  1  0.32098532  0.55662887  0.56768094  1
  Zn  Zn135  1  0.81426851  0.06217396  0.06227931  1
  Zn  Zn136  1  0.80893751  0.06391095  0.56408397  1
  Zn  Zn137  1  0.81322220  0.56686665  0.06570453  1
  Zn  Zn138  1  0.81141704  0.56485263  0.56699011  1
  Zn  Zn139  1  0.43917801  0.44269208  0.19007520  1
  Zn  Zn140  1  0.43583575  0.44014392  0.68919390  1
  Zn  Zn141  1  0.44140303  0.93246361  0.18064066  1
  Zn  Zn142  1  0.43015712  0.94216934  0.68445794  1
  Zn  Zn143  1  0.93901289  0.43851726  0.19046046  1
  Zn  Zn144  1  0.93380378  0.44036287  0.68942961  1
  Zn  Zn145  1  0.94195670  0.93811325  0.18792542  1
  Zn  Zn146  1  0.93636694  0.93923113  0.68638534  1
  Zn  Zn147  1  0.07256234  0.05201115  0.32142428  1
  Zn  Zn148  1  0.06349224  0.06253993  0.81126557  1
  Zn  Zn149  1  0.06523137  0.55924778  0.31705909  1
  Zn  Zn150  1  0.06278909  0.56563110  0.80726232  1
  Zn  Zn151  1  0.55778024  0.05136571  0.31443370  1
  Zn  Zn152  1  0.56220283  0.06794381  0.80799155  1
  Zn  Zn153  1  0.56254234  0.56665842  0.31401226  1
  Zn  Zn154  1  0.56265734  0.56368619  0.81683971  1
  Zn  Zn155  1  0.43553559  0.18727984  0.43786947  1
  Zn  Zn156  1  0.43699551  0.18507074  0.93475980  1
  Zn  Zn157  1  0.44014957  0.69134971  0.43211437  1
  Zn  Zn158  1  0.43929848  0.68329832  0.94206132  1
  Zn  Zn159  1  0.93502485  0.18901985  0.43403005  1
  Zn  Zn160  1  0.93621064  0.18991255  0.93515875  1
  Zn  Zn161  1  0.93570475  0.68701789  0.44167371  1
  Zn  Zn162  1  0.94054173  0.69128883  0.93906203  1
  Zn  Zn163  1  0.06832386  0.31799308  0.05534314  1
  Zn  Zn164  1  0.06194030  0.31049118  0.56049120  1
  Zn  Zn165  1  0.06194207  0.81502394  0.06369930  1
  Zn  Zn166  1  0.05904686  0.81261739  0.56222225  1
  Zn  Zn167  1  0.56462676  0.31374649  0.06140896  1
  Zn  Zn168  1  0.56736703  0.31120963  0.56388377  1
  Zn  Zn169  1  0.56576556  0.81366555  0.06234387  1
  Zn  Zn170  1  0.55564089  0.81388944  0.56082443  1
  O  O171  1  0.11344492  0.13369918  0.13734534  1
  O  O172  1  0.10630891  0.12703350  0.62962625  1
  O  O173  1  0.11945239  0.61788529  0.12176531  1
  O  O174  1  0.11763226  0.61481740  0.62551439  1
  O  O175  1  0.61614480  0.12038477  0.11999965  1
  O  O176  1  0.61746835  0.11790437  0.61708175  1
  O  O177  1  0.61885284  0.62027969  0.11960145  1
  O  O178  1  0.62355760  0.61565596  0.61946142  1
  O  O179  1  0.38325488  0.37627734  0.38184884  1
  O  O180  1  0.37407466  0.38897720  0.87052303  1
  O  O181  1  0.37930436  0.87556334  0.38885467  1
  O  O182  1  0.37257639  0.87864782  0.89255559  1
  O  O183  1  0.88840725  0.37382390  0.37182709  1
  O  O184  1  0.88317754  0.37616193  0.88140700  1
  O  O185  1  0.87347657  0.88441256  0.38346930  1
  O  O186  1  0.88272538  0.88308748  0.88160185  1
  O  O187  1  0.24772416  0.01431294  0.37436091  1
  O  O188  1  0.24890995  0.00633347  0.86973213  1
  O  O189  1  0.25125919  0.50689331  0.36965588  1
  O  O190  1  0.25571444  0.50700522  0.87271622  1
  O  O191  1  0.75389335  0.01088516  0.37311741  1
  O  O192  1  0.75328165  0.00603259  0.86814625  1
  O  O193  1  0.75025354  0.50563850  0.36928112  1
  O  O194  1  0.74867932  0.49543562  0.86342048  1
  O  O195  1  0.24397075  0.50150428  0.13133481  1
  O  O196  1  0.24311381  0.49246175  0.62860675  1
  O  O197  1  0.24376868  1.00240054  0.12640319  1
  O  O198  1  0.25943206  0.97947425  0.63913354  1
  O  O199  1  0.74312419  0.50117546  0.13384001  1
  O  O200  1  0.74350990  0.49455375  0.63209107  1
  O  O201  1  0.73515707  1.00562423  0.12410667  1
  O  O202  1  0.73638373  1.00097447  0.63394163  1
  O  O203  1  0.00619826  0.38345424  0.26766646  1
  O  O204  1  0.00273606  0.37405306  0.75701670  1
  O  O205  1  0.01443800  0.87795420  0.25244340  1
  O  O206  1  -0.00917872  0.86712746  0.75905423  1
  O  O207  1  0.50862336  0.37620956  0.25759275  1
  O  O208  1  0.49250476  0.36034331  0.75016776  1
  O  O209  1  0.50476328  0.87359839  0.25742230  1
  O  O210  1  0.50652328  0.88307753  0.75091585  1
  O  O211  1  0.49871223  0.12522688  0.24254546  1
  O  O212  1  0.49159507  0.13265006  0.74253952  1
  O  O213  1  0.48592629  0.62153057  0.24692745  1
  O  O214  1  0.48412873  0.61931688  0.75144545  1
  O  O215  1  0.99463714  0.12644577  0.25451066  1
  O  O216  1  0.98587763  0.12662658  0.75142459  1
  O  O217  1  0.99891360  0.61666760  0.23987887  1
  O  O218  1  0.99141009  0.63030062  0.73927563  1
  O  O219  1  0.37027221  0.24740910  0.00627477  1
  O  O220  1  0.37063930  0.26416740  0.49894534  1
  O  O221  1  0.36974106  0.75845798  -0.00408832  1
  O  O222  1  0.37431618  0.74575547  0.51470207  1
  O  O223  1  0.87176888  0.25333602  0.01079398  1
  O  O224  1  0.85752690  0.24357080  0.50017829  1
  O  O225  1  0.87075390  0.75787872  0.00405647  1
  O  O226  1  0.86493259  0.75602920  0.51182542  1
  O  O227  1  0.13696484  0.25386132  0.49104109  1
  O  O228  1  0.13519183  0.25399736  0.98658196  1
  O  O229  1  0.12622427  0.75066107  0.50092522  1
  O  O230  1  0.13209905  0.74486249  0.99603169  1
  O  O231  1  0.63352235  0.24151221  0.49361110  1
  O  O232  1  0.63031391  0.24331950  0.99328479  1
  O  O233  1  0.63134580  0.73903123  0.51114425  1
  O  O234  1  0.63258349  0.74700860  0.99175039  1
  O  O235  1  0.49793516  0.24103644  0.12361773  1
  O  O236  1  0.50775321  0.24042209  0.63253034  1
  O  O237  1  0.50273099  0.73596998  0.11840525  1
  O  O238  1  0.48518766  0.74755377  0.62767806  1
  O  O239  1  0.99727153  0.25110898  0.12539867  1
  O  O240  1  0.99641582  0.23983671  0.62499686  1
  O  O241  1  0.98971172  0.73980996  0.11769726  1
  O  O242  1  0.98946861  0.74454780  0.63117009  1
  O  O243  1  0.00681896  0.26057918  0.37923371  1
  O  O244  1  0.00700421  0.26171252  0.87596002  1
  O  O245  1  -0.00228862  0.74833149  0.37540234  1
  O  O246  1  -0.00063105  0.76053283  0.86732701  1
  O  O247  1  0.50673868  0.25868262  0.37423039  1
  O  O248  1  0.50674117  0.25049567  0.86749917  1
  O  O249  1  0.50253110  0.77629211  0.39129672  1
  O  O250  1  0.51423443  0.74861414  0.88103894  1
  O  O251  1  0.26700483  0.14344528  0.49066944  1
  O  O252  1  0.25648496  0.13451084  0.98663090  1
  O  O253  1  0.25559129  0.61638184  0.49206336  1
  O  O254  1  0.24705181  0.63032764  0.99083244  1
  O  O255  1  0.73848562  0.13038261  0.49371219  1
  O  O256  1  0.74605141  0.13083929  0.99350666  1
  O  O257  1  0.74264995  0.63067477  0.49677680  1
  O  O258  1  0.73786196  0.63040580  1.00226894  1
  O  O259  1  0.25023852  0.36422621  0.00053686  1
  O  O260  1  0.25742890  0.36868567  0.50511046  1
  O  O261  1  0.25833204  0.86596942  0.00247003  1
  O  O262  1  0.26489260  0.87242634  0.51589780  1
  O  O263  1  0.75694237  0.36832952  0.00267499  1
  O  O264  1  0.74374485  0.36638011  0.50850370  1
  O  O265  1  0.76517595  0.86983673  -0.00405040  1
  O  O266  1  0.75175112  0.86660220  0.50107669  1
  O  O267  1  0.13799530  0.50228253  0.24307568  1
  O  O268  1  0.13110007  0.49541429  0.74052240  1
  O  O269  1  0.12857778  0.98756443  0.24772661  1
  O  O270  1  0.13825235  1.00450306  0.74333152  1
  O  O271  1  0.63398716  0.49684998  0.24742553  1
  O  O272  1  0.63148309  0.50698740  0.74307259  1
  O  O273  1  0.62671502  0.99314406  0.24083137  1
  O  O274  1  0.62954161  0.99413995  0.74594782  1
  O  O275  1  0.37857777  0.01106264  0.24219871  1
  O  O276  1  0.36743352  0.01126849  0.75378931  1
  O  O277  1  0.36416735  0.50491416  0.25286368  1
  O  O278  1  0.36779313  0.50926762  0.75664140  1
  O  O279  1  0.87257443  0.00622129  0.25654257  1
  O  O280  1  0.86533638  0.00636773  0.75451282  1
  O  O281  1  0.86128353  0.50227802  0.25090349  1
  O  O282  1  0.86564110  0.50951683  0.75306571  1
  O  O283  1  0.11945976  0.36199550  0.36997580  1
  O  O284  1  0.11776549  0.37169862  0.86958720  1
  O  O285  1  0.12282360  0.87026570  0.36506189  1
  O  O286  1  0.11185927  0.87629680  0.87811977  1
  O  O287  1  0.61976821  0.37040787  0.37082117  1
  O  O288  1  0.62215336  0.36123369  0.87790083  1
  O  O289  1  0.61553971  0.87581666  0.35938104  1
  O  O290  1  0.62706319  0.86236063  0.86812387  1
  O  O291  1  0.38845072  0.13110800  0.12802602  1
  O  O292  1  0.38582855  0.12133212  0.63039486  1
  O  O293  1  0.38210658  0.62348002  0.14136062  1
  O  O294  1  0.37369803  0.63449405  0.63738108  1
  O  O295  1  0.87281370  0.13016194  0.13740010  1
  O  O296  1  0.88231125  0.12677098  0.63078223  1
  O  O297  1  0.88409195  0.63414039  0.12841396  1
  O  O298  1  0.88010250  0.63366185  0.63406272  1
  O  O299  1  0.26263584  0.25390201  0.11296287  1
  O  O300  1  0.24264422  0.25968078  0.61798615  1
  O  O301  1  0.24869840  0.74487051  0.11168474  1
  O  O302  1  0.26178232  0.75846194  0.63048880  1
  O  O303  1  0.75823999  0.25115275  0.11912752  1
  O  O304  1  0.74673575  0.25934949  0.61775193  1
  O  O305  1  0.76175146  0.74511306  0.10827739  1
  O  O306  1  0.75580591  0.74979543  0.61867235  1
  O  O307  1  0.24331753  0.24735298  0.38063993  1
  O  O308  1  0.24541749  0.24510027  0.87876778  1
  O  O309  1  0.24970768  0.73317386  0.37872453  1
  O  O310  1  0.24849334  0.74234396  0.88265233  1
  O  O311  1  0.74481050  0.23945385  0.37949762  1
  O  O312  1  0.74332090  0.24625941  0.87761086  1
  O  O313  1  0.75247857  0.74239498  0.38928528  1
  O  O314  1  0.74411922  0.75165256  0.88736447  1
  O  O315  1  -0.00538323  0.11065777  -0.00629803  1
  O  O316  1  -0.00357501  0.12611436  0.50886629  1
  O  O317  1  0.00591846  0.62029849  0.00643137  1
  O  O318  1  -0.00769267  0.61479347  0.51578174  1
  O  O319  1  0.50577662  0.11782874  0.00588178  1
  O  O320  1  0.51039124  0.13168165  0.50599692  1
  O  O321  1  0.50992302  0.61624777  0.00777055  1
  O  O322  1  0.50704480  0.62025327  0.50106623  1
  O  O323  1  0.49554381  0.37848739  0.49750424  1
  O  O324  1  0.50577839  0.39140122  0.99915764  1
  O  O325  1  0.48088696  0.88015171  0.50549767  1
  O  O326  1  0.49208457  0.88074164  1.00234784  1
  O  O327  1  1.00383842  0.38100334  0.48666696  1
  O  O328  1  0.99516136  0.38342436  0.99241674  1
  O  O329  1  0.98296473  0.87615773  0.50290951  1
  O  O330  1  0.99085966  0.88216067  0.99175617  1
  O  O331  1  0.50135621  0.49236872  0.38366572  1
  O  O332  1  0.49232628  0.49840624  0.88303483  1
  O  O333  1  0.50331720  0.97844118  0.38206566  1
  O  O334  1  0.50354717  1.00700439  0.88694299  1
  O  O335  1  0.99837230  0.49160374  0.38552683  1
  O  O336  1  1.00016333  0.49122361  0.87828147  1
  O  O337  1  0.98750881  0.99857706  0.37779017  1
  O  O338  1  0.99517537  0.99532410  0.88031751  1
  O  O339  1  0.00087132  0.00144049  0.10997266  1
  O  O340  1  -0.00145381  0.01540892  0.62768942  1
  O  O341  1  0.00689745  0.50759279  0.12042136  1
  O  O342  1  0.00630094  0.50422179  0.62116777  1
  O  O343  1  0.51031737  0.00661785  0.11477094  1
  O  O344  1  0.51027391  0.01034571  0.63062028  1
  O  O345  1  0.50535953  0.50873063  0.12022433  1
  O  O346  1  0.50676687  0.50242236  0.62048921  1
  O  O347  1  0.24823079  0.38329561  0.24634501  1
  O  O348  1  0.24678789  0.37956942  0.74207456  1
  O  O349  1  0.24228380  0.87618797  0.24761431  1
  O  O350  1  0.25645970  0.87975766  0.74188534  1
  O  O351  1  0.74240628  0.38284819  0.25084550  1
  O  O352  1  0.75011628  0.38629722  0.74045845  1
  O  O353  1  0.73424613  0.87487416  0.25476375  1
  O  O354  1  0.74476487  0.88716149  0.75021269  1
  O  O355  1  0.26360509  0.12203408  0.25873727  1
  O  O356  1  0.25594374  0.11987976  0.75638154  1
  O  O357  1  0.26116807  0.61962163  0.25817175  1
  O  O358  1  0.26114005  0.61949714  0.76438704  1
  O  O359  1  0.75732989  0.12257401  0.25811355  1
  O  O360  1  0.75673634  0.11606340  0.75099869  1
  O  O361  1  0.74871841  0.61929757  0.25948247  1
  O  O362  1  0.75891421  0.61504296  0.74520344  1
  O  O363  1  0.36935537  0.13178634  0.36360973  1
  O  O364  1  0.36608150  0.12147750  0.86643223  1
  O  O365  1  0.36833547  0.62381163  0.36754957  1
  O  O366  1  0.37088925  0.61964050  0.86873448  1
  O  O367  1  0.86767401  0.12041116  0.36618539  1
  O  O368  1  0.86773063  0.12112280  0.86704382  1
  O  O369  1  0.86038357  0.61915609  0.37777080  1
  O  O370  1  0.88156505  0.62556831  0.86260233  1
  O  O371  1  0.12582036  0.38980750  0.12630423  1
  O  O372  1  0.13189553  0.38063123  0.63014329  1
  O  O373  1  0.12755331  0.87476762  0.13592368  1
  O  O374  1  0.13883166  0.87349347  0.62569270  1
  O  O375  1  0.62626360  0.38307385  0.13327313  1
  O  O376  1  0.63318380  0.38927904  0.62115634  1
  O  O377  1  0.61767949  0.88140760  0.13932857  1
  O  O378  1  0.62242780  0.88146250  0.63343527  1
  O  O379  1  0.11866971  0.24661809  0.24707700  1
  O  O380  1  0.12315718  0.25839298  0.76174855  1
  O  O381  1  0.12992793  0.76189819  0.25349157  1
  O  O382  1  0.10726235  0.74628291  0.75163119  1
  O  O383  1  0.62450160  0.25722900  0.25612672  1
  O  O384  1  0.61433545  0.24191310  0.75845498  1
  O  O385  1  0.62714047  0.75934100  0.24492546  1
  O  O386  1  0.62807227  0.75726950  0.76262832  1
  O  O387  1  0.37839264  0.24016020  0.23746014  1
  O  O388  1  0.38197011  0.23623435  0.75218383  1
  O  O389  1  0.37141991  0.73963580  0.25476539  1
  O  O390  1  0.37288349  0.73870953  0.74706471  1
  O  O391  1  0.87287848  0.24300035  0.23799364  1
  O  O392  1  0.87393729  0.24067287  0.74637438  1
  O  O393  1  0.86604404  0.75027030  0.23722295  1
  O  O394  1  0.87517452  0.74495207  0.74347831  1
  O  O395  1  0.38398002  0.48856898  0.49914709  1
  O  O396  1  0.38362885  0.50940775  0.99116949  1
  O  O397  1  0.36925054  0.99367992  0.50581632  1
  O  O398  1  0.38633882  0.99286510  0.99645990  1
  O  O399  1  0.88525131  0.49874800  0.50419727  1
  O  O400  1  0.87964446  0.49648573  0.99943350  1
  O  O401  1  0.86261480  0.99183781  0.49180445  1
  O  O402  1  0.88141888  0.99438441  0.99563997  1
  O  O403  1  0.11143726  -0.00031171  0.00240476  1
  O  O404  1  0.15820554  0.00843751  0.51351412  1
  O  O405  1  0.12139131  0.50754674  0.00766401  1
  O  O406  1  0.11572401  0.49281885  0.51097651  1
  O  O407  1  0.62067148  0.00226206  0.00478527  1
  O  O408  1  0.63004894  0.00816479  0.50930022  1
  O  O409  1  0.62101098  0.50866211  0.00411157  1
  O  O410  1  0.62086542  0.51042312  0.50856685  1
  O  O411  1  0.38058452  0.36308181  0.12826776  1
  O  O412  1  0.36268046  0.38078349  0.61830782  1
  O  O413  1  0.37269788  0.87800849  0.10658279  1
  O  O414  1  0.37132865  0.86435377  0.61961824  1
  O  O415  1  0.87569003  0.36695396  0.12145922  1
  O  O416  1  0.86186300  0.37394523  0.62682543  1
  O  O417  1  0.88171033  0.86752719  0.11683624  1
  O  O418  1  0.86773140  0.86825793  0.62124805  1
  O  O419  1  0.13513993  0.13839376  0.36811650  1
  O  O420  1  0.13382754  0.13550389  0.86860190  1
  O  O421  1  0.14219630  0.62349437  0.37358368  1
  O  O422  1  0.13327881  0.62533652  0.87919276  1
  O  O423  1  0.62913165  0.12559608  0.38017479  1
  O  O424  1  0.63085464  0.13326506  0.87966062  1
  O  O425  1  0.63596731  0.62155867  0.38606861  1
  O  O426  1  0.62338026  0.63782185  0.88307547  1
