# generated using pymatgen
data_V85Zn86O256
_symmetry_space_group_name_H-M   'P 1'
_cell_length_a   16.94827881
_cell_length_b   16.95086322
_cell_length_c   16.95151769
_cell_angle_alpha   89.96618279
_cell_angle_beta   90.02506019
_cell_angle_gamma   90.00867586
_symmetry_Int_Tables_number   1
_chemical_formula_structural   V85Zn86O256
_chemical_formula_sum   'V85 Zn86 O256'
_cell_volume   4869.96549726
_cell_formula_units_Z   1
loop_
 _symmetry_equiv_pos_site_id
 _symmetry_equiv_pos_as_xyz
  1  'x, y, z'
loop_
 _atom_site_type_symbol
 _atom_site_label
 _atom_site_symmetry_multiplicity
 _atom_site_fract_x
 _atom_site_fract_y
 _atom_site_fract_z
 _atom_site_occupancy
  V  V0  1  0.73112248  0.41693018  0.08869531  1
  V  V1  1  0.50016436  0.25180122  0.24336301  1
  V  V2  1  0.37332165  0.25022164  0.62646591  1
  V  V3  1  0.49858669  0.11817265  0.12019409  1
  V  V4  1  0.50110116  0.62494749  0.62917029  1
  V  V5  1  0.87015689  0.75392347  0.11713571  1
  V  V6  1  0.62318253  0.87104115  0.75329720  1
  V  V7  1  -0.01191350  0.87371342  0.88094243  1
  V  V8  1  0.62704062  0.74930212  0.37675029  1
  V  V9  1  -0.00029683  0.51338573  0.50598346  1
  V  V10  1  0.68893871  0.68622930  0.92802970  1
  V  V11  1  0.62960212  0.13014662  0.50098010  1
  V  V12  1  0.25071772  0.12141962  0.38041464  1
  V  V13  1  0.37331309  0.51017452  0.37408713  1
  V  V14  1  0.24243125  0.87403782  0.12628703  1
  V  V15  1  0.24555828  -0.00348746  0.24979110  1
  V  V16  1  0.75219442  0.36141182  0.62875116  1
  V  V17  1  0.24579228  0.37714010  0.62206443  1
  V  V18  1  0.87516042  0.12753884  0.25076291  1
  V  V19  1  0.87752600  0.51269029  0.86912365  1
  V  V20  1  0.50211380  0.49853661  0.50141906  1
  V  V21  1  0.74788101  0.00140250  0.25135965  1
  V  V22  1  0.37539524  0.12662922  0.25029660  1
  V  V23  1  0.13268333  0.37139061  0.24882917  1
  V  V24  1  0.50059531  0.74522031  0.23557344  1
  V  V25  1  0.06777120  -0.05568400  0.57229271  1
  V  V26  1  0.50419927  0.87537599  0.37548891  1
  V  V27  1  0.37105391  0.36502140  0.00931030  1
  V  V28  1  -0.00130648  0.12822459  0.62134171  1
  V  V29  1  0.12447280  0.12356248  0.51011760  1
  V  V30  1  0.00756122  0.76602875  0.25566285  1
  V  V31  1  0.12621372  0.62542243  0.00392806  1
  V  V32  1  0.88180602  0.73684859  0.62663847  1
  V  V33  1  0.12499787  0.75129839  0.87898890  1
  V  V34  1  0.24940357  0.24848505  0.50060682  1
  V  V35  1  -0.00527340  0.25016741  0.74707181  1
  V  V36  1  0.50451695  0.26023652  0.75295451  1
  V  V37  1  0.74865644  0.24544877  0.00172478  1
  V  V38  1  0.62811195  0.49442458  0.63504035  1
  V  V39  1  0.25030942  0.12773217  0.88226383  1
  V  V40  1  0.00328805  0.37548118  0.37743046  1
  V  V41  1  0.87078588  0.62637968  0.25259626  1
  V  V42  1  0.62328692  -0.00140220  0.62613634  1
  V  V43  1  0.37887143  0.49879467  0.88556044  1
  V  V44  1  -0.00826029  -0.00210497  0.00287801  1
  V  V45  1  -0.00266218  0.62446120  0.12945767  1
  V  V46  1  0.37431574  0.37584241  0.49991838  1
  V  V47  1  0.12315760  0.12501573  0.00470589  1
  V  V48  1  0.75178767  0.87375914  0.11255484  1
  V  V49  1  0.50020058  0.74850605  0.75514044  1
  V  V50  1  -0.00230465  0.49876615  0.00256257  1
  V  V51  1  0.37985575  0.87279133  0.00880887  1
  V  V52  1  0.36736188  0.62316671  0.75431852  1
  V  V53  1  0.24639964  -0.00147637  0.74884590  1
  V  V54  1  0.88019609  -0.00452953  0.38197562  1
  V  V55  1  0.13283020  0.49423195  0.12499512  1
  V  V56  1  0.74924355  -0.00020378  0.75161391  1
  V  V57  1  0.37833919  -0.00154014  0.88355840  1
  V  V58  1  0.87243675  0.35778660  0.50264524  1
  V  V59  1  0.12179923  0.51422701  0.62498723  1
  V  V60  1  0.50969536  0.59686496  0.10196070  1
  V  V61  1  0.37664488  0.12429483  0.75151911  1
  V  V62  1  0.25573924  0.74863499  0.00768771  1
  V  V63  1  0.50052886  0.37544081  0.37229755  1
  V  V64  1  -0.00013509  0.73718490  0.75072743  1
  V  V65  1  0.74368143  0.49644613  0.25657232  1
  V  V66  1  0.75447340  0.87237890  0.62421306  1
  V  V67  1  0.87474389  0.12597142  0.74934001  1
  V  V68  1  0.62801922  0.87469036  0.24813352  1
  V  V69  1  0.62020472  0.12046948  -0.00497275  1
  V  V70  1  0.12106562  0.87646712  0.75589371  1
  V  V71  1  0.37559846  0.86523729  0.50260254  1
  V  V72  1  0.12446332  0.37346466  0.74799112  1
  V  V73  1  -0.00475479  0.25322283  0.24334558  1
  V  V74  1  0.50111617  0.00117900  0.50183425  1
  V  V75  1  0.63026625  0.25321188  0.37646452  1
  V  V76  1  0.62871171  0.62511984  0.50482976  1
  V  V77  1  0.76165448  0.50987086  0.74609315  1
  V  V78  1  0.12783405  0.25150688  0.88123697  1
  V  V79  1  0.25060656  0.86653377  0.62556734  1
  V  V80  1  0.37820025  0.00179721  0.37555509  1
  V  V81  1  0.50260512  0.87312817  0.88170448  1
  V  V82  1  -0.00075927  0.37461816  0.87492978  1
  V  V83  1  0.87771978  0.37378939  -0.00213206  1
  V  V84  1  0.24792613  0.51121249  0.25461807  1
  Zn  Zn85  1  0.75085880  0.62635353  0.37794858  1
  Zn  Zn86  1  0.63079226  0.26037944  0.87169804  1
  Zn  Zn87  1  0.74967128  0.12972892  0.37866234  1
  Zn  Zn88  1  -0.00507030  0.12612840  0.12518156  1
  Zn  Zn89  1  0.62489399  0.37766477  0.23789896  1
  Zn  Zn90  1  0.11921475  0.24230073  0.37556564  1
  Zn  Zn91  1  0.11804001  -0.00289311  0.12953818  1
  Zn  Zn92  1  0.62118631  -0.00314191  0.12021978  1
  Zn  Zn93  1  0.36963864  0.74386116  0.62480482  1
  Zn  Zn94  1  0.35576539  0.24948790  0.12564045  1
  Zn  Zn95  1  0.86991774  -0.00223216  0.88052763  1
  Zn  Zn96  1  0.75516052  0.75129082  0.50120842  1
  Zn  Zn97  1  0.19540709  0.69746367  0.42909988  1
  Zn  Zn98  1  0.74798063  0.12648502  0.87296780  1
  Zn  Zn99  1  0.24961804  0.49923011  0.75110879  1
  Zn  Zn100  1  0.25128528  0.62503409  0.87957877  1
  Zn  Zn101  1  0.50367609  0.38093942  0.88154932  1
  Zn  Zn102  1  0.88425177  0.87878237  0.50230833  1
  Zn  Zn103  1  0.86607228  0.25826796  0.12887378  1
  Zn  Zn104  1  0.49855499  0.12629534  0.62615712  1
  Zn  Zn105  1  0.87528663  0.50156535  0.38031086  1
  Zn  Zn106  1  0.37842527  0.62827746  0.24085459  1
  Zn  Zn107  1  0.18141913  0.18017995  0.19536196  1
  Zn  Zn108  1  0.18673298  0.18797398  0.69195920  1
  Zn  Zn109  1  0.18450305  0.68833460  0.19140384  1
  Zn  Zn110  1  0.07841898  0.69899652  0.57213875  1
  Zn  Zn111  1  0.68464500  0.18790464  0.18507301  1
  Zn  Zn112  1  0.68440489  0.18443322  0.68706119  1
  Zn  Zn113  1  0.68573323  0.68368101  0.18313356  1
  Zn  Zn114  1  0.68944106  0.69048520  0.69467669  1
  Zn  Zn115  1  0.31084102  0.31207129  0.31336083  1
  Zn  Zn116  1  0.31344308  0.31460926  0.81455718  1
  Zn  Zn117  1  0.32124962  0.81110927  0.30562266  1
  Zn  Zn118  1  0.31260146  0.81000151  0.81650052  1
  Zn  Zn119  1  0.81315634  0.31712802  0.31758632  1
  Zn  Zn120  1  0.81107847  0.31466165  0.81336805  1
  Zn  Zn121  1  0.81529252  0.81368578  0.31049784  1
  Zn  Zn122  1  0.81233220  0.80574748  0.80995494  1
  Zn  Zn123  1  0.18477850  0.53610853  0.43797234  1
  Zn  Zn124  1  0.19193227  0.44141868  0.93521733  1
  Zn  Zn125  1  0.21286437  0.88513539  0.41749000  1
  Zn  Zn126  1  0.18595281  0.93952790  0.94032542  1
  Zn  Zn127  1  0.68952937  0.43647451  0.44094579  1
  Zn  Zn128  1  0.68132135  0.44999779  0.92062440  1
  Zn  Zn129  1  0.69124793  0.93876313  0.43780145  1
  Zn  Zn130  1  0.68363201  0.93838925  0.93681174  1
  Zn  Zn131  1  0.31274533  0.06238174  0.06439234  1
  Zn  Zn132  1  0.31179718  0.05615006  0.56573988  1
  Zn  Zn133  1  0.31881997  0.56400153  0.06730593  1
  Zn  Zn134  1  0.31092018  0.56640567  0.56504058  1
  Zn  Zn135  1  0.80952485  0.06396153  0.06610218  1
  Zn  Zn136  1  0.81244857  0.06533992  0.56566426  1
  Zn  Zn137  1  0.80004872  0.56822596  0.05184057  1
  Zn  Zn138  1  0.81285026  0.55840904  0.56182360  1
  Zn  Zn139  1  0.43666585  0.44068852  0.18403413  1
  Zn  Zn140  1  0.43402510  0.44096532  0.68898624  1
  Zn  Zn141  1  0.43686543  0.93621953  0.18903942  1
  Zn  Zn142  1  0.43538478  0.93728362  0.69059401  1
  Zn  Zn143  1  0.92997644  0.43879350  0.18655554  1
  Zn  Zn144  1  0.93556784  0.43476726  0.68218332  1
  Zn  Zn145  1  0.93281716  0.94077056  0.18779031  1
  Zn  Zn146  1  0.93215550  0.93320972  0.69514159  1
  Zn  Zn147  1  0.08833380  0.01342399  0.35123704  1
  Zn  Zn148  1  0.06002232  0.06097240  0.81575105  1
  Zn  Zn149  1  0.05886068  0.56561656  0.31384386  1
  Zn  Zn150  1  0.06823140  0.56095922  0.81493911  1
  Zn  Zn151  1  0.56523615  0.06543051  0.31124849  1
  Zn  Zn152  1  0.56033646  0.06216211  0.81572460  1
  Zn  Zn153  1  0.56419746  0.56442302  0.31334444  1
  Zn  Zn154  1  0.56340779  0.56354691  0.81708239  1
  Zn  Zn155  1  0.44211051  0.18922082  0.43743204  1
  Zn  Zn156  1  0.43657301  0.19244508  0.93913084  1
  Zn  Zn157  1  0.44225255  0.68730406  0.43642482  1
  Zn  Zn158  1  0.44249103  0.68715422  0.94186900  1
  Zn  Zn159  1  0.93941711  0.18236749  0.43194104  1
  Zn  Zn160  1  0.93666631  0.18718136  0.93639438  1
  Zn  Zn161  1  0.93520511  0.68871583  0.43784131  1
  Zn  Zn162  1  0.93612758  0.68816693  0.94098977  1
  Zn  Zn163  1  0.18805331  0.31351243  0.06382719  1
  Zn  Zn164  1  0.06158644  0.31255577  0.56095957  1
  Zn  Zn165  1  0.05930851  0.81197940  0.06553978  1
  Zn  Zn166  1  0.05641316  0.82560510  0.42350474  1
  Zn  Zn167  1  0.56081637  0.31306223  0.05570482  1
  Zn  Zn168  1  0.56358739  0.31238804  0.56587670  1
  Zn  Zn169  1  0.57214501  0.80692676  0.05691173  1
  Zn  Zn170  1  0.56171047  0.81030557  0.56692164  1
  O  O171  1  0.12006143  0.12384826  0.11276752  1
  O  O172  1  0.11929859  0.12789569  0.61842649  1
  O  O173  1  0.11528753  0.61641933  0.12368641  1
  O  O174  1  0.12423800  0.61319169  0.63238536  1
  O  O175  1  0.61461842  0.12364604  0.11723198  1
  O  O176  1  0.61985835  0.11720018  0.61835555  1
  O  O177  1  0.60390047  0.63232664  0.12590739  1
  O  O178  1  0.62164341  0.61848452  0.62099157  1
  O  O179  1  0.38633620  0.37860395  0.37948279  1
  O  O180  1  0.37463311  0.38505816  0.88171298  1
  O  O181  1  0.38729156  0.88410891  0.38430014  1
  O  O182  1  0.37975941  0.88180370  0.88426864  1
  O  O183  1  0.88255449  0.37813814  0.38790716  1
  O  O184  1  0.88297168  0.38155251  0.87929555  1
  O  O185  1  0.87023223  0.88947570  0.37947922  1
  O  O186  1  0.88466712  0.87365458  0.87173722  1
  O  O187  1  0.26237191  0.00190937  0.36801310  1
  O  O188  1  0.25669230  0.00576568  0.86823117  1
  O  O189  1  0.26369939  0.48988344  0.36496139  1
  O  O190  1  0.26140518  0.50503403  0.86992018  1
  O  O191  1  0.75305631  0.00303330  0.36330134  1
  O  O192  1  0.74965983  0.00018789  0.86221138  1
  O  O193  1  0.75335118  0.50328357  0.36868086  1
  O  O194  1  0.76501444  0.49182607  0.85239003  1
  O  O195  1  0.23843089  0.50318626  0.13208726  1
  O  O196  1  0.24050355  0.49071636  0.62787320  1
  O  O197  1  0.24844609  0.99365036  0.13221418  1
  O  O198  1  0.25613587  0.99462360  0.64523232  1
  O  O199  1  0.76287905  0.50576256  0.14987821  1
  O  O200  1  0.74745047  0.49120125  0.63114384  1
  O  O201  1  0.75018641  0.99192087  0.13690156  1
  O  O202  1  0.74506863  0.99379885  0.63493728  1
  O  O203  1  0.00007252  0.37207128  0.25699638  1
  O  O204  1  0.00377316  0.36621513  0.75207094  1
  O  O205  1  -0.00204747  0.86445313  0.24444115  1
  O  O206  1  0.00645458  0.87298465  0.76145357  1
  O  O207  1  0.50271435  0.36955363  0.25562234  1
  O  O208  1  0.49407270  0.36145496  0.74776708  1
  O  O209  1  0.50762232  0.86758912  0.25495042  1
  O  O210  1  0.50094842  0.86688005  0.75723874  1
  O  O211  1  0.49525044  0.13345607  0.24445750  1
  O  O212  1  0.48588658  0.12953158  0.75114434  1
  O  O213  1  0.50372298  0.63925011  0.25133316  1
  O  O214  1  0.49491108  0.63121411  0.74921902  1
  O  O215  1  0.98595707  0.13817321  0.25054267  1
  O  O216  1  0.99620645  0.12939794  0.74256278  1
  O  O217  1  0.99051701  0.62545443  0.24019784  1
  O  O218  1  1.00614664  0.63851814  0.75879874  1
  O  O219  1  0.36760450  0.26009852  0.00230011  1
  O  O220  1  0.37158216  0.25462371  0.50656473  1
  O  O221  1  0.36624328  0.75925191  -0.00383354  1
  O  O222  1  0.38412210  0.76202196  0.50284071  1
  O  O223  1  0.87019549  0.25683099  0.00149597  1
  O  O224  1  0.87584861  0.25932683  0.49576406  1
  O  O225  1  0.88707424  0.75505418  0.01937839  1
  O  O226  1  0.87668463  0.75700020  0.51298560  1
  O  O227  1  0.13105127  0.24083771  0.49801407  1
  O  O228  1  0.12551415  0.24372332  0.98757010  1
  O  O229  1  0.11920005  0.75976122  0.49172495  1
  O  O230  1  0.13066663  0.74359143  0.99952843  1
  O  O231  1  0.61350699  0.24069394  0.49047428  1
  O  O232  1  0.63238016  0.23975386  0.99745755  1
  O  O233  1  0.62581625  0.74193192  0.49586118  1
  O  O234  1  0.62550712  0.74532897  0.98157724  1
  O  O235  1  0.50059530  0.24479457  0.13634566  1
  O  O236  1  0.49224402  0.24844604  0.63568789  1
  O  O237  1  0.50341841  0.75692508  0.13692392  1
  O  O238  1  0.49490723  0.74098800  0.63334121  1
  O  O239  1  0.98948838  0.25298616  0.14077273  1
  O  O240  1  1.00513739  0.24040505  0.63550236  1
  O  O241  1  0.99128994  0.74390581  0.13529491  1
  O  O242  1  0.99091267  0.74705374  0.63544556  1
  O  O243  1  -0.00147968  0.25761768  0.36601781  1
  O  O244  1  0.00788136  0.25519223  0.86871250  1
  O  O245  1  -0.00904335  0.75381937  0.36080008  1
  O  O246  1  0.00456319  0.75699071  0.87349474  1
  O  O247  1  0.50588293  0.25717651  0.36430269  1
  O  O248  1  0.49484266  0.25236556  0.85925655  1
  O  O249  1  0.51301895  0.75630437  0.37215301  1
  O  O250  1  0.49263130  0.76102995  0.86674035  1
  O  O251  1  0.24432444  0.12669858  0.50094760  1
  O  O252  1  0.24156739  0.11753755  0.98876101  1
  O  O253  1  0.24232384  0.61563623  0.49696292  1
  O  O254  1  0.24699629  0.63319000  1.00496885  1
  O  O255  1  0.73373910  0.12058449  0.50069767  1
  O  O256  1  0.74265810  0.12880557  0.99628521  1
  O  O257  1  0.73925091  0.62684848  0.50119856  1
  O  O258  1  0.76356233  0.65373007  0.98944289  1
  O  O259  1  0.26079532  0.37524864  -0.00285078  1
  O  O260  1  0.25615082  0.36601823  0.51278962  1
  O  O261  1  0.25729954  0.86944163  0.00683012  1
  O  O262  1  0.26871000  0.89578905  0.51648477  1
  O  O263  1  0.76133956  0.36299004  -0.00696462  1
  O  O264  1  0.76540124  0.37925629  0.50860908  1
  O  O265  1  0.74792616  0.88267229  0.01291411  1
  O  O266  1  0.74644621  0.87379669  0.51587081  1
  O  O267  1  0.13099494  0.49204700  0.24358587  1
  O  O268  1  0.12561903  0.49068171  0.74257855  1
  O  O269  1  0.14304735  1.01193543  0.24634915  1
  O  O270  1  0.13328879  0.98868715  0.76204339  1
  O  O271  1  0.63930067  0.49826242  0.25597538  1
  O  O272  1  0.63607693  0.50197416  0.73854889  1
  O  O273  1  0.63134766  0.99404207  0.24771127  1
  O  O274  1  0.62993910  0.99568054  0.74491980  1
  O  O275  1  0.37094715  0.00830796  0.25521956  1
  O  O276  1  0.36880186  0.00680243  0.76111085  1
  O  O277  1  0.36607611  0.49781453  0.25720064  1
  O  O278  1  0.37151463  0.50713777  0.75871891  1
  O  O279  1  0.86665494  0.00758866  0.25841718  1
  O  O280  1  0.86470252  0.00653711  0.75291153  1
  O  O281  1  0.86984955  0.51192266  0.25724523  1
  O  O282  1  0.87046700  0.49909798  0.75168281  1
  O  O283  1  0.10852488  0.37182812  0.36501845  1
  O  O284  1  0.12107131  0.36876358  0.87008081  1
  O  O285  1  0.11468057  0.90708955  0.37438082  1
  O  O286  1  0.11819102  0.86992893  0.87264292  1
  O  O287  1  0.61305342  0.37073053  0.37864871  1
  O  O288  1  0.61624814  0.37374215  0.87888820  1
  O  O289  1  0.62232760  0.86938220  0.37081760  1
  O  O290  1  0.61055922  0.88324270  0.86779035  1
  O  O291  1  0.38135869  0.12920187  0.13025479  1
  O  O292  1  0.37431477  0.12921568  0.63579488  1
  O  O293  1  0.40213535  0.61404617  0.12707303  1
  O  O294  1  0.38338913  0.62217495  0.63608999  1
  O  O295  1  0.87367097  0.12782754  0.13917678  1
  O  O296  1  0.88468044  0.12031190  0.63705353  1
  O  O297  1  0.87863062  0.63485903  0.13023164  1
  O  O298  1  0.87221489  0.63883628  0.62078241  1
  O  O299  1  0.24375052  0.24998188  0.13568093  1
  O  O300  1  0.25445702  0.25484391  0.62199875  1
  O  O301  1  0.24729300  0.75706034  0.11679036  1
  O  O302  1  0.25164524  0.76753028  0.62735504  1
  O  O303  1  0.74998019  0.24678691  0.10931845  1
  O  O304  1  0.74456397  0.26251767  0.62825653  1
  O  O305  1  0.76229069  0.75709069  0.13191219  1
  O  O306  1  0.76197517  0.75684487  0.62856087  1
  O  O307  1  0.24707532  0.23963197  0.38262103  1
  O  O308  1  0.24048421  0.23851454  0.86581648  1
  O  O309  1  0.25409785  0.78292045  0.38601745  1
  O  O310  1  0.24275628  0.75028531  0.88946442  1
  O  O311  1  0.73383751  0.25287955  0.37232735  1
  O  O312  1  0.75048929  0.24651055  0.88428346  1
  O  O313  1  0.73848596  0.75160413  0.37794104  1
  O  O314  1  0.73240249  0.74238749  0.85282607  1
  O  O315  1  0.00721668  0.11959262  0.00037468  1
  O  O316  1  0.00548320  0.12942377  0.51368385  1
  O  O317  1  0.00388858  0.62087176  0.01342491  1
  O  O318  1  0.00125029  0.61552136  0.50201108  1
  O  O319  1  0.50568387  0.13311461  0.00917920  1
  O  O320  1  0.50805802  0.11666992  0.50181420  1
  O  O321  1  0.50210617  0.61269129  0.00230252  1
  O  O322  1  0.50962656  0.61872763  0.50717690  1
  O  O323  1  0.49502296  0.38003380  0.49434596  1
  O  O324  1  0.47952642  0.36865541  0.99717041  1
  O  O325  1  0.49638219  0.88285115  0.49806818  1
  O  O326  1  0.49307675  0.86928508  0.99291059  1
  O  O327  1  0.98919100  0.37598022  0.49532156  1
  O  O328  1  0.98589615  0.38115273  0.99574945  1
  O  O329  1  1.00445856  0.88943002  0.51415930  1
  O  O330  1  1.00532215  0.88455869  0.99254925  1
  O  O331  1  0.49565077  0.49221669  0.37852626  1
  O  O332  1  0.48217807  0.49742594  0.86723550  1
  O  O333  1  0.49913395  0.99604632  0.38220764  1
  O  O334  1  0.48726694  0.98911376  0.86928702  1
  O  O335  1  0.99868270  0.49363325  0.38934099  1
  O  O336  1  0.99745308  0.49294447  0.88097614  1
  O  O337  1  0.97710549  1.01160983  0.37592975  1
  O  O338  1  0.99632467  0.99036041  0.88285237  1
  O  O339  1  0.00019933  0.00295966  0.11871904  1
  O  O340  1  0.00571469  0.00373515  0.63111000  1
  O  O341  1  0.00345329  0.50674658  0.12127351  1
  O  O342  1  0.00653032  0.49553463  0.61457703  1
  O  O343  1  0.49989009  0.01450177  0.13085319  1
  O  O344  1  0.50416423  0.00064585  0.61856983  1
  O  O345  1  0.51360796  0.49766484  0.12241098  1
  O  O346  1  0.50979004  0.50317447  0.62321732  1
  O  O347  1  0.23524761  0.38057525  0.25689926  1
  O  O348  1  0.24444083  0.37240279  0.73818979  1
  O  O349  1  0.26322791  0.88516749  0.23620975  1
  O  O350  1  0.24313724  0.87987484  0.74854382  1
  O  O351  1  0.74902000  0.39074159  0.25394787  1
  O  O352  1  0.75913622  0.38174186  0.73260423  1
  O  O353  1  0.74365949  0.88207255  0.24511091  1
  O  O354  1  0.74550033  0.88156916  0.74152395  1
  O  O355  1  0.25762455  0.11835565  0.26102739  1
  O  O356  1  0.25734520  0.11855723  0.75940258  1
  O  O357  1  0.25791603  0.61457185  0.24189038  1
  O  O358  1  0.26589494  0.62792132  0.75417310  1
  O  O359  1  0.75308712  0.11784557  0.25100849  1
  O  O360  1  0.75717054  0.11799027  0.74820668  1
  O  O361  1  0.75468040  0.61905363  0.25430941  1
  O  O362  1  0.75420225  0.60844981  0.73982980  1
  O  O363  1  0.37265108  0.12005472  0.37238988  1
  O  O364  1  0.36804665  0.11905341  0.87299170  1
  O  O365  1  0.38324142  0.61265888  0.37136010  1
  O  O366  1  0.37568905  0.61469549  0.87254700  1
  O  O367  1  0.86643348  0.11955292  0.36721257  1
  O  O368  1  0.87517576  0.12117215  0.86068300  1
  O  O369  1  0.87099509  0.62471600  0.36738032  1
  O  O370  1  0.88459888  0.61207727  0.87516104  1
  O  O371  1  0.12112116  0.38481892  0.13412358  1
  O  O372  1  0.13113939  0.37669514  0.63016967  1
  O  O373  1  0.13828926  0.87884850  0.11966272  1
  O  O374  1  0.13063101  0.88557146  0.63507261  1
  O  O375  1  0.64143593  0.37319992  0.11937962  1
  O  O376  1  0.64102868  0.38279112  0.61580946  1
  O  O377  1  0.63326568  0.87560268  0.12988101  1
  O  O378  1  0.63052231  0.87991089  0.63303501  1
  O  O379  1  0.11273320  0.25590479  0.25471022  1
  O  O380  1  0.11534840  0.25273010  0.76036349  1
  O  O381  1  0.10611187  0.74850117  0.24671177  1
  O  O382  1  0.11562817  0.76630556  0.76025423  1
  O  O383  1  0.61717303  0.25479765  0.25652698  1
  O  O384  1  0.60706753  0.24260670  0.75019689  1
  O  O385  1  0.61912799  0.75479581  0.25825981  1
  O  O386  1  0.60856719  0.75586494  0.74308258  1
  O  O387  1  0.38317727  0.24456449  0.25061977  1
  O  O388  1  0.37948932  0.24204897  0.74589162  1
  O  O389  1  0.39600666  0.74724579  0.25238901  1
  O  O390  1  0.38343711  0.74212310  0.75088714  1
  O  O391  1  0.87519421  0.24615715  0.25157895  1
  O  O392  1  0.88740886  0.24311200  0.75530360  1
  O  O393  1  0.88150070  0.74030848  0.24433810  1
  O  O394  1  0.88661181  0.75570181  0.73638622  1
  O  O395  1  0.38264092  0.49403037  0.49342502  1
  O  O396  1  0.36873226  0.49122328  0.98900987  1
  O  O397  1  0.38896465  0.99763802  0.49771150  1
  O  O398  1  0.36997684  0.99229685  0.98959669  1
  O  O399  1  0.88867263  0.49405001  0.50243004  1
  O  O400  1  0.87808688  0.49517488  0.98993047  1
  O  O401  1  0.86401727  1.00012872  0.48643810  1
  O  O402  1  0.88703184  1.00809035  0.99890035  1
  O  O403  1  0.11384114  0.01024542  -0.00027747  1
  O  O404  1  0.12363534  0.00599037  0.51514992  1
  O  O405  1  0.11991848  0.50394601  0.00762207  1
  O  O406  1  0.10776049  0.49052141  0.51182350  1
  O  O407  1  0.62652024  0.01528839  0.00186571  1
  O  O408  1  0.61569846  0.00425100  0.50388250  1
  O  O409  1  0.70114172  0.49555657  0.02209680  1
  O  O410  1  0.62160121  0.50713939  0.50870501  1
  O  O411  1  0.37383701  0.37277157  0.11301067  1
  O  O412  1  0.36659913  0.37223068  0.62052144  1
  O  O413  1  0.36896676  0.88192574  0.11211918  1
  O  O414  1  0.36955631  0.87286088  0.62065434  1
  O  O415  1  0.85459592  0.38300521  0.11082115  1
  O  O416  1  0.86623401  0.37159136  0.61250283  1
  O  O417  1  0.86609527  0.86224449  0.13322448  1
  O  O418  1  0.86724924  0.87085005  0.62333639  1
  O  O419  1  0.13037900  0.11652802  0.39467277  1
  O  O420  1  0.13013839  0.13126836  0.88262715  1
  O  O421  1  0.14095968  0.61458661  0.36684011  1
  O  O422  1  0.12819745  0.63153139  0.88609708  1
  O  O423  1  0.62458677  0.13538034  0.38239472  1
  O  O424  1  0.62443534  0.13010637  0.88181281  1
  O  O425  1  0.62528059  0.63306974  0.38670773  1
  O  O426  1  0.63969438  0.60468103  0.88678819  1
