# generated using pymatgen
data_V85Zn86O256
_symmetry_space_group_name_H-M   'P 1'
_cell_length_a   16.95574945
_cell_length_b   16.95240018
_cell_length_c   16.95632552
_cell_angle_alpha   89.99966484
_cell_angle_beta   89.87220816
_cell_angle_gamma   90.14307692
_symmetry_Int_Tables_number   1
_chemical_formula_structural   V85Zn86O256
_chemical_formula_sum   'V85 Zn86 O256'
_cell_volume   4873.90990710
_cell_formula_units_Z   1
loop_
 _symmetry_equiv_pos_site_id
 _symmetry_equiv_pos_as_xyz
  1  'x, y, z'
loop_
 _atom_site_type_symbol
 _atom_site_label
 _atom_site_symmetry_multiplicity
 _atom_site_fract_x
 _atom_site_fract_y
 _atom_site_fract_z
 _atom_site_occupancy
  V  V0  1  -0.00014506  0.12072768  0.62545637  1
  V  V1  1  0.13409239  0.87485629  0.74209229  1
  V  V2  1  0.87615874  0.26475354  0.11491244  1
  V  V3  1  0.37170806  0.87676456  0.49901511  1
  V  V4  1  0.87620266  0.00198497  0.37816567  1
  V  V5  1  0.24683933  0.38634474  0.62967717  1
  V  V6  1  -0.00466687  0.73582796  0.73988454  1
  V  V7  1  0.50708698  0.87557281  0.37302891  1
  V  V8  1  0.12358241  0.25035614  0.37332845  1
  V  V9  1  0.26674555  0.86828140  0.12461023  1
  V  V10  1  0.25529384  0.12912760  0.36894808  1
  V  V11  1  0.25526905  0.12239297  0.87396944  1
  V  V12  1  0.12327759  0.62085135  0.51618455  1
  V  V13  1  0.37602409  0.49593874  0.38040210  1
  V  V14  1  0.75123653  0.12560472  0.87594790  1
  V  V15  1  -0.00116981  -0.00703188  0.49748727  1
  V  V16  1  0.26394941  0.75224120  0.00005413  1
  V  V17  1  0.63249966  0.75751081  0.38693790  1
  V  V18  1  0.37001596  0.61873962  0.74704776  1
  V  V19  1  0.90445967  0.09048893  0.20587522  1
  V  V20  1  0.00167729  0.37676659  0.37781147  1
  V  V21  1  0.37291001  0.75140436  0.62207750  1
  V  V22  1  0.74407804  0.00076174  0.25164941  1
  V  V23  1  0.88015018  0.12074942  0.75064981  1
  V  V24  1  0.87257138  0.24661094  0.62783675  1
  V  V25  1  0.75112312  0.86886088  0.12879448  1
  V  V26  1  0.12658892  0.37939569  0.24859633  1
  V  V27  1  0.75235323  0.37321344  0.62750687  1
  V  V28  1  0.12100060  0.23733866  0.88088022  1
  V  V29  1  0.75253465  0.49991274  0.24806462  1
  V  V30  1  0.37956110  0.37054918  0.00471714  1
  V  V31  1  0.61890339  0.37916681  0.24657489  1
  V  V32  1  0.12189209  0.87014549  0.24534547  1
  V  V33  1  0.62409124  0.51658376  0.11917819  1
  V  V34  1  0.11867872  0.50597072  0.12746782  1
  V  V35  1  0.75257474  0.24910670  0.49759642  1
  V  V36  1  0.62607154  0.49683374  0.62654886  1
  V  V37  1  0.29326896  0.54957054  0.21077315  1
  V  V38  1  0.86832690  0.73901899  0.61854495  1
  V  V39  1  0.49391288  0.24633926  0.25050853  1
  V  V40  1  0.87839028  0.50191432  0.37603132  1
  V  V41  1  0.11610951  0.74764007  0.37615853  1
  V  V42  1  0.24826592  0.75626708  0.49835939  1
  V  V43  1  0.87575084  -0.00174175  0.87527919  1
  V  V44  1  0.36825662  0.24275736  0.63165399  1
  V  V45  1  0.50302146  0.48797164  0.49730269  1
  V  V46  1  0.50829211  0.75422872  0.74388013  1
  V  V47  1  -0.00866621  0.25316854  0.24708860  1
  V  V48  1  0.12917013  0.38575195  0.75308970  1
  V  V49  1  0.37556617  -0.00354383  0.86137777  1
  V  V50  1  0.75548657  0.50301138  0.74898234  1
  V  V51  1  0.24853002  0.25095925  0.50240135  1
  V  V52  1  0.12280857  0.12307128  0.49658124  1
  V  V53  1  0.62415720  -0.00100692  0.12502370  1
  V  V54  1  0.37466006  0.00547109  0.36864748  1
  V  V55  1  0.87676927  0.50760529  0.87406414  1
  V  V56  1  0.24736151  0.61820536  0.37817442  1
  V  V57  1  0.62297884  0.12728373  0.00468071  1
  V  V58  1  0.75405895  0.63047261  0.38085911  1
  V  V59  1  0.25045821  0.37277036  0.12400276  1
  V  V60  1  0.87556780  0.87364882  -0.00473020  1
  V  V61  1  0.56676115  0.81522272  0.20339839  1
  V  V62  1  0.00507199  0.50057805  0.51774817  1
  V  V63  1  0.50129008  0.00614001  0.49883633  1
  V  V64  1  0.50444533  0.51754672  -0.00263807  1
  V  V65  1  0.62492714  0.25950047  0.37271996  1
  V  V66  1  0.73887826  0.62133748  0.87675621  1
  V  V67  1  0.11799610  0.63462869  0.00392062  1
  V  V68  1  -0.00450287  0.37272164  0.87887272  1
  V  V69  1  0.13360370  -0.00436181  0.62448506  1
  V  V70  1  0.49217185  0.24463373  0.75363372  1
  V  V71  1  0.50005548  0.62118500  0.61736764  1
  V  V72  1  0.12671845  0.75326704  0.87479656  1
  V  V73  1  -0.00324393  0.50151777  0.00140714  1
  V  V74  1  -0.00026966  0.87640916  0.86706704  1
  V  V75  1  0.89192859  0.63103390  0.24743889  1
  V  V76  1  0.48849684  -0.00314982  0.00075883  1
  V  V77  1  0.87890462  0.37406240  0.50129922  1
  V  V78  1  0.36634514  0.49646020  0.87197742  1
  V  V79  1  0.62645507  0.12783764  0.49978055  1
  V  V80  1  0.62257563  0.25322573  0.87606280  1
  V  V81  1  0.89718720  0.74740189  0.12340841  1
  V  V82  1  0.24482934  0.00713752  0.23735783  1
  V  V83  1  0.50359182  0.87513595  0.87163007  1
  V  V84  1  0.74525096  0.74201168  -0.00008463  1
  Zn  Zn85  1  0.62432812  0.37028240  0.74969286  1
  Zn  Zn86  1  0.63243893  0.75826508  0.86718610  1
  Zn  Zn87  1  0.63206435  0.62409237  0.50181017  1
  Zn  Zn88  1  0.49769207  0.37591775  0.87404166  1
  Zn  Zn89  1  0.06348435  0.05932387  0.08654649  1
  Zn  Zn90  1  0.24733381  0.62452760  0.87021375  1
  Zn  Zn91  1  0.43280563  0.67421563  0.20512360  1
  Zn  Zn92  1  0.25381335  0.00079140  0.74237346  1
  Zn  Zn93  1  0.75308556  0.25952080  -0.00326570  1
  Zn  Zn94  1  0.75485879  0.12903800  0.36658310  1
  Zn  Zn95  1  0.00228051  0.25035646  0.75093761  1
  Zn  Zn96  1  0.62153484  -0.01243899  0.63390575  1
  Zn  Zn97  1  -0.00304780  0.87138290  0.37316972  1
  Zn  Zn98  1  0.49036115  0.12456012  0.12788755  1
  Zn  Zn99  1  0.73898742  -0.01406945  0.75139699  1
  Zn  Zn100  1  0.73718773  0.86744383  0.62767057  1
  Zn  Zn101  1  0.37749015  0.37067985  0.50304907  1
  Zn  Zn102  1  0.86291716  0.86870397  0.50248506  1
  Zn  Zn103  1  0.24695560  0.23919008  0.00279137  1
  Zn  Zn104  1  0.75151746  0.38333077  0.11339773  1
  Zn  Zn105  1  0.49352201  0.12351524  0.63110025  1
  Zn  Zn106  1  0.36953676  0.24328724  0.12899564  1
  Zn  Zn107  1  0.18305744  0.18898134  0.18478732  1
  Zn  Zn108  1  0.18416906  0.18557663  0.69541618  1
  Zn  Zn109  1  0.17957533  0.69576355  0.18302476  1
  Zn  Zn110  1  0.19132390  0.69164712  0.68836374  1
  Zn  Zn111  1  0.69561476  0.18818760  0.18684367  1
  Zn  Zn112  1  0.66994034  0.15290961  0.70417513  1
  Zn  Zn113  1  0.70049264  0.68366975  0.19166984  1
  Zn  Zn114  1  0.68931042  0.68160707  0.68822592  1
  Zn  Zn115  1  0.31175200  0.32107548  0.31222243  1
  Zn  Zn116  1  0.30839237  0.31065767  0.81536673  1
  Zn  Zn117  1  0.31060800  0.81281869  0.30943322  1
  Zn  Zn118  1  0.31764615  0.81348637  0.81179621  1
  Zn  Zn119  1  0.81197928  0.31669501  0.30992859  1
  Zn  Zn120  1  0.81340675  0.31396049  0.81461838  1
  Zn  Zn121  1  0.81684438  0.81324652  0.31129219  1
  Zn  Zn122  1  0.81194842  0.80774206  0.80318586  1
  Zn  Zn123  1  0.18667626  0.43700419  0.44300941  1
  Zn  Zn124  1  0.18405352  0.43593510  0.94070977  1
  Zn  Zn125  1  0.18621372  0.93884824  0.43066528  1
  Zn  Zn126  1  0.19473920  0.93784179  0.94259892  1
  Zn  Zn127  1  0.69110092  0.43823861  0.43758357  1
  Zn  Zn128  1  0.68615840  0.43702894  0.93934456  1
  Zn  Zn129  1  0.69088764  0.93788595  0.44397478  1
  Zn  Zn130  1  0.68632640  0.93733908  0.93765215  1
  Zn  Zn131  1  0.31099315  0.06668181  0.05915831  1
  Zn  Zn132  1  0.31196438  0.06576506  0.55600998  1
  Zn  Zn133  1  0.31053626  0.56421346  0.04411390  1
  Zn  Zn134  1  0.31364422  0.56385953  0.55877092  1
  Zn  Zn135  1  0.80950949  0.06011284  0.05599529  1
  Zn  Zn136  1  0.80652258  0.05574874  0.56270236  1
  Zn  Zn137  1  0.81732562  0.56631394  0.06348661  1
  Zn  Zn138  1  0.81914440  0.56422060  0.56490501  1
  Zn  Zn139  1  0.46159937  0.47709353  0.20545583  1
  Zn  Zn140  1  0.43619767  0.42982036  0.68849970  1
  Zn  Zn141  1  0.43129930  0.94854736  0.18596493  1
  Zn  Zn142  1  0.44244347  0.93460681  0.68241444  1
  Zn  Zn143  1  0.93997485  0.44096944  0.18867686  1
  Zn  Zn144  1  0.93837260  0.43450275  0.69517556  1
  Zn  Zn145  1  0.93546655  0.92055676  0.19083904  1
  Zn  Zn146  1  0.93532119  0.93087718  0.68580153  1
  Zn  Zn147  1  0.07867878  0.07380876  0.28097758  1
  Zn  Zn148  1  0.06717795  0.05016144  0.92741966  1
  Zn  Zn149  1  0.06660418  0.56078435  0.31785372  1
  Zn  Zn150  1  0.06532762  0.56347151  0.81589670  1
  Zn  Zn151  1  0.56649927  0.06830131  0.31497560  1
  Zn  Zn152  1  0.55828734  0.06634750  0.81687811  1
  Zn  Zn153  1  0.56509501  0.56917048  0.31692790  1
  Zn  Zn154  1  0.55891877  0.56134308  0.80739902  1
  Zn  Zn155  1  0.43772939  0.19372064  0.43407438  1
  Zn  Zn156  1  0.43466888  0.18473032  0.94053357  1
  Zn  Zn157  1  0.41850711  0.70625458  0.39115703  1
  Zn  Zn158  1  0.43813764  0.68755150  0.92710340  1
  Zn  Zn159  1  0.93815226  0.18349313  0.43569135  1
  Zn  Zn160  1  0.94390648  0.18128952  0.94763780  1
  Zn  Zn161  1  0.93975560  0.68177569  0.44414815  1
  Zn  Zn162  1  0.93671168  0.68918950  0.93371030  1
  Zn  Zn163  1  0.06125505  0.31306491  0.06095811  1
  Zn  Zn164  1  0.06441561  0.31177590  0.56736453  1
  Zn  Zn165  1  0.07844924  0.85600498  0.04443746  1
  Zn  Zn166  1  0.06042545  0.81138339  0.56345395  1
  Zn  Zn167  1  0.56338681  0.31852539  0.06612821  1
  Zn  Zn168  1  0.56325504  0.30729482  0.56838553  1
  Zn  Zn169  1  0.55334158  0.80222697  0.04123211  1
  Zn  Zn170  1  0.56325235  0.81381288  0.55835212  1
  O  O171  1  0.12626638  0.09456005  0.17253532  1
  O  O172  1  0.11743559  0.11777390  0.61994976  1
  O  O173  1  0.12733566  0.61842361  0.11672104  1
  O  O174  1  0.13173273  0.62857576  0.61495285  1
  O  O175  1  0.62812026  0.12199025  0.11425780  1
  O  O176  1  0.61443693  0.14063475  0.60372723  1
  O  O177  1  0.63150647  0.61540490  0.12940308  1
  O  O178  1  0.61822684  0.61511980  0.62320263  1
  O  O179  1  0.36420063  0.39011890  0.38593052  1
  O  O180  1  0.37317562  0.38106392  0.88360458  1
  O  O181  1  0.38306405  0.88486153  0.38305629  1
  O  O182  1  0.38723149  0.88436972  0.87215403  1
  O  O183  1  0.88184798  0.38085684  0.38128742  1
  O  O184  1  0.89016746  0.38313261  0.87001209  1
  O  O185  1  0.87741066  0.88490918  0.37843196  1
  O  O186  1  0.87895895  0.87827335  0.87613230  1
  O  O187  1  0.25850948  0.00958763  0.37042344  1
  O  O188  1  0.25904286  0.00303877  0.87291088  1
  O  O189  1  0.25256938  0.51036447  0.38205903  1
  O  O190  1  0.26292647  0.50365443  0.88485075  1
  O  O191  1  0.75442770  0.00127493  0.36498745  1
  O  O192  1  0.75562776  0.00855223  0.87254714  1
  O  O193  1  0.75894345  0.50546741  0.36774171  1
  O  O194  1  0.75685653  0.50364226  0.86962299  1
  O  O195  1  0.24192098  0.49579120  0.12648233  1
  O  O196  1  0.25512875  0.48514982  0.61953565  1
  O  O197  1  0.25818079  0.98769228  0.13391203  1
  O  O198  1  0.23760643  1.00521342  0.62010911  1
  O  O199  1  0.74612281  0.50371949  0.13191388  1
  O  O200  1  0.74820994  0.49591143  0.63156243  1
  O  O201  1  0.74378621  0.98916574  0.12725847  1
  O  O202  1  0.74058935  1.00214604  0.63282893  1
  O  O203  1  0.00552808  0.37114571  0.25738521  1
  O  O204  1  0.01192078  0.37171160  0.75907487  1
  O  O205  1  0.01746095  0.87588054  0.25441892  1
  O  O206  1  0.01014410  0.86516876  0.75366333  1
  O  O207  1  0.51561545  0.37510314  0.24829717  1
  O  O208  1  0.50375713  0.36153755  0.75385598  1
  O  O209  1  0.50548565  0.88278918  0.25394319  1
  O  O210  1  0.49480953  0.86374789  0.75537021  1
  O  O211  1  0.50606400  0.14268098  0.24928437  1
  O  O212  1  0.49571916  0.13954553  0.75012184  1
  O  O213  1  0.49376455  0.58552850  0.23532540  1
  O  O214  1  0.48966726  0.62970590  0.73810823  1
  O  O215  1  0.98346108  0.13809399  0.26157970  1
  O  O216  1  0.98611982  0.12825807  0.74302435  1
  O  O217  1  0.99065797  0.62099800  0.25629392  1
  O  O218  1  1.00682718  0.63842116  0.75409706  1
  O  O219  1  0.36961935  0.25903205  0.00050072  1
  O  O220  1  0.36550475  0.25194069  0.50609730  1
  O  O221  1  0.36311927  0.74112174  -0.00461375  1
  O  O222  1  0.36855294  0.75805605  0.49635231  1
  O  O223  1  0.87769709  0.25106783  0.01274497  1
  O  O224  1  0.87303248  0.25390080  0.50591829  1
  O  O225  1  0.86561969  0.75413544  0.00398519  1
  O  O226  1  0.88301183  0.75017027  0.51408311  1
  O  O227  1  0.12780888  0.24292407  0.49360765  1
  O  O228  1  0.12879152  0.25965423  0.98413602  1
  O  O229  1  0.13194537  0.74437439  0.49611952  1
  O  O230  1  0.12857898  0.75184315  0.99132591  1
  O  O231  1  0.63036744  0.25078688  0.48968785  1
  O  O232  1  0.62266370  0.24290805  0.99494402  1
  O  O233  1  0.62416482  0.74365352  0.48931415  1
  O  O234  1  0.64078604  0.75232005  0.99197116  1
  O  O235  1  0.50260172  0.25184236  0.14107983  1
  O  O236  1  0.48706579  0.24988940  0.63405780  1
  O  O237  1  0.50930927  0.75749844  0.14108997  1
  O  O238  1  0.49082014  0.74064223  0.62498073  1
  O  O239  1  0.98883737  0.25532719  0.13269263  1
  O  O240  1  0.98881339  0.24031294  0.62330006  1
  O  O241  1  0.99301044  0.76482789  0.11392577  1
  O  O242  1  0.99893185  0.74764996  0.63635515  1
  O  O243  1  0.00178459  0.25809333  0.36931741  1
  O  O244  1  0.00581657  0.25632184  0.87675710  1
  O  O245  1  0.01295559  0.74900978  0.38217409  1
  O  O246  1  0.00550789  0.75803341  0.86503914  1
  O  O247  1  0.51071614  0.25270719  0.36282709  1
  O  O248  1  0.50508573  0.24923100  0.87118937  1
  O  O249  1  0.51459075  0.76835827  0.37936530  1
  O  O250  1  0.50171971  0.75807076  0.86352997  1
  O  O251  1  0.24163784  0.13113815  0.48805260  1
  O  O252  1  0.24320947  0.11932353  0.98283898  1
  O  O253  1  0.24347235  0.63264498  0.49449147  1
  O  O254  1  0.23588914  0.63649880  0.99544752  1
  O  O255  1  0.74248033  0.13312851  0.49648223  1
  O  O256  1  0.74406613  0.13052587  0.98952475  1
  O  O257  1  0.75246026  0.61556387  0.48457511  1
  O  O258  1  0.75478229  0.63123371  0.99089253  1
  O  O259  1  0.25671932  0.37765333  0.01122598  1
  O  O260  1  0.24334235  0.36426582  0.51269319  1
  O  O261  1  0.25072613  0.86754463  0.01605450  1
  O  O262  1  0.25767394  0.86619589  0.49134846  1
  O  O263  1  0.75122152  0.37292211  0.00027034  1
  O  O264  1  0.75947745  0.36979030  0.50689166  1
  O  O265  1  0.75752941  0.86828398  0.00669202  1
  O  O266  1  0.75005460  0.87590606  0.51173774  1
  O  O267  1  0.12080461  0.49348054  0.24021346  1
  O  O268  1  0.12578024  0.48522616  0.75811657  1
  O  O269  1  0.14202979  0.97709372  0.27207668  1
  O  O270  1  0.12733461  0.98785850  0.73527446  1
  O  O271  1  0.63533241  0.49561498  0.24476296  1
  O  O272  1  0.63149434  0.49534205  0.74182324  1
  O  O273  1  0.63598814  1.00742222  0.24295513  1
  O  O274  1  0.63373295  1.04190585  0.73883760  1
  O  O275  1  0.36232367  -0.00175417  0.26194540  1
  O  O276  1  0.37483127  -0.00401505  0.75688521  1
  O  O277  1  0.35966215  0.48441475  0.26086276  1
  O  O278  1  0.38234229  0.50566477  0.75961324  1
  O  O279  1  0.86637857  -0.00332995  0.25801152  1
  O  O280  1  0.87546569  0.00535919  0.76016998  1
  O  O281  1  0.87122838  0.50697397  0.25497598  1
  O  O282  1  0.86731833  0.49594361  0.76046410  1
  O  O283  1  0.12167160  0.36969856  0.36959837  1
  O  O284  1  0.11905088  0.36994615  0.86760715  1
  O  O285  1  0.12628632  0.86133311  0.36979428  1
  O  O286  1  0.11820217  0.86760032  0.86780271  1
  O  O287  1  0.63432065  0.36632073  0.36535698  1
  O  O288  1  0.62239213  0.36180615  0.87377010  1
  O  O289  1  0.62008268  0.87046924  0.37594291  1
  O  O290  1  0.61080531  0.87710441  0.87480631  1
  O  O291  1  0.37642396  0.12970586  0.12303969  1
  O  O292  1  0.37334600  0.13809951  0.62003964  1
  O  O293  1  0.35245146  0.60826638  0.14366183  1
  O  O294  1  0.38132779  0.63016056  0.62712985  1
  O  O295  1  0.86621569  0.13933203  0.12263825  1
  O  O296  1  0.87766456  0.12841517  0.63209099  1
  O  O297  1  0.87767943  0.63579975  0.13429173  1
  O  O298  1  0.88103565  0.63796026  0.62403251  1
  O  O299  1  0.24599706  0.25710719  0.12058404  1
  O  O300  1  0.25179972  0.25099733  0.62202222  1
  O  O301  1  0.25032236  0.76088066  0.11801405  1
  O  O302  1  0.26492676  0.74662239  0.61312117  1
  O  O303  1  0.76597135  0.25787478  0.12605268  1
  O  O304  1  0.76314466  0.25174377  0.61892239  1
  O  O305  1  0.75456831  0.75502715  0.11747536  1
  O  O306  1  0.76509001  0.74216829  0.62994019  1
  O  O307  1  0.24574176  0.24589067  0.37867530  1
  O  O308  1  0.24359723  0.23587707  0.87710042  1
  O  O309  1  0.24241194  0.73955865  0.38424450  1
  O  O310  1  0.24294033  0.75321078  0.88154293  1
  O  O311  1  0.74605770  0.24992768  0.37873717  1
  O  O312  1  0.74255347  0.24340540  0.87575236  1
  O  O313  1  0.74466212  0.74254355  0.36830986  1
  O  O314  1  0.75283705  0.73804303  0.87985156  1
  O  O315  1  0.01496616  0.11734258  0.00162426  1
  O  O316  1  0.00501440  0.11443435  0.50471057  1
  O  O317  1  0.01210192  0.62162470  -0.00739013  1
  O  O318  1  0.01147550  0.61152562  0.49899188  1
  O  O319  1  0.50882688  0.11613048  0.00115878  1
  O  O320  1  0.50396021  0.11641787  0.49295764  1
  O  O321  1  0.49516035  0.61628230  -0.00129699  1
  O  O322  1  0.50208705  0.61235667  0.51385982  1
  O  O323  1  0.50028161  0.38465978  0.50764004  1
  O  O324  1  0.48828801  0.37782519  0.99729516  1
  O  O325  1  0.49468808  0.88853726  0.48953936  1
  O  O326  1  0.50051454  0.88530719  0.98938419  1
  O  O327  1  0.99859729  0.37896018  0.49656690  1
  O  O328  1  1.00871244  0.38866015  0.98943544  1
  O  O329  1  1.00124549  0.88615224  0.49725374  1
  O  O330  1  0.98133141  0.86625195  0.98487350  1
  O  O331  1  0.49108273  0.50386375  0.38759488  1
  O  O332  1  0.49421600  0.49886115  0.88458164  1
  O  O333  1  0.49487586  0.99576453  0.37586400  1
  O  O334  1  0.49320185  0.99602768  0.87899522  1
  O  O335  1  0.99618826  0.49126387  0.38244249  1
  O  O336  1  0.99453101  0.49575058  0.88075469  1
  O  O337  1  0.99193795  0.99907247  0.38325634  1
  O  O338  1  0.99165886  0.98374932  0.86892895  1
  O  O339  1  -0.03224730  0.02208175  0.14991135  1
  O  O340  1  0.00598391  0.00413329  0.61743138  1
  O  O341  1  0.01056778  0.49715412  0.11643569  1
  O  O342  1  -0.00274004  0.49209098  0.61644216  1
  O  O343  1  0.50612643  0.00154720  0.11765739  1
  O  O344  1  0.50058612  0.00652561  0.61282217  1
  O  O345  1  0.51028261  0.49464309  0.10312569  1
  O  O346  1  0.50603468  0.50220527  0.62214841  1
  O  O347  1  0.23914897  0.36773896  0.23549828  1
  O  O348  1  0.23725664  0.37181633  0.74616119  1
  O  O349  1  0.24632121  0.87806161  0.24052351  1
  O  O350  1  0.23780817  0.87420872  0.75211929  1
  O  O351  1  0.74626604  0.39017117  0.24770637  1
  O  O352  1  0.74897485  0.38398473  0.74512353  1
  O  O353  1  0.75574603  0.88190213  0.23496148  1
  O  O354  1  0.74694912  0.87318824  0.74484164  1
  O  O355  1  0.25075645  0.12029237  0.26241556  1
  O  O356  1  0.24460171  0.11766200  0.76712969  1
  O  O357  1  0.23593278  0.62283093  0.26106789  1
  O  O358  1  0.26556009  0.62998778  0.74990085  1
  O  O359  1  0.76450355  0.11128820  0.24485574  1
  O  O360  1  0.76664664  0.13130907  0.76554745  1
  O  O361  1  0.76143056  0.61468150  0.26087311  1
  O  O362  1  0.74905478  0.60979080  0.75808271  1
  O  O363  1  0.36712147  0.11766017  0.38093209  1
  O  O364  1  0.36334947  0.11522383  0.87710210  1
  O  O365  1  0.36064898  0.60824896  0.38152008  1
  O  O366  1  0.37348950  0.61620060  0.86350734  1
  O  O367  1  0.87156454  0.10890198  0.37967233  1
  O  O368  1  0.87186099  0.11730469  0.87257703  1
  O  O369  1  0.87205277  0.62184025  0.36944488  1
  O  O370  1  0.86830505  0.61185876  0.87741557  1
  O  O371  1  0.13040607  0.38558373  0.12681731  1
  O  O372  1  0.13125622  0.36703276  0.64381344  1
  O  O373  1  0.13640706  0.87123901  0.14279845  1
  O  O374  1  0.12327470  0.88198839  0.62980356  1
  O  O375  1  0.63013090  0.38770133  0.13280280  1
  O  O376  1  0.63570562  0.37862032  0.62643539  1
  O  O377  1  0.62536840  0.87026278  0.13166571  1
  O  O378  1  0.61752830  0.87434331  0.63052141  1
  O  O379  1  0.10968628  0.25806811  0.25314102  1
  O  O380  1  0.12187722  0.25618042  0.76592707  1
  O  O381  1  0.13027557  0.76151440  0.26148184  1
  O  O382  1  0.12004982  0.75526288  0.75509831  1
  O  O383  1  0.62419153  0.25923064  0.25408840  1
  O  O384  1  0.61739315  0.24491038  0.76122137  1
  O  O385  1  0.62716216  0.75239223  0.25695259  1
  O  O386  1  0.61051517  0.73886438  0.74980477  1
  O  O387  1  0.39235358  0.26096514  0.25377856  1
  O  O388  1  0.37860750  0.25436366  0.74333431  1
  O  O389  1  0.38980169  0.74192966  0.28229179  1
  O  O390  1  0.38216688  0.74433863  0.73738657  1
  O  O391  1  0.88400034  0.25630960  0.24072484  1
  O  O392  1  0.87798588  0.24461850  0.74221392  1
  O  O393  1  0.87586904  0.74337339  0.23748984  1
  O  O394  1  0.89093866  0.74685434  0.74296403  1
  O  O395  1  0.38533600  0.49621817  0.49698486  1
  O  O396  1  0.38647635  0.49464201  0.99207561  1
  O  O397  1  0.38025384  0.99560297  0.49067876  1
  O  O398  1  0.38658921  1.00297670  0.99042320  1
  O  O399  1  0.88445827  0.49302143  0.49581823  1
  O  O400  1  0.89072579  0.50642732  0.99529751  1
  O  O401  1  0.88271822  0.99761335  0.49554134  1
  O  O402  1  0.86802860  0.98958439  0.98472575  1
  O  O403  1  0.10810413  -0.02683823  0.00758101  1
  O  O404  1  0.11846304  0.00423782  0.50217279  1
  O  O405  1  0.11749372  0.51203072  0.00553128  1
  O  O406  1  0.11658512  0.50794442  0.50043300  1
  O  O407  1  0.61930504  0.00746686  0.00626230  1
  O  O408  1  0.61539856  0.01304869  0.49517945  1
  O  O409  1  0.61252454  0.50294000  0.00187669  1
  O  O410  1  0.62006150  0.49972768  0.50685949  1
  O  O411  1  0.36401711  0.37061461  0.11689844  1
  O  O412  1  0.36243868  0.36326017  0.62503884  1
  O  O413  1  0.36570243  0.87075836  0.13119980  1
  O  O414  1  0.38229021  0.86664352  0.60736405  1
  O  O415  1  0.87563279  0.36753700  0.12648257  1
  O  O416  1  0.87286635  0.36524558  0.62256195  1
  O  O417  1  0.86702223  0.86714595  0.11462461  1
  O  O418  1  0.87788936  0.85610924  0.62382853  1
  O  O419  1  0.13179359  0.13286951  0.37483347  1
  O  O420  1  0.13251761  0.13096022  0.87279030  1
  O  O421  1  0.13099603  0.63026504  0.38499573  1
  O  O422  1  0.12764810  0.63892726  0.88015077  1
  O  O423  1  0.63025390  0.13961498  0.38237320  1
  O  O424  1  0.63231561  0.13333985  0.88678511  1
  O  O425  1  0.63604666  0.63554079  0.37612252  1
  O  O426  1  0.63662814  0.62357906  0.87030792  1
