# generated using pymatgen
data_V85Zn86O256
_symmetry_space_group_name_H-M   'P 1'
_cell_length_a   16.91897557
_cell_length_b   16.92116447
_cell_length_c   16.90904894
_cell_angle_alpha   90.00199318
_cell_angle_beta   89.99977028
_cell_angle_gamma   89.96627796
_symmetry_Int_Tables_number   1
_chemical_formula_structural   V85Zn86O256
_chemical_formula_sum   'V85 Zn86 O256'
_cell_volume   4840.86994935
_cell_formula_units_Z   1
loop_
 _symmetry_equiv_pos_site_id
 _symmetry_equiv_pos_as_xyz
  1  'x, y, z'
loop_
 _atom_site_type_symbol
 _atom_site_label
 _atom_site_symmetry_multiplicity
 _atom_site_fract_x
 _atom_site_fract_y
 _atom_site_fract_z
 _atom_site_occupancy
  V  V0  1  0.86927210  0.12671653  0.74839633  1
  V  V1  1  0.25026092  0.75072228  0.50665649  1
  V  V2  1  0.37484426  0.62595013  0.24936720  1
  V  V3  1  0.88230728  0.87372432  -0.00195211  1
  V  V4  1  0.37815719  0.87544755  -0.00049572  1
  V  V5  1  0.87753097  0.62300630  0.75482986  1
  V  V6  1  0.25136104  0.37610769  0.62570674  1
  V  V7  1  0.74863385  0.00168793  0.24312576  1
  V  V8  1  0.62186429  0.37359553  0.74651079  1
  V  V9  1  0.24856879  0.12491685  0.38083342  1
  V  V10  1  0.50251788  0.75057532  0.25118682  1
  V  V11  1  0.24921697  0.24824363  -0.00075528  1
  V  V12  1  0.75178501  0.61806643  0.38295930  1
  V  V13  1  0.75173891  0.49984802  0.75577017  1
  V  V14  1  0.50843696  -0.00419902  0.00439061  1
  V  V15  1  0.24446552  0.12409007  0.87439624  1
  V  V16  1  0.12103575  0.63181973  0.49430064  1
  V  V17  1  0.74873779  0.24732943  0.49821588  1
  V  V18  1  0.87385008  0.37850841  0.49586734  1
  V  V19  1  0.87897595  0.26130541  0.12315199  1
  V  V20  1  0.62389240  0.50754160  0.61229427  1
  V  V21  1  0.48960645  0.61985364  0.60683474  1
  V  V22  1  0.88571010  0.11832015  0.24287819  1
  V  V23  1  0.50909844  0.87519231  0.86342367  1
  V  V24  1  0.63445639  0.49370289  0.12782650  1
  V  V25  1  -0.00158741  0.25094499  0.74791925  1
  V  V26  1  0.50154966  0.24979645  0.25125795  1
  V  V27  1  0.24953115  0.50168650  0.24949162  1
  V  V28  1  0.37843575  0.50260755  0.37894342  1
  V  V29  1  0.88334435  0.74897033  0.12923353  1
  V  V30  1  0.87767323  0.24635509  0.62169520  1
  V  V31  1  0.50241229  0.37811637  0.37541857  1
  V  V32  1  0.37661707  0.24966276  0.12390992  1
  V  V33  1  0.12510187  0.37415204  0.24953266  1
  V  V34  1  0.75092934  0.75125608  0.00193943  1
  V  V35  1  0.25059278  0.37556298  0.12364201  1
  V  V36  1  0.00640937  0.74674365  0.26198622  1
  V  V37  1  0.75160721  0.26612244  0.00613758  1
  V  V38  1  0.10791937  0.12425167  0.50671497  1
  V  V39  1  0.62964987  0.12236067  0.00366401  1
  V  V40  1  0.24994880  -0.00137311  0.24985240  1
  V  V41  1  -0.01783809  0.38098409  0.87700291  1
  V  V42  1  0.87540641  0.62104707  0.25190516  1
  V  V43  1  0.62806100  0.74686761  0.38103123  1
  V  V44  1  0.24939288  -0.00617782  0.74942263  1
  V  V45  1  0.10764796  0.87084957  0.75351201  1
  V  V46  1  0.50379277  0.11958472  0.12724785  1
  V  V47  1  0.00453714  0.88819573  0.38297868  1
  V  V48  1  0.62160925  0.25007934  0.87287220  1
  V  V49  1  0.37888141  0.37640011  0.50065888  1
  V  V50  1  -0.00216942  0.37482924  0.37294424  1
  V  V51  1  0.62900386  -0.01606007  0.62793651  1
  V  V52  1  -0.00487093  0.50229100  0.49540713  1
  V  V53  1  0.49768922  0.72853162  0.74493346  1
  V  V54  1  0.11865639  0.12472817  0.00210858  1
  V  V55  1  0.37383163  0.87275750  0.50936016  1
  V  V56  1  0.12577783  0.37689216  0.75319806  1
  V  V57  1  -0.00212283  0.63388093  0.62746311  1
  V  V58  1  0.12573609  0.62270211  -0.00463007  1
  V  V59  1  0.37621250  0.13018749  0.75187647  1
  V  V60  1  0.12056823  0.50569602  0.12146242  1
  V  V61  1  0.24808243  0.87449685  0.12276572  1
  V  V62  1  0.38054109  0.25023942  0.62630843  1
  V  V63  1  -0.01312374  0.50158942  -0.00201113  1
  V  V64  1  0.24484810  0.63383301  0.37208862  1
  V  V65  1  0.37254470  0.51532920  0.87237288  1
  V  V66  1  0.86938082  0.88315037  0.49622671  1
  V  V67  1  0.75434649  0.11800600  0.37350835  1
  V  V68  1  0.62623494  0.62625574  -0.00250510  1
  V  V69  1  0.10838380  0.74940719  0.87225666  1
  V  V70  1  0.87941549  -0.00255363  0.87361460  1
  V  V71  1  0.25088849  0.74770095  -0.01273357  1
  V  V72  1  0.86369945  0.75575804  0.62954781  1
  V  V73  1  0.50118556  0.62240231  0.12493168  1
  V  V74  1  0.37557243  -0.00127014  0.37752113  1
  V  V75  1  0.50197873  -0.00062775  0.50286118  1
  V  V76  1  0.12347239  0.50182646  0.62482748  1
  V  V77  1  0.49598637  0.37393702  0.86910956  1
  V  V78  1  0.25330562  0.51469814  0.75259748  1
  V  V79  1  0.74666251  -0.01806737  0.74947453  1
  V  V80  1  0.62678814  0.87889581  0.24605407  1
  V  V81  1  0.00071187  -0.00065790  -0.00421671  1
  V  V82  1  0.50561541  0.12630611  0.63077332  1
  V  V83  1  0.11630043  0.00060393  0.12601560  1
  V  V84  1  0.37457251  0.37597305  -0.00334543  1
  Zn  Zn85  1  0.74883624  0.87894192  0.12415288  1
  Zn  Zn86  1  0.24834360  0.86962612  0.63128335  1
  Zn  Zn87  1  0.50244519  0.87544225  0.37714793  1
  Zn  Zn88  1  0.76303411  0.49082514  0.25244288  1
  Zn  Zn89  1  0.12613146  0.25014115  0.37518308  1
  Zn  Zn90  1  0.62601699  0.24759535  0.37469498  1
  Zn  Zn91  1  0.63217059  0.75314427  0.86559789  1
  Zn  Zn92  1  0.37255332  0.74818133  0.12472544  1
  Zn  Zn93  1  0.24815560  0.24982845  0.49993869  1
  Zn  Zn94  1  0.00366502  0.24612870  0.24289994  1
  Zn  Zn95  1  0.74808179  0.37633369  0.62291997  1
  Zn  Zn96  1  0.12681225  0.87069614  0.25734644  1
  Zn  Zn97  1  0.37830119  0.00166123  0.87551354  1
  Zn  Zn98  1  0.37499045  0.12350274  0.25096776  1
  Zn  Zn99  1  0.63313731  0.37115227  0.24609448  1
  Zn  Zn100  1  0.75643234  0.62149442  0.87781077  1
  Zn  Zn101  1  0.11174889  -0.00407504  0.61686099  1
  Zn  Zn102  1  0.62812594  0.12156240  0.50158876  1
  Zn  Zn103  1  0.50000902  0.50003488  -0.00133403  1
  Zn  Zn104  1  0.74465088  0.75201608  0.50382291  1
  Zn  Zn105  1  0.74877752  0.12480697  0.87680929  1
  Zn  Zn106  1  0.12083979  0.25103055  0.87612622  1
  Zn  Zn107  1  0.18865271  0.18497657  0.18796675  1
  Zn  Zn108  1  0.18799012  0.18901421  0.68586294  1
  Zn  Zn109  1  0.18439662  0.68927086  0.18245943  1
  Zn  Zn110  1  0.18338529  0.69001264  0.68708445  1
  Zn  Zn111  1  0.68910647  0.18820509  0.18619442  1
  Zn  Zn112  1  0.68849705  0.18824900  0.68624661  1
  Zn  Zn113  1  0.69099972  0.68599686  0.18915822  1
  Zn  Zn114  1  0.68327577  0.68572704  0.69000821  1
  Zn  Zn115  1  0.31395918  0.31097129  0.31244440  1
  Zn  Zn116  1  0.31031555  0.31281629  0.81131959  1
  Zn  Zn117  1  0.31357419  0.81363551  0.31475869  1
  Zn  Zn118  1  0.32061330  0.81019350  0.81159600  1
  Zn  Zn119  1  0.81339653  0.30837778  0.31028671  1
  Zn  Zn120  1  0.80513159  0.31152248  0.81230021  1
  Zn  Zn121  1  0.81394984  0.81298591  0.31654605  1
  Zn  Zn122  1  0.82054674  0.80792755  0.81620652  1
  Zn  Zn123  1  0.18839467  0.44139488  0.43725099  1
  Zn  Zn124  1  0.18838880  0.43882139  0.93352342  1
  Zn  Zn125  1  0.18410305  0.93971114  0.44086838  1
  Zn  Zn126  1  0.18613307  0.93631075  0.93140126  1
  Zn  Zn127  1  0.68920910  0.43482157  0.43279367  1
  Zn  Zn128  1  0.68495630  0.44000752  0.93655014  1
  Zn  Zn129  1  0.68881137  0.93732153  0.43377085  1
  Zn  Zn130  1  0.69192859  0.93736240  0.93721015  1
  Zn  Zn131  1  0.31461012  0.06035895  0.06155869  1
  Zn  Zn132  1  0.30824371  0.06022992  0.56623203  1
  Zn  Zn133  1  0.31155707  0.56346074  0.05898603  1
  Zn  Zn134  1  0.30935602  0.56187018  0.56011342  1
  Zn  Zn135  1  0.81494571  0.06421755  0.06556168  1
  Zn  Zn136  1  0.81318732  0.06139059  0.56653753  1
  Zn  Zn137  1  0.81243255  0.56790327  0.06825603  1
  Zn  Zn138  1  0.81081534  0.56303240  0.56617546  1
  Zn  Zn139  1  0.44006409  0.43828332  0.18863279  1
  Zn  Zn140  1  0.43943972  0.44478973  0.68870794  1
  Zn  Zn141  1  0.43761699  0.93658448  0.18778566  1
  Zn  Zn142  1  0.43575113  0.94198978  0.68746862  1
  Zn  Zn143  1  0.93898789  0.43709426  0.18336598  1
  Zn  Zn144  1  0.93575201  0.43812065  0.68284919  1
  Zn  Zn145  1  0.93828737  0.93263866  0.19079521  1
  Zn  Zn146  1  0.93654800  0.93865918  0.67991432  1
  Zn  Zn147  1  0.06492325  0.06081328  0.31543410  1
  Zn  Zn148  1  0.04249021  0.04646420  0.77900813  1
  Zn  Zn149  1  0.05977370  0.56142394  0.31221238  1
  Zn  Zn150  1  0.06249401  0.56403975  0.81387354  1
  Zn  Zn151  1  0.56612276  0.06275962  0.31512922  1
  Zn  Zn152  1  0.56442233  0.06056047  0.81297396  1
  Zn  Zn153  1  0.56633124  0.56300069  0.31513706  1
  Zn  Zn154  1  0.56470715  0.55819000  0.81323773  1
  Zn  Zn155  1  0.43765636  0.18655065  0.44105203  1
  Zn  Zn156  1  0.43966083  0.18646540  0.93734765  1
  Zn  Zn157  1  0.43526820  0.69076127  0.43661100  1
  Zn  Zn158  1  0.44217646  0.69357222  0.93649172  1
  Zn  Zn159  1  0.93526890  0.18910337  0.42880512  1
  Zn  Zn160  1  0.93573753  0.18879010  0.93524185  1
  Zn  Zn161  1  0.93072557  0.69291805  0.43861167  1
  Zn  Zn162  1  0.93815373  0.68207821  0.94205440  1
  Zn  Zn163  1  0.05970496  0.31595542  0.05964296  1
  Zn  Zn164  1  0.06338054  0.30968482  0.56182154  1
  Zn  Zn165  1  0.06173951  0.81116576  0.06453897  1
  Zn  Zn166  1  0.06090026  0.81254153  0.56232327  1
  Zn  Zn167  1  0.56107255  0.31209325  0.05906557  1
  Zn  Zn168  1  0.56173194  0.31315416  0.56196445  1
  Zn  Zn169  1  0.56504694  0.81023631  0.06511521  1
  Zn  Zn170  1  0.55717055  0.80723881  0.56532385  1
  O  O171  1  0.13320485  0.11315846  0.11438041  1
  O  O172  1  0.12766076  0.12945163  0.60888466  1
  O  O173  1  0.12745929  0.61234895  0.11722021  1
  O  O174  1  0.11547162  0.62202253  0.61743281  1
  O  O175  1  0.61276242  0.13020219  0.11743342  1
  O  O176  1  0.61765992  0.11954092  0.62547960  1
  O  O177  1  0.61999350  0.61852339  0.11766522  1
  O  O178  1  0.61789550  0.61173770  0.62468829  1
  O  O179  1  0.38139063  0.38138545  0.38018189  1
  O  O180  1  0.38136841  0.37600708  0.87826049  1
  O  O181  1  0.37508131  0.88681695  0.38355366  1
  O  O182  1  0.38843444  0.87572887  0.88670439  1
  O  O183  1  0.88419812  0.36965482  0.38642567  1
  O  O184  1  0.88376269  0.37608977  0.86999456  1
  O  O185  1  0.88463807  0.87143298  0.38943178  1
  O  O186  1  0.87247301  0.88364468  0.88561067  1
  O  O187  1  0.25623699  0.00484092  0.37157701  1
  O  O188  1  0.25604499  0.00754200  0.86871144  1
  O  O189  1  0.25655715  0.51011883  0.36792527  1
  O  O190  1  0.25984033  0.49734537  0.86505842  1
  O  O191  1  0.75002596  0.01167251  0.36558478  1
  O  O192  1  0.75716173  0.00181451  0.86436763  1
  O  O193  1  0.74608326  0.51452576  0.37312029  1
  O  O194  1  0.74520131  0.50186364  0.86140773  1
  O  O195  1  0.24394933  0.49488919  0.13031276  1
  O  O196  1  0.24345372  0.49443339  0.63022057  1
  O  O197  1  0.24526997  0.98964256  0.12674132  1
  O  O198  1  0.24050308  0.99978314  0.64052728  1
  O  O199  1  0.73727258  0.50355697  0.12820538  1
  O  O200  1  0.73741798  0.49907662  0.63239380  1
  O  O201  1  0.75099090  0.99959718  0.13780926  1
  O  O202  1  0.74367546  1.00255561  0.64080796  1
  O  O203  1  0.00788003  0.37661018  0.25678151  1
  O  O204  1  0.00320198  0.37232974  0.75827603  1
  O  O205  1  -0.00071951  0.86574336  0.26483340  1
  O  O206  1  0.00969084  0.87170624  0.75444040  1
  O  O207  1  0.50079447  0.36620215  0.25737090  1
  O  O208  1  0.50586703  0.37768995  0.76076698  1
  O  O209  1  0.50595575  0.86683056  0.25143944  1
  O  O210  1  0.50000786  0.88332155  0.76359601  1
  O  O211  1  0.49918371  0.12989019  0.24346152  1
  O  O212  1  0.49146269  0.11924503  0.74046497  1
  O  O213  1  0.49638001  0.63105829  0.24460002  1
  O  O214  1  0.49723203  0.62591478  0.74719802  1
  O  O215  1  0.98940958  0.12551252  0.25299976  1
  O  O216  1  0.98479555  0.14632514  0.76341997  1
  O  O217  1  0.99300017  0.63829196  0.25923971  1
  O  O218  1  0.99236582  0.61472424  0.73744209  1
  O  O219  1  0.37027101  0.25537906  0.00411536  1
  O  O220  1  0.37185917  0.25771696  0.50816571  1
  O  O221  1  0.36867085  0.75700667  0.00237025  1
  O  O222  1  0.36449591  0.76137836  0.49286021  1
  O  O223  1  0.86127452  0.24302578  0.00997336  1
  O  O224  1  0.86865665  0.25427749  0.50446404  1
  O  O225  1  0.87347252  0.75517806  0.00735491  1
  O  O226  1  0.87130809  0.75824646  0.51346119  1
  O  O227  1  0.12863279  0.24054486  0.49676940  1
  O  O228  1  0.13012485  0.24164783  1.00074696  1
  O  O229  1  0.12992845  0.73816659  0.50140713  1
  O  O230  1  0.12887366  0.74517396  0.99072721  1
  O  O231  1  0.63854154  0.24846082  0.50151392  1
  O  O232  1  0.63483720  0.24419682  0.99685847  1
  O  O233  1  0.62393990  0.75653395  0.48540039  1
  O  O234  1  0.63471596  0.74315818  1.00097030  1
  O  O235  1  0.49527228  0.24411940  0.13030067  1
  O  O236  1  0.48933182  0.24273595  0.62270021  1
  O  O237  1  0.50047106  0.73912349  0.13498644  1
  O  O238  1  0.50429435  0.72968304  0.63300054  1
  O  O239  1  0.98496096  0.25328262  0.12156625  1
  O  O240  1  0.98993425  0.25857566  0.63553092  1
  O  O241  1  0.99258741  0.75716106  0.14049702  1
  O  O242  1  0.99133459  0.73772285  0.62050729  1
  O  O243  1  0.00440004  0.26381708  0.36952470  1
  O  O244  1  -0.00060447  0.26563315  0.87059076  1
  O  O245  1  -0.00327320  0.75697459  0.36515982  1
  O  O246  1  0.01029221  0.74913183  0.87870395  1
  O  O247  1  0.49843146  0.25542857  0.36734038  1
  O  O248  1  0.51343209  0.25672354  0.88068046  1
  O  O249  1  0.50637399  0.74900300  0.36387263  1
  O  O250  1  0.50516612  0.76022240  0.86590521  1
  O  O251  1  0.24936364  0.12516271  0.48941909  1
  O  O252  1  0.24410601  0.12689315  0.99316800  1
  O  O253  1  0.24210972  0.63038378  0.49216492  1
  O  O254  1  0.23772106  0.63512863  1.00532362  1
  O  O255  1  0.75446821  0.12984937  0.49254680  1
  O  O256  1  0.73755854  0.12463495  1.00058469  1
  O  O257  1  0.75549823  0.62827569  0.48667076  1
  O  O258  1  0.74419111  0.63205852  0.99890770  1
  O  O259  1  0.25366260  0.36864073  0.00361886  1
  O  O260  1  0.26033453  0.37546453  0.50552291  1
  O  O261  1  0.25835967  0.87167700  0.00330050  1
  O  O262  1  0.25313518  0.86736019  0.50214881  1
  O  O263  1  0.74673734  0.36440343  -0.00092697  1
  O  O264  1  0.75829284  0.36702537  0.49780756  1
  O  O265  1  0.76065762  0.86912271  0.00288744  1
  O  O266  1  0.76423472  0.87192995  0.49310602  1
  O  O267  1  0.12711694  0.49274433  0.24121915  1
  O  O268  1  0.13075077  0.49422938  0.74531574  1
  O  O269  1  0.13117812  0.99759217  0.24132866  1
  O  O270  1  0.13626969  0.97836316  0.76833222  1
  O  O271  1  0.62191264  0.50027132  0.23377943  1
  O  O272  1  0.63014092  0.49010393  0.74357732  1
  O  O273  1  0.63388630  0.99096976  0.25489398  1
  O  O274  1  0.64013000  1.00247045  0.74657532  1
  O  O275  1  0.36954680  -0.00021397  0.25923537  1
  O  O276  1  0.36685945  0.01252011  0.75150229  1
  O  O277  1  0.36968262  0.50544050  0.25793544  1
  O  O278  1  0.36467072  0.49469367  0.76002391  1
  O  O279  1  0.86980472  0.01220988  0.24383200  1
  O  O280  1  0.86386601  0.00658458  0.75436553  1
  O  O281  1  0.88130117  0.51637718  0.24267696  1
  O  O282  1  0.86347409  0.50912061  0.73788073  1
  O  O283  1  0.12111966  0.37640716  0.36550971  1
  O  O284  1  0.12155547  0.37401102  0.86183032  1
  O  O285  1  0.11085218  0.87749885  0.37643015  1
  O  O286  1  0.12727308  0.85842958  0.86860593  1
  O  O287  1  0.61097446  0.37135062  0.37608494  1
  O  O288  1  0.61657362  0.37076345  0.86885783  1
  O  O289  1  0.62370675  0.86672953  0.36375411  1
  O  O290  1  0.61192147  0.87280571  0.88295711  1
  O  O291  1  0.38642853  0.12985443  0.12450451  1
  O  O292  1  0.37944915  0.13160522  0.63188754  1
  O  O293  1  0.38282857  0.62533727  0.13023317  1
  O  O294  1  0.39018957  0.61423621  0.62022859  1
  O  O295  1  0.87224823  0.13373828  0.13799916  1
  O  O296  1  0.87248713  0.13758559  0.63243706  1
  O  O297  1  0.87281384  0.64048104  0.13516039  1
  O  O298  1  0.87929875  0.63493701  0.63046795  1
  O  O299  1  0.25705232  0.25436963  0.11995834  1
  O  O300  1  0.26306381  0.25747812  0.62506144  1
  O  O301  1  0.24835530  0.76194994  0.11535545  1
  O  O302  1  0.24810466  0.74824042  0.61131323  1
  O  O303  1  0.75602437  0.24802755  0.11227321  1
  O  O304  1  0.75788354  0.25288619  0.61569833  1
  O  O305  1  0.75781520  0.75135538  0.11523789  1
  O  O306  1  0.76007320  0.74529021  0.62378030  1
  O  O307  1  0.24963162  0.23958952  0.37537481  1
  O  O308  1  0.24683801  0.24216608  0.88110186  1
  O  O309  1  0.25233754  0.73861230  0.38122558  1
  O  O310  1  0.24883170  0.75367518  0.88525060  1
  O  O311  1  0.74985345  0.23891931  0.38277489  1
  O  O312  1  0.74033139  0.24904536  0.88810688  1
  O  O313  1  0.74259734  0.74112121  0.37538456  1
  O  O314  1  0.75034890  0.74715908  0.88812202  1
  O  O315  1  0.01283132  0.12007592  -0.00726793  1
  O  O316  1  0.00901017  0.13098728  0.49606231  1
  O  O317  1  0.01466336  0.61521976  -0.00392288  1
  O  O318  1  0.00326401  0.62017235  0.50096626  1
  O  O319  1  0.50869273  0.11704338  0.00559944  1
  O  O320  1  0.50052163  0.11884487  0.51380092  1
  O  O321  1  0.50750534  0.62721609  0.00914447  1
  O  O322  1  0.49837947  0.62608068  0.50736803  1
  O  O323  1  0.48715712  0.37031420  0.49180088  1
  O  O324  1  0.49378117  0.37647843  0.98810906  1
  O  O325  1  0.49059575  0.87910173  0.49894716  1
  O  O326  1  0.49642759  0.87927081  0.99919026  1
  O  O327  1  0.99569118  0.38170667  0.49367875  1
  O  O328  1  1.00306826  0.38381725  0.98378131  1
  O  O329  1  0.99277204  0.87058787  0.48942400  1
  O  O330  1  0.98964171  0.88089356  1.00316563  1
  O  O331  1  0.49102227  0.49159636  0.36815619  1
  O  O332  1  0.49129092  0.49141750  0.87664186  1
  O  O333  1  0.49229032  1.00032044  0.38296929  1
  O  O334  1  0.50014895  0.99035914  0.88331740  1
  O  O335  1  1.00470512  0.49017343  0.38666931  1
  O  O336  1  1.00307424  0.48823664  0.88058710  1
  O  O337  1  0.99694370  0.98662285  0.37204744  1
  O  O338  1  0.98573372  1.00440161  0.87574567  1
  O  O339  1  0.01154670  -0.00581612  0.11921590  1
  O  O340  1  0.01384707  0.01596605  0.66945661  1
  O  O341  1  0.01156584  0.49028712  0.11093186  1
  O  O342  1  0.00474183  0.50650117  0.61274599  1
  O  O343  1  0.49750725  0.00775153  0.11773063  1
  O  O344  1  0.50857979  0.00700269  0.62248387  1
  O  O345  1  0.50479252  0.51141746  0.12289931  1
  O  O346  1  0.51138863  0.50992659  0.62645481  1
  O  O347  1  0.24416886  0.38094123  0.24588220  1
  O  O348  1  0.24116284  0.37978981  0.74383137  1
  O  O349  1  0.24858425  0.87812615  0.24149850  1
  O  O350  1  0.25261367  0.88103472  0.75080439  1
  O  O351  1  0.74493949  0.38009035  0.26144344  1
  O  O352  1  0.74134692  0.38169912  0.74592160  1
  O  O353  1  0.74590170  0.88397263  0.25192638  1
  O  O354  1  0.75376147  0.88373567  0.75398453  1
  O  O355  1  0.25168102  0.11764607  0.26136347  1
  O  O356  1  0.25354597  0.11994884  0.75759305  1
  O  O357  1  0.25285509  0.62358815  0.25430470  1
  O  O358  1  0.24625044  0.61374276  0.74411300  1
  O  O359  1  0.75535056  0.11956686  0.25408328  1
  O  O360  1  0.76083604  0.12620413  0.75382189  1
  O  O361  1  0.75998930  0.62171755  0.25793786  1
  O  O362  1  0.75673941  0.61782348  0.75207706  1
  O  O363  1  0.36927589  0.11373819  0.37638867  1
  O  O364  1  0.36724417  0.12615197  0.86867479  1
  O  O365  1  0.36844555  0.61878769  0.36975085  1
  O  O366  1  0.37935554  0.61421807  0.88261113  1
  O  O367  1  0.86725584  0.13212195  0.35531839  1
  O  O368  1  0.86959977  0.11825254  0.86892608  1
  O  O369  1  0.86132024  0.63167042  0.36726478  1
  O  O370  1  0.87763195  0.62984260  0.85942524  1
  O  O371  1  0.13130225  0.38252872  0.12931362  1
  O  O372  1  0.12747282  0.38026590  0.63424082  1
  O  O373  1  0.13340349  0.88265646  0.12490014  1
  O  O374  1  0.12488555  0.87366430  0.64040866  1
  O  O375  1  0.61679505  0.39105262  0.12318439  1
  O  O376  1  0.62174394  0.38296024  0.63251637  1
  O  O377  1  0.62890011  0.86836145  0.14069880  1
  O  O378  1  0.61892266  0.88472616  0.62443651  1
  O  O379  1  0.12391092  0.26210833  0.24687234  1
  O  O380  1  0.11550574  0.25781558  0.74974078  1
  O  O381  1  0.11025663  0.75093798  0.24617082  1
  O  O382  1  0.12763672  0.75812336  0.76210868  1
  O  O383  1  0.61273881  0.25065424  0.24952790  1
  O  O384  1  0.63237074  0.26218980  0.75916585  1
  O  O385  1  0.61932493  0.75375813  0.25696991  1
  O  O386  1  0.60738967  0.74658926  0.75120271  1
  O  O387  1  0.38537495  0.24735547  0.24377137  1
  O  O388  1  0.37108272  0.23828451  0.74359506  1
  O  O389  1  0.38354880  0.74510788  0.24865663  1
  O  O390  1  0.40028605  0.75715833  0.75018854  1
  O  O391  1  0.87733185  0.24137834  0.23625397  1
  O  O392  1  0.87598966  0.24742723  0.74235124  1
  O  O393  1  0.88351055  0.74573620  0.24619977  1
  O  O394  1  0.87325418  0.74240048  0.73727451  1
  O  O395  1  0.36949780  0.49267901  0.48632363  1
  O  O396  1  0.37385717  0.49197156  0.99150387  1
  O  O397  1  0.37829994  0.99469029  0.49558002  1
  O  O398  1  0.38769523  0.99279921  0.99843900  1
  O  O399  1  0.88301834  0.49129463  0.50633262  1
  O  O400  1  0.88741216  0.51094980  1.00405441  1
  O  O401  1  0.87681507  0.98131015  0.51523232  1
  O  O402  1  0.87908688  0.99492005  0.99408515  1
  O  O403  1  0.12062851  0.00458282  0.00320677  1
  O  O404  1  0.12495290  0.01704148  0.50254177  1
  O  O405  1  0.12416461  0.50692640  0.00317150  1
  O  O406  1  0.11923718  0.51066166  0.50505322  1
  O  O407  1  0.61672661  0.00617558  -0.00251047  1
  O  O408  1  0.62126496  -0.00070888  0.50869579  1
  O  O409  1  0.62327462  0.50772266  0.01026115  1
  O  O410  1  0.62870646  0.49302409  0.51447107  1
  O  O411  1  0.37066811  0.37176101  0.11842326  1
  O  O412  1  0.37593055  0.37067999  0.61890306  1
  O  O413  1  0.36910313  0.87357091  0.11459553  1
  O  O414  1  0.37052552  0.88209270  0.61355852  1
  O  O415  1  0.87195792  0.36071834  0.12815926  1
  O  O416  1  0.87354393  0.36589493  0.61231155  1
  O  O417  1  0.87223864  0.86596517  0.11945169  1
  O  O418  1  0.88132173  0.86069857  0.61878778  1
  O  O419  1  0.13189763  0.12663092  0.38394337  1
  O  O420  1  0.13671865  0.12670839  0.88143081  1
  O  O421  1  0.13352182  0.61857798  0.38196610  1
  O  O422  1  0.12531824  0.63865294  0.87941674  1
  O  O423  1  0.63589643  0.12803399  0.38001894  1
  O  O424  1  0.62423764  0.13349484  0.88310510  1
  O  O425  1  0.63966053  0.63305844  0.36858888  1
  O  O426  1  0.62441762  0.62514036  0.88897835  1
