# generated using pymatgen
data_V85Zn86O256
_symmetry_space_group_name_H-M   'P 1'
_cell_length_a   16.93256033
_cell_length_b   16.94032210
_cell_length_c   16.93108592
_cell_angle_alpha   89.98228006
_cell_angle_beta   90.03330948
_cell_angle_gamma   90.06421120
_symmetry_Int_Tables_number   1
_chemical_formula_structural   V85Zn86O256
_chemical_formula_sum   'V85 Zn86 O256'
_cell_volume   4856.55981646
_cell_formula_units_Z   1
loop_
 _symmetry_equiv_pos_site_id
 _symmetry_equiv_pos_as_xyz
  1  'x, y, z'
loop_
 _atom_site_type_symbol
 _atom_site_label
 _atom_site_symmetry_multiplicity
 _atom_site_fract_x
 _atom_site_fract_y
 _atom_site_fract_z
 _atom_site_occupancy
  V  V0  1  0.24755027  0.62388314  0.37381851  1
  V  V1  1  0.13592144  0.50233587  0.13398792  1
  V  V2  1  0.12816200  0.00173983  0.62604441  1
  V  V3  1  0.74842155  -0.01025304  0.24316986  1
  V  V4  1  0.13755794  0.87742906  0.24446464  1
  V  V5  1  0.75243767  0.12452116  0.36466909  1
  V  V6  1  0.36978847  0.37587824  0.01734227  1
  V  V7  1  0.38182731  0.62331058  0.25139672  1
  V  V8  1  0.00253525  0.86785894  0.87834990  1
  V  V9  1  0.75280570  0.86834268  0.62614385  1
  V  V10  1  0.49594248  0.24758262  0.23940599  1
  V  V11  1  0.62563009  0.11866088  0.00013932  1
  V  V12  1  0.74992364  0.37697953  0.63036429  1
  V  V13  1  0.48648435  -0.00514573  0.49893679  1
  V  V14  1  0.87559908  0.12388246  0.74907441  1
  V  V15  1  0.13201343  0.13882253  0.49465333  1
  V  V16  1  -0.00141143  0.62888107  0.12564464  1
  V  V17  1  0.12526449  0.74760887  0.37996862  1
  V  V18  1  0.50009560  0.62623007  0.61908752  1
  V  V19  1  0.75417981  0.25313357  -0.00206409  1
  V  V20  1  0.62502600  0.24806610  0.37217801  1
  V  V21  1  0.25311131  0.00283686  0.76147071  1
  V  V22  1  -0.00344518  0.75209793  0.24832712  1
  V  V23  1  0.74285205  0.62322741  0.37837063  1
  V  V24  1  0.36966675  0.62754687  0.75321310  1
  V  V25  1  0.37991102  0.13225463  0.75304249  1
  V  V26  1  -0.00559644  0.12221837  0.12996325  1
  V  V27  1  0.25938934  0.75218852  0.49838208  1
  V  V28  1  0.12925463  0.62172172  -0.00742143  1
  V  V29  1  0.49422097  0.11779989  0.11892237  1
  V  V30  1  0.87241518  0.62730175  0.24669650  1
  V  V31  1  0.62246786  0.37154056  0.74998691  1
  V  V32  1  0.00157607  0.00106783  0.50088485  1
  V  V33  1  0.25596778  0.74194453  -0.00535493  1
  V  V34  1  0.25936297  0.87831387  0.62160299  1
  V  V35  1  0.86999478  0.50000496  0.86522453  1
  V  V36  1  0.62595994  0.12067609  0.49861411  1
  V  V37  1  0.13000464  0.24804204  0.87594115  1
  V  V38  1  0.49986884  0.74961747  0.74865621  1
  V  V39  1  0.37731823  0.75025112  0.13017224  1
  V  V40  1  0.00120067  0.12487044  0.62557123  1
  V  V41  1  -0.00728142  0.49746419  0.00442538  1
  V  V42  1  0.00061635  0.87537256  0.37413351  1
  V  V43  1  0.12296891  0.37839933  0.74623369  1
  V  V44  1  0.31897277  0.31696929  0.44537554  1
  V  V45  1  0.50247102  0.50608877  -0.00279290  1
  V  V46  1  0.12914574  0.87438623  0.75715751  1
  V  V47  1  0.87009033  0.86593185  0.01365912  1
  V  V48  1  0.62592587  0.37309620  0.24777790  1
  V  V49  1  -0.00219223  0.25170942  0.74992905  1
  V  V50  1  0.74480642  0.74421225  0.01207594  1
  V  V51  1  0.87729859  0.86869374  0.50369346  1
  V  V52  1  0.49341049  0.37058331  0.87096758  1
  V  V53  1  0.62356844  -0.00172939  0.62246330  1
  V  V54  1  0.50149474  0.88054785  0.88023577  1
  V  V55  1  0.74540327  0.74501552  0.50152546  1
  V  V56  1  0.13135451  0.37837490  0.25397857  1
  V  V57  1  -0.00055279  0.51202485  0.49952480  1
  V  V58  1  0.00108381  0.00112782  0.00341543  1
  V  V59  1  0.12514921  0.51324394  0.62054028  1
  V  V60  1  0.49800465  0.87407375  0.37007411  1
  V  V61  1  0.49997776  0.49481407  0.50090187  1
  V  V62  1  0.74936148  0.49894625  0.25044109  1
  V  V63  1  0.36376300  -0.00344738  0.36285137  1
  V  V64  1  -0.00171426  0.24801739  0.25709054  1
  V  V65  1  0.24651990  0.50539832  0.75766832  1
  V  V66  1  0.62534867  0.73798198  0.87937002  1
  V  V67  1  0.75109997  0.12562950  0.87520203  1
  V  V68  1  0.37079688  0.50026224  0.37714882  1
  V  V69  1  0.62564260  0.50490423  0.11918866  1
  V  V70  1  0.75139147  0.24913371  0.50104279  1
  V  V71  1  0.75089754  -0.00164004  0.74802010  1
  V  V72  1  0.87468070  0.00289040  0.37131398  1
  V  V73  1  0.75701333  0.37590679  0.12110957  1
  V  V74  1  0.61913372  0.74903933  0.37129963  1
  V  V75  1  0.62781210  0.50612215  0.62630757  1
  V  V76  1  -0.00290904  0.37465168  0.37690677  1
  V  V77  1  0.62426544  0.87291143  0.75171167  1
  V  V78  1  -0.00348726  0.37391130  0.88757131  1
  V  V79  1  0.37182853  0.25772875  0.62674675  1
  V  V80  1  0.49978323  0.37065206  0.37783093  1
  V  V81  1  0.87926353  0.25117516  0.12553837  1
  V  V82  1  0.87444994  -0.00484273  0.87637513  1
  V  V83  1  0.37568754  0.88106563  0.00436229  1
  V  V84  1  0.50041684  0.13161707  0.62672587  1
  Zn  Zn85  1  0.13123276  0.12561121  0.00352175  1
  Zn  Zn86  1  0.25696740  0.13260814  0.87960632  1
  Zn  Zn87  1  0.50430920  0.62691800  0.12584280  1
  Zn  Zn88  1  0.74872598  0.62081205  0.87450260  1
  Zn  Zn89  1  0.37790720  0.75493773  0.62230649  1
  Zn  Zn90  1  0.62512075  -0.00903438  0.11652730  1
  Zn  Zn91  1  0.14384105  0.00329135  0.14046698  1
  Zn  Zn92  1  0.62233386  0.86653590  0.23976492  1
  Zn  Zn93  1  0.13136640  0.74582090  0.87513830  1
  Zn  Zn94  1  0.38486139  0.00670157  0.88013331  1
  Zn  Zn95  1  0.26649319  0.24878851  0.03214677  1
  Zn  Zn96  1  0.86868303  0.64023106  0.73851955  1
  Zn  Zn97  1  0.24794693  0.13094219  0.37230228  1
  Zn  Zn98  1  0.36990163  0.50384473  0.87803460  1
  Zn  Zn99  1  0.87411253  0.37624882  0.50075447  1
  Zn  Zn100  1  0.62367912  0.24931256  0.87100703  1
  Zn  Zn101  1  0.87453477  0.25145973  0.62563907  1
  Zn  Zn102  1  0.36664507  0.12253686  0.24103766  1
  Zn  Zn103  1  -0.00606540  0.64035807  0.62107122  1
  Zn  Zn104  1  0.25092724  0.37561507  0.62074822  1
  Zn  Zn105  1  0.87236348  0.49955472  0.37656908  1
  Zn  Zn106  1  -0.00423083  0.75214274  0.73923473  1
  Zn  Zn107  1  0.17178459  0.18548756  0.18645479  1
  Zn  Zn108  1  0.19066337  0.18950379  0.68741863  1
  Zn  Zn109  1  0.19324615  0.68967688  0.18849841  1
  Zn  Zn110  1  0.18631522  0.69171191  0.68614479  1
  Zn  Zn111  1  0.68540232  0.18456521  0.18335517  1
  Zn  Zn112  1  0.68588236  0.18921716  0.68852609  1
  Zn  Zn113  1  0.68561315  0.68762124  0.18939854  1
  Zn  Zn114  1  0.69173098  0.68375927  0.69301443  1
  Zn  Zn115  1  0.28280798  0.27373416  0.26270271  1
  Zn  Zn116  1  0.31230534  0.31757783  0.80795522  1
  Zn  Zn117  1  0.31624469  0.81226131  0.31215384  1
  Zn  Zn118  1  0.31421241  0.81195471  0.81737396  1
  Zn  Zn119  1  0.81586435  0.31178549  0.31070266  1
  Zn  Zn120  1  0.81444114  0.31692798  0.81278989  1
  Zn  Zn121  1  0.81322807  0.81113333  0.31511549  1
  Zn  Zn122  1  0.81003601  0.80821047  0.81895441  1
  Zn  Zn123  1  0.18107788  0.44436352  0.43430979  1
  Zn  Zn124  1  0.18511343  0.43673969  0.94002455  1
  Zn  Zn125  1  0.18601182  0.93642125  0.43847834  1
  Zn  Zn126  1  0.20246567  0.94934851  0.96702221  1
  Zn  Zn127  1  0.68384105  0.43731782  0.44175350  1
  Zn  Zn128  1  0.68618861  0.43506442  0.93717421  1
  Zn  Zn129  1  0.68543838  0.93434615  0.43553733  1
  Zn  Zn130  1  0.68984608  0.93076553  0.93948653  1
  Zn  Zn131  1  0.31071131  0.06382111  0.06007023  1
  Zn  Zn132  1  0.31163128  0.06676964  0.56479315  1
  Zn  Zn133  1  0.31465401  0.56174144  0.06364726  1
  Zn  Zn134  1  0.31143979  0.56454248  0.56168658  1
  Zn  Zn135  1  0.81660816  0.06476898  0.06273458  1
  Zn  Zn136  1  0.81348506  0.05980702  0.56023953  1
  Zn  Zn137  1  0.81389922  0.56574300  0.06118637  1
  Zn  Zn138  1  0.81389156  0.56077162  0.56376217  1
  Zn  Zn139  1  0.43934222  0.44097537  0.19224768  1
  Zn  Zn140  1  0.43670410  0.44064051  0.69086738  1
  Zn  Zn141  1  0.43907316  0.93629125  0.18637962  1
  Zn  Zn142  1  0.43802369  0.94205147  0.69214255  1
  Zn  Zn143  1  0.93828066  0.43954590  0.18903558  1
  Zn  Zn144  1  0.93853712  0.44094770  0.68454418  1
  Zn  Zn145  1  0.93678846  0.93811898  0.19035860  1
  Zn  Zn146  1  0.93974472  0.93027331  0.68843258  1
  Zn  Zn147  1  0.06451759  0.06328854  0.31395351  1
  Zn  Zn148  1  0.06204174  0.06010897  0.81524726  1
  Zn  Zn149  1  0.06188973  0.56314205  0.31491542  1
  Zn  Zn150  1  0.05273082  0.56443123  0.80931817  1
  Zn  Zn151  1  0.56133517  0.05986173  0.30896952  1
  Zn  Zn152  1  0.56475455  0.06399613  0.81125645  1
  Zn  Zn153  1  0.56241834  0.56049117  0.31305037  1
  Zn  Zn154  1  0.56032283  0.55846646  0.80738669  1
  Zn  Zn155  1  0.44014222  0.17729197  0.43197008  1
  Zn  Zn156  1  0.43842697  0.19330175  0.94295706  1
  Zn  Zn157  1  0.43794885  0.68640726  0.43949763  1
  Zn  Zn158  1  0.43975496  0.68814277  0.93609552  1
  Zn  Zn159  1  0.93721736  0.18639025  0.43872689  1
  Zn  Zn160  1  0.93782911  0.18869443  0.93997917  1
  Zn  Zn161  1  0.93186038  0.68758176  0.43558841  1
  Zn  Zn162  1  0.93622842  0.68609233  0.93647812  1
  Zn  Zn163  1  0.09157269  0.30379381  0.07753566  1
  Zn  Zn164  1  0.06110640  0.31617210  0.56371659  1
  Zn  Zn165  1  0.06574270  0.81035632  0.06257557  1
  Zn  Zn166  1  0.07309163  0.81506275  0.56190592  1
  Zn  Zn167  1  0.56451550  0.31277569  0.05804993  1
  Zn  Zn168  1  0.56353179  0.31243497  0.56177935  1
  Zn  Zn169  1  0.56056530  0.81140341  0.06490956  1
  Zn  Zn170  1  0.56369167  0.81294396  0.55762077  1
  O  O171  1  0.10895063  0.11553160  0.12160223  1
  O  O172  1  0.12142015  0.11995083  0.61927007  1
  O  O173  1  0.11890377  0.61617729  0.12485949  1
  O  O174  1  0.12252423  0.61539813  0.62625431  1
  O  O175  1  0.61977381  0.11743630  0.11561752  1
  O  O176  1  0.61820396  0.11909933  0.62112357  1
  O  O177  1  0.62406246  0.60933405  0.13145650  1
  O  O178  1  0.61734670  0.61346354  0.63077624  1
  O  O179  1  0.37725910  0.37902746  0.38199646  1
  O  O180  1  0.38576119  0.38000990  0.87366937  1
  O  O181  1  0.38080522  0.88729031  0.37289974  1
  O  O182  1  0.38542703  0.87637885  0.88378788  1
  O  O183  1  0.88130620  0.37825598  0.37785522  1
  O  O184  1  0.88557674  0.38465687  0.87528474  1
  O  O185  1  0.88059174  0.88174241  0.38336195  1
  O  O186  1  0.88252772  0.88171900  0.88516667  1
  O  O187  1  0.26266079  -0.00042273  0.37876872  1
  O  O188  1  0.25370500  0.00281049  0.86857769  1
  O  O189  1  0.25914795  0.51044773  0.38251498  1
  O  O190  1  0.24687362  0.49794780  0.86154868  1
  O  O191  1  0.75608607  0.00571192  0.37024008  1
  O  O192  1  0.76052131  0.00110790  0.87060084  1
  O  O193  1  0.74650349  0.50688904  0.37094078  1
  O  O194  1  0.76733557  0.49691925  0.88540031  1
  O  O195  1  0.23408767  0.50231302  0.12522727  1
  O  O196  1  0.24096650  0.49761961  0.62935706  1
  O  O197  1  0.23198317  0.98748086  0.07574342  1
  O  O198  1  0.24794886  0.99689381  0.63658319  1
  O  O199  1  0.74608500  0.49309079  0.12677920  1
  O  O200  1  0.73663621  0.48899369  0.61308389  1
  O  O201  1  0.75476524  1.00675629  0.14198890  1
  O  O202  1  0.74469015  0.98964789  0.62723868  1
  O  O203  1  0.00053340  0.37323562  0.26226669  1
  O  O204  1  0.00623085  0.37110446  0.75721696  1
  O  O205  1  0.00096306  0.86684239  0.25688217  1
  O  O206  1  0.01187937  0.87823651  0.76172048  1
  O  O207  1  0.50807514  0.36759156  0.25491525  1
  O  O208  1  0.50415168  0.37867014  0.76363279  1
  O  O209  1  0.50234721  0.88025574  0.26522831  1
  O  O210  1  0.50449432  0.86820632  0.75496395  1
  O  O211  1  0.50180965  0.13089146  0.23622245  1
  O  O212  1  0.49339017  0.12040591  0.73872808  1
  O  O213  1  0.48700011  0.62182081  0.25093178  1
  O  O214  1  0.49459219  0.63005972  0.73832183  1
  O  O215  1  1.00528197  0.13599587  0.24499273  1
  O  O216  1  0.99560751  0.12946976  0.74514308  1
  O  O217  1  0.99260784  0.63122881  0.24649011  1
  O  O218  1  0.99439622  0.63223767  0.74468642  1
  O  O219  1  0.37694186  0.26957666  0.00288579  1
  O  O220  1  0.37691133  0.25157412  0.50255820  1
  O  O221  1  0.37154018  0.75023767  0.00661224  1
  O  O222  1  0.36400286  0.75217298  0.50114043  1
  O  O223  1  0.86525513  0.24706068  0.01132430  1
  O  O224  1  0.86142150  0.24958198  0.50215150  1
  O  O225  1  0.86606230  0.75993462  -0.00349079  1
  O  O226  1  0.86357308  0.76278928  0.49250769  1
  O  O227  1  0.12121802  0.23684083  0.50476966  1
  O  O228  1  0.11057392  0.24658452  0.97820170  1
  O  O229  1  0.13702173  0.75777155  0.48442705  1
  O  O230  1  0.13626466  0.73964114  1.00291867  1
  O  O231  1  0.63478621  0.24265754  0.49408516  1
  O  O232  1  0.63861168  0.23919735  0.99915373  1
  O  O233  1  0.63862223  0.75459433  0.48920694  1
  O  O234  1  0.63691553  0.75296184  0.99442065  1
  O  O235  1  0.51233881  0.23739171  0.13043424  1
  O  O236  1  0.49468322  0.23647664  0.61655218  1
  O  O237  1  0.48319939  0.74194760  0.11767469  1
  O  O238  1  0.50114073  0.74345921  0.62714315  1
  O  O239  1  0.99535706  0.24449531  0.13014689  1
  O  O240  1  0.99752140  0.24510177  0.63326183  1
  O  O241  1  1.00578629  0.73736063  0.13352276  1
  O  O242  1  1.00779976  0.75491563  0.62454319  1
  O  O243  1  -0.00930457  0.25801689  0.36706932  1
  O  O244  1  0.00272274  0.25672768  0.86748933  1
  O  O245  1  0.00754796  0.75291755  0.36983202  1
  O  O246  1  0.00705958  0.76233226  0.88293269  1
  O  O247  1  0.50700050  0.25111272  0.36789195  1
  O  O248  1  0.50475917  0.26742718  0.88169822  1
  O  O249  1  0.50825166  0.75901449  0.38518419  1
  O  O250  1  0.50794295  0.75804554  0.86995467  1
  O  O251  1  0.23543890  0.12315442  0.49900520  1
  O  O252  1  0.24920091  0.13950471  0.99553694  1
  O  O253  1  0.25456931  0.63665314  0.48673985  1
  O  O254  1  0.24161540  0.62767174  1.00302281  1
  O  O255  1  0.74437721  0.12971569  0.49328420  1
  O  O256  1  0.74780473  0.13133672  0.99385106  1
  O  O257  1  0.75435107  0.63402437  0.49063958  1
  O  O258  1  0.75690570  0.64020768  0.99411046  1
  O  O259  1  0.26798386  0.37790191  -0.00514477  1
  O  O260  1  0.25341710  0.37535623  0.49887389  1
  O  O261  1  0.27124451  0.85910651  -0.00844129  1
  O  O262  1  0.24636334  0.86967837  0.51117425  1
  O  O263  1  0.74517466  0.36385164  0.00892322  1
  O  O264  1  0.74713790  0.36433724  0.50860222  1
  O  O265  1  0.76332745  0.86414424  -0.00101470  1
  O  O266  1  0.75697814  0.86965497  0.50659999  1
  O  O267  1  0.12264609  0.49623473  0.24239206  1
  O  O268  1  0.12754238  0.49543216  0.74392859  1
  O  O269  1  0.12392209  0.98424630  0.25366228  1
  O  O270  1  0.13405924  0.99375745  0.74836155  1
  O  O271  1  0.63037280  0.49152543  0.24361460  1
  O  O272  1  0.61929952  0.48651565  0.73734413  1
  O  O273  1  0.64184883  0.99820330  0.25246010  1
  O  O274  1  0.63208826  0.99365128  0.74321212  1
  O  O275  1  0.37223773  0.00127070  0.25853447  1
  O  O276  1  0.36912898  0.01322671  0.75348246  1
  O  O277  1  0.37915880  0.50555952  0.26692199  1
  O  O278  1  0.36303891  0.50818372  0.74941852  1
  O  O279  1  0.86502885  -0.00428772  0.26315573  1
  O  O280  1  0.87058196  0.00165043  0.75757095  1
  O  O281  1  0.86645281  0.50844254  0.25253466  1
  O  O282  1  0.87784029  0.49647689  0.76481392  1
  O  O283  1  0.11473877  0.38397393  0.36137915  1
  O  O284  1  0.11760578  0.36810544  0.86613602  1
  O  O285  1  0.11879085  0.86904569  0.36611713  1
  O  O286  1  0.11843215  0.87755170  0.87112948  1
  O  O287  1  0.62153200  0.36694731  0.36823750  1
  O  O288  1  0.61642910  0.37492752  0.86663048  1
  O  O289  1  0.61726630  0.86645566  0.37162911  1
  O  O290  1  0.61938762  0.86734758  0.87108855  1
  O  O291  1  0.38871054  0.12238276  0.12212181  1
  O  O292  1  0.38192868  0.13439011  0.63043752  1
  O  O293  1  0.37689190  0.62936882  0.13495059  1
  O  O294  1  0.38297057  0.62791837  0.63335630  1
  O  O295  1  0.88525814  0.13468404  0.12552187  1
  O  O296  1  0.88131580  0.12380794  0.63142060  1
  O  O297  1  0.88196310  0.62300857  0.13836556  1
  O  O298  1  0.88078730  0.62030242  0.62564283  1
  O  O299  1  0.19892305  0.27008373  0.11689694  1
  O  O300  1  0.26199947  0.25489284  0.62594088  1
  O  O301  1  0.26656499  0.74354465  0.11358657  1
  O  O302  1  0.24982004  0.76010784  0.61563856  1
  O  O303  1  0.75838900  0.25543657  0.12111977  1
  O  O304  1  0.74911164  0.25569310  0.61617387  1
  O  O305  1  0.74690013  0.74529803  0.11158682  1
  O  O306  1  0.74059113  0.76149921  0.61728074  1
  O  O307  1  0.26441541  0.25953970  0.38373579  1
  O  O308  1  0.23411642  0.25489504  0.86823529  1
  O  O309  1  0.24560064  0.74732325  0.38051854  1
  O  O310  1  0.25052383  0.74575864  0.88797401  1
  O  O311  1  0.74722541  0.24213103  0.37930562  1
  O  O312  1  0.75169662  0.24623910  0.88286823  1
  O  O313  1  0.74376595  0.74297605  0.38190973  1
  O  O314  1  0.73739630  0.75130978  0.88638011  1
  O  O315  1  -0.00510982  0.11645773  0.00944944  1
  O  O316  1  0.00767908  0.12008996  0.50644588  1
  O  O317  1  0.00575273  0.61980775  0.00990971  1
  O  O318  1  -0.00153882  0.61503146  0.49520941  1
  O  O319  1  0.50957888  0.12986665  0.01053989  1
  O  O320  1  0.50718905  0.11487704  0.50548814  1
  O  O321  1  0.49530454  0.60948175  0.00074347  1
  O  O322  1  0.49718657  0.61799793  0.51297796  1
  O  O323  1  0.50322239  0.38116057  0.49099357  1
  O  O324  1  0.49178290  0.38281481  0.99203715  1
  O  O325  1  0.50524565  0.88747253  0.48985576  1
  O  O326  1  0.48761149  0.86566815  0.99036267  1
  O  O327  1  1.00027356  0.37812393  0.48776197  1
  O  O328  1  1.01056007  0.38149542  0.99131006  1
  O  O329  1  0.99431653  0.88113247  0.49449449  1
  O  O330  1  0.99199249  0.87937726  0.99708868  1
  O  O331  1  0.49596011  0.49200093  0.38268725  1
  O  O332  1  0.50014773  0.48948954  0.88187988  1
  O  O333  1  0.49091705  0.99575428  0.38063705  1
  O  O334  1  0.50352271  0.98490319  0.86889189  1
  O  O335  1  0.99807828  0.49412979  0.38272847  1
  O  O336  1  0.99465311  0.49151745  0.88422143  1
  O  O337  1  0.99154188  0.99705829  0.37949589  1
  O  O338  1  0.98759743  0.99256393  0.87876964  1
  O  O339  1  -0.00491008  0.00696012  0.11844581  1
  O  O340  1  0.00697618  0.00395404  0.62173774  1
  O  O341  1  0.00316380  0.51202526  0.12178134  1
  O  O342  1  0.00908899  0.49788689  0.61386359  1
  O  O343  1  0.50429157  0.01441335  0.12859697  1
  O  O344  1  0.50225878  0.00699651  0.61668802  1
  O  O345  1  0.50978743  0.49851610  0.11735382  1
  O  O346  1  0.50329444  0.50534750  0.61889951  1
  O  O347  1  0.23067844  0.37419294  0.25398589  1
  O  O348  1  0.23994021  0.38559527  0.74615407  1
  O  O349  1  0.23596871  0.86785666  0.24955029  1
  O  O350  1  0.24696074  0.88367773  0.74871058  1
  O  O351  1  0.74533126  0.37891123  0.24276299  1
  O  O352  1  0.74276820  0.37165446  0.73724044  1
  O  O353  1  0.75039766  0.88709235  0.25511827  1
  O  O354  1  0.74542845  0.87892585  0.74303834  1
  O  O355  1  0.25507958  0.15690245  0.25661569  1
  O  O356  1  0.25915658  0.11851307  0.75330246  1
  O  O357  1  0.26327648  0.63269441  0.26479752  1
  O  O358  1  0.25742145  0.61912353  0.74325327  1
  O  O359  1  0.74753028  0.11881075  0.26147926  1
  O  O360  1  0.75445072  0.11856634  0.75498106  1
  O  O361  1  0.75593489  0.62022556  0.25555361  1
  O  O362  1  0.75564481  0.62685085  0.76148837  1
  O  O363  1  0.37189921  0.10997124  0.36909474  1
  O  O364  1  0.37942215  0.12672581  0.86840525  1
  O  O365  1  0.37151636  0.61845766  0.37096449  1
  O  O366  1  0.38399912  0.62215042  0.85777792  1
  O  O367  1  0.86496460  0.11373746  0.38284900  1
  O  O368  1  0.87101265  0.11595349  0.87028711  1
  O  O369  1  0.86248779  0.62428801  0.36416351  1
  O  O370  1  0.88015404  0.60595705  0.87781050  1
  O  O371  1  0.10668069  0.39747198  0.14248534  1
  O  O372  1  0.12418774  0.38063403  0.63680093  1
  O  O373  1  0.11665687  0.87574276  0.14244008  1
  O  O374  1  0.13787495  0.88516786  0.63569894  1
  O  O375  1  0.63566357  0.38106023  0.12917693  1
  O  O376  1  0.62864884  0.38054372  0.63063908  1
  O  O377  1  0.62109759  0.87927990  0.12739966  1
  O  O378  1  0.63111633  0.88032067  0.62998203  1
  O  O379  1  0.10748010  0.26847393  0.24995774  1
  O  O380  1  0.11774065  0.25777625  0.75601875  1
  O  O381  1  0.11665941  0.75763083  0.25706419  1
  O  O382  1  0.12900722  0.76494882  0.75561971  1
  O  O383  1  0.62003565  0.25410565  0.25316474  1
  O  O384  1  0.62555856  0.26470403  0.74975755  1
  O  O385  1  0.62901407  0.74995579  0.26562473  1
  O  O386  1  0.61895282  0.75600496  0.75787503  1
  O  O387  1  0.39354455  0.24972574  0.24720510  1
  O  O388  1  0.37290960  0.24005753  0.74322471  1
  O  O389  1  0.37318408  0.74468061  0.23706671  1
  O  O390  1  0.38142958  0.74494975  0.74688526  1
  O  O391  1  0.88466244  0.25461126  0.23651960  1
  O  O392  1  0.88092258  0.24250520  0.74976195  1
  O  O393  1  0.88772132  0.74396540  0.25591257  1
  O  O394  1  0.88331069  0.75480270  0.75958339  1
  O  O395  1  0.38697273  0.50482512  0.49020965  1
  O  O396  1  0.38233375  0.49184759  0.99796044  1
  O  O397  1  0.38339892  1.00635435  0.49341680  1
  O  O398  1  0.37882055  0.98405148  0.99841713  1
  O  O399  1  0.88532548  0.49520695  0.49620400  1
  O  O400  1  0.88940276  0.50058260  0.99937050  1
  O  O401  1  0.87942925  0.99007486  0.49152750  1
  O  O402  1  0.87916845  0.98988768  0.99437596  1
  O  O403  1  0.10260960  0.00707643  -0.01778250  1
  O  O404  1  0.11820579  0.00447686  0.50702222  1
  O  O405  1  0.11740595  0.50456870  0.01193232  1
  O  O406  1  0.11410974  0.49617775  0.51011354  1
  O  O407  1  0.63614091  0.01414466  -0.00329966  1
  O  O408  1  0.61941901  0.00402599  0.50456399  1
  O  O409  1  0.61673886  0.49330848  0.00840338  1
  O  O410  1  0.61001199  0.49660838  0.50985339  1
  O  O411  1  0.37547783  0.38158709  0.11661855  1
  O  O412  1  0.37895122  0.36140184  0.62983376  1
  O  O413  1  0.38215907  0.86424991  0.11444280  1
  O  O414  1  0.36322273  0.87652826  0.63213502  1
  O  O415  1  0.86416281  0.37057279  0.12789368  1
  O  O416  1  0.86448104  0.37359421  0.62320436  1
  O  O417  1  0.87923670  0.87492777  0.11172818  1
  O  O418  1  0.86488588  0.88188847  0.61504205  1
  O  O419  1  0.12709984  0.12392758  0.38984091  1
  O  O420  1  0.12585788  0.13972900  0.86944228  1
  O  O421  1  0.13419816  0.63555368  0.36768036  1
  O  O422  1  0.11722099  0.62257465  0.89016967  1
  O  O423  1  0.63190608  0.12844393  0.37887578  1
  O  O424  1  0.63241543  0.12876598  0.87907976  1
  O  O425  1  0.63496109  0.63044905  0.37171725  1
  O  O426  1  0.62036762  0.63521284  0.87180735  1
