# generated using pymatgen
data_V85Zn86O256
_symmetry_space_group_name_H-M   'P 1'
_cell_length_a   16.91651734
_cell_length_b   16.92456533
_cell_length_c   16.92775818
_cell_angle_alpha   90.01290252
_cell_angle_beta   89.97252157
_cell_angle_gamma   90.08678231
_symmetry_Int_Tables_number   1
_chemical_formula_structural   V85Zn86O256
_chemical_formula_sum   'V85 Zn86 O256'
_cell_volume   4846.49053856
_cell_formula_units_Z   1
loop_
 _symmetry_equiv_pos_site_id
 _symmetry_equiv_pos_as_xyz
  1  'x, y, z'
loop_
 _atom_site_type_symbol
 _atom_site_label
 _atom_site_symmetry_multiplicity
 _atom_site_fract_x
 _atom_site_fract_y
 _atom_site_fract_z
 _atom_site_occupancy
  V  V0  1  0.62421872  0.73516481  0.87023711  1
  V  V1  1  0.74048694  0.74577543  0.00064367  1
  V  V2  1  0.37685514  0.49465694  0.37597927  1
  V  V3  1  0.75007230  0.12528802  0.87583346  1
  V  V4  1  0.25358339  0.87616609  0.12678668  1
  V  V5  1  0.75100187  0.37667476  0.11786410  1
  V  V6  1  0.37806374  0.24801162  0.11508022  1
  V  V7  1  0.62422940  0.01008395  0.62737726  1
  V  V8  1  -0.00024503  0.25097836  0.75175106  1
  V  V9  1  0.86923254  0.52015332  0.87261818  1
  V  V10  1  0.38512519  0.62728995  0.24943399  1
  V  V11  1  0.86923889  0.76225005  0.12587823  1
  V  V12  1  0.25189376  0.37094816  0.11755548  1
  V  V13  1  0.61496772  0.74887225  0.37043773  1
  V  V14  1  0.37594937  -0.00371665  0.37680678  1
  V  V15  1  0.62494611  0.87123305  0.24225652  1
  V  V16  1  0.00002264  0.87451998  0.37602053  1
  V  V17  1  0.50599144  0.50358011  -0.00131906  1
  V  V18  1  0.37325882  0.75098659  0.60802360  1
  V  V19  1  0.62050205  0.87205545  0.74775667  1
  V  V20  1  0.24953258  0.63072456  0.38127772  1
  V  V21  1  0.50020417  0.62885896  0.62843655  1
  V  V22  1  0.37992053  0.13323040  0.25631034  1
  V  V23  1  0.62613016  0.50588760  0.12448644  1
  V  V24  1  0.87649025  0.25497810  0.11528376  1
  V  V25  1  0.14210254  0.12605416  0.49660368  1
  V  V26  1  0.38692984  0.75209881  0.12790778  1
  V  V27  1  0.25273305  0.86815169  0.60921136  1
  V  V28  1  0.87461282  0.62803030  0.25046327  1
  V  V29  1  0.63113924  -0.00110047  0.11851770  1
  V  V30  1  0.50291915  0.12522218  0.12772439  1
  V  V31  1  -0.00756854  0.49802063  0.00081818  1
  V  V32  1  -0.01376456  0.37565032  0.87843172  1
  V  V33  1  0.87353390  0.24834390  0.62391113  1
  V  V34  1  -0.00162044  0.62767556  0.12643611  1
  V  V35  1  0.13233050  0.00009455  0.62753444  1
  V  V36  1  0.87633874  0.49976704  0.37562462  1
  V  V37  1  0.50564808  0.87885057  0.87712247  1
  V  V38  1  -0.01145740  0.74907966  0.75463711  1
  V  V39  1  0.12550764  0.50094608  0.12627849  1
  V  V40  1  0.25229873  0.75132954  0.00247326  1
  V  V41  1  0.36931057  -0.00033069  0.86113771  1
  V  V42  1  0.62329588  0.12607298  0.48300728  1
  V  V43  1  0.25020850  0.62693699  0.87533788  1
  V  V44  1  0.74969003  0.62415062  0.37647713  1
  V  V45  1  0.86440300  0.12863847  0.25371070  1
  V  V46  1  0.38240896  0.88458342  0.00205024  1
  V  V47  1  0.49590951  -0.00566525  0.50503816  1
  V  V48  1  0.50366629  0.35709767  0.37369158  1
  V  V49  1  0.00238835  0.00074614  -0.00265875  1
  V  V50  1  0.00102297  0.00499679  0.50076391  1
  V  V51  1  0.87980499  0.12313796  0.75003620  1
  V  V52  1  0.86431250  0.00511809  0.37722667  1
  V  V53  1  0.00025724  0.12733562  0.12699747  1
  V  V54  1  0.74825943  0.50490759  0.75252831  1
  V  V55  1  0.87332238  0.37496296  0.50147638  1
  V  V56  1  0.12662160  0.00299725  0.12589469  1
  V  V57  1  0.13825250  0.24830343  0.37887618  1
  V  V58  1  0.12316031  0.37826064  0.75173769  1
  V  V59  1  0.49976804  0.49252098  0.50023770  1
  V  V60  1  0.37573990  0.63827165  0.75054635  1
  V  V61  1  0.24965907  0.36456753  0.62038409  1
  V  V62  1  0.62293885  0.25349054  0.86022101  1
  V  V63  1  0.13434483  0.25490328  0.88271227  1
  V  V64  1  0.87321331  0.87491333  0.50403131  1
  V  V65  1  0.87864358  -0.00140427  0.87441151  1
  V  V66  1  0.12522234  0.62686315  0.00194639  1
  V  V67  1  0.12507712  0.50259374  0.62289898  1
  V  V68  1  0.50422952  0.37297839  0.86272836  1
  V  V69  1  0.62145505  0.36265828  0.25057073  1
  V  V70  1  -0.00036153  0.25184420  0.25492242  1
  V  V71  1  0.13460870  0.87292542  0.75233569  1
  V  V72  1  0.74743317  0.75020675  0.50131508  1
  V  V73  1  0.13851507  0.13214009  0.00105604  1
  V  V74  1  0.25190061  0.50003850  0.24915863  1
  V  V75  1  0.25249526  0.00931290  0.25558690  1
  V  V76  1  0.74622820  0.24421782  0.48688491  1
  V  V77  1  0.12699929  0.87578089  0.25102580  1
  V  V78  1  0.43092394  0.18423514  0.69502245  1
  V  V79  1  -0.00863116  0.62538742  0.62724729  1
  V  V80  1  0.37227504  0.35800152  0.50265281  1
  V  V81  1  0.62329853  0.62130256  0.50081148  1
  V  V82  1  0.37598432  0.50126878  0.87467223  1
  V  V83  1  0.62281834  0.48582275  0.62931154  1
  V  V84  1  0.61708081  0.12506380  -0.00474284  1
  Zn  Zn85  1  0.74932492  -0.00237892  0.24837435  1
  Zn  Zn86  1  0.75070282  -0.00343872  0.75004525  1
  Zn  Zn87  1  0.00221650  0.87711098  0.87531441  1
  Zn  Zn88  1  0.00281746  0.12506205  0.62518891  1
  Zn  Zn89  1  0.86813365  0.74576480  0.63098824  1
  Zn  Zn90  1  0.12643939  0.37512401  0.25322908  1
  Zn  Zn91  1  0.37479899  0.37013743  -0.00556449  1
  Zn  Zn92  1  0.74428700  0.36918064  0.63118643  1
  Zn  Zn93  1  0.75095612  0.25514903  -0.00508685  1
  Zn  Zn94  1  0.00124909  0.75211124  0.25087108  1
  Zn  Zn95  1  0.12664447  0.63474700  0.50571518  1
  Zn  Zn96  1  0.74710097  0.87500049  0.62755682  1
  Zn  Zn97  1  0.13350205  0.75778652  0.38381520  1
  Zn  Zn98  1  0.00252538  0.37518731  0.37744332  1
  Zn  Zn99  1  0.50736716  0.62850147  0.12287892  1
  Zn  Zn100  1  0.86738595  0.87986536  0.00489696  1
  Zn  Zn101  1  0.12341658  0.75061467  0.87666145  1
  Zn  Zn102  1  0.28625475  0.14886426  0.82638790  1
  Zn  Zn103  1  0.49637151  0.87105875  0.37278458  1
  Zn  Zn104  1  0.25065320  0.50329627  0.74745342  1
  Zn  Zn105  1  0.74873705  0.49792273  0.24981860  1
  Zn  Zn106  1  -0.00037109  0.50201991  0.50112373  1
  Zn  Zn107  1  0.19014108  0.19088968  0.18983690  1
  Zn  Zn108  1  0.18659862  0.18740930  0.68742245  1
  Zn  Zn109  1  0.19209010  0.68929334  0.19127117  1
  Zn  Zn110  1  0.18543178  0.69020189  0.68754459  1
  Zn  Zn111  1  0.68889834  0.18858779  0.18310843  1
  Zn  Zn112  1  0.69090527  0.18344971  0.68650484  1
  Zn  Zn113  1  0.69074004  0.68959279  0.18741194  1
  Zn  Zn114  1  0.68632181  0.68371512  0.68993221  1
  Zn  Zn115  1  0.31624251  0.31289392  0.30772850  1
  Zn  Zn116  1  0.31535566  0.32033312  0.80479769  1
  Zn  Zn117  1  0.31631827  0.81359435  0.31077975  1
  Zn  Zn118  1  0.31406125  0.81429405  0.81389933  1
  Zn  Zn119  1  0.81029391  0.31532031  0.30847286  1
  Zn  Zn120  1  0.80788495  0.31587871  0.80925441  1
  Zn  Zn121  1  0.80694385  0.81441603  0.31426419  1
  Zn  Zn122  1  0.80538549  0.81428131  0.81909703  1
  Zn  Zn123  1  0.18748026  0.43771396  0.43942932  1
  Zn  Zn124  1  0.18581628  0.44052326  0.93837085  1
  Zn  Zn125  1  0.18929442  0.94177528  0.43649401  1
  Zn  Zn126  1  0.18931953  0.93841201  0.93875194  1
  Zn  Zn127  1  0.68855957  0.43245167  0.43724375  1
  Zn  Zn128  1  0.68700462  0.43927921  0.93580821  1
  Zn  Zn129  1  0.68229632  0.93486679  0.43708190  1
  Zn  Zn130  1  0.69073655  0.93507709  0.93934810  1
  Zn  Zn131  1  0.31484767  0.06389164  0.06304671  1
  Zn  Zn132  1  0.31505935  0.05849800  0.56916546  1
  Zn  Zn133  1  0.31694944  0.56298360  0.06205619  1
  Zn  Zn134  1  0.31425097  0.55643318  0.56267260  1
  Zn  Zn135  1  0.81155947  0.06641615  0.06138625  1
  Zn  Zn136  1  0.80740287  0.06368551  0.56326217  1
  Zn  Zn137  1  0.81062110  0.56605612  0.06058803  1
  Zn  Zn138  1  0.80923086  0.56014784  0.56630091  1
  Zn  Zn139  1  0.44087456  0.43458626  0.18673481  1
  Zn  Zn140  1  0.43196058  0.43862036  0.68664313  1
  Zn  Zn141  1  0.44578805  0.94226630  0.18867771  1
  Zn  Zn142  1  0.43916109  0.93297365  0.68700352  1
  Zn  Zn143  1  0.93631682  0.43678669  0.18930712  1
  Zn  Zn144  1  0.93326951  0.43884983  0.69052360  1
  Zn  Zn145  1  0.93863360  0.94238739  0.19083724  1
  Zn  Zn146  1  0.94285705  0.93518212  0.68791073  1
  Zn  Zn147  1  0.06060102  0.06559264  0.31539933  1
  Zn  Zn148  1  0.09515427  0.07623503  0.80182580  1
  Zn  Zn149  1  0.06290897  0.56342032  0.31383772  1
  Zn  Zn150  1  0.06082826  0.56485967  0.81244671  1
  Zn  Zn151  1  0.55983975  0.05712281  0.30886919  1
  Zn  Zn152  1  0.55757854  0.05953909  0.81211599  1
  Zn  Zn153  1  0.56385383  0.55349399  0.31193260  1
  Zn  Zn154  1  0.55983072  0.55785860  0.80624618  1
  Zn  Zn155  1  0.43763911  0.17825402  0.44281448  1
  Zn  Zn156  1  0.44128229  0.18614693  0.93348238  1
  Zn  Zn157  1  0.43712770  0.68084286  0.43807070  1
  Zn  Zn158  1  0.44286008  0.69081161  0.93947925  1
  Zn  Zn159  1  0.93956703  0.18776608  0.43720251  1
  Zn  Zn160  1  0.94493949  0.18385229  0.93676303  1
  Zn  Zn161  1  0.94083213  0.68920868  0.44144301  1
  Zn  Zn162  1  0.93561450  0.69188079  0.94252228  1
  Zn  Zn163  1  0.06284979  0.31661126  0.06443325  1
  Zn  Zn164  1  0.06157526  0.31262354  0.56022097  1
  Zn  Zn165  1  0.06065137  0.81416276  0.06445414  1
  Zn  Zn166  1  0.06206578  0.80936350  0.56457844  1
  Zn  Zn167  1  0.56207068  0.31294643  0.05562869  1
  Zn  Zn168  1  0.55361226  0.29911286  0.56829987  1
  Zn  Zn169  1  0.56616443  0.81425325  0.05877328  1
  Zn  Zn170  1  0.56094513  0.81308361  0.56320879  1
  O  O171  1  0.12087981  0.12301791  0.12083267  1
  O  O172  1  0.12299048  0.11559474  0.61440667  1
  O  O173  1  0.11958961  0.62148041  0.12383544  1
  O  O174  1  0.11665005  0.61793350  0.62686328  1
  O  O175  1  0.62106640  0.12222118  0.11637979  1
  O  O176  1  0.62724958  0.11249231  0.62134786  1
  O  O177  1  0.62539617  0.61096253  0.13355245  1
  O  O178  1  0.61546277  0.61782328  0.61985949  1
  O  O179  1  0.38172286  0.37633926  0.38048148  1
  O  O180  1  0.37971237  0.38495137  0.87466178  1
  O  O181  1  0.37841299  0.88941673  0.36832494  1
  O  O182  1  0.38389466  0.87883550  0.88249483  1
  O  O183  1  0.87435948  0.38393653  0.38076818  1
  O  O184  1  0.88448839  0.37880445  0.87603991  1
  O  O185  1  0.88029584  0.88215312  0.38486546  1
  O  O186  1  0.87803644  0.88948360  0.87558441  1
  O  O187  1  0.25905666  -0.00138874  0.36571794  1
  O  O188  1  0.26944242  -0.01088952  0.87670703  1
  O  O189  1  0.25579048  0.50434524  0.36683281  1
  O  O190  1  0.25773363  0.50906610  0.87468329  1
  O  O191  1  0.76199748  -0.00303173  0.37674171  1
  O  O192  1  0.76025132  0.00810881  0.87442434  1
  O  O193  1  0.76051759  0.50545987  0.37523892  1
  O  O194  1  0.76113649  0.50022005  0.86979988  1
  O  O195  1  0.24766133  0.49713239  0.13225468  1
  O  O196  1  0.23963595  0.49512440  0.62710613  1
  O  O197  1  0.24555348  0.99488939  0.13248808  1
  O  O198  1  0.23955815  0.98576643  0.62221735  1
  O  O199  1  0.74492423  0.49435128  0.12515007  1
  O  O200  1  0.73894003  0.49540304  0.63053887  1
  O  O201  1  0.73695174  1.00785597  0.12698975  1
  O  O202  1  0.73971226  0.99602167  0.62769183  1
  O  O203  1  0.00231959  0.36347143  0.25182474  1
  O  O204  1  0.00271370  0.37165750  0.75944232  1
  O  O205  1  0.00910582  0.87826871  0.25877238  1
  O  O206  1  0.00836169  0.86171681  0.75042617  1
  O  O207  1  0.51231030  0.37624878  0.25767984  1
  O  O208  1  0.49556307  0.38323766  0.76335664  1
  O  O209  1  0.51765429  0.87892749  0.25431526  1
  O  O210  1  0.51214941  0.87406766  0.75774149  1
  O  O211  1  0.49209841  0.12246467  0.24120870  1
  O  O212  1  0.49834738  0.13179925  0.74919055  1
  O  O213  1  0.48795492  0.61768829  0.24911961  1
  O  O214  1  0.49084233  0.62022847  0.73595298  1
  O  O215  1  0.99404453  0.13532109  0.24576616  1
  O  O216  1  0.99820949  0.13343611  0.74884666  1
  O  O217  1  0.98960066  0.62875581  0.24817942  1
  O  O218  1  1.00533743  0.64190275  0.74520135  1
  O  O219  1  0.37612786  0.24849073  0.01043859  1
  O  O220  1  0.37480029  0.25854767  0.49655060  1
  O  O221  1  0.37024925  0.75825917  0.00798320  1
  O  O222  1  0.37422114  0.74537097  0.50834079  1
  O  O223  1  0.87871034  0.24514341  0.01273596  1
  O  O224  1  0.86964050  0.25294852  0.50614055  1
  O  O225  1  0.87041469  0.75676036  0.01013207  1
  O  O226  1  0.86602511  0.75881821  0.50067255  1
  O  O227  1  0.12052463  0.24158803  0.48747258  1
  O  O228  1  0.12129595  0.24552017  0.99585332  1
  O  O229  1  0.12314627  0.74829063  0.49574327  1
  O  O230  1  0.13216419  0.74546721  1.00154119  1
  O  O231  1  0.62933722  0.23403819  0.50590074  1
  O  O232  1  0.62893567  0.24006059  0.99099066  1
  O  O233  1  0.63012298  0.74346468  0.49343998  1
  O  O234  1  0.63298208  0.74771880  0.99199289  1
  O  O235  1  0.49385664  0.23806339  0.11937426  1
  O  O236  1  0.47939465  0.25592586  0.64049025  1
  O  O237  1  0.49088530  0.74758889  0.11943076  1
  O  O238  1  0.49079086  0.73924937  0.61841107  1
  O  O239  1  0.99493048  0.24864683  0.13346043  1
  O  O240  1  0.98918331  0.24956378  0.62926712  1
  O  O241  1  0.99116692  0.74449230  0.12830518  1
  O  O242  1  0.99432276  0.74443030  0.63694107  1
  O  O243  1  0.00602857  0.25246214  0.36742508  1
  O  O244  1  0.00336693  0.26143443  0.87299991  1
  O  O245  1  -0.00197797  0.76581512  0.37303971  1
  O  O246  1  0.00121845  0.75317812  0.86702534  1
  O  O247  1  0.49748698  0.25827061  0.37920827  1
  O  O248  1  0.50910877  0.26018597  0.87720768  1
  O  O249  1  0.51159641  0.74673943  0.37938943  1
  O  O250  1  0.51608880  0.76005888  0.88169202  1
  O  O251  1  0.24101953  0.11745384  0.50196099  1
  O  O252  1  0.23822753  0.12271947  1.00132965  1
  O  O253  1  0.25147597  0.61621419  0.48345263  1
  O  O254  1  0.24640045  0.63132156  0.99640939  1
  O  O255  1  0.73551757  0.13038706  0.50125133  1
  O  O256  1  0.74554900  0.12891627  0.98692678  1
  O  O257  1  0.74404044  0.63045027  0.49644345  1
  O  O258  1  0.75911841  0.64568798  0.99791427  1
  O  O259  1  0.25370232  0.38419846  0.01386785  1
  O  O260  1  0.25655853  0.37862632  0.51167143  1
  O  O261  1  0.25662552  0.86944148  0.00846789  1
  O  O262  1  0.24798275  0.87484170  0.51063471  1
  O  O263  1  0.74577285  0.37392692  0.01342302  1
  O  O264  1  0.75856643  0.36586640  0.50407121  1
  O  O265  1  0.75335677  0.85730351  -0.00494944  1
  O  O266  1  0.75570716  0.86692875  0.49997518  1
  O  O267  1  0.13315554  0.49935504  0.24453693  1
  O  O268  1  0.12387265  0.49496683  0.74131753  1
  O  O269  1  0.13244485  0.99582076  0.24873093  1
  O  O270  1  0.11120764  0.97989604  0.73803016  1
  O  O271  1  0.62810872  0.48937761  0.24077074  1
  O  O272  1  0.63349124  0.50025080  0.74100700  1
  O  O273  1  0.62883377  0.99101933  0.24220570  1
  O  O274  1  0.62425374  0.99280973  0.74220306  1
  O  O275  1  0.37024794  0.00832457  0.25476719  1
  O  O276  1  0.37597520  -0.00560113  0.76159527  1
  O  O277  1  0.36961695  0.50464571  0.25389797  1
  O  O278  1  0.37324127  0.51182385  0.76117720  1
  O  O279  1  0.87307104  0.00929668  0.25876537  1
  O  O280  1  0.87871204  0.00558105  0.75693786  1
  O  O281  1  0.87325611  0.50842619  0.25822097  1
  O  O282  1  0.87029306  0.50050661  0.76602085  1
  O  O283  1  0.12346056  0.36367749  0.37558967  1
  O  O284  1  0.11580240  0.37323657  0.87264567  1
  O  O285  1  0.11805348  0.87886674  0.36800830  1
  O  O286  1  0.12466772  0.87495271  0.86416650  1
  O  O287  1  0.61932995  0.37779066  0.36078872  1
  O  O288  1  0.61738917  0.36590335  0.87794953  1
  O  O289  1  0.62248337  0.86409481  0.36702650  1
  O  O290  1  0.61940048  0.87335586  0.86842456  1
  O  O291  1  0.38371715  0.12942387  0.12971171  1
  O  O292  1  0.38058748  0.12196783  0.63300484  1
  O  O293  1  0.37636053  0.63396486  0.13319553  1
  O  O294  1  0.37816735  0.63109519  0.63019527  1
  O  O295  1  0.88061550  0.13308531  0.13369806  1
  O  O296  1  0.87801743  0.13101188  0.62997703  1
  O  O297  1  0.87881866  0.63213118  0.13471065  1
  O  O298  1  0.88679650  0.62496784  0.62303271  1
  O  O299  1  0.25954586  0.26111644  0.13021947  1
  O  O300  1  0.23992621  0.26548712  0.62484014  1
  O  O301  1  0.26013095  0.75716117  0.12182775  1
  O  O302  1  0.25590677  0.76055919  0.62585395  1
  O  O303  1  0.75990088  0.25723043  0.12124681  1
  O  O304  1  0.76169843  0.24884051  0.61894483  1
  O  O305  1  0.75658950  0.74904973  0.11460419  1
  O  O306  1  0.74888119  0.74987607  0.61360308  1
  O  O307  1  0.23688052  0.25229160  0.36840866  1
  O  O308  1  0.23675770  0.25598755  0.87297161  1
  O  O309  1  0.25357299  0.73401230  0.36808400  1
  O  O310  1  0.25033138  0.74382279  0.88407326  1
  O  O311  1  0.75537033  0.25247049  0.38800911  1
  O  O312  1  0.74628975  0.24324134  0.87572978  1
  O  O313  1  0.74158558  0.74395791  0.38564407  1
  O  O314  1  0.73392102  0.74945987  0.88283509  1
  O  O315  1  0.00515765  0.11526354  0.01019298  1
  O  O316  1  0.00472786  0.11311375  0.50006287  1
  O  O317  1  0.00443130  0.61772615  0.00579809  1
  O  O318  1  0.00272016  0.62257949  0.51123768  1
  O  O319  1  0.51241925  0.12531466  0.00453463  1
  O  O320  1  0.51481110  0.11255816  0.49896555  1
  O  O321  1  0.49403862  0.60936746  0.00299129  1
  O  O322  1  0.50349824  0.61365191  0.50821427  1
  O  O323  1  0.49388389  0.37457014  0.49492672  1
  O  O324  1  0.49578932  0.38702402  0.99102130  1
  O  O325  1  0.50762859  0.89062104  0.49399137  1
  O  O326  1  0.49308566  0.87250832  0.99197190  1
  O  O327  1  0.98547968  0.37682583  0.49850285  1
  O  O328  1  1.00382501  0.39093611  0.99473899  1
  O  O329  1  0.99330476  0.88480672  0.49542176  1
  O  O330  1  1.00046757  0.88990991  0.99990264  1
  O  O331  1  0.49470977  0.49028289  0.38272965  1
  O  O332  1  0.49484461  0.49582570  0.87987600  1
  O  O333  1  0.49421480  0.99774753  0.38529574  1
  O  O334  1  0.49081892  0.98627525  0.87405454  1
  O  O335  1  0.98865397  0.49911395  0.37700317  1
  O  O336  1  0.98924525  0.49796611  0.88088202  1
  O  O337  1  0.99332729  0.99147086  0.38154937  1
  O  O338  1  0.99514726  1.00343362  0.88445105  1
  O  O339  1  0.00768933  0.00672017  0.12097569  1
  O  O340  1  0.01171473  -0.00214913  0.61530307  1
  O  O341  1  0.00169801  0.50574077  0.11877906  1
  O  O342  1  0.00546013  0.50786028  0.62810781  1
  O  O343  1  0.51392126  0.01441972  0.12629880  1
  O  O344  1  0.50653965  -0.00719671  0.61219998  1
  O  O345  1  0.50861558  0.49927413  0.11693342  1
  O  O346  1  0.50470498  0.50404537  0.61979981  1
  O  O347  1  0.25210182  0.38745781  0.24167742  1
  O  O348  1  0.24285198  0.38086598  0.73779870  1
  O  O349  1  0.24452453  0.88470759  0.24576349  1
  O  O350  1  0.23700092  0.86920237  0.74430915  1
  O  O351  1  0.73926946  0.37645549  0.24023658  1
  O  O352  1  0.75667141  0.39276362  0.74463829  1
  O  O353  1  0.73282622  0.87824176  0.25483316  1
  O  O354  1  0.73693764  0.87675880  0.74962452  1
  O  O355  1  0.25967746  0.11441424  0.24319009  1
  O  O356  1  0.20299708  0.11007293  0.76390014  1
  O  O357  1  0.25888577  0.61501264  0.25616507  1
  O  O358  1  0.25649354  0.62623865  0.75759190  1
  O  O359  1  0.76168095  0.12590516  0.24846390  1
  O  O360  1  0.75986864  0.12160438  0.76124531  1
  O  O361  1  0.76113146  0.62386709  0.25713840  1
  O  O362  1  0.75298258  0.60665509  0.74086914  1
  O  O363  1  0.38094769  0.11387481  0.36500211  1
  O  O364  1  0.37599726  0.10470568  0.88459214  1
  O  O365  1  0.36733572  0.61757086  0.36809041  1
  O  O366  1  0.37215550  0.62331499  0.86861454  1
  O  O367  1  0.88236267  0.11637020  0.36632596  1
  O  O368  1  0.87082882  0.11731306  0.87226885  1
  O  O369  1  0.87234524  0.62060669  0.37051652  1
  O  O370  1  0.87852396  0.61792271  0.87307172  1
  O  O371  1  0.13392465  0.38257894  0.12932091  1
  O  O372  1  0.13041909  0.38196530  0.62769142  1
  O  O373  1  0.12949691  0.88278765  0.13365603  1
  O  O374  1  0.13527825  0.87706557  0.63149897  1
  O  O375  1  0.62896792  0.38082526  0.13258698  1
  O  O376  1  0.62136583  0.38337515  0.61775384  1
  O  O377  1  0.62167341  0.88272384  0.13289933  1
  O  O378  1  0.62448812  0.88068110  0.63273887  1
  O  O379  1  0.11807779  0.24961675  0.26129122  1
  O  O380  1  0.11595179  0.26089552  0.75874568  1
  O  O381  1  0.12605739  0.76514553  0.25362613  1
  O  O382  1  0.11694816  0.76105018  0.75208577  1
  O  O383  1  0.62700117  0.26363491  0.24448364  1
  O  O384  1  0.63341850  0.24833144  0.76086957  1
  O  O385  1  0.62865602  0.75915707  0.25631147  1
  O  O386  1  0.62891902  0.75502173  0.76225070  1
  O  O387  1  0.37186439  0.23756471  0.23987763  1
  O  O388  1  0.35597326  0.22388073  0.76174488  1
  O  O389  1  0.37220313  0.74089524  0.24005933  1
  O  O390  1  0.37347164  0.74088511  0.74402587  1
  O  O391  1  0.88171374  0.24510950  0.24526872  1
  O  O392  1  0.87935186  0.24481749  0.74306416  1
  O  O393  1  0.87311036  0.74489529  0.24530325  1
  O  O394  1  0.88483334  0.75776467  0.75134093  1
  O  O395  1  0.38211744  0.48946710  0.49460790  1
  O  O396  1  0.38003291  0.50028580  0.98634232  1
  O  O397  1  0.38880177  1.00609184  0.49404175  1
  O  O398  1  0.37402440  0.98641165  1.00198571  1
  O  O399  1  0.87321776  0.49154898  0.49405107  1
  O  O400  1  0.88102887  0.50601132  0.98722212  1
  O  O401  1  0.88070963  0.99657093  0.49580638  1
  O  O402  1  0.88307256  1.00110114  0.99478943  1
  O  O403  1  0.12037838  0.00806650  0.00449448  1
  O  O404  1  0.11891250  0.00595976  0.50438835  1
  O  O405  1  0.11664614  0.50807477  0.00708291  1
  O  O406  1  0.12123643  0.50214640  0.51209322  1
  O  O407  1  0.63157996  0.01077349  0.00531408  1
  O  O408  1  0.61948104  0.00763308  0.50481417  1
  O  O409  1  0.61816518  0.49688807  0.00950453  1
  O  O410  1  0.62045071  0.50283650  0.50587230  1
  O  O411  1  0.37098857  0.36523070  0.12400265  1
  O  O412  1  0.35849578  0.38045606  0.61849072  1
  O  O413  1  0.37580256  0.87062504  0.12202261  1
  O  O414  1  0.36110660  0.86675724  0.62878080  1
  O  O415  1  0.86523620  0.36664498  0.13153353  1
  O  O416  1  0.87406282  0.36708419  0.61714635  1
  O  O417  1  0.87881971  0.86543313  0.12939194  1
  O  O418  1  0.87319319  0.87507454  0.61288013  1
  O  O419  1  0.12265058  0.13735395  0.38190682  1
  O  O420  1  0.11025997  0.14361344  0.89328476  1
  O  O421  1  0.14070102  0.62548840  0.37272813  1
  O  O422  1  0.13248139  0.62612596  0.88281805  1
  O  O423  1  0.62446568  0.12030982  0.38447239  1
  O  O424  1  0.63169048  0.12847625  0.87808106  1
  O  O425  1  0.62949627  0.62821236  0.37844222  1
  O  O426  1  0.61704420  0.63675934  0.86901989  1
