# generated using pymatgen
data_V85Zn86O256
_symmetry_space_group_name_H-M   'P 1'
_cell_length_a   16.92081257
_cell_length_b   16.93014785
_cell_length_c   16.92448371
_cell_angle_alpha   90.00150818
_cell_angle_beta   89.95570870
_cell_angle_gamma   90.10648617
_symmetry_Int_Tables_number   1
_chemical_formula_structural   V85Zn86O256
_chemical_formula_sum   'V85 Zn86 O256'
_cell_volume   4848.37847823
_cell_formula_units_Z   1
loop_
 _symmetry_equiv_pos_site_id
 _symmetry_equiv_pos_as_xyz
  1  'x, y, z'
loop_
 _atom_site_type_symbol
 _atom_site_label
 _atom_site_symmetry_multiplicity
 _atom_site_fract_x
 _atom_site_fract_y
 _atom_site_fract_z
 _atom_site_occupancy
  V  V0  1  0.37303236  0.24930525  0.62721835  1
  V  V1  1  0.37309487  0.74237829  0.14113801  1
  V  V2  1  0.38238888  0.49742762  0.37163697  1
  V  V3  1  0.75123083  -0.00347374  0.23912653  1
  V  V4  1  0.87331312  -0.00054888  0.37501580  1
  V  V5  1  0.37738877  0.86941619  -0.00101830  1
  V  V6  1  -0.00013411  0.62528237  0.62475279  1
  V  V7  1  0.00325575  0.13290810  0.12638387  1
  V  V8  1  0.25538888  0.62326735  0.37134632  1
  V  V9  1  -0.00341169  0.37898643  0.87554772  1
  V  V10  1  0.63189270  0.37542956  0.74621688  1
  V  V11  1  0.50436241  0.24719674  0.26670625  1
  V  V12  1  0.86978279  0.87642108  0.01568263  1
  V  V13  1  0.37404713  0.87905737  0.49543216  1
  V  V14  1  0.12265251  0.36672085  0.24696489  1
  V  V15  1  0.38041546  0.74834947  0.62451721  1
  V  V16  1  0.25072611  0.37515686  0.62462902  1
  V  V17  1  0.12466117  0.50044191  0.62455572  1
  V  V18  1  0.87125991  0.37036045  -0.00335811  1
  V  V19  1  0.25095406  0.87845990  0.62846387  1
  V  V20  1  0.63005550  0.12449231  0.50068198  1
  V  V21  1  -0.00037739  0.74928799  0.75017574  1
  V  V22  1  0.12310096  0.87824484  0.25128932  1
  V  V23  1  0.25130884  0.36984440  0.12098137  1
  V  V24  1  0.12571043  0.00556186  0.62418982  1
  V  V25  1  0.00211974  0.00608235  0.49980684  1
  V  V26  1  0.87486183  0.72816835  0.13017893  1
  V  V27  1  0.25085468  0.50230704  0.75078643  1
  V  V28  1  0.62337254  -0.00535381  0.63290706  1
  V  V29  1  0.62809452  0.75982463  0.87446287  1
  V  V30  1  0.86821702  0.74664606  0.62086454  1
  V  V31  1  0.68364943  0.29926851  0.43239165  1
  V  V32  1  -0.00132393  0.87372437  0.37411107  1
  V  V33  1  0.74632463  0.87194839  0.62992545  1
  V  V34  1  0.49633239  0.50680495  0.51025197  1
  V  V35  1  0.74694792  0.36950562  0.12022100  1
  V  V36  1  0.63470534  0.50085651  0.62432010  1
  V  V37  1  0.87324977  -0.00245905  0.87390356  1
  V  V38  1  0.49921120  0.00016686  0.49321661  1
  V  V39  1  0.12852644  0.87739306  0.75130450  1
  V  V40  1  0.74567586  0.12271674  0.37500675  1
  V  V41  1  0.86826897  0.87084324  0.49817637  1
  V  V42  1  0.85703795  0.25501781  0.61925966  1
  V  V43  1  -0.00221625  0.87475406  0.87610493  1
  V  V44  1  0.87783237  0.50242357  0.36613770  1
  V  V45  1  0.24638864  0.23367014  -0.00136164  1
  V  V46  1  0.49898246  0.38229335  0.87561850  1
  V  V47  1  0.38205422  0.62603891  0.74882921  1
  V  V48  1  0.25427499  0.49913904  0.24768460  1
  V  V49  1  0.24785268  0.62545463  0.88074258  1
  V  V50  1  0.50556679  0.75670047  0.74936883  1
  V  V51  1  0.50010780  0.62708552  0.14056167  1
  V  V52  1  0.87248935  0.61779094  0.75353280  1
  V  V53  1  0.12484343  0.74958613  0.37442890  1
  V  V54  1  0.62004861  0.37675124  0.24863111  1
  V  V55  1  0.74893570  0.61760667  0.87978069  1
  V  V56  1  0.75816086  0.63451075  0.36981202  1
  V  V57  1  0.49912568  0.12310554  0.62750150  1
  V  V58  1  0.00368169  0.00653400  -0.00090507  1
  V  V59  1  0.61372757  0.00636126  0.12409083  1
  V  V60  1  -0.00114038  0.25051139  0.74559271  1
  V  V61  1  0.24953549  0.87110854  0.12603717  1
  V  V62  1  0.49770200  0.87194014  0.36991787  1
  V  V63  1  0.50007011  0.24867110  0.75550271  1
  V  V64  1  0.36134950  0.12055307  0.75440655  1
  V  V65  1  0.12842411  0.00637264  0.12130579  1
  V  V66  1  0.12747125  0.23581758  0.87695205  1
  V  V67  1  0.11971145  0.24023890  0.37857672  1
  V  V68  1  0.25941746  0.12255233  0.38174603  1
  V  V69  1  0.62613763  0.87050759  0.24231181  1
  V  V70  1  -0.00145074  0.50905492  0.00033125  1
  V  V71  1  0.62318720  0.75007982  0.37443832  1
  V  V72  1  0.62510934  0.63248020  0.50370814  1
  V  V73  1  0.26014187  0.00283686  0.25243510  1
  V  V74  1  0.12706309  0.62450349  0.50122898  1
  V  V75  1  0.38800424  0.24398083  0.12209405  1
  V  V76  1  0.74555802  0.12957148  0.88480063  1
  V  V77  1  0.87886638  0.13376133  0.25003043  1
  V  V78  1  0.87094990  0.12238984  0.74700208  1
  V  V79  1  0.12494893  0.50957057  0.11782897  1
  V  V80  1  0.12481784  0.37470393  0.75087847  1
  V  V81  1  -0.00002621  0.37228079  0.37212898  1
  V  V82  1  0.12371057  0.74735862  0.88622364  1
  V  V83  1  0.37849386  0.37381487  0.49601910  1
  V  V84  1  0.36319279  0.00207944  0.87396828  1
  Zn  Zn85  1  0.24671513  0.24620359  0.50166790  1
  Zn  Zn86  1  0.37399304  0.37501447  -0.00290071  1
  Zn  Zn87  1  0.63214049  0.25686225  0.88240313  1
  Zn  Zn88  1  0.00014868  0.12859425  0.61907818  1
  Zn  Zn89  1  0.38371298  0.12090024  0.24902790  1
  Zn  Zn90  1  0.74640663  0.75318052  0.00635294  1
  Zn  Zn91  1  -0.00853833  0.72794185  0.24830297  1
  Zn  Zn92  1  0.75155940  0.50455927  0.24452113  1
  Zn  Zn93  1  -0.00335219  0.49727060  0.49886724  1
  Zn  Zn94  1  0.87487992  0.24939059  0.12062436  1
  Zn  Zn95  1  0.49648417  0.50605128  0.00288854  1
  Zn  Zn96  1  0.49722346  0.00754423  -0.00248090  1
  Zn  Zn97  1  0.37429164  0.50198854  0.87733255  1
  Zn  Zn98  1  0.61884274  0.14434348  0.01494025  1
  Zn  Zn99  1  0.74253448  -0.00564721  0.75446247  1
  Zn  Zn100  1  0.62521188  0.50368685  0.12363052  1
  Zn  Zn101  1  0.86620114  0.37324905  0.49850505  1
  Zn  Zn102  1  0.75522010  0.49474373  0.74891440  1
  Zn  Zn103  1  0.61701942  0.62772557  0.00083040  1
  Zn  Zn104  1  0.25061726  0.75119124  0.50033010  1
  Zn  Zn105  1  0.50336844  0.87839258  0.87276828  1
  Zn  Zn106  1  0.24644290  0.74225871  0.00893870  1
  Zn  Zn107  1  0.19113536  0.18687231  0.19044705  1
  Zn  Zn108  1  0.18550075  0.18842285  0.68750703  1
  Zn  Zn109  1  0.16358327  0.67626061  0.19685900  1
  Zn  Zn110  1  0.19139154  0.69187038  0.69096085  1
  Zn  Zn111  1  0.68739433  0.19050487  0.19116793  1
  Zn  Zn112  1  0.68477270  0.18425833  0.69333634  1
  Zn  Zn113  1  0.68995591  0.69138398  0.18744411  1
  Zn  Zn114  1  0.68706488  0.68605352  0.68879714  1
  Zn  Zn115  1  0.31350507  0.30947058  0.31041126  1
  Zn  Zn116  1  0.31145132  0.31021801  0.81471640  1
  Zn  Zn117  1  0.30870670  0.81438976  0.31522319  1
  Zn  Zn118  1  0.31166918  0.81223136  0.81412248  1
  Zn  Zn119  1  0.81606340  0.31863239  0.30235886  1
  Zn  Zn120  1  0.81536904  0.31184819  0.81137621  1
  Zn  Zn121  1  0.81118822  0.80985420  0.30566969  1
  Zn  Zn122  1  0.81241697  0.80842316  0.81245589  1
  Zn  Zn123  1  0.18883845  0.43513228  0.43651678  1
  Zn  Zn124  1  0.18520857  0.43301308  0.93689070  1
  Zn  Zn125  1  0.18841893  0.94110545  0.43930359  1
  Zn  Zn126  1  0.18889601  0.93517925  0.94062460  1
  Zn  Zn127  1  0.68599199  0.46061383  0.43219019  1
  Zn  Zn128  1  0.68118268  0.44022413  0.94128813  1
  Zn  Zn129  1  0.68660835  0.93678167  0.43853496  1
  Zn  Zn130  1  0.68930871  0.93938596  0.94018885  1
  Zn  Zn131  1  0.31685294  0.06153340  0.06275833  1
  Zn  Zn132  1  0.31263458  0.05994374  0.56355096  1
  Zn  Zn133  1  0.31687490  0.56099225  0.06244907  1
  Zn  Zn134  1  0.31215230  0.56435951  0.56326912  1
  Zn  Zn135  1  0.81382227  0.06198134  0.06341102  1
  Zn  Zn136  1  0.81136440  0.06106642  0.56388930  1
  Zn  Zn137  1  0.81233513  0.55370034  0.05793602  1
  Zn  Zn138  1  0.81155157  0.56257230  0.55329072  1
  Zn  Zn139  1  0.43855470  0.43376359  0.18670953  1
  Zn  Zn140  1  0.43994515  0.43836906  0.68870635  1
  Zn  Zn141  1  0.43800829  0.93067951  0.18677041  1
  Zn  Zn142  1  0.43553177  0.93843524  0.68930189  1
  Zn  Zn143  1  0.93921166  0.43800739  0.18277931  1
  Zn  Zn144  1  0.93616858  0.43539436  0.68282942  1
  Zn  Zn145  1  0.94176087  0.94366169  0.18971669  1
  Zn  Zn146  1  0.93766830  0.93603525  0.68603515  1
  Zn  Zn147  1  0.06355362  0.06181858  0.31054443  1
  Zn  Zn148  1  0.05956715  0.06080381  0.80712427  1
  Zn  Zn149  1  0.06641671  0.55615756  0.31030133  1
  Zn  Zn150  1  0.06180161  0.56289813  0.81533334  1
  Zn  Zn151  1  0.56405606  0.06230674  0.31112049  1
  Zn  Zn152  1  0.55630175  0.06224084  0.81904589  1
  Zn  Zn153  1  0.56211280  0.56394673  0.31254775  1
  Zn  Zn154  1  0.56536097  0.56636702  0.81086942  1
  Zn  Zn155  1  0.43769513  0.18735230  0.43981708  1
  Zn  Zn156  1  0.43961701  0.18501375  0.93928358  1
  Zn  Zn157  1  0.43849557  0.68844564  0.43571168  1
  Zn  Zn158  1  0.43796906  0.68798802  0.93991468  1
  Zn  Zn159  1  0.93539547  0.18918177  0.43745379  1
  Zn  Zn160  1  0.93677932  0.18805807  0.93472417  1
  Zn  Zn161  1  0.94030734  0.68812931  0.43776161  1
  Zn  Zn162  1  0.93175430  0.68963110  0.93928934  1
  Zn  Zn163  1  0.06512767  0.31427125  0.05698331  1
  Zn  Zn164  1  0.06093708  0.31311653  0.55844974  1
  Zn  Zn165  1  0.05508759  0.81472400  0.06691372  1
  Zn  Zn166  1  0.05964536  0.81442220  0.56146421  1
  Zn  Zn167  1  0.56422578  0.31543620  0.05848834  1
  Zn  Zn168  1  0.55502454  0.31824448  0.56824143  1
  Zn  Zn169  1  0.55724628  0.80771893  0.06243079  1
  Zn  Zn170  1  0.56123117  0.81134908  0.56060472  1
  O  O171  1  0.11973565  0.11346639  0.13375583  1
  O  O172  1  0.12225580  0.10957024  0.63167093  1
  O  O173  1  0.14593903  0.60600046  0.10725487  1
  O  O174  1  0.12251410  0.62365360  0.62008407  1
  O  O175  1  0.63112947  0.10957742  0.12885524  1
  O  O176  1  0.61929554  0.11893885  0.61882205  1
  O  O177  1  0.61062731  0.62980789  0.12845673  1
  O  O178  1  0.62936323  0.61965165  0.61290577  1
  O  O179  1  0.36586688  0.38403900  0.38499633  1
  O  O180  1  0.38525243  0.37759023  0.87114423  1
  O  O181  1  0.38269928  0.87076904  0.38420978  1
  O  O182  1  0.37388494  0.88205886  0.88242796  1
  O  O183  1  0.88362050  0.37966125  0.37433643  1
  O  O184  1  0.88703202  0.37157495  0.87850819  1
  O  O185  1  0.87748604  0.87727932  0.38049736  1
  O  O186  1  0.88139197  0.87843562  0.87948921  1
  O  O187  1  0.24278338  0.01467233  0.36793556  1
  O  O188  1  0.26321215  -0.00488711  0.87609511  1
  O  O189  1  0.25675524  0.50419357  0.36811084  1
  O  O190  1  0.24691002  0.50615926  0.86643453  1
  O  O191  1  0.75425359  0.00695878  0.36894830  1
  O  O192  1  0.75555754  0.00770427  0.87192381  1
  O  O193  1  0.76020405  0.51322046  0.36728387  1
  O  O194  1  0.74455220  0.51472007  0.87080685  1
  O  O195  1  0.24961767  0.48903149  0.13066716  1
  O  O196  1  0.24456331  0.49591170  0.63169305  1
  O  O197  1  0.24439226  0.99550998  0.13173068  1
  O  O198  1  0.24147866  0.98732777  0.61980249  1
  O  O199  1  0.74849570  0.48884105  0.12800642  1
  O  O200  1  0.73859886  0.50203131  0.62321480  1
  O  O201  1  0.74432251  1.00072463  0.13612422  1
  O  O202  1  0.74100199  0.99144178  0.62720176  1
  O  O203  1  0.00979240  0.37815836  0.25964673  1
  O  O204  1  0.00248985  0.36933180  0.75498225  1
  O  O205  1  0.00912705  0.87996001  0.25823533  1
  O  O206  1  0.00428392  0.86771033  0.75569439  1
  O  O207  1  0.51145336  0.36527058  0.24784417  1
  O  O208  1  0.50713809  0.36790976  0.75454826  1
  O  O209  1  0.50855722  0.88223227  0.26397960  1
  O  O210  1  0.49418674  0.86079834  0.75096350  1
  O  O211  1  0.50038323  0.14004437  0.25631482  1
  O  O212  1  0.49352474  0.13312033  0.74635164  1
  O  O213  1  0.49690901  0.62713804  0.24058769  1
  O  O214  1  0.48754828  0.63517040  0.75325966  1
  O  O215  1  0.99003086  0.11534397  0.23989818  1
  O  O216  1  0.98672904  0.13285015  0.74787929  1
  O  O217  1  1.05688188  0.63785846  0.23815732  1
  O  O218  1  0.99331364  0.62967360  0.74530203  1
  O  O219  1  0.36863857  0.25115678  0.00936308  1
  O  O220  1  0.37430337  0.25793697  0.50749749  1
  O  O221  1  0.36890648  0.75728396  0.00633633  1
  O  O222  1  0.37631778  0.76023137  0.50785032  1
  O  O223  1  0.88102706  0.26427458  0.00048965  1
  O  O224  1  0.87642508  0.25062006  0.51495775  1
  O  O225  1  0.87633347  0.76240172  0.01167173  1
  O  O226  1  0.88096709  0.75832120  0.50888212  1
  O  O227  1  0.12842832  0.25364688  0.48297723  1
  O  O228  1  0.13266653  0.25020715  0.98901880  1
  O  O229  1  0.12491871  0.74321523  0.49382010  1
  O  O230  1  0.12384612  0.75860255  0.98978019  1
  O  O231  1  0.62057182  0.24671723  0.49812076  1
  O  O232  1  0.63202269  0.25452271  0.99550754  1
  O  O233  1  0.62242302  0.74351256  0.48930332  1
  O  O234  1  0.62766913  0.74845321  0.99209053  1
  O  O235  1  0.48909201  0.25471408  0.12784494  1
  O  O236  1  0.49340706  0.24480806  0.63622983  1
  O  O237  1  0.48421580  0.74072128  0.12645180  1
  O  O238  1  0.48853112  0.75475631  0.63110262  1
  O  O239  1  1.00411849  0.23551229  0.11907527  1
  O  O240  1  1.00058517  0.24874986  0.63515774  1
  O  O241  1  0.98045610  0.75585073  0.12842101  1
  O  O242  1  0.99080998  0.74478410  0.62943140  1
  O  O243  1  0.01183580  0.25315211  0.37515832  1
  O  O244  1  0.00441043  0.25471864  0.86257912  1
  O  O245  1  0.00652183  0.75498677  0.36860683  1
  O  O246  1  0.00524304  0.75399992  0.87125962  1
  O  O247  1  0.49551706  0.25427642  0.36533059  1
  O  O248  1  0.49800642  0.25808911  0.86369806  1
  O  O249  1  0.50903139  0.75997400  0.37764365  1
  O  O250  1  0.50933091  0.75239535  0.86756511  1
  O  O251  1  0.25303674  0.12387028  0.48653782  1
  O  O252  1  0.24931875  0.13437318  1.00446320  1
  O  O253  1  0.24030862  0.62736276  0.49623472  1
  O  O254  1  0.25566737  0.62421304  0.98408463  1
  O  O255  1  0.73850265  0.12097787  0.49421868  1
  O  O256  1  0.74785799  0.11912805  0.98732597  1
  O  O257  1  0.73664724  0.61926671  0.48328473  1
  O  O258  1  0.75274800  0.62714752  0.98707503  1
  O  O259  1  0.24902976  0.36716381  0.01132710  1
  O  O260  1  0.26026872  0.37541931  0.50826728  1
  O  O261  1  0.25860140  0.87239131  0.01071544  1
  O  O262  1  0.25860752  0.87403155  0.50466137  1
  O  O263  1  0.76060699  0.38345116  0.00473192  1
  O  O264  1  0.74040243  0.36485653  0.48596814  1
  O  O265  1  0.76759217  0.87451589  -0.00369193  1
  O  O266  1  0.76250752  0.88033047  0.50843243  1
  O  O267  1  0.13793319  0.48437408  0.24128638  1
  O  O268  1  0.12962144  0.49480361  0.74401166  1
  O  O269  1  0.13427913  0.99317737  0.24437996  1
  O  O270  1  0.11664576  0.98486944  0.74147597  1
  O  O271  1  0.62480846  0.49034992  0.25058999  1
  O  O272  1  0.62521530  0.49495971  0.73929604  1
  O  O273  1  0.63081043  0.99417588  0.24112704  1
  O  O274  1  0.62059262  1.00417836  0.73608850  1
  O  O275  1  0.36420488  0.00044376  0.24475594  1
  O  O276  1  0.37671927  0.00666119  0.76184924  1
  O  O277  1  0.36365275  0.49000128  0.25805324  1
  O  O278  1  0.36886619  0.51001382  0.74840865  1
  O  O279  1  0.86741943  0.00651078  0.25634041  1
  O  O280  1  0.87617757  0.00748793  0.75475386  1
  O  O281  1  0.87705138  0.49693425  0.26148101  1
  O  O282  1  0.87476311  0.51344984  0.74219060  1
  O  O283  1  0.12140456  0.36593666  0.36748704  1
  O  O284  1  0.11477917  0.36628809  0.86708798  1
  O  O285  1  0.12004968  0.87276303  0.37078217  1
  O  O286  1  0.11945097  0.87000771  0.86851986  1
  O  O287  1  0.63278303  0.36688499  0.37322713  1
  O  O288  1  0.61524591  0.37700794  0.86490069  1
  O  O289  1  0.61861350  0.86856996  0.37204677  1
  O  O290  1  0.62732635  0.86468730  0.87637904  1
  O  O291  1  0.37074615  0.14029687  0.13005444  1
  O  O292  1  0.38097510  0.12757986  0.63106522  1
  O  O293  1  0.37799720  0.63665819  0.12755728  1
  O  O294  1  0.36757266  0.63796988  0.63316445  1
  O  O295  1  0.88282658  0.12568583  0.13211998  1
  O  O296  1  0.87545101  0.13402438  0.63066058  1
  O  O297  1  0.87690504  0.62961595  0.12027652  1
  O  O298  1  0.87758666  0.63103972  0.62607668  1
  O  O299  1  0.25588333  0.25395140  0.11958681  1
  O  O300  1  0.25422290  0.25584904  0.62208786  1
  O  O301  1  0.25714854  0.75239569  0.12832230  1
  O  O302  1  0.25886744  0.76195371  0.62295454  1
  O  O303  1  0.75281284  0.26431235  0.13065956  1
  O  O304  1  0.75877663  0.24687155  0.62755415  1
  O  O305  1  0.76718403  0.74714624  0.12268622  1
  O  O306  1  0.76057920  0.75458861  0.62653889  1
  O  O307  1  0.24255215  0.23767416  0.37564024  1
  O  O308  1  0.23977313  0.25418940  0.88533957  1
  O  O309  1  0.24444805  0.74058342  0.37781889  1
  O  O310  1  0.23981521  0.74320570  0.87645635  1
  O  O311  1  0.74959059  0.24423087  0.37337786  1
  O  O312  1  0.75319264  0.23230072  0.86796445  1
  O  O313  1  0.74582067  0.74018087  0.37561035  1
  O  O314  1  0.74266283  0.74231163  0.87603642  1
  O  O315  1  -0.00697009  0.11254807  0.00626925  1
  O  O316  1  -0.00509930  0.11077901  0.49942222  1
  O  O317  1  -0.00394417  0.60787898  -0.01074466  1
  O  O318  1  0.01229280  0.62305988  0.50505361  1
  O  O319  1  0.50954823  0.12045500  -0.00500426  1
  O  O320  1  0.50820364  0.11867216  0.50373512  1
  O  O321  1  0.49742346  0.62633579  0.01430789  1
  O  O322  1  0.51088255  0.61838827  0.49469794  1
  O  O323  1  0.48572225  0.38586353  0.50332419  1
  O  O324  1  0.49709616  0.37753302  0.98593441  1
  O  O325  1  0.49449056  0.88196662  0.49189811  1
  O  O326  1  0.48636850  0.87736092  1.00031336  1
  O  O327  1  1.00007104  0.37656450  0.48422103  1
  O  O328  1  0.99454747  0.37906945  0.99051865  1
  O  O329  1  0.98869448  0.88255623  0.49435885  1
  O  O330  1  0.99052975  0.88605079  0.99590449  1
  O  O331  1  0.48596110  0.50567067  0.38301561  1
  O  O332  1  0.49768896  0.49274037  0.86990105  1
  O  O333  1  0.50710247  0.99370109  0.38735294  1
  O  O334  1  0.48797492  0.99351514  0.87689019  1
  O  O335  1  0.99665027  0.49293764  0.37507982  1
  O  O336  1  1.00728598  0.48908325  0.88486603  1
  O  O337  1  0.99458426  0.99479350  0.38089442  1
  O  O338  1  0.99465525  0.99630962  0.88173120  1
  O  O339  1  0.00924346  0.00792128  0.11791156  1
  O  O340  1  0.00631696  -0.00032752  0.61651359  1
  O  O341  1  0.01011963  0.49649415  0.11132249  1
  O  O342  1  0.00646657  0.50706606  0.62197859  1
  O  O343  1  0.51122253  0.00005186  0.12759859  1
  O  O344  1  0.50501816  0.00200391  0.61566364  1
  O  O345  1  0.49549741  0.51613111  0.12882403  1
  O  O346  1  0.50540257  0.50175155  0.61439376  1
  O  O347  1  0.24510314  0.37606567  0.23959249  1
  O  O348  1  0.24548912  0.38095502  0.74418692  1
  O  O349  1  0.24502614  0.88598958  0.24701212  1
  O  O350  1  0.24060267  0.87039731  0.74137823  1
  O  O351  1  0.73771475  0.37716662  0.24303234  1
  O  O352  1  0.73695118  0.37607164  0.75586898  1
  O  O353  1  0.73864188  0.88602523  0.25858552  1
  O  O354  1  0.75748858  0.87627314  0.73460182  1
  O  O355  1  0.25397550  0.11847504  0.26053442  1
  O  O356  1  0.26238990  0.12736916  0.74591721  1
  O  O357  1  0.24383988  0.61162524  0.26013238  1
  O  O358  1  0.25810994  0.62155097  0.75707550  1
  O  O359  1  0.75601999  0.11793145  0.25715967  1
  O  O360  1  0.76042495  0.11949821  0.75491884  1
  O  O361  1  0.74471012  0.62454408  0.26635239  1
  O  O362  1  0.75705086  0.62279889  0.75839411  1
  O  O363  1  0.36265045  0.12814735  0.37221869  1
  O  O364  1  0.37531545  0.11168566  0.86859244  1
  O  O365  1  0.36186766  0.61670486  0.38294633  1
  O  O366  1  0.36650592  0.62706776  0.86475108  1
  O  O367  1  0.86540315  0.12160984  0.37005830  1
  O  O368  1  0.86673225  0.11898617  0.86813005  1
  O  O369  1  0.86557767  0.62140831  0.37994453  1
  O  O370  1  0.86101902  0.63261671  0.86556010  1
  O  O371  1  0.13237667  0.37546673  0.13147561  1
  O  O372  1  0.13010648  0.37915143  0.62968389  1
  O  O373  1  0.12797014  0.88439596  0.13277939  1
  O  O374  1  0.13120945  0.87856881  0.63149401  1
  O  O375  1  0.62957901  0.37918349  0.13280194  1
  O  O376  1  0.61935377  0.38634360  0.63396213  1
  O  O377  1  0.61737015  0.87937074  0.13825170  1
  O  O378  1  0.63470406  0.88149135  0.61637551  1
  O  O379  1  0.13034091  0.25938507  0.26129114  1
  O  O380  1  0.11729166  0.25573098  0.75375572  1
  O  O381  1  0.13583876  0.77173219  0.25756687  1
  O  O382  1  0.11886163  0.76042922  0.75578261  1
  O  O383  1  0.61108209  0.25606330  0.24875266  1
  O  O384  1  0.61647553  0.25727521  0.75280594  1
  O  O385  1  0.63072274  0.75973425  0.26239474  1
  O  O386  1  0.61551933  0.74494570  0.75685881  1
  O  O387  1  0.38860227  0.25100111  0.24106329  1
  O  O388  1  0.38023101  0.24258242  0.74609208  1
  O  O389  1  0.37128737  0.75469367  0.23942118  1
  O  O390  1  0.37963055  0.74493445  0.74329891  1
  O  O391  1  0.87537950  0.23685078  0.24753737  1
  O  O392  1  0.88033587  0.24462181  0.73827510  1
  O  O393  1  0.87647406  0.74637364  0.23689291  1
  O  O394  1  0.88022453  0.73942579  0.74087462  1
  O  O395  1  0.37971065  0.49600960  0.49591033  1
  O  O396  1  0.37750246  0.49321295  0.99523519  1
  O  O397  1  0.38464220  0.98845743  0.50499061  1
  O  O398  1  0.37433284  0.99275664  0.99102431  1
  O  O399  1  0.87554119  0.49353683  0.48581048  1
  O  O400  1  0.89140793  0.48718757  1.00239318  1
  O  O401  1  0.88014760  0.99274552  0.49466370  1
  O  O402  1  0.88100755  0.99159979  0.99563889  1
  O  O403  1  0.11672949  -0.00529117  0.00954586  1
  O  O404  1  0.11387531  -0.00858669  0.51110220  1
  O  O405  1  0.11153276  0.48781583  0.00694512  1
  O  O406  1  0.12588893  0.50761167  0.50639151  1
  O  O407  1  0.62577532  -0.00708574  0.02001319  1
  O  O408  1  0.61872894  0.00709689  0.50882268  1
  O  O409  1  0.61666320  0.50853920  0.00526122  1
  O  O410  1  0.61483655  0.50756812  0.50629322  1
  O  O411  1  0.36758050  0.36158702  0.12436470  1
  O  O412  1  0.36975405  0.37008339  0.62089999  1
  O  O413  1  0.37047914  0.86398072  0.12013269  1
  O  O414  1  0.36771393  0.87095645  0.61944252  1
  O  O415  1  0.86889828  0.37154017  0.11691832  1
  O  O416  1  0.87412039  0.36045164  0.62119258  1
  O  O417  1  0.87574402  0.88355940  0.11558474  1
  O  O418  1  0.87004401  0.86685952  0.61746974  1
  O  O419  1  0.13147182  0.13675196  0.36894934  1
  O  O420  1  0.12020782  0.13672119  0.86627427  1
  O  O421  1  0.13641180  0.62564440  0.38660024  1
  O  O422  1  0.13326351  0.63763766  0.86672132  1
  O  O423  1  0.63742625  0.12155037  0.38183423  1
  O  O424  1  0.64075620  0.12469966  0.86939124  1
  O  O425  1  0.63092170  0.63310612  0.37966499  1
  O  O426  1  0.63680773  0.63492593  0.87429328  1
