# generated using pymatgen
data_V85Zn86O256
_symmetry_space_group_name_H-M   'P 1'
_cell_length_a   16.93091714
_cell_length_b   16.91948838
_cell_length_c   16.92161535
_cell_angle_alpha   90.04386381
_cell_angle_beta   89.99186310
_cell_angle_gamma   90.03929442
_symmetry_Int_Tables_number   1
_chemical_formula_structural   V85Zn86O256
_chemical_formula_sum   'V85 Zn86 O256'
_cell_volume   4847.40487936
_cell_formula_units_Z   1
loop_
 _symmetry_equiv_pos_site_id
 _symmetry_equiv_pos_as_xyz
  1  'x, y, z'
loop_
 _atom_site_type_symbol
 _atom_site_label
 _atom_site_symmetry_multiplicity
 _atom_site_fract_x
 _atom_site_fract_y
 _atom_site_fract_z
 _atom_site_occupancy
  V  V0  1  0.25704732  0.25723107  0.50902626  1
  V  V1  1  0.62390762  0.62488214  -0.00017225  1
  V  V2  1  0.25063721  0.61769543  0.86802514  1
  V  V3  1  0.62721735  0.12294017  0.50912247  1
  V  V4  1  0.13351664  0.87780229  0.75141671  1
  V  V5  1  -0.00345635  0.24148159  0.24966782  1
  V  V6  1  0.12304344  0.75052802  0.87214556  1
  V  V7  1  0.25090232  0.50548569  0.26014891  1
  V  V8  1  0.62301078  0.24638020  0.87466426  1
  V  V9  1  0.12380740  0.25407917  0.87173946  1
  V  V10  1  0.93307572  0.68947643  0.57210391  1
  V  V11  1  0.87673786  0.09862744  0.24999151  1
  V  V12  1  0.50171687  0.87496690  0.86912839  1
  V  V13  1  0.37383303  0.37545678  0.00347527  1
  V  V14  1  0.49556896  0.12602406  0.13168115  1
  V  V15  1  -0.00180285  0.00411183  0.50071134  1
  V  V16  1  0.11782563  0.51133295  0.62934385  1
  V  V17  1  0.49813828  0.37275455  0.87517406  1
  V  V18  1  0.49828259  -0.00086812  -0.00301443  1
  V  V19  1  0.25127901  0.11761332  0.87121401  1
  V  V20  1  0.24871023  0.24929799  0.00003714  1
  V  V21  1  0.62356907  0.12420078  -0.00003284  1
  V  V22  1  0.25403660  0.87886140  0.61491898  1
  V  V23  1  0.25701021  0.00700824  0.24799307  1
  V  V24  1  0.24987637  0.74814513  0.00007615  1
  V  V25  1  0.87398279  0.38105975  -0.00267266  1
  V  V26  1  0.00231326  0.12947037  0.62662410  1
  V  V27  1  0.12322230  0.25082738  0.37576826  1
  V  V28  1  0.88178162  0.62680847  0.75361313  1
  V  V29  1  0.87871767  0.23989140  0.12613596  1
  V  V30  1  0.75973867  0.75436534  0.00168560  1
  V  V31  1  0.24824758  0.38654555  0.63847077  1
  V  V32  1  0.49901425  0.74520187  0.74968143  1
  V  V33  1  0.49534679  0.87767837  0.37986454  1
  V  V34  1  0.24908773  0.87746969  0.12525870  1
  V  V35  1  0.37413916  0.75112692  0.62256050  1
  V  V36  1  0.62493367  0.37180770  0.74835193  1
  V  V37  1  -0.00450417  -0.00043190  0.01087074  1
  V  V38  1  0.37961555  0.38553191  0.49211654  1
  V  V39  1  0.75499407  0.49681129  0.75079169  1
  V  V40  1  0.87420825  0.25172270  0.62398921  1
  V  V41  1  0.62620773  0.75219168  0.87060079  1
  V  V42  1  0.37377283  0.87586134  -0.00191354  1
  V  V43  1  0.61258882  0.36589724  0.25334427  1
  V  V44  1  0.12781042  0.74078370  0.37686194  1
  V  V45  1  0.75186035  -0.01273398  0.74574556  1
  V  V46  1  -0.00215684  0.38321216  0.87451587  1
  V  V47  1  0.12708288  0.87525418  0.25620558  1
  V  V48  1  -0.00230201  0.87664330  0.87757105  1
  V  V49  1  0.87781204  0.37822913  0.49600407  1
  V  V50  1  0.13213290  0.00502706  0.63339014  1
  V  V51  1  0.62241375  0.49856626  0.12465361  1
  V  V52  1  0.12058578  0.62319210  0.00182678  1
  V  V53  1  0.75089919  0.24898247  0.49206287  1
  V  V54  1  -0.00713222  0.64035098  0.13268697  1
  V  V55  1  0.74893356  0.75153395  0.51513498  1
  V  V56  1  0.37371626  0.12204218  0.73591758  1
  V  V57  1  0.25439129  0.73504081  0.49412047  1
  V  V58  1  0.87399285  -0.00090880  0.87895284  1
  V  V59  1  0.75511260  0.10547873  0.37184288  1
  V  V60  1  0.12734996  0.12938668  0.50155538  1
  V  V61  1  0.37442470  0.24727720  0.13066236  1
  V  V62  1  0.49719627  0.00036146  0.50818278  1
  V  V63  1  0.12179404  0.37656477  0.24675501  1
  V  V64  1  0.62729732  -0.00020019  0.12635997  1
  V  V65  1  0.61756012  0.49820643  0.62232320  1
  V  V66  1  0.75186985  0.37369422  0.12904081  1
  V  V67  1  0.37170612  0.62299233  0.26444462  1
  V  V68  1  0.49442767  0.62235054  0.12498338  1
  V  V69  1  0.75140783  0.63028893  0.37159327  1
  V  V70  1  0.62663348  -0.01685908  0.63045978  1
  V  V71  1  0.37692435  0.00564658  0.37757113  1
  V  V72  1  0.87509369  0.50137429  0.36462005  1
  V  V73  1  0.00227773  0.25633037  0.74924837  1
  V  V74  1  0.87665155  0.87916686  0.51894087  1
  V  V75  1  0.25478633  0.12913004  0.37284461  1
  V  V76  1  0.75314610  0.61838317  0.87584079  1
  V  V77  1  0.62636853  0.75376445  0.37709342  1
  V  V78  1  -0.00258691  0.88093267  0.37799475  1
  V  V79  1  0.49613252  0.24416003  0.73291733  1
  V  V80  1  0.75030718  0.24665171  -0.00073041  1
  V  V81  1  0.62859836  0.88080235  0.25014108  1
  V  V82  1  0.75647459  0.87417851  0.12259972  1
  V  V83  1  0.49720096  0.75198332  0.24971489  1
  V  V84  1  0.11841451  0.12458204  0.00739594  1
  Zn  Zn85  1  -0.00626782  0.50503180  0.00182818  1
  Zn  Zn86  1  0.74812385  0.37395384  0.62191222  1
  Zn  Zn87  1  0.62457717  0.62279515  0.50012039  1
  Zn  Zn88  1  0.00513201  0.51444261  0.49847445  1
  Zn  Zn89  1  0.61535920  0.24619336  0.37165361  1
  Zn  Zn90  1  0.75267589  0.50766907  0.24495043  1
  Zn  Zn91  1  0.44001796  0.19498697  0.29685347  1
  Zn  Zn92  1  0.49737025  0.62142678  0.62085321  1
  Zn  Zn93  1  0.49538995  0.50022577  -0.00158336  1
  Zn  Zn94  1  0.87116679  0.12563437  0.75051850  1
  Zn  Zn95  1  0.37021273  0.61413864  0.74286251  1
  Zn  Zn96  1  -0.00104675  0.37810962  0.37317677  1
  Zn  Zn97  1  0.36762868  0.49272068  0.86882030  1
  Zn  Zn98  1  0.74815291  0.12226337  0.87090963  1
  Zn  Zn99  1  0.37366948  0.74903249  0.12652667  1
  Zn  Zn100  1  0.37140539  -0.00141700  0.86717701  1
  Zn  Zn101  1  0.11808680  0.00314460  0.13147551  1
  Zn  Zn102  1  0.24855296  0.38108811  0.12405868  1
  Zn  Zn103  1  0.86488593  0.67156778  0.23139933  1
  Zn  Zn104  1  0.50091611  0.50288667  0.47981989  1
  Zn  Zn105  1  0.12134540  0.50441784  0.12727069  1
  Zn  Zn106  1  -0.00420476  0.75275566  0.74366763  1
  Zn  Zn107  1  0.18778159  0.18825434  0.18712443  1
  Zn  Zn108  1  0.19039843  0.19397015  0.69002534  1
  Zn  Zn109  1  0.18557620  0.68820629  0.18858908  1
  Zn  Zn110  1  0.18406309  0.69030154  0.68450429  1
  Zn  Zn111  1  0.69254598  0.18330781  0.19019535  1
  Zn  Zn112  1  0.69035469  0.18316013  0.68750731  1
  Zn  Zn113  1  0.68286774  0.69179194  0.18651020  1
  Zn  Zn114  1  0.68523869  0.68179935  0.69101229  1
  Zn  Zn115  1  0.30168660  0.31811105  0.31477960  1
  Zn  Zn116  1  0.31568905  0.30627354  0.81238912  1
  Zn  Zn117  1  0.31375348  0.81533467  0.31486091  1
  Zn  Zn118  1  0.31298395  0.80915761  0.81027121  1
  Zn  Zn119  1  0.81107472  0.30937108  0.31115826  1
  Zn  Zn120  1  0.81287023  0.31175118  0.81279027  1
  Zn  Zn121  1  0.80700785  0.82828127  0.32562408  1
  Zn  Zn122  1  0.81588396  0.80960880  0.81185210  1
  Zn  Zn123  1  0.18202866  0.44143272  0.43999237  1
  Zn  Zn124  1  0.18358015  0.43741267  0.93754940  1
  Zn  Zn125  1  0.18801066  0.94134857  0.44001450  1
  Zn  Zn126  1  0.18425311  0.93988038  0.93934695  1
  Zn  Zn127  1  0.68758834  0.43809993  0.43242069  1
  Zn  Zn128  1  0.68669901  0.43534840  0.93792996  1
  Zn  Zn129  1  0.68872851  0.93260714  0.44596164  1
  Zn  Zn130  1  0.68665710  0.93607124  0.93474560  1
  Zn  Zn131  1  0.31202784  0.06342320  0.06009241  1
  Zn  Zn132  1  0.31181636  0.06282699  0.56061904  1
  Zn  Zn133  1  0.30999076  0.55850816  0.06636568  1
  Zn  Zn134  1  0.31116455  0.55950698  0.56337407  1
  Zn  Zn135  1  0.81192513  0.05893313  0.06266850  1
  Zn  Zn136  1  0.81194723  0.06244115  0.56664018  1
  Zn  Zn137  1  0.81307441  0.56448476  0.06361268  1
  Zn  Zn138  1  0.80420470  0.55579741  0.55844571  1
  Zn  Zn139  1  0.43694345  0.43545086  0.30890569  1
  Zn  Zn140  1  0.42953719  0.43253339  0.68501594  1
  Zn  Zn141  1  0.43734234  0.93930773  0.18814259  1
  Zn  Zn142  1  0.43733828  0.93553992  0.68817426  1
  Zn  Zn143  1  0.94151751  0.43772686  0.18233338  1
  Zn  Zn144  1  0.94033363  0.43996253  0.68525162  1
  Zn  Zn145  1  0.92439112  0.87240329  0.20591844  1
  Zn  Zn146  1  0.94357251  0.94030489  0.69218722  1
  Zn  Zn147  1  0.06503596  0.06230865  0.31323635  1
  Zn  Zn148  1  0.06055414  0.06652388  0.81490591  1
  Zn  Zn149  1  0.05630500  0.56379235  0.30725040  1
  Zn  Zn150  1  0.06878028  0.55895137  0.80843201  1
  Zn  Zn151  1  0.56877435  0.06277853  0.31680052  1
  Zn  Zn152  1  0.56147678  0.06201385  0.80704522  1
  Zn  Zn153  1  0.56933045  0.56567377  0.30658514  1
  Zn  Zn154  1  0.56169652  0.55908057  0.80991039  1
  Zn  Zn155  1  0.44127262  0.18802888  0.46066029  1
  Zn  Zn156  1  0.43572835  0.18608966  0.93679976  1
  Zn  Zn157  1  0.43961404  0.68767362  0.44247122  1
  Zn  Zn158  1  0.43499316  0.68692235  0.93757252  1
  Zn  Zn159  1  0.93498993  0.18464807  0.43363828  1
  Zn  Zn160  1  0.93676857  0.18541905  0.93632636  1
  Zn  Zn161  1  0.93482179  0.69906034  0.40031077  1
  Zn  Zn162  1  0.93728108  0.68780676  0.93474275  1
  Zn  Zn163  1  0.05842589  0.31123574  0.06289959  1
  Zn  Zn164  1  0.06613521  0.32226973  0.56282517  1
  Zn  Zn165  1  0.06382751  0.81501188  0.06219692  1
  Zn  Zn166  1  0.07391798  0.81673287  0.55730563  1
  Zn  Zn167  1  0.55942650  0.31077815  0.06557820  1
  Zn  Zn168  1  0.56337659  0.31417020  0.55722472  1
  Zn  Zn169  1  0.56375681  0.81078536  0.05951383  1
  Zn  Zn170  1  0.56070329  0.81151484  0.56198837  1
  O  O171  1  0.12771861  0.12357073  0.11167777  1
  O  O172  1  0.12413479  0.12226439  0.62309315  1
  O  O173  1  0.11285711  0.62998096  0.11784082  1
  O  O174  1  0.12779622  0.61193608  0.62605368  1
  O  O175  1  0.61988436  0.11807780  0.12071375  1
  O  O176  1  0.63412365  0.11366053  0.61249188  1
  O  O177  1  0.61893350  0.61766260  0.12136565  1
  O  O178  1  0.62187062  0.61279918  0.62394191  1
  O  O179  1  0.37275624  0.37317062  0.38570157  1
  O  O180  1  0.38167344  0.36924738  0.88517213  1
  O  O181  1  0.38578127  0.89045858  0.37021294  1
  O  O182  1  0.37978722  0.87667436  0.87965978  1
  O  O183  1  0.87280513  0.38244134  0.37942899  1
  O  O184  1  0.88408731  0.36477332  0.88662287  1
  O  O185  1  0.89369819  0.87592980  0.39274524  1
  O  O186  1  0.88528714  0.88636781  0.86925008  1
  O  O187  1  0.25963775  0.00756408  0.37280171  1
  O  O188  1  0.24771180  0.01410650  0.87584997  1
  O  O189  1  0.24111249  0.49983610  0.35931987  1
  O  O190  1  0.24536146  0.51426187  0.87711004  1
  O  O191  1  0.75109023  0.00671396  0.38051955  1
  O  O192  1  0.75597368  -0.00103989  0.86691279  1
  O  O193  1  0.75528126  0.51279070  0.37052454  1
  O  O194  1  0.74316234  0.50716474  0.86602726  1
  O  O195  1  0.24095850  0.49880341  0.13549548  1
  O  O196  1  0.24145428  0.49200921  0.62529080  1
  O  O197  1  0.24895668  0.99689125  0.13286986  1
  O  O198  1  0.24342012  0.99374044  0.62271965  1
  O  O199  1  0.74413381  0.49118624  0.12386998  1
  O  O200  1  0.73864471  0.49603418  0.63246869  1
  O  O201  1  0.73332161  0.99133161  0.11583941  1
  O  O202  1  0.74217854  0.99795680  0.63565110  1
  O  O203  1  0.00430053  0.36245760  0.25021540  1
  O  O204  1  -0.00930994  0.36378879  0.75868154  1
  O  O205  1  0.01873721  0.89038311  0.26396080  1
  O  O206  1  0.01270236  0.87597311  0.76008341  1
  O  O207  1  0.51398743  0.37312656  0.24336372  1
  O  O208  1  0.50230769  0.35995645  0.75530768  1
  O  O209  1  0.50714121  0.87306457  0.25799116  1
  O  O210  1  0.49416988  0.86268069  0.76194111  1
  O  O211  1  0.50277486  0.11759831  0.23631132  1
  O  O212  1  0.48982546  0.13630128  0.75273139  1
  O  O213  1  0.49270934  0.63167680  0.24214761  1
  O  O214  1  0.49877014  0.63617100  0.74967742  1
  O  O215  1  0.99227282  0.13292314  0.25550760  1
  O  O216  1  0.99723468  0.13765250  0.74430707  1
  O  O217  1  0.99355078  0.63152912  0.23619086  1
  O  O218  1  0.98460975  0.62320472  0.76055361  1
  O  O219  1  0.36432719  0.25193511  0.00428243  1
  O  O220  1  0.36153510  0.25968813  0.50083664  1
  O  O221  1  0.36591630  0.75757350  0.00129836  1
  O  O222  1  0.36330505  0.75220198  0.50547570  1
  O  O223  1  0.86937246  0.25157801  0.00792513  1
  O  O224  1  0.86914423  0.25420786  0.50376162  1
  O  O225  1  0.85792029  0.75074771  -0.00729384  1
  O  O226  1  0.87453484  0.75247240  0.50800793  1
  O  O227  1  0.13301364  0.24859523  0.49552352  1
  O  O228  1  0.12918223  0.24348749  0.99564521  1
  O  O229  1  0.14058692  0.75330015  0.48817967  1
  O  O230  1  0.13105728  0.74211183  0.99371909  1
  O  O231  1  0.63395666  0.24087028  0.49954331  1
  O  O232  1  0.62961669  0.24427360  0.99614712  1
  O  O233  1  0.63325462  0.75176026  0.49360848  1
  O  O234  1  0.62861792  0.74185629  0.98844401  1
  O  O235  1  0.48814947  0.23867355  0.12069078  1
  O  O236  1  0.50335826  0.24884226  0.63463194  1
  O  O237  1  0.50098194  0.74004138  0.12994842  1
  O  O238  1  0.49210589  0.75121776  0.63210418  1
  O  O239  1  0.98637250  0.24880155  0.13144505  1
  O  O240  1  0.99590039  0.25114455  0.63109890  1
  O  O241  1  0.99925167  0.74123869  0.12100083  1
  O  O242  1  1.00414592  0.74541927  0.62161471  1
  O  O243  1  0.00544839  0.25023309  0.36685683  1
  O  O244  1  0.00588010  0.25462124  0.86816473  1
  O  O245  1  0.02030765  0.76692940  0.38147304  1
  O  O246  1  0.00606392  0.75954556  0.87388612  1
  O  O247  1  0.50266262  0.23536212  0.37846423  1
  O  O248  1  0.50623045  0.25736231  0.87312613  1
  O  O249  1  0.50406312  0.76140380  0.37226875  1
  O  O250  1  0.50487099  0.75358543  0.86944845  1
  O  O251  1  0.24888096  0.13912731  0.49555595  1
  O  O252  1  0.24283291  0.13156930  0.99151342  1
  O  O253  1  0.25320914  0.63691409  0.49739452  1
  O  O254  1  0.24237356  0.63225816  0.99534757  1
  O  O255  1  0.74915260  0.12796806  0.49113475  1
  O  O256  1  0.74077105  0.12951914  0.99786271  1
  O  O257  1  0.74934782  0.63397458  0.48969853  1
  O  O258  1  0.74519311  0.63322450  0.99488994  1
  O  O259  1  0.25409762  0.36607821  -0.00087741  1
  O  O260  1  0.25646079  0.36746940  0.49787366  1
  O  O261  1  0.25281973  0.86913574  0.00336462  1
  O  O262  1  0.24776169  0.87248756  0.51226673  1
  O  O263  1  0.75419246  0.36689239  0.00839419  1
  O  O264  1  0.75956691  0.36578926  0.49753130  1
  O  O265  1  0.74004151  0.86117627  0.00578563  1
  O  O266  1  0.76578550  0.86398970  0.49655287  1
  O  O267  1  0.12808901  0.49281572  0.24946681  1
  O  O268  1  0.11939680  0.49516055  0.73135823  1
  O  O269  1  0.13930205  0.99604437  0.25144971  1
  O  O270  1  0.12168480  0.99670615  0.74089409  1
  O  O271  1  0.63140808  0.49018194  0.23610370  1
  O  O272  1  0.63289745  0.49195775  0.74365630  1
  O  O273  1  0.61902250  0.99207789  0.23948706  1
  O  O274  1  0.63286189  1.00126743  0.73750211  1
  O  O275  1  0.36426431  -0.00031468  0.25703391  1
  O  O276  1  0.38188051  0.01695818  0.74975283  1
  O  O277  1  0.35974308  0.50601511  0.25180274  1
  O  O278  1  0.38233429  0.50284051  0.75719714  1
  O  O279  1  0.88540337  0.00132872  0.24446920  1
  O  O280  1  0.86545951  0.00142924  0.75363167  1
  O  O281  1  0.87239304  0.49177532  0.26013529  1
  O  O282  1  0.86107975  0.50502377  0.74260115  1
  O  O283  1  0.12249247  0.36806246  0.36278295  1
  O  O284  1  0.11530618  0.36152124  0.88287639  1
  O  O285  1  0.12211581  0.87396972  0.37239707  1
  O  O286  1  0.12283860  0.87185261  0.86747520  1
  O  O287  1  0.63354390  0.36965632  0.35653266  1
  O  O288  1  0.61885702  0.36582868  0.86936690  1
  O  O289  1  0.61935225  0.87477848  0.36822029  1
  O  O290  1  0.61373923  0.86435890  0.87950796  1
  O  O291  1  0.38320303  0.13294220  0.11978122  1
  O  O292  1  0.37055517  0.12686934  0.63672780  1
  O  O293  1  0.38316735  0.62641728  0.12897053  1
  O  O294  1  0.37475041  0.63678928  0.62465014  1
  O  O295  1  0.86498125  0.13048592  0.13700287  1
  O  O296  1  0.88262328  0.13796208  0.62359434  1
  O  O297  1  0.88592394  0.62881027  0.12368289  1
  O  O298  1  0.87501559  0.62473515  0.62888105  1
  O  O299  1  0.25427423  0.24941919  0.11287845  1
  O  O300  1  0.24466246  0.26011723  0.61177675  1
  O  O301  1  0.24858402  0.75552856  0.11297122  1
  O  O302  1  0.25371246  0.75564334  0.61325123  1
  O  O303  1  0.75853846  0.25416121  0.12036392  1
  O  O304  1  0.75846455  0.24829862  0.61325871  1
  O  O305  1  0.74230201  0.75717405  0.11040467  1
  O  O306  1  0.74462672  0.74357276  0.61437822  1
  O  O307  1  0.24275947  0.24648874  0.38407804  1
  O  O308  1  0.24268907  0.24406205  0.88298276  1
  O  O309  1  0.24470834  0.75643388  0.38738025  1
  O  O310  1  0.24389539  0.74455090  0.88516089  1
  O  O311  1  0.75004835  0.24014594  0.38462266  1
  O  O312  1  0.74131306  0.24721858  0.88049088  1
  O  O313  1  0.74642466  0.74692031  0.38454333  1
  O  O314  1  0.74261383  0.74500301  0.88215786  1
  O  O315  1  0.00857319  0.11552437  -0.00570346  1
  O  O316  1  0.00561029  0.12266549  0.50633264  1
  O  O317  1  0.00531413  0.62594633  0.00438430  1
  O  O318  1  -0.01986066  0.63595812  0.50056378  1
  O  O319  1  0.50499559  0.11902808  0.00727324  1
  O  O320  1  0.51281772  0.10911018  0.50350239  1
  O  O321  1  0.50487725  0.62420825  0.00581778  1
  O  O322  1  0.50596240  0.62024065  0.50288012  1
  O  O323  1  0.48229140  0.37569787  0.50419151  1
  O  O324  1  0.49161917  0.37318107  0.99290021  1
  O  O325  1  0.50592680  0.88558192  0.48857070  1
  O  O326  1  0.49310381  0.87705828  0.99017303  1
  O  O327  1  0.98498932  0.37027185  0.49491158  1
  O  O328  1  0.99005986  0.37498572  0.99391792  1
  O  O329  1  0.99949686  0.88599767  0.49939196  1
  O  O330  1  1.00969151  0.88374830  0.98511195  1
  O  O331  1  0.50781102  0.49793916  0.36742721  1
  O  O332  1  0.50496491  0.48210963  0.87744062  1
  O  O333  1  0.49552705  0.99720169  0.38264061  1
  O  O334  1  0.50013071  0.99056194  0.87782470  1
  O  O335  1  0.99033300  0.50093439  0.37861448  1
  O  O336  1  1.00576343  0.48599663  0.87803663  1
  O  O337  1  1.01085936  0.99734693  0.39345100  1
  O  O338  1  0.99278040  0.99524258  0.87929763  1
  O  O339  1  -0.00028576  -0.01011643  0.11032115  1
  O  O340  1  0.01038477  0.00889533  0.62003814  1
  O  O341  1  0.00241841  0.51333431  0.12125452  1
  O  O342  1  0.01016524  0.49674367  0.61680562  1
  O  O343  1  0.50640399  0.00442845  0.11703912  1
  O  O344  1  0.51351566  -0.00853574  0.62075415  1
  O  O345  1  0.50906578  0.51319448  0.12096134  1
  O  O346  1  0.51166206  0.49618895  0.62746802  1
  O  O347  1  0.24009285  0.38625795  0.24637496  1
  O  O348  1  0.25727185  0.36848418  0.73621555  1
  O  O349  1  0.24509076  0.88479312  0.24706336  1
  O  O350  1  0.23875882  0.86905448  0.74152979  1
  O  O351  1  0.74640772  0.37322017  0.23595555  1
  O  O352  1  0.74419028  0.38017592  0.74912324  1
  O  O353  1  0.73528034  0.87167654  0.24123736  1
  O  O354  1  0.75097147  0.88788157  0.75576012  1
  O  O355  1  0.24589150  0.11930601  0.25970368  1
  O  O356  1  0.26494342  0.13619146  0.75715531  1
  O  O357  1  0.25712472  0.61513328  0.24474971  1
  O  O358  1  0.24848193  0.63476299  0.76639721  1
  O  O359  1  0.75777501  0.12047513  0.26394941  1
  O  O360  1  0.75199291  0.11186716  0.75219299  1
  O  O361  1  0.75465317  0.63055072  0.25333783  1
  O  O362  1  0.75659171  0.61690318  0.75818685  1
  O  O363  1  0.37426117  0.11850201  0.37508021  1
  O  O364  1  0.36560014  0.12370887  0.86841472  1
  O  O365  1  0.37730813  0.63192946  0.36310015  1
  O  O366  1  0.35737350  0.62478134  0.87836762  1
  O  O367  1  0.86404610  0.12149715  0.36690895  1
  O  O368  1  0.87331350  0.11250966  0.87175347  1
  O  O369  1  0.86449772  0.62035160  0.36482209  1
  O  O370  1  0.86110951  0.62611488  0.86980216  1
  O  O371  1  0.12349369  0.37284925  0.13660773  1
  O  O372  1  0.14275355  0.38067178  0.62206748  1
  O  O373  1  0.13206797  0.87707851  0.13632912  1
  O  O374  1  0.13249113  0.88532557  0.63177438  1
  O  O375  1  0.63111221  0.37957504  0.12889819  1
  O  O376  1  0.62755426  0.37796760  0.63131847  1
  O  O377  1  0.62576365  0.88160403  0.13144456  1
  O  O378  1  0.62862412  0.88444867  0.62273778  1
  O  O379  1  0.11689479  0.25376255  0.25361676  1
  O  O380  1  0.11548968  0.24818442  0.75960587  1
  O  O381  1  0.13894888  0.76274265  0.26602216  1
  O  O382  1  0.11957855  0.75930562  0.75399340  1
  O  O383  1  0.62810640  0.26131994  0.24661732  1
  O  O384  1  0.61513922  0.24974032  0.75327377  1
  O  O385  1  0.61641704  0.75944967  0.25674795  1
  O  O386  1  0.61805422  0.74488178  0.76265807  1
  O  O387  1  0.36350059  0.25467388  0.23589648  1
  O  O388  1  0.38959939  0.24028850  0.75152318  1
  O  O389  1  0.37940624  0.74543568  0.24757267  1
  O  O390  1  0.38181260  0.74341585  0.74244781  1
  O  O391  1  0.88128595  0.24321189  0.24374624  1
  O  O392  1  0.87961004  0.24867325  0.73957257  1
  O  O393  1  0.88525964  0.77723135  0.26252992  1
  O  O394  1  0.87740705  0.73762461  0.74863580  1
  O  O395  1  0.37576653  0.48931653  0.49664153  1
  O  O396  1  0.37414096  0.48906453  0.99412858  1
  O  O397  1  0.38575304  1.00505156  0.49313344  1
  O  O398  1  0.38026343  0.99290190  0.99499797  1
  O  O399  1  0.87374424  0.49233046  0.48857978  1
  O  O400  1  0.87178366  0.48482181  1.00201054  1
  O  O401  1  0.88724158  0.99415494  0.51068348  1
  O  O402  1  0.88183068  1.00359341  0.99018586  1
  O  O403  1  0.11615117  0.00904743  0.00143978  1
  O  O404  1  0.12197576  0.01001797  0.51273203  1
  O  O405  1  0.12333405  0.51441275  0.00164583  1
  O  O406  1  0.11879416  0.49548783  0.51351022  1
  O  O407  1  0.61684623  0.00410927  0.00441641  1
  O  O408  1  0.62272205  0.00197143  0.51255324  1
  O  O409  1  0.62480095  0.50428271  0.01041212  1
  O  O410  1  0.62506652  0.49701508  0.50834926  1
  O  O411  1  0.37143491  0.36300467  0.10912532  1
  O  O412  1  0.35738455  0.37960588  0.60916792  1
  O  O413  1  0.36838387  0.87432035  0.11730269  1
  O  O414  1  0.36591087  0.86300341  0.63285239  1
  O  O415  1  0.86840097  0.36541335  0.11838772  1
  O  O416  1  0.87249022  0.36558152  0.61654666  1
  O  O417  1  0.85583451  0.88498486  0.11856613  1
  O  O418  1  0.88532273  0.87369586  0.61843640  1
  O  O419  1  0.13278262  0.13123865  0.38317275  1
  O  O420  1  0.13083731  0.13533693  0.88156037  1
  O  O421  1  0.11763077  0.64252672  0.36864138  1
  O  O422  1  0.13181037  0.62999060  0.88076452  1
  O  O423  1  0.64048604  0.12206414  0.38532061  1
  O  O424  1  0.62231138  0.13022595  0.88127571  1
  O  O425  1  0.63797647  0.63513560  0.37173392  1
  O  O426  1  0.63401499  0.62890635  0.87914508  1
