# generated using pymatgen
data_V85Zn86O256
_symmetry_space_group_name_H-M   'P 1'
_cell_length_a   16.94060561
_cell_length_b   16.94058161
_cell_length_c   16.95842553
_cell_angle_alpha   89.99144070
_cell_angle_beta   89.99101040
_cell_angle_gamma   90.05989524
_symmetry_Int_Tables_number   1
_chemical_formula_structural   V85Zn86O256
_chemical_formula_sum   'V85 Zn86 O256'
_cell_volume   4866.78913243
_cell_formula_units_Z   1
loop_
 _symmetry_equiv_pos_site_id
 _symmetry_equiv_pos_as_xyz
  1  'x, y, z'
loop_
 _atom_site_type_symbol
 _atom_site_label
 _atom_site_symmetry_multiplicity
 _atom_site_fract_x
 _atom_site_fract_y
 _atom_site_fract_z
 _atom_site_occupancy
  V  V0  1  0.49563480  -0.00623201  0.50505865  1
  V  V1  1  0.75085110  0.11589654  0.87243372  1
  V  V2  1  0.24840455  0.49763379  0.74584017  1
  V  V3  1  0.12350897  0.12936268  -0.00635101  1
  V  V4  1  0.87174297  0.24601884  0.13600301  1
  V  V5  1  0.11639235  0.49735373  0.62575686  1
  V  V6  1  0.75363331  0.37885405  0.11948231  1
  V  V7  1  0.11982707  0.37074485  0.26209879  1
  V  V8  1  0.48834662  0.86677349  0.38156119  1
  V  V9  1  0.74773505  0.88686115  0.63160465  1
  V  V10  1  0.37133382  0.25074461  0.62430228  1
  V  V11  1  0.62599265  0.25116236  0.37755959  1
  V  V12  1  -0.00212223  0.87262783  0.87299990  1
  V  V13  1  0.75557444  0.35261608  0.62170721  1
  V  V14  1  0.86156426  0.00392476  0.36343562  1
  V  V15  1  0.50741236  -0.00086758  0.00563300  1
  V  V16  1  0.12296253  0.00673935  0.62300977  1
  V  V17  1  0.87278888  0.87488927  0.50199793  1
  V  V18  1  0.12260706  0.62720546  0.50504719  1
  V  V19  1  0.11771762  0.62317444  -0.00197811  1
  V  V20  1  0.25048501  0.87849560  0.61143845  1
  V  V21  1  0.62283963  0.51619975  0.12106950  1
  V  V22  1  0.81185015  0.56273579  0.70226326  1
  V  V23  1  0.50283762  0.25173907  0.75206851  1
  V  V24  1  0.62376077  0.62702665  0.49592956  1
  V  V25  1  0.37531950  0.50650904  0.37113618  1
  V  V26  1  0.50307230  0.73786182  0.25072172  1
  V  V27  1  0.12509158  0.75358433  0.37802162  1
  V  V28  1  0.62853922  0.25077814  0.87771288  1
  V  V29  1  0.19597142  0.18266166  0.44012383  1
  V  V30  1  -0.00369961  0.12330291  0.13259671  1
  V  V31  1  0.61578579  0.37426008  0.24794063  1
  V  V32  1  0.88050734  0.49509978  0.37111786  1
  V  V33  1  0.87550455  0.36304852  0.49600064  1
  V  V34  1  0.24933897  0.74852077  0.00085306  1
  V  V35  1  -0.00177965  0.13810294  0.62269682  1
  V  V36  1  -0.00038760  0.49998613  0.49750006  1
  V  V37  1  0.74526748  0.75369458  0.49954673  1
  V  V38  1  0.24725498  0.25174466  -0.00732568  1
  V  V39  1  0.50115937  0.75115115  0.74924567  1
  V  V40  1  0.62705027  0.88550261  0.74940310  1
  V  V41  1  -0.00258613  0.75081860  0.24841106  1
  V  V42  1  0.50299894  0.12634690  0.12686273  1
  V  V43  1  0.87316713  0.48862423  0.87688453  1
  V  V44  1  -0.00373743  0.00547950  0.50215527  1
  V  V45  1  0.50085344  0.49551230  0.50066176  1
  V  V46  1  0.50343625  0.51500522  0.00066536  1
  V  V47  1  0.12694296  0.00066713  0.12522467  1
  V  V48  1  0.74033116  0.87895663  0.12840863  1
  V  V49  1  0.76163982  0.25495630  -0.00461778  1
  V  V50  1  0.12739923  0.87935269  0.25023303  1
  V  V51  1  0.00068040  0.24939003  0.76977051  1
  V  V52  1  -0.00155840  -0.00148724  -0.00230454  1
  V  V53  1  0.37855500  0.73480252  0.13099451  1
  V  V54  1  0.37695989  0.37740427  -0.00208825  1
  V  V55  1  0.12012962  0.49794121  0.12528853  1
  V  V56  1  0.37419974  0.75556987  0.61716578  1
  V  V57  1  0.87297340  0.12115613  0.74564789  1
  V  V58  1  0.26237986  0.01540567  0.24831505  1
  V  V59  1  0.25149856  0.50865344  0.24912624  1
  V  V60  1  0.37452951  0.12574907  0.75360481  1
  V  V61  1  0.37279083  0.62685506  0.74659418  1
  V  V62  1  0.37333812  -0.00093096  0.87763590  1
  V  V63  1  0.75076949  0.63010080  0.37259345  1
  V  V64  1  0.62542877  0.74475353  0.88150700  1
  V  V65  1  0.37603128  0.87399353  0.00170506  1
  V  V66  1  0.12356194  0.74936370  0.87284311  1
  V  V67  1  -0.00006465  0.88274654  0.37435727  1
  V  V68  1  -0.00482269  0.48139665  -0.00498175  1
  V  V69  1  0.50878867  0.11686494  0.62992901  1
  V  V70  1  0.36768053  0.37497927  0.50069455  1
  V  V71  1  0.62750913  0.50053943  0.63016471  1
  V  V72  1  -0.00414720  0.73728525  0.74130915  1
  V  V73  1  0.24983005  0.37609605  0.12381707  1
  V  V74  1  0.25416384  0.87337743  0.12769267  1
  V  V75  1  0.87073563  0.86975260  0.00106280  1
  V  V76  1  0.74926103  0.50060216  0.24939809  1
  V  V77  1  0.12556032  0.87581314  0.74845822  1
  V  V78  1  0.50360794  0.37907799  0.87470918  1
  V  V79  1  0.63252757  0.12352233  0.50145923  1
  V  V80  1  0.62325052  0.88006616  0.26108039  1
  V  V81  1  0.37970217  0.24973174  0.12853975  1
  V  V82  1  0.24753754  0.62483260  0.87148396  1
  V  V83  1  0.75247792  0.61971602  0.88512034  1
  V  V84  1  0.12106247  0.36879955  0.76058058  1
  Zn  Zn85  1  0.86909723  -0.00517176  0.86955638  1
  Zn  Zn86  1  0.67946856  0.04328618  0.18823926  1
  Zn  Zn87  1  0.44602845  0.20227160  0.28934086  1
  Zn  Zn88  1  0.63043960  0.12122055  0.00261064  1
  Zn  Zn89  1  0.25365331  0.75329961  0.49578212  1
  Zn  Zn90  1  0.87540799  0.74299725  0.62714341  1
  Zn  Zn91  1  0.87672982  0.62522569  0.24848773  1
  Zn  Zn92  1  0.37689569  0.50208870  0.87227994  1
  Zn  Zn93  1  0.87166565  0.74948333  0.12615315  1
  Zn  Zn94  1  0.49564239  0.37200392  0.36983672  1
  Zn  Zn95  1  0.25077001  0.62892202  0.37387167  1
  Zn  Zn96  1  0.37491697  0.01383354  0.37804025  1
  Zn  Zn97  1  -0.00582959  0.62558193  0.12337608  1
  Zn  Zn98  1  0.63757816  0.37982919  0.75193584  1
  Zn  Zn99  1  0.24490932  0.12856090  0.87241520  1
  Zn  Zn100  1  0.74164889  0.74610247  0.00670432  1
  Zn  Zn101  1  0.24951993  0.00080845  0.75019783  1
  Zn  Zn102  1  -0.00690567  0.26000754  0.26246743  1
  Zn  Zn103  1  0.74620345  0.12581929  0.35407191  1
  Zn  Zn104  1  0.49860622  0.62509216  0.62374229  1
  Zn  Zn105  1  0.24296030  0.36649193  0.62254835  1
  Zn  Zn106  1  0.50231219  0.87427585  0.87699427  1
  Zn  Zn107  1  0.18706038  0.19047645  0.18159567  1
  Zn  Zn108  1  0.18564134  0.18685361  0.68796138  1
  Zn  Zn109  1  0.18229385  0.68803048  0.18651381  1
  Zn  Zn110  1  0.18540961  0.68857415  0.68266403  1
  Zn  Zn111  1  0.68108846  0.20153475  0.18582747  1
  Zn  Zn112  1  0.68720385  0.18504076  0.69073425  1
  Zn  Zn113  1  0.68592544  0.69503216  0.19190022  1
  Zn  Zn114  1  0.68282090  0.69547044  0.68286367  1
  Zn  Zn115  1  0.30208475  0.31927531  0.31571954  1
  Zn  Zn116  1  0.31320000  0.31523965  0.81158751  1
  Zn  Zn117  1  0.31517689  0.81113703  0.30988563  1
  Zn  Zn118  1  0.31155737  0.81448852  0.80934780  1
  Zn  Zn119  1  0.80311708  0.31339370  0.31358559  1
  Zn  Zn120  1  0.81558036  0.30734458  0.80461310  1
  Zn  Zn121  1  0.80995778  0.81757883  0.31415683  1
  Zn  Zn122  1  0.81210869  0.80641789  0.81235847  1
  Zn  Zn123  1  0.18886453  0.43809980  0.43656508  1
  Zn  Zn124  1  0.18654858  0.43832827  0.93583168  1
  Zn  Zn125  1  0.17353943  0.97966874  0.42078291  1
  Zn  Zn126  1  0.18778270  0.93851521  0.93787490  1
  Zn  Zn127  1  0.69026350  0.43592113  0.43753482  1
  Zn  Zn128  1  0.68756151  0.44094661  0.93939188  1
  Zn  Zn129  1  0.67985676  0.93903407  0.43913021  1
  Zn  Zn130  1  0.68709901  0.93164246  0.93656030  1
  Zn  Zn131  1  0.31551548  0.06605465  0.06345045  1
  Zn  Zn132  1  0.31620611  0.06216739  0.56616577  1
  Zn  Zn133  1  0.31008460  0.55994104  0.05799323  1
  Zn  Zn134  1  0.30859399  0.56490475  0.56155687  1
  Zn  Zn135  1  0.81391437  0.06228242  0.05978804  1
  Zn  Zn136  1  0.81489419  0.06401551  0.56309353  1
  Zn  Zn137  1  0.81689721  0.56239238  0.06226274  1
  Zn  Zn138  1  0.81180848  0.55903164  0.54293349  1
  Zn  Zn139  1  0.43662328  0.44500220  0.18302247  1
  Zn  Zn140  1  0.43881107  0.43723463  0.68722107  1
  Zn  Zn141  1  0.44277076  0.93303252  0.18745950  1
  Zn  Zn142  1  0.43723836  0.93642603  0.68928949  1
  Zn  Zn143  1  0.93687029  0.43591529  0.18438764  1
  Zn  Zn144  1  0.94014026  0.42493354  0.68215834  1
  Zn  Zn145  1  0.93574293  0.93588092  0.18476935  1
  Zn  Zn146  1  0.93676357  0.93738155  0.68711968  1
  Zn  Zn147  1  0.04891527  0.10045906  0.33743550  1
  Zn  Zn148  1  0.05970805  0.06204338  0.81160552  1
  Zn  Zn149  1  0.06278259  0.56496864  0.31380698  1
  Zn  Zn150  1  0.05769808  0.55675938  0.81334678  1
  Zn  Zn151  1  0.54341309  0.06621790  0.32581980  1
  Zn  Zn152  1  0.56050024  0.06291137  0.81959302  1
  Zn  Zn153  1  0.56554522  0.55805139  0.31485519  1
  Zn  Zn154  1  0.56493035  0.56568149  0.81158357  1
  Zn  Zn155  1  0.44049144  0.18659971  0.45060065  1
  Zn  Zn156  1  0.43881268  0.18809893  0.94200502  1
  Zn  Zn157  1  0.43945515  0.68533067  0.43649249  1
  Zn  Zn158  1  0.43377595  0.69047651  0.93390620  1
  Zn  Zn159  1  0.93302553  0.18495363  0.43254723  1
  Zn  Zn160  1  0.93287248  0.18446147  0.94103923  1
  Zn  Zn161  1  0.93824031  0.68759907  0.43689807  1
  Zn  Zn162  1  0.93334302  0.68427832  0.93119541  1
  Zn  Zn163  1  0.06080447  0.30806883  0.06798502  1
  Zn  Zn164  1  0.06617554  0.31232649  0.55275573  1
  Zn  Zn165  1  0.06212867  0.81296615  0.06304446  1
  Zn  Zn166  1  0.06134883  0.81676838  0.56324016  1
  Zn  Zn167  1  0.56550184  0.31632657  0.06034820  1
  Zn  Zn168  1  0.56347819  0.31035319  0.56350375  1
  Zn  Zn169  1  0.56139186  0.81154040  0.06845666  1
  Zn  Zn170  1  0.56512314  0.81219249  0.56412199  1
  O  O171  1  0.11862762  0.11882809  0.11365882  1
  O  O172  1  0.11718750  0.11276170  0.63041496  1
  O  O173  1  0.12270213  0.61384615  0.11585077  1
  O  O174  1  0.12625579  0.61757403  0.61206306  1
  O  O175  1  0.61824285  0.12537013  0.11788805  1
  O  O176  1  0.61624238  0.12943055  0.61902432  1
  O  O177  1  0.63231880  0.61495301  0.12798667  1
  O  O178  1  0.62503348  0.61787101  0.61423332  1
  O  O179  1  0.37436663  0.38526265  0.38371480  1
  O  O180  1  0.38478864  0.37855982  0.87951325  1
  O  O181  1  0.38718711  0.87382289  0.37558744  1
  O  O182  1  0.37557992  0.88184152  0.88119483  1
  O  O183  1  0.86679689  0.38205255  0.38558390  1
  O  O184  1  0.86179391  0.38969695  0.86922277  1
  O  O185  1  0.87955558  0.88249088  0.38412748  1
  O  O186  1  0.87843895  0.87546211  0.88056635  1
  O  O187  1  0.26262550  -0.00740865  0.35336367  1
  O  O188  1  0.26230491  0.00238687  0.87547985  1
  O  O189  1  0.25654462  0.50183295  0.36591124  1
  O  O190  1  0.24918973  0.50561909  0.86088195  1
  O  O191  1  0.75917567  -0.00563279  0.37623788  1
  O  O192  1  0.74871542  0.01231608  0.88007905  1
  O  O193  1  0.75999304  0.50837588  0.37190721  1
  O  O194  1  0.75286803  0.51164541  0.87467385  1
  O  O195  1  0.24178042  0.49619535  0.12934645  1
  O  O196  1  0.23864855  0.50070403  0.63486703  1
  O  O197  1  0.24978928  0.99198362  0.12897071  1
  O  O198  1  0.24202985  0.99577935  0.62726462  1
  O  O199  1  0.74462358  0.49471011  0.12701911  1
  O  O200  1  0.75089009  0.50795770  0.63450044  1
  O  O201  1  0.74997058  0.98526783  0.11780587  1
  O  O202  1  0.75126518  0.98506358  0.62325559  1
  O  O203  1  0.01452153  0.37624372  0.24585860  1
  O  O204  1  0.00474411  0.35677693  0.74763227  1
  O  O205  1  0.00785314  0.87189194  0.25390982  1
  O  O206  1  0.00992302  0.87008591  0.75390777  1
  O  O207  1  0.51234706  0.38671841  0.24890933  1
  O  O208  1  0.50234228  0.37182723  0.76172738  1
  O  O209  1  0.50491775  0.86665751  0.26203737  1
  O  O210  1  0.50640457  0.86456753  0.75137697  1
  O  O211  1  0.51090584  0.12524949  0.23052037  1
  O  O212  1  0.49611903  0.12971254  0.74758260  1
  O  O213  1  0.50625486  0.63880798  0.25942769  1
  O  O214  1  0.49347968  0.63555303  0.74771687  1
  O  O215  1  1.00556158  0.10587354  0.23040297  1
  O  O216  1  0.99780911  0.13500113  0.74454150  1
  O  O217  1  0.99982347  0.63664441  0.24922839  1
  O  O218  1  1.00791264  0.63927232  0.74997213  1
  O  O219  1  0.36879648  0.25899282  0.00588380  1
  O  O220  1  0.38566034  0.26318924  0.51283706  1
  O  O221  1  0.36789342  0.75470000  0.00567331  1
  O  O222  1  0.37483547  0.74495951  0.51338688  1
  O  O223  1  0.86555643  0.25063816  0.00837170  1
  O  O224  1  0.87745847  0.26421699  0.49255152  1
  O  O225  1  0.87610881  0.76159299  -0.00136794  1
  O  O226  1  0.87116952  0.76063709  0.50248109  1
  O  O227  1  0.13545488  0.24270257  0.49659707  1
  O  O228  1  0.13348555  0.24106942  1.00746684  1
  O  O229  1  0.12200518  0.74463357  0.49403477  1
  O  O230  1  0.12936534  0.74247991  0.99499252  1
  O  O231  1  0.61625855  0.23507417  0.49350365  1
  O  O232  1  0.63443857  0.25128335  0.98768271  1
  O  O233  1  0.63246231  0.73929157  0.50326367  1
  O  O234  1  0.62056550  0.75450122  0.98522413  1
  O  O235  1  0.49183266  0.24352890  0.11439215  1
  O  O236  1  0.49392163  0.24355238  0.63471182  1
  O  O237  1  0.49222376  0.75019344  0.13959716  1
  O  O238  1  0.49281124  0.74934701  0.63206302  1
  O  O239  1  0.98995136  0.24062331  0.13168169  1
  O  O240  1  1.00644354  0.23879702  0.62321476  1
  O  O241  1  1.00019914  0.74951828  0.13566487  1
  O  O242  1  0.99791828  0.75279352  0.63683873  1
  O  O243  1  0.01095909  0.20722943  0.35832540  1
  O  O244  1  0.00140682  0.24416035  0.86808503  1
  O  O245  1  0.00915551  0.75933403  0.37098344  1
  O  O246  1  0.00544950  0.75401911  0.86518046  1
  O  O247  1  0.50906606  0.25610731  0.37437836  1
  O  O248  1  0.50902206  0.25754519  0.87402251  1
  O  O249  1  0.49577489  0.75792666  0.36737629  1
  O  O250  1  0.50597234  0.75087003  0.86585603  1
  O  O251  1  0.26474431  0.13611782  0.49910505  1
  O  O252  1  0.24209399  0.13379959  0.99966174  1
  O  O253  1  0.23790749  0.62935737  0.49565565  1
  O  O254  1  0.23706175  0.62663108  0.99245154  1
  O  O255  1  0.73345378  0.11766650  0.50287764  1
  O  O256  1  0.75053284  0.13473587  0.99041315  1
  O  O257  1  0.74346128  0.63361214  0.49257302  1
  O  O258  1  0.75108463  0.62755222  0.98850933  1
  O  O259  1  0.25464678  0.37172222  0.00312451  1
  O  O260  1  0.26331753  0.38323873  0.50551453  1
  O  O261  1  0.25338196  0.87004329  0.01030720  1
  O  O262  1  0.24302204  0.87597854  0.51146450  1
  O  O263  1  0.74472858  0.36734529  0.00781673  1
  O  O264  1  0.76359408  0.38315550  0.51132767  1
  O  O265  1  0.75498710  0.86977402  0.00641887  1
  O  O266  1  0.75158956  0.87054180  0.50776383  1
  O  O267  1  0.12691238  0.49414286  0.24174139  1
  O  O268  1  0.12685298  0.49349296  0.74214678  1
  O  O269  1  0.14254326  0.99122753  0.24053550  1
  O  O270  1  0.12460932  0.99240540  0.74345688  1
  O  O271  1  0.63158275  0.49602479  0.24228102  1
  O  O272  1  0.62031926  0.49801425  0.73425010  1
  O  O273  1  0.60866150  0.98355713  0.25594592  1
  O  O274  1  0.61745444  0.98456719  0.75809131  1
  O  O275  1  0.36375326  -0.00316220  0.24234826  1
  O  O276  1  0.37493203  0.00751897  0.75948839  1
  O  O277  1  0.36450341  0.49526823  0.25801958  1
  O  O278  1  0.36541077  0.50671698  0.74732383  1
  O  O279  1  0.87680718  -0.00863472  0.26593846  1
  O  O280  1  0.88497260  0.01491853  0.75444678  1
  O  O281  1  0.86907493  0.49960833  0.25620090  1
  O  O282  1  0.87855864  0.50155150  0.75224623  1
  O  O283  1  0.12657988  0.37812763  0.36116087  1
  O  O284  1  0.12578065  0.37968683  0.85967494  1
  O  O285  1  0.11873021  0.87528798  0.37009870  1
  O  O286  1  0.12093838  0.86925411  0.86815428  1
  O  O287  1  0.62401739  0.37129089  0.36835933  1
  O  O288  1  0.62115196  0.37049657  0.87161078  1
  O  O289  1  0.61647797  0.87165337  0.36554636  1
  O  O290  1  0.62607072  0.86338254  0.86508429  1
  O  O291  1  0.38461251  0.13972882  0.11864495  1
  O  O292  1  0.38550557  0.12949656  0.63837922  1
  O  O293  1  0.36728306  0.63624638  0.12083381  1
  O  O294  1  0.37437903  0.63335947  0.63144518  1
  O  O295  1  0.88292172  0.13464007  0.11781641  1
  O  O296  1  0.88415597  0.12203945  0.63337953  1
  O  O297  1  0.87625367  0.63136584  0.12995648  1
  O  O298  1  0.86391695  0.61825904  0.63368347  1
  O  O299  1  0.25836321  0.25739623  0.11375847  1
  O  O300  1  0.26726738  0.24912050  0.63461006  1
  O  O301  1  0.25348073  0.75513133  0.12056913  1
  O  O302  1  0.25643966  0.75985494  0.62319595  1
  O  O303  1  0.75529790  0.25833712  0.11487652  1
  O  O304  1  0.74673319  0.25495233  0.61738808  1
  O  O305  1  0.75022580  0.76223031  0.12388758  1
  O  O306  1  0.75484191  0.75537117  0.61276059  1
  O  O307  1  0.24706946  0.23870242  0.37185488  1
  O  O308  1  0.25537787  0.24998156  0.88866837  1
  O  O309  1  0.23743078  0.75269507  0.37474464  1
  O  O310  1  0.24299210  0.74582420  0.87975152  1
  O  O311  1  0.73225106  0.24604851  0.37333691  1
  O  O312  1  0.74636588  0.24538994  0.87909771  1
  O  O313  1  0.75638552  0.74274473  0.38782020  1
  O  O314  1  0.74338751  0.73831208  0.87708280  1
  O  O315  1  0.00470821  0.11642006  0.00577709  1
  O  O316  1  -0.01198947  0.11219977  0.50998046  1
  O  O317  1  0.01012475  0.62314818  -0.00240509  1
  O  O318  1  0.00538824  0.61077686  0.49591360  1
  O  O319  1  0.50285583  0.11613443  0.00617259  1
  O  O320  1  0.50794121  0.11586292  0.51557916  1
  O  O321  1  0.49534704  0.61381711  -0.00870908  1
  O  O322  1  0.50794489  0.61410641  0.50023657  1
  O  O323  1  0.49403533  0.38639501  0.50226964  1
  O  O324  1  0.49729579  0.38148284  0.98791770  1
  O  O325  1  0.50685644  0.87682948  0.49017590  1
  O  O326  1  0.49302718  0.88139330  1.00095934  1
  O  O327  1  0.98661604  0.38473142  0.50324014  1
  O  O328  1  1.00424760  0.38267830  1.00176123  1
  O  O329  1  0.98943084  0.88289592  0.49724006  1
  O  O330  1  0.99426318  0.87994974  0.99430893  1
  O  O331  1  0.49326890  0.49636768  0.38295058  1
  O  O332  1  0.50175127  0.49415833  0.87894494  1
  O  O333  1  0.49777000  0.98003664  0.38607955  1
  O  O334  1  0.48751406  0.99772390  0.88434467  1
  O  O335  1  0.98818541  0.50220121  0.37932547  1
  O  O336  1  0.98748305  0.50195211  0.88334554  1
  O  O337  1  0.99011123  1.00074113  0.38543630  1
  O  O338  1  1.00036964  0.99255587  0.88594010  1
  O  O339  1  0.00344486  -0.00003440  0.11177383  1
  O  O340  1  0.00535988  0.00584224  0.62049359  1
  O  O341  1  0.00521841  0.50229099  0.11520826  1
  O  O342  1  0.00947551  0.49625324  0.61735796  1
  O  O343  1  0.49130916  0.00896349  0.11413270  1
  O  O344  1  0.49852750  0.00675700  0.62219652  1
  O  O345  1  0.50961211  0.49976705  0.11296345  1
  O  O346  1  0.50923927  0.50139180  0.61782391  1
  O  O347  1  0.23805605  0.38782833  0.24333934  1
  O  O348  1  0.24261839  0.38195988  0.74673423  1
  O  O349  1  0.24703473  0.87241479  0.23701180  1
  O  O350  1  0.23623277  0.87646314  0.74473048  1
  O  O351  1  0.73975781  0.38353650  0.24216592  1
  O  O352  1  0.75313759  0.36786663  0.72765018  1
  O  O353  1  0.73224708  0.87041926  0.24672111  1
  O  O354  1  0.74478135  0.86893462  0.73845178  1
  O  O355  1  0.25142241  0.11382136  0.23862483  1
  O  O356  1  0.25984249  0.12309687  0.75379280  1
  O  O357  1  0.23954213  0.61250362  0.25220149  1
  O  O358  1  0.25149571  0.61894650  0.75158416  1
  O  O359  1  0.73866383  0.12266793  0.24126862  1
  O  O360  1  0.76109699  0.13140047  0.75840961  1
  O  O361  1  0.75031399  0.62260687  0.25990899  1
  O  O362  1  0.75167553  0.62695116  0.75456542  1
  O  O363  1  0.42124342  0.11838465  0.36341171  1
  O  O364  1  0.37670727  0.11980529  0.86667144  1
  O  O365  1  0.37090717  0.61087350  0.38138904  1
  O  O366  1  0.36515053  0.62493062  0.86465020  1
  O  O367  1  0.86229872  0.10751293  0.38071544  1
  O  O368  1  0.86663455  0.12198730  0.86879213  1
  O  O369  1  0.86608161  0.61727759  0.37481716  1
  O  O370  1  0.85939070  0.61743432  0.87139801  1
  O  O371  1  0.12998972  0.38737629  0.12460047  1
  O  O372  1  0.12549323  0.38195879  0.63038850  1
  O  O373  1  0.13424582  0.88022374  0.12770247  1
  O  O374  1  0.12977199  0.88335467  0.63257901  1
  O  O375  1  0.63431271  0.37957526  0.13150134  1
  O  O376  1  0.64170913  0.38217457  0.62023229  1
  O  O377  1  0.62866101  0.87377336  0.13924416  1
  O  O378  1  0.63904894  0.86893325  0.63384360  1
  O  O379  1  0.12716581  0.26980287  0.23895371  1
  O  O380  1  0.11237005  0.25461386  0.74816028  1
  O  O381  1  0.11675497  0.75747279  0.25726361  1
  O  O382  1  0.11751008  0.75715679  0.75182950  1
  O  O383  1  0.62090856  0.26530678  0.25840753  1
  O  O384  1  0.62139731  0.25365993  0.76190170  1
  O  O385  1  0.60924638  0.76031558  0.24943732  1
  O  O386  1  0.61617462  0.75510441  0.75627744  1
  O  O387  1  0.37144246  0.26645327  0.23384330  1
  O  O388  1  0.38311680  0.24344626  0.74874250  1
  O  O389  1  0.38760931  0.75035154  0.24282015  1
  O  O390  1  0.38117413  0.74650089  0.74261887  1
  O  O391  1  0.87305018  0.25635964  0.23979874  1
  O  O392  1  0.89244256  0.23866481  0.75261448  1
  O  O393  1  0.88857714  0.75409099  0.25470271  1
  O  O394  1  0.89146317  0.75191650  0.74805589  1
  O  O395  1  0.38298517  0.49549141  0.49751404  1
  O  O396  1  0.38222302  0.49373081  0.99595270  1
  O  O397  1  0.39058301  1.00340269  0.50003501  1
  O  O398  1  0.37977944  0.99477453  0.99405812  1
  O  O399  1  0.88361067  0.49228437  0.49029040  1
  O  O400  1  0.88429670  0.50132594  0.99044272  1
  O  O401  1  0.87721650  0.98806800  0.49662519  1
  O  O402  1  0.88259355  0.98771311  0.99650497  1
  O  O403  1  0.11836538  0.00384465  0.00589366  1
  O  O404  1  0.10864675  -0.00993386  0.51297817  1
  O  O405  1  0.11774325  0.50576669  0.00430869  1
  O  O406  1  0.11860391  0.50424136  0.50435267  1
  O  O407  1  0.61040036  -0.00169215  -0.00824582  1
  O  O408  1  0.61207224  0.01308588  0.49642332  1
  O  O409  1  0.61546003  0.49818942  0.00928181  1
  O  O410  1  0.62063975  0.50421543  0.50877877  1
  O  O411  1  0.37002391  0.37380630  0.11514129  1
  O  O412  1  0.37414451  0.36723131  0.62039862  1
  O  O413  1  0.36888246  0.86496288  0.12021548  1
  O  O414  1  0.36277994  0.86750196  0.63304901  1
  O  O415  1  0.86048766  0.36863007  0.12786561  1
  O  O416  1  0.86386846  0.37435771  0.61193788  1
  O  O417  1  0.86645734  0.87170972  0.11739614  1
  O  O418  1  0.86403425  0.87313262  0.61972208  1
  O  O419  1  0.14658929  0.09893506  0.39514657  1
  O  O420  1  0.12582879  0.11757170  0.88935999  1
  O  O421  1  0.12388298  0.63666244  0.38504395  1
  O  O422  1  0.12809930  0.62845729  0.87983834  1
  O  O423  1  0.62308353  0.13072422  0.38599615  1
  O  O424  1  0.63263728  0.13406007  0.87674696  1
  O  O425  1  0.63699589  0.61616777  0.38743645  1
  O  O426  1  0.64011531  0.63143449  0.86760173  1
