# generated using pymatgen
data_V85Zn86O256
_symmetry_space_group_name_H-M   'P 1'
_cell_length_a   16.95763731
_cell_length_b   16.94720748
_cell_length_c   16.96020448
_cell_angle_alpha   89.94570432
_cell_angle_beta   89.98640621
_cell_angle_gamma   89.91819014
_symmetry_Int_Tables_number   1
_chemical_formula_structural   V85Zn86O256
_chemical_formula_sum   'V85 Zn86 O256'
_cell_volume   4874.09425174
_cell_formula_units_Z   1
loop_
 _symmetry_equiv_pos_site_id
 _symmetry_equiv_pos_as_xyz
  1  'x, y, z'
loop_
 _atom_site_type_symbol
 _atom_site_label
 _atom_site_symmetry_multiplicity
 _atom_site_fract_x
 _atom_site_fract_y
 _atom_site_fract_z
 _atom_site_occupancy
  V  V0  1  0.00111376  0.50151135  0.00209074  1
  V  V1  1  0.12702029  0.62638334  0.50283318  1
  V  V2  1  0.49971344  0.62738638  0.62340871  1
  V  V3  1  0.62706969  -0.00390261  0.62524053  1
  V  V4  1  0.25851185  0.12042122  0.86786117  1
  V  V5  1  0.49486893  0.12350394  0.62648371  1
  V  V6  1  0.23955475  0.87409848  0.62621052  1
  V  V7  1  0.12417248  0.36957830  0.24763240  1
  V  V8  1  0.25263751  0.24707600  -0.00251282  1
  V  V9  1  0.24834432  0.75240547  0.00025391  1
  V  V10  1  0.61805820  0.37708562  0.75038228  1
  V  V11  1  0.37430446  0.24753213  0.12458077  1
  V  V12  1  0.12253325  0.75637913  0.86767415  1
  V  V13  1  0.24631468  0.37930315  0.62433395  1
  V  V14  1  0.62994039  0.62863521  0.49739709  1
  V  V15  1  0.62324339  0.25573276  0.87351881  1
  V  V16  1  0.00077169  0.37469061  0.87521761  1
  V  V17  1  0.62405811  0.50001380  0.12383847  1
  V  V18  1  0.88233911  0.72698174  0.12589310  1
  V  V19  1  0.75372928  -0.00246949  0.75140943  1
  V  V20  1  0.49930834  0.49579488  -0.00950584  1
  V  V21  1  0.12417267  0.24721068  0.87427797  1
  V  V22  1  0.49929575  0.75780166  0.75870975  1
  V  V23  1  0.75066451  0.63011445  0.87438710  1
  V  V24  1  0.62372450  -0.01296173  0.13385850  1
  V  V25  1  0.49520159  -0.00253871  0.49721352  1
  V  V26  1  0.24200258  0.62730550  0.37266808  1
  V  V27  1  0.37439131  0.62596981  0.24785007  1
  V  V28  1  0.37352717  0.50276480  0.37205874  1
  V  V29  1  0.12002912  0.62598709  0.00301111  1
  V  V30  1  0.23412220  -0.00357657  0.24882652  1
  V  V31  1  0.24713692  0.62294706  0.87381082  1
  V  V32  1  0.88000712  0.38044158  0.50105926  1
  V  V33  1  0.24761759  0.49889680  0.24729026  1
  V  V34  1  0.00386270  0.11738797  0.13330089  1
  V  V35  1  0.37396249  0.37184315  0.50145523  1
  V  V36  1  -0.00109088  0.73368615  0.25151105  1
  V  V37  1  0.12553521  0.76419023  0.37138716  1
  V  V38  1  -0.00663307  0.76386325  0.74418558  1
  V  V39  1  0.87467239  -0.00175343  0.90133926  1
  V  V40  1  0.50269101  0.50193957  0.49788582  1
  V  V41  1  0.62728346  0.50227941  0.62152652  1
  V  V42  1  -0.00130412  0.62851702  0.62735042  1
  V  V43  1  0.23788935  0.87956751  0.12639819  1
  V  V44  1  0.00101773  0.37911051  0.37420409  1
  V  V45  1  0.37599205  0.11168160  0.25375590  1
  V  V46  1  0.74726551  0.24208899  0.00100081  1
  V  V47  1  0.12460998  0.38347038  0.74816683  1
  V  V48  1  0.12304641  0.10693502  0.00229217  1
  V  V49  1  0.12377830  0.24683905  0.37182772  1
  V  V50  1  0.26835565  -0.00099939  0.75138528  1
  V  V51  1  0.59935681  0.10362902  -0.01836074  1
  V  V52  1  0.77284435  0.87548949  0.12605255  1
  V  V53  1  0.37301291  0.75438247  0.12278806  1
  V  V54  1  0.75307604  0.37544051  0.62681663  1
  V  V55  1  0.76376867  0.49995181  0.25701298  1
  V  V56  1  0.49704054  0.37636148  0.37414648  1
  V  V57  1  0.37340653  0.75253108  0.62071196  1
  V  V58  1  0.50410432  0.11953198  0.12831453  1
  V  V59  1  -0.01506115  -0.00431450  0.49764292  1
  V  V60  1  0.38112007  0.89048904  -0.01156521  1
  V  V61  1  -0.00237550  0.88051820  0.89168924  1
  V  V62  1  0.12586873  0.12140208  0.50163099  1
  V  V63  1  -0.01844319  0.87984615  0.36798361  1
  V  V64  1  0.49631638  0.24721210  0.75068536  1
  V  V65  1  0.87402051  0.24545562  0.62822570  1
  V  V66  1  0.49702827  0.24853355  0.25351561  1
  V  V67  1  0.75047925  0.37111171  0.12311805  1
  V  V68  1  0.37910062  0.37097547  -0.00840063  1
  V  V69  1  0.87600728  0.50269277  0.87419601  1
  V  V70  1  0.00086410  0.12648122  0.62812788  1
  V  V71  1  0.00729951  0.50104016  0.50760445  1
  V  V72  1  0.12104465  0.50361441  0.12876381  1
  V  V73  1  0.49426282  0.87578588  0.36712842  1
  V  V74  1  0.37382728  0.62353231  0.74909013  1
  V  V75  1  0.49814204  0.62443640  0.12414660  1
  V  V76  1  0.62548273  0.62835111  -0.00049875  1
  V  V77  1  0.62947376  0.75375491  0.36620807  1
  V  V78  1  0.75535506  0.12608678  0.87525696  1
  V  V79  1  0.12379581  -0.00070415  0.63707244  1
  V  V80  1  0.75076049  0.50371147  0.74946779  1
  V  V81  1  0.62218690  0.37665401  0.24658307  1
  V  V82  1  0.87400220  0.37332937  -0.00181074  1
  V  V83  1  0.25503787  0.11818307  0.37672779  1
  V  V84  1  0.76511791  0.87038353  0.62362503  1
  Zn  Zn85  1  0.75857399  -0.00171409  0.26868969  1
  Zn  Zn86  1  0.63051461  0.12497842  0.49359258  1
  Zn  Zn87  1  0.37613172  0.49649927  0.87119168  1
  Zn  Zn88  1  0.50516301  0.75346343  0.24433909  1
  Zn  Zn89  1  0.37127386  0.88032998  0.49709437  1
  Zn  Zn90  1  0.87402780  0.63115947  0.74496932  1
  Zn  Zn91  1  0.24609268  0.50411345  0.74374841  1
  Zn  Zn92  1  0.87869803  0.12587782  0.75630359  1
  Zn  Zn93  1  0.76085404  0.62561653  0.37341654  1
  Zn  Zn94  1  0.24870351  0.75386592  0.49733969  1
  Zn  Zn95  1  0.25018745  0.37406912  0.12198638  1
  Zn  Zn96  1  0.00006670  0.25042478  0.75216475  1
  Zn  Zn97  1  0.75297249  0.23928836  0.49285355  1
  Zn  Zn98  1  0.86993851  0.12917460  0.27179406  1
  Zn  Zn99  1  0.62182728  0.75965312  0.88165308  1
  Zn  Zn100  1  0.37336215  0.24781158  0.63144322  1
  Zn  Zn101  1  0.89570651  0.25018481  0.13457569  1
  Zn  Zn102  1  0.63461355  0.24317189  0.37444030  1
  Zn  Zn103  1  0.76197993  0.75200232  0.00015783  1
  Zn  Zn104  1  0.76350754  0.75247875  0.50060331  1
  Zn  Zn105  1  0.62416541  0.87844413  0.75951117  1
  Zn  Zn106  1  0.25224129  0.24709109  0.50283779  1
  Zn  Zn107  1  0.18551661  0.18394381  0.18504988  1
  Zn  Zn108  1  0.19046756  0.19003027  0.68913165  1
  Zn  Zn109  1  0.18340293  0.68987963  0.18888304  1
  Zn  Zn110  1  0.18209463  0.69050234  0.68652891  1
  Zn  Zn111  1  0.68504951  0.18467650  0.18781155  1
  Zn  Zn112  1  0.68861162  0.18179112  0.67966843  1
  Zn  Zn113  1  0.69335034  0.68665257  0.18633527  1
  Zn  Zn114  1  0.68508762  0.69096595  0.68835385  1
  Zn  Zn115  1  0.30925752  0.30757137  0.31296726  1
  Zn  Zn116  1  0.31060244  0.31265175  0.81267612  1
  Zn  Zn117  1  0.31356944  0.81476861  0.30882398  1
  Zn  Zn118  1  0.31102470  0.81285226  0.80982229  1
  Zn  Zn119  1  0.81902893  0.30471273  0.31370850  1
  Zn  Zn120  1  0.81235288  0.31354823  0.81073725  1
  Zn  Zn121  1  0.81098365  0.81079622  0.30387787  1
  Zn  Zn122  1  0.81551110  0.81712681  0.81652238  1
  Zn  Zn123  1  0.18693077  0.43981023  0.43645699  1
  Zn  Zn124  1  0.18945358  0.43695765  0.93693877  1
  Zn  Zn125  1  0.18563631  0.94023183  0.44232451  1
  Zn  Zn126  1  0.19417374  0.93166449  0.93118151  1
  Zn  Zn127  1  0.70171042  0.40642763  0.42381102  1
  Zn  Zn128  1  0.68713332  0.43920633  0.93574179  1
  Zn  Zn129  1  0.68159576  0.93172979  0.44202246  1
  Zn  Zn130  1  0.69044787  0.93165933  0.94342148  1
  Zn  Zn131  1  0.30967998  0.06245852  0.06487198  1
  Zn  Zn132  1  0.31503602  0.06126851  0.56535285  1
  Zn  Zn133  1  0.31033229  0.56143371  0.06047743  1
  Zn  Zn134  1  0.31130106  0.56064397  0.56051590  1
  Zn  Zn135  1  0.82001446  0.05980376  0.12723020  1
  Zn  Zn136  1  0.80223510  0.06654857  0.44363214  1
  Zn  Zn137  1  0.81021448  0.55962565  0.06225934  1
  Zn  Zn138  1  0.81817117  0.56690942  0.55700535  1
  Zn  Zn139  1  0.43471792  0.43663916  0.18006746  1
  Zn  Zn140  1  0.43703650  0.43871121  0.68495884  1
  Zn  Zn141  1  0.43578680  0.93613556  0.18191316  1
  Zn  Zn142  1  0.43678675  0.93441689  0.68246581  1
  Zn  Zn143  1  0.94233242  0.42805565  0.18317938  1
  Zn  Zn144  1  0.94049329  0.44174749  0.68725156  1
  Zn  Zn145  1  0.94944336  0.94258011  0.18812654  1
  Zn  Zn146  1  0.93761078  0.94592086  0.69534783  1
  Zn  Zn147  1  0.05582237  0.06157792  0.31421793  1
  Zn  Zn148  1  0.06305528  0.06005090  0.81813396  1
  Zn  Zn149  1  -0.06058494  0.55434630  0.31735897  1
  Zn  Zn150  1  0.06058117  0.56580272  0.81171038  1
  Zn  Zn151  1  0.57160222  0.05765526  0.31562195  1
  Zn  Zn152  1  0.56591896  0.06517142  0.81004191  1
  Zn  Zn153  1  0.56541684  0.56542625  0.31192639  1
  Zn  Zn154  1  0.56321249  0.56769542  0.81201494  1
  Zn  Zn155  1  0.44207402  0.18433189  0.43852091  1
  Zn  Zn156  1  0.44711929  0.16776547  0.92715815  1
  Zn  Zn157  1  0.43868130  0.69077230  0.43454580  1
  Zn  Zn158  1  0.43349811  0.68697289  0.93933311  1
  Zn  Zn159  1  0.94215725  0.19445259  0.44212585  1
  Zn  Zn160  1  0.93810354  0.18538545  0.95079391  1
  Zn  Zn161  1  0.93692846  0.68847978  0.43555451  1
  Zn  Zn162  1  0.93902506  0.68989141  0.93627687  1
  Zn  Zn163  1  0.06691712  0.31096041  0.06054908  1
  Zn  Zn164  1  0.06637264  0.30889592  0.56333015  1
  Zn  Zn165  1  0.05919333  0.80822993  0.06686195  1
  Zn  Zn166  1  -0.05690943  0.81661069  0.55965596  1
  Zn  Zn167  1  0.56014265  0.30736204  0.06079081  1
  Zn  Zn168  1  0.56455613  0.30916359  0.56240382  1
  Zn  Zn169  1  0.55693600  0.81361175  0.05637314  1
  Zn  Zn170  1  0.56404307  0.81479045  0.56187758  1
  O  O171  1  0.12246411  0.12610760  0.10865340  1
  O  O172  1  0.12085480  0.12156928  0.61997738  1
  O  O173  1  0.13078351  0.61662023  0.11453031  1
  O  O174  1  0.11468799  0.63147486  0.61487887  1
  O  O175  1  0.61615056  0.11390335  0.11657364  1
  O  O176  1  0.61404668  0.11052010  0.62717765  1
  O  O177  1  0.62184070  0.61964149  0.11782985  1
  O  O178  1  0.62049908  0.62209127  0.61756240  1
  O  O179  1  0.38111353  0.38008271  0.37787906  1
  O  O180  1  0.37101328  0.37783110  0.88711807  1
  O  O181  1  0.39058136  0.86355714  0.38011856  1
  O  O182  1  0.36458560  0.87182991  0.89005070  1
  O  O183  1  0.89041541  0.37056741  0.38843016  1
  O  O184  1  0.87935636  0.38197873  0.87926352  1
  O  O185  1  0.88357211  0.87104766  0.37206201  1
  O  O186  1  0.88688677  0.88336195  0.87981525  1
  O  O187  1  0.24586731  0.00975592  0.36557948  1
  O  O188  1  0.24570960  0.00433309  0.85721036  1
  O  O189  1  0.25550101  0.50731226  0.36746575  1
  O  O190  1  0.25112556  0.51353014  0.87326497  1
  O  O191  1  0.74810246  -0.00860677  0.37966769  1
  O  O192  1  0.75705266  0.00815697  0.87367385  1
  O  O193  1  0.74534792  0.49289682  0.35761853  1
  O  O194  1  0.75356108  0.51148425  0.86998986  1
  O  O195  1  0.24044547  0.49712349  0.12817659  1
  O  O196  1  0.25409883  0.48521131  0.62574461  1
  O  O197  1  0.25127355  0.99485299  0.13968608  1
  O  O198  1  0.24571642  0.99685794  0.63506178  1
  O  O199  1  0.74462175  0.48860799  0.13061355  1
  O  O200  1  0.74673612  0.49841728  0.63237227  1
  O  O201  1  0.73747180  0.98102333  0.11765520  1
  O  O202  1  0.74090243  0.98515544  0.63781962  1
  O  O203  1  0.01495328  0.37932145  0.25960769  1
  O  O204  1  0.00787146  0.37415930  0.75688686  1
  O  O205  1  0.00010172  0.87056521  0.26476550  1
  O  O206  1  -0.00168768  0.86605669  0.75694223  1
  O  O207  1  0.50145528  0.37024401  0.25341747  1
  O  O208  1  0.51373225  0.37149850  0.74251568  1
  O  O209  1  0.49369285  0.87334998  0.26302378  1
  O  O210  1  0.49369204  0.85974596  0.75007848  1
  O  O211  1  0.49422885  0.13061024  0.24667987  1
  O  O212  1  0.50452293  0.13600616  0.74068241  1
  O  O213  1  0.49194403  0.62466097  0.24180247  1
  O  O214  1  0.49143042  0.63150236  0.74304133  1
  O  O215  1  1.00249934  0.12519412  0.23653867  1
  O  O216  1  1.00178637  0.12484848  0.73999320  1
  O  O217  1  1.00173609  0.63511986  0.25848344  1
  O  O218  1  1.00085319  0.63621416  0.74300802  1
  O  O219  1  0.36729857  0.25293171  0.00000349  1
  O  O220  1  0.37580700  0.26349548  0.49757750  1
  O  O221  1  0.36598732  0.74935549  0.01018734  1
  O  O222  1  0.37204616  0.74579005  0.51322946  1
  O  O223  1  0.86244275  0.25929144  -0.00172448  1
  O  O224  1  0.87600306  0.26533735  0.51310152  1
  O  O225  1  0.88074883  0.74099712  0.02027419  1
  O  O226  1  0.87559676  0.74644343  0.50748041  1
  O  O227  1  0.13010880  0.23603531  0.49570519  1
  O  O228  1  0.13907101  0.24956524  0.98769307  1
  O  O229  1  0.12857270  0.73463689  0.48379325  1
  O  O230  1  0.12783991  0.74223537  0.99200393  1
  O  O231  1  0.63024291  0.25153938  0.49496860  1
  O  O232  1  0.62940209  0.24855238  0.98791365  1
  O  O233  1  0.62552256  0.74002443  0.49275467  1
  O  O234  1  0.62276790  0.73598829  1.00124385  1
  O  O235  1  0.49508594  0.24847891  0.14125766  1
  O  O236  1  0.50056644  0.24244406  0.63301834  1
  O  O237  1  0.49063355  0.74320321  0.12488657  1
  O  O238  1  0.49131257  0.74569855  0.63218329  1
  O  O239  1  1.00926204  0.23227368  0.11229044  1
  O  O240  1  0.99633251  0.24227070  0.62796347  1
  O  O241  1  0.99311794  0.74775340  0.13921206  1
  O  O242  1  1.00249717  0.74887180  0.63959928  1
  O  O243  1  0.01787489  0.26316536  0.38568509  1
  O  O244  1  0.00851766  0.25516359  0.87730935  1
  O  O245  1  0.00582902  0.75997979  0.36638736  1
  O  O246  1  0.00396511  0.76134927  0.86880747  1
  O  O247  1  0.49615570  0.25947091  0.36410591  1
  O  O248  1  0.51566895  0.24468114  0.86662858  1
  O  O249  1  0.50943873  0.75670443  0.37077480  1
  O  O250  1  0.49739084  0.74121549  0.86086130  1
  O  O251  1  0.24563973  0.12204477  0.49289010  1
  O  O252  1  0.24322969  0.13073385  0.99313882  1
  O  O253  1  0.24540574  0.62598099  0.49190436  1
  O  O254  1  0.24171370  0.63082422  0.99149299  1
  O  O255  1  0.74444385  0.12905098  0.51782672  1
  O  O256  1  0.74091443  0.13861787  0.99358140  1
  O  O257  1  0.74048793  0.62711359  0.49873525  1
  O  O258  1  0.74172375  0.62599810  0.99373632  1
  O  O259  1  0.25709245  0.36475692  -0.00056855  1
  O  O260  1  0.25673771  0.37408749  0.50483061  1
  O  O261  1  0.25574376  0.86881046  0.00789122  1
  O  O262  1  0.25347152  0.87415207  0.50873663  1
  O  O263  1  0.75249890  0.37060238  0.00570485  1
  O  O264  1  0.76310564  0.38687580  0.51937251  1
  O  O265  1  0.74284447  0.86271777  0.02238725  1
  O  O266  1  0.74314652  0.87157711  0.52217478  1
  O  O267  1  0.13410381  0.49083038  0.24001736  1
  O  O268  1  0.12611950  0.48740020  0.75631688  1
  O  O269  1  0.13632069  1.00375226  0.25147513  1
  O  O270  1  0.12715446  1.00293383  0.73865055  1
  O  O271  1  0.62413615  0.48891106  0.24248425  1
  O  O272  1  0.62923654  0.49527710  0.74498143  1
  O  O273  1  0.62926139  0.99952859  0.23497362  1
  O  O274  1  0.63610060  1.00110072  0.74761571  1
  O  O275  1  0.37073722  0.01009053  0.24812604  1
  O  O276  1  0.36674305  0.00158172  0.74642549  1
  O  O277  1  0.36745648  0.50409375  0.25115705  1
  O  O278  1  0.37482528  0.51207815  0.75108621  1
  O  O279  1  0.87067283  0.01250665  0.22763994  1
  O  O280  1  0.86302472  0.00566972  0.75880391  1
  O  O281  1  0.86783604  0.49073019  0.24754421  1
  O  O282  1  0.86865374  0.50352461  0.75691533  1
  O  O283  1  0.12472954  0.36718612  0.36815989  1
  O  O284  1  0.12186838  0.36760039  0.86951188  1
  O  O285  1  0.12504418  0.86520563  0.37882894  1
  O  O286  1  0.11302382  0.86732789  0.87827768  1
  O  O287  1  0.60512599  0.38147807  0.36338704  1
  O  O288  1  0.63281183  0.36765140  0.86298637  1
  O  O289  1  0.61249809  0.85800201  0.38089679  1
  O  O290  1  0.62898134  0.87172726  0.87295076  1
  O  O291  1  0.38129093  0.12905572  0.13398064  1
  O  O292  1  0.38941487  0.12946261  0.62102998  1
  O  O293  1  0.37693787  0.63156730  0.12747133  1
  O  O294  1  0.37684425  0.63027567  0.63172907  1
  O  O295  1  0.90138656  0.13361511  0.10176688  1
  O  O296  1  0.88620267  0.13981364  0.62870478  1
  O  O297  1  0.87554253  0.62829741  0.12874017  1
  O  O298  1  0.89322479  0.61985445  0.62691227  1
  O  O299  1  0.25617297  0.24747296  0.11418138  1
  O  O300  1  0.25536092  0.26075708  0.62366767  1
  O  O301  1  0.25509998  0.75656376  0.12217894  1
  O  O302  1  0.25523333  0.75841972  0.62684369  1
  O  O303  1  0.74103043  0.26251083  0.11515923  1
  O  O304  1  0.75903089  0.26128155  0.62991130  1
  O  O305  1  0.76945837  0.75275301  0.12969109  1
  O  O306  1  0.74685173  0.76810158  0.63233730  1
  O  O307  1  0.24065815  0.23749343  0.37796204  1
  O  O308  1  0.24356080  0.24239871  0.87782900  1
  O  O309  1  0.24360137  0.74527421  0.37125553  1
  O  O310  1  0.24038188  0.74259246  0.87624581  1
  O  O311  1  0.73911324  0.29600245  0.38944946  1
  O  O312  1  0.74520023  0.24617763  0.87948523  1
  O  O313  1  0.73961273  0.75026810  0.37589681  1
  O  O314  1  0.75248662  0.73968494  0.87882154  1
  O  O315  1  0.02232931  0.12097652  -0.00798686  1
  O  O316  1  0.00902329  0.11993515  0.51229089  1
  O  O317  1  0.01361354  0.61856672  -0.00723673  1
  O  O318  1  0.00945400  0.61882272  0.50585866  1
  O  O319  1  0.50413296  0.15324141  0.02690812  1
  O  O320  1  0.50430599  0.11639376  0.50711131  1
  O  O321  1  0.50515205  0.61776932  0.00447016  1
  O  O322  1  0.50583257  0.62161884  0.50435725  1
  O  O323  1  0.49393968  0.38048545  0.49175009  1
  O  O324  1  0.49197163  0.38271414  1.00428781  1
  O  O325  1  0.49619485  0.87983118  0.49200809  1
  O  O326  1  0.47978990  0.87260282  0.99878320  1
  O  O327  1  1.00048007  0.38201244  0.49923584  1
  O  O328  1  0.99603581  0.38098884  0.99360915  1
  O  O329  1  1.00059449  0.88472245  0.48638069  1
  O  O330  1  1.00200679  0.87123474  0.98979424  1
  O  O331  1  0.49224150  0.49609639  0.37731283  1
  O  O332  1  0.49875287  0.50601629  0.88699914  1
  O  O333  1  0.50707333  0.98285503  0.38093365  1
  O  O334  1  0.51951594  1.06981633  0.91242813  1
  O  O335  1  1.00446519  0.48574001  0.38805999  1
  O  O336  1  0.99582424  0.49519575  0.88115557  1
  O  O337  1  1.00272808  0.98728741  0.38230737  1
  O  O338  1  0.99192630  0.98772154  0.87391736  1
  O  O339  1  0.01003148  0.01648084  0.12144801  1
  O  O340  1  0.00716635  0.00590514  0.62109913  1
  O  O341  1  0.01343770  0.49476509  0.11879386  1
  O  O342  1  0.00546175  0.50737599  0.61517052  1
  O  O343  1  0.50934324  0.00846014  0.12924341  1
  O  O344  1  0.50478442  0.00492813  0.62134916  1
  O  O345  1  0.50504437  0.50514792  0.11431883  1
  O  O346  1  0.50635131  0.50716615  0.61819800  1
  O  O347  1  0.24170237  0.37961813  0.24903428  1
  O  O348  1  0.24322947  0.37797708  0.74333045  1
  O  O349  1  0.25485480  0.89015172  0.24438873  1
  O  O350  1  0.25435415  0.88906479  0.74248970  1
  O  O351  1  0.74036062  0.38328025  0.24009870  1
  O  O352  1  0.74338443  0.38214243  0.74150051  1
  O  O353  1  0.75097547  0.87538340  0.23001717  1
  O  O354  1  0.75104090  0.88179858  0.74507237  1
  O  O355  1  0.25554404  0.11507103  0.25507116  1
  O  O356  1  0.24583733  0.11105631  0.75406248  1
  O  O357  1  0.25439415  0.61928331  0.25466310  1
  O  O358  1  0.25502948  0.62555660  0.75490244  1
  O  O359  1  0.76034527  0.11181569  0.22101904  1
  O  O360  1  0.75289685  0.11897320  0.75904370  1
  O  O361  1  0.74464485  0.60214428  0.24953531  1
  O  O362  1  0.75092510  0.62330816  0.75751082  1
  O  O363  1  0.36528630  0.13066691  0.36724123  1
  O  O364  1  0.35718798  0.12890499  0.87364757  1
  O  O365  1  0.36622916  0.62283463  0.36875276  1
  O  O366  1  0.36443923  0.62542187  0.86652843  1
  O  O367  1  0.87697458  0.12904350  0.38471724  1
  O  O368  1  0.86796530  0.12089034  0.87962640  1
  O  O369  1  0.87272345  0.61658957  0.37979575  1
  O  O370  1  0.86749243  0.61963361  0.87479013  1
  O  O371  1  0.12834410  0.38027478  0.13215231  1
  O  O372  1  0.13342814  0.36848623  0.63590739  1
  O  O373  1  0.13893405  0.86808872  0.12153240  1
  O  O374  1  0.13823729  0.88590119  0.62221714  1
  O  O375  1  0.62900137  0.37915568  0.12856083  1
  O  O376  1  0.63419726  0.38255482  0.63030993  1
  O  O377  1  0.61355995  0.88710042  0.12348524  1
  O  O378  1  0.62149052  0.88606805  0.63579878  1
  O  O379  1  0.13287057  0.25732850  0.25878002  1
  O  O380  1  0.12537996  0.25769824  0.76241424  1
  O  O381  1  0.11126929  0.74650708  0.25818966  1
  O  O382  1  0.11280857  0.74698885  0.76244144  1
  O  O383  1  0.61712856  0.26186269  0.24971871  1
  O  O384  1  0.62080421  0.25859674  0.75345930  1
  O  O385  1  0.62413431  0.74142933  0.26269147  1
  O  O386  1  0.60599738  0.74821293  0.75117135  1
  O  O387  1  0.38006791  0.24177467  0.24595244  1
  O  O388  1  0.39304654  0.26147859  0.75154410  1
  O  O389  1  0.37484242  0.74470161  0.23639773  1
  O  O390  1  0.38068288  0.74142852  0.74211486  1
  O  O391  1  0.87300575  0.24364540  0.24409631  1
  O  O392  1  0.87949093  0.24853523  0.74390365  1
  O  O393  1  0.88918581  0.74868603  0.24085850  1
  O  O394  1  0.89075194  0.74896213  0.75703296  1
  O  O395  1  0.38076952  0.49022016  0.49286552  1
  O  O396  1  0.38267343  0.49133774  0.99908440  1
  O  O397  1  0.39000165  0.99918457  0.50375315  1
  O  O398  1  0.36923745  0.99015366  1.00073895  1
  O  O399  1  0.88866371  0.48770983  0.50857150  1
  O  O400  1  0.87993617  0.49370679  0.99536369  1
  O  O401  1  0.88816473  1.00400014  0.50761724  1
  O  O402  1  0.86562028  1.00469777  0.99727954  1
  O  O403  1  0.13693465  0.00963868  -0.00506939  1
  O  O404  1  0.12135097  0.01123262  0.50999641  1
  O  O405  1  0.12311539  0.50639101  0.00624467  1
  O  O406  1  0.12069539  0.51422213  0.49422387  1
  O  O407  1  0.63001653  0.00906016  0.00900348  1
  O  O408  1  0.61176177  -0.00370787  0.51189620  1
  O  O409  1  0.61893634  0.50830773  0.00293118  1
  O  O410  1  0.61920899  0.51071308  0.50263353  1
  O  O411  1  0.37191526  0.36579076  0.11276563  1
  O  O412  1  0.37042559  0.37334716  0.61547864  1
  O  O413  1  0.36598875  0.86812685  0.11743890  1
  O  O414  1  0.36550721  0.86578091  0.62219845  1
  O  O415  1  0.86734841  0.36989100  0.11667433  1
  O  O416  1  0.87179073  0.36837889  0.62533589  1
  O  O417  1  0.87337613  0.87109291  0.12425812  1
  O  O418  1  0.86850009  0.87927817  0.62906149  1
  O  O419  1  0.12875383  0.12935540  0.38215351  1
  O  O420  1  0.13354006  0.13082087  0.88122704  1
  O  O421  1  0.13935647  0.63017854  0.37737666  1
  O  O422  1  0.13077176  0.63189131  0.88041070  1
  O  O423  1  0.62226817  0.13146206  0.37740711  1
  O  O424  1  0.64353223  0.13648577  0.87608959  1
  O  O425  1  0.62762145  0.63502431  0.38181669  1
  O  O426  1  0.63365485  0.62863478  0.88251233  1
