# generated using pymatgen
data_V85Zn86O256
_symmetry_space_group_name_H-M   'P 1'
_cell_length_a   16.92225683
_cell_length_b   16.91725831
_cell_length_c   16.92108066
_cell_angle_alpha   90.09726516
_cell_angle_beta   90.03769003
_cell_angle_gamma   89.99240737
_symmetry_Int_Tables_number   1
_chemical_formula_structural   V85Zn86O256
_chemical_formula_sum   'V85 Zn86 O256'
_cell_volume   4844.12827321
_cell_formula_units_Z   1
loop_
 _symmetry_equiv_pos_site_id
 _symmetry_equiv_pos_as_xyz
  1  'x, y, z'
loop_
 _atom_site_type_symbol
 _atom_site_label
 _atom_site_symmetry_multiplicity
 _atom_site_fract_x
 _atom_site_fract_y
 _atom_site_fract_z
 _atom_site_occupancy
  V  V0  1  0.63079822  0.00387947  0.11033884  1
  V  V1  1  0.25244448  0.37525433  0.12362549  1
  V  V2  1  0.74739943  -0.00111669  0.74707385  1
  V  V3  1  0.62396646  -0.00163924  0.62008616  1
  V  V4  1  0.62508027  0.12294572  0.49809140  1
  V  V5  1  0.26033235  0.25958841  0.49658816  1
  V  V6  1  0.38256149  0.00758320  0.37082744  1
  V  V7  1  0.37727357  0.24684247  0.13506137  1
  V  V8  1  0.50056995  0.87889384  0.87928346  1
  V  V9  1  0.87363575  0.24821170  0.12299654  1
  V  V10  1  0.87202666  0.25166780  0.62466371  1
  V  V11  1  0.25254013  -0.00053843  0.24723908  1
  V  V12  1  0.25006128  0.75540023  0.00527132  1
  V  V13  1  0.00076117  0.25345845  0.75223082  1
  V  V14  1  0.87396537  0.37974936  0.49644814  1
  V  V15  1  0.11671834  0.62703669  0.00432060  1
  V  V16  1  0.36682787  0.86984489  0.49453783  1
  V  V17  1  -0.00103771  0.24853520  0.24917124  1
  V  V18  1  0.12054310  0.25283830  0.87975906  1
  V  V19  1  0.74800540  0.12649007  0.37037552  1
  V  V20  1  0.12913187  0.88704315  0.75136383  1
  V  V21  1  0.51827076  0.24639820  0.24994964  1
  V  V22  1  0.37728197  0.48883212  0.37607849  1
  V  V23  1  0.24995670  0.62699403  0.87853999  1
  V  V24  1  -0.00578649  0.38368024  0.37127439  1
  V  V25  1  0.00291694  0.74560829  0.24660216  1
  V  V26  1  0.26147748  0.37589970  0.62038798  1
  V  V27  1  0.50566970  0.88051841  0.38256587  1
  V  V28  1  -0.00115843  0.62704307  0.62674151  1
  V  V29  1  0.50504483  0.62280682  0.62423538  1
  V  V30  1  0.36773808  0.74778801  0.61792945  1
  V  V31  1  -0.00048598  0.75789935  0.75760349  1
  V  V32  1  0.63087791  0.75143491  0.87804939  1
  V  V33  1  0.00668267  0.87675827  0.37603991  1
  V  V34  1  0.86787852  0.74952547  0.62232921  1
  V  V35  1  0.63163371  0.62620554  0.50211406  1
  V  V36  1  0.63087429  0.88749473  0.25029268  1
  V  V37  1  0.12118626  0.37649067  0.75367847  1
  V  V38  1  0.87382353  0.12495991  0.74952658  1
  V  V39  1  0.75254787  0.87074445  0.12541851  1
  V  V40  1  0.13020991  0.63358912  0.50114566  1
  V  V41  1  0.61823247  0.36968620  0.74128654  1
  V  V42  1  0.50015044  0.49860521  0.00017836  1
  V  V43  1  0.51906011  0.37304357  0.36765116  1
  V  V44  1  0.12959642  0.87577578  0.24258843  1
  V  V45  1  0.25471077  0.63038106  0.37972759  1
  V  V46  1  0.87908778  0.61995260  0.25810176  1
  V  V47  1  0.75355575  0.49663778  0.25825925  1
  V  V48  1  0.88022964  0.49270178  0.87363025  1
  V  V49  1  0.25194269  0.12766271  0.36957468  1
  V  V50  1  0.63275797  0.62959870  0.00335018  1
  V  V51  1  0.62617053  0.49800607  0.13010670  1
  V  V52  1  0.50282804  0.49496330  0.50135785  1
  V  V53  1  0.37503819  0.88575433  0.00222041  1
  V  V54  1  0.74536503  0.24604939  -0.00151838  1
  V  V55  1  0.74087947  0.12139977  0.87673486  1
  V  V56  1  0.37668841  0.62676150  0.75199190  1
  V  V57  1  0.49868766  0.11753227  0.11532140  1
  V  V58  1  0.63769578  0.75075769  0.37833194  1
  V  V59  1  0.00123711  -0.00384973  0.00173742  1
  V  V60  1  0.87290502  -0.00014058  0.37424678  1
  V  V61  1  0.74103534  0.50109454  0.74908212  1
  V  V62  1  0.87376526  0.11798844  0.24816390  1
  V  V63  1  0.87474753  0.86764650  -0.00387583  1
  V  V64  1  0.74333910  0.25114917  0.49758447  1
  V  V65  1  0.61498253  0.24918422  0.87527147  1
  V  V66  1  -0.00305064  0.50134897  0.49753266  1
  V  V67  1  0.74651856  0.37379031  0.12691688  1
  V  V68  1  0.45414107  0.05495612  0.55066754  1
  V  V69  1  0.86949452  0.87087257  0.49842532  1
  V  V70  1  0.37812199  0.62683822  0.25155759  1
  V  V71  1  0.37314374  0.75741485  0.12706428  1
  V  V72  1  0.11693416  0.50452671  0.12536284  1
  V  V73  1  0.24916532  0.11783869  0.86118394  1
  V  V74  1  0.25303202  0.24413588  0.00112173  1
  V  V75  1  0.87422474  0.73946919  0.12246675  1
  V  V76  1  0.12131702  0.13106697  0.49950459  1
  V  V77  1  0.37283871  0.00140653  0.85806075  1
  V  V78  1  0.12475006  0.37708925  0.24877485  1
  V  V79  1  0.25264414  0.50126330  0.24834049  1
  V  V80  1  0.01011249  0.12197345  0.62673303  1
  V  V81  1  0.24823128  0.50256247  0.74995277  1
  V  V82  1  0.12441460  0.49916478  0.62413204  1
  V  V83  1  0.50576514  0.75243989  0.25066658  1
  V  V84  1  0.88012104  -0.00404383  0.87443020  1
  Zn  Zn85  1  0.24577080  0.87816257  0.63122887  1
  Zn  Zn86  1  0.12982322  -0.00051759  0.12290498  1
  Zn  Zn87  1  0.37759240  0.37285366  -0.00186969  1
  Zn  Zn88  1  -0.00020820  0.00030670  0.50489724  1
  Zn  Zn89  1  0.87217995  0.62500073  0.75244719  1
  Zn  Zn90  1  0.88123810  0.36949896  -0.00623226  1
  Zn  Zn91  1  0.00262815  0.12114261  0.12555855  1
  Zn  Zn92  1  0.37579516  0.49755721  0.87788328  1
  Zn  Zn93  1  0.11964318  0.75406139  0.87886782  1
  Zn  Zn94  1  0.62324033  0.87381480  0.74877811  1
  Zn  Zn95  1  0.74640810  0.87039991  0.62033504  1
  Zn  Zn96  1  0.12413184  0.12130490  0.00254625  1
  Zn  Zn97  1  0.00185577  0.49383167  -0.00512304  1
  Zn  Zn98  1  0.75141828  0.62624450  0.87901501  1
  Zn  Zn99  1  0.41792361  0.19264548  0.69332524  1
  Zn  Zn100  1  0.49702358  0.37305317  0.87257391  1
  Zn  Zn101  1  0.75780880  0.62377121  0.38209939  1
  Zn  Zn102  1  0.50174837  0.62545810  0.12606244  1
  Zn  Zn103  1  0.74590351  0.37860815  0.62254692  1
  Zn  Zn104  1  0.50112744  0.74972248  0.75196492  1
  Zn  Zn105  1  0.12528172  0.25551239  0.37261126  1
  Zn  Zn106  1  0.13304756  0.75661269  0.37930389  1
  Zn  Zn107  1  0.18523132  0.18461056  0.18678374  1
  Zn  Zn108  1  0.21611665  0.20414115  0.69842116  1
  Zn  Zn109  1  0.18969125  0.68877836  0.18874879  1
  Zn  Zn110  1  0.18601822  0.69268674  0.68848386  1
  Zn  Zn111  1  0.68910204  0.18142806  0.18474883  1
  Zn  Zn112  1  0.58078072  0.18743611  0.68534061  1
  Zn  Zn113  1  0.69179031  0.68600981  0.18998851  1
  Zn  Zn114  1  0.68522002  0.68720558  0.69152957  1
  Zn  Zn115  1  0.31578135  0.31219259  0.30985843  1
  Zn  Zn116  1  0.31379197  0.31229021  0.81220967  1
  Zn  Zn117  1  0.31469325  0.81677885  0.31554425  1
  Zn  Zn118  1  0.31009330  0.81238282  0.81358876  1
  Zn  Zn119  1  0.81071739  0.31117146  0.31206250  1
  Zn  Zn120  1  0.80510499  0.31275444  0.81078334  1
  Zn  Zn121  1  0.81539467  0.81347561  0.30755229  1
  Zn  Zn122  1  0.81097579  0.81255586  0.81076038  1
  Zn  Zn123  1  0.18493355  0.44214499  0.43585887  1
  Zn  Zn124  1  0.18909925  0.43696944  0.93932469  1
  Zn  Zn125  1  0.19635266  0.95016911  0.45841396  1
  Zn  Zn126  1  0.18491311  0.93360003  0.93211518  1
  Zn  Zn127  1  0.68644013  0.44025306  0.43984761  1
  Zn  Zn128  1  0.68859315  0.43453631  0.93718492  1
  Zn  Zn129  1  0.69152306  0.94166733  0.43652599  1
  Zn  Zn130  1  0.69249116  0.93302458  0.93883647  1
  Zn  Zn131  1  0.31423726  0.06544350  0.06534073  1
  Zn  Zn132  1  0.28264041  0.06640701  0.57320167  1
  Zn  Zn133  1  0.31388069  0.56658166  0.06435177  1
  Zn  Zn134  1  0.31687546  0.55961048  0.56088597  1
  Zn  Zn135  1  0.81152025  0.06017217  0.06051273  1
  Zn  Zn136  1  0.81329316  0.06322726  0.56247164  1
  Zn  Zn137  1  0.81373555  0.55899982  0.06243133  1
  Zn  Zn138  1  0.81221152  0.56032747  0.56726550  1
  Zn  Zn139  1  0.44020647  0.43421740  0.18811867  1
  Zn  Zn140  1  0.43927682  0.44117699  0.68819912  1
  Zn  Zn141  1  0.44041911  0.93859279  0.19044587  1
  Zn  Zn142  1  0.43535115  0.92894113  0.68952437  1
  Zn  Zn143  1  0.93418573  0.43614295  0.18205227  1
  Zn  Zn144  1  0.93506467  0.43825692  0.68910718  1
  Zn  Zn145  1  0.93910178  0.93421885  0.18662610  1
  Zn  Zn146  1  0.93885274  0.93689361  0.68605683  1
  Zn  Zn147  1  0.06531822  0.06252922  0.31605664  1
  Zn  Zn148  1  0.06226309  0.06541071  0.81573115  1
  Zn  Zn149  1  0.06469754  0.56499171  0.31373366  1
  Zn  Zn150  1  0.06184335  0.56780908  0.81343395  1
  Zn  Zn151  1  0.56381486  0.06638884  0.30972088  1
  Zn  Zn152  1  0.55402555  0.06052520  0.81064262  1
  Zn  Zn153  1  0.56681011  0.56350457  0.31311007  1
  Zn  Zn154  1  0.56342622  0.56224204  0.81639684  1
  Zn  Zn155  1  0.43665898  0.19677064  0.43108298  1
  Zn  Zn156  1  0.43268907  0.18157529  0.93747768  1
  Zn  Zn157  1  0.44414299  0.68685730  0.43615746  1
  Zn  Zn158  1  0.44250540  0.68890991  0.94031222  1
  Zn  Zn159  1  0.93628812  0.19265492  0.43600914  1
  Zn  Zn160  1  0.93584202  0.18310767  0.93740411  1
  Zn  Zn161  1  0.94146770  0.69133020  0.43658978  1
  Zn  Zn162  1  0.93286663  0.68056019  0.93713013  1
  Zn  Zn163  1  0.06144578  0.31482733  0.06180641  1
  Zn  Zn164  1  0.06394324  0.31092891  0.56331676  1
  Zn  Zn165  1  0.05840562  0.81392787  0.06362024  1
  Zn  Zn166  1  0.05874483  0.81424447  0.56651346  1
  Zn  Zn167  1  0.56478753  0.31197924  0.06198909  1
  Zn  Zn168  1  0.55089462  0.31027384  0.55918335  1
  Zn  Zn169  1  0.56147345  0.81479194  0.06190391  1
  Zn  Zn170  1  0.55963701  0.80879511  0.56291938  1
  O  O171  1  0.12100046  0.11882260  0.12110926  1
  O  O172  1  0.11677857  0.13639783  0.61565121  1
  O  O173  1  0.13410543  0.61637517  0.11693133  1
  O  O174  1  0.11957763  0.62121688  0.61957008  1
  O  O175  1  0.61873331  0.11032939  0.12715231  1
  O  O176  1  0.62737779  0.11067024  0.60917264  1
  O  O177  1  0.62460325  0.61883318  0.12024067  1
  O  O178  1  0.61321104  0.63220262  0.61845170  1
  O  O179  1  0.38222455  0.38662491  0.36929917  1
  O  O180  1  0.37759097  0.37690004  0.87774500  1
  O  O181  1  0.38952914  0.88279057  0.37627347  1
  O  O182  1  0.37878146  0.88135708  0.88177384  1
  O  O183  1  0.88282079  0.37187797  0.38316110  1
  O  O184  1  0.86893452  0.38799482  0.87306800  1
  O  O185  1  0.88332965  0.88034151  0.37754142  1
  O  O186  1  0.86741516  0.88158456  0.88553091  1
  O  O187  1  0.25997240  0.01099795  0.37167356  1
  O  O188  1  0.25606002  0.01310435  0.88475440  1
  O  O189  1  0.25981149  0.50699253  0.36982358  1
  O  O190  1  0.25168362  0.51261009  0.87237684  1
  O  O191  1  0.76486283  0.00859924  0.37540120  1
  O  O192  1  0.75622156  0.00429351  0.87053720  1
  O  O193  1  0.74691317  0.50057429  0.36167632  1
  O  O194  1  0.75607562  0.49978113  0.86485523  1
  O  O195  1  0.24616135  0.49519926  0.13023513  1
  O  O196  1  0.24350179  0.49595184  0.62769179  1
  O  O197  1  0.25346411  1.00518224  0.14329346  1
  O  O198  1  0.23338714  0.97107695  0.56947438  1
  O  O199  1  0.74569577  0.49131444  0.13089880  1
  O  O200  1  0.75425861  0.49646059  0.64389087  1
  O  O201  1  0.73736539  0.99428295  0.12297673  1
  O  O202  1  0.74322823  0.99812139  0.63104907  1
  O  O203  1  0.00110073  0.37085901  0.25457634  1
  O  O204  1  0.01331075  0.37064006  0.74474353  1
  O  O205  1  0.00838446  0.86944105  0.25753482  1
  O  O206  1  0.00379547  0.86180158  0.74741090  1
  O  O207  1  0.50080228  0.36451696  0.25877723  1
  O  O208  1  0.51448866  0.38406310  0.75356812  1
  O  O209  1  0.51133421  0.86992407  0.25793675  1
  O  O210  1  0.50101997  0.87150559  0.76455097  1
  O  O211  1  0.50583019  0.14067241  0.24254141  1
  O  O212  1  0.50089531  0.13217397  0.74601656  1
  O  O213  1  0.49649616  0.63533640  0.25163129  1
  O  O214  1  0.49313846  0.62240194  0.74245224  1
  O  O215  1  0.99295067  0.13332881  0.25211510  1
  O  O216  1  0.99589015  0.13322700  0.74406146  1
  O  O217  1  0.99487840  0.63396652  0.25410871  1
  O  O218  1  0.99889011  0.63262522  0.73841326  1
  O  O219  1  0.36878669  0.24947429  0.01112990  1
  O  O220  1  0.35935177  0.25336069  0.49561718  1
  O  O221  1  0.36950404  0.75556146  0.00902658  1
  O  O222  1  0.38452462  0.75606129  0.50673750  1
  O  O223  1  0.86490300  0.24717434  0.00485925  1
  O  O224  1  0.87077362  0.26112595  0.50544496  1
  O  O225  1  0.88308371  0.75553764  0.00920341  1
  O  O226  1  0.88131036  0.75806370  0.50882006  1
  O  O227  1  0.12735438  0.24588287  0.49137030  1
  O  O228  1  0.13243100  0.24884764  0.99455907  1
  O  O229  1  0.11864450  0.73737915  0.49917993  1
  O  O230  1  0.13113502  0.74556545  1.00249513  1
  O  O231  1  0.63714016  0.24216915  0.50414431  1
  O  O232  1  0.63741505  0.25238563  0.99209377  1
  O  O233  1  0.62039013  0.74102478  0.48990079  1
  O  O234  1  0.61904971  0.74024891  0.99501451  1
  O  O235  1  0.49855153  0.24371081  0.13309195  1
  O  O236  1  0.49888731  0.24344105  0.62765030  1
  O  O237  1  0.49722120  0.75121066  0.13807261  1
  O  O238  1  0.48896702  0.74104591  0.62909802  1
  O  O239  1  0.99407617  0.24876112  0.13639753  1
  O  O240  1  0.99063838  0.24521376  0.63170934  1
  O  O241  1  0.99143010  0.75522172  0.13884077  1
  O  O242  1  0.99038057  0.74318218  0.63348228  1
  O  O243  1  -0.00200374  0.26143624  0.36210924  1
  O  O244  1  0.01314637  0.24232059  0.86994905  1
  O  O245  1  0.00350020  0.75993694  0.36430210  1
  O  O246  1  -0.00351200  0.74227255  0.85997951  1
  O  O247  1  0.50091287  0.26118406  0.36145809  1
  O  O248  1  0.51194201  0.24807756  0.88468309  1
  O  O249  1  0.50980597  0.75819756  0.36505871  1
  O  O250  1  0.50946932  0.75723190  0.87461827  1
  O  O251  1  0.24086512  0.14175403  0.49050612  1
  O  O252  1  0.24893136  0.13528124  0.99933288  1
  O  O253  1  0.24247127  0.61811954  0.49238764  1
  O  O254  1  0.24544408  0.63495749  0.99515900  1
  O  O255  1  0.74562810  0.13168073  0.49270926  1
  O  O256  1  0.75390155  0.13119682  0.98873842  1
  O  O257  1  0.73692833  0.61634865  0.50085007  1
  O  O258  1  0.73656818  0.61957556  1.00013327  1
  O  O259  1  0.25101754  0.36212303  0.00650661  1
  O  O260  1  0.24542884  0.36867601  0.50237974  1
  O  O261  1  0.25672229  0.86160215  -0.00577000  1
  O  O262  1  0.27032977  0.85881840  0.46869351  1
  O  O263  1  0.75466726  0.36524201  0.00738279  1
  O  O264  1  0.75534792  0.36994892  0.50003772  1
  O  O265  1  0.76205773  0.87694797  0.01347345  1
  O  O266  1  0.76502139  0.87693202  0.49848800  1
  O  O267  1  0.13231076  0.49809641  0.24354099  1
  O  O268  1  0.12857433  0.49670954  0.74644911  1
  O  O269  1  0.13348514  0.99226229  0.25217794  1
  O  O270  1  0.11384540  0.98533365  0.75181027  1
  O  O271  1  0.63527993  0.50714490  0.23694107  1
  O  O272  1  0.63484218  0.48945177  0.75687940  1
  O  O273  1  0.62410716  0.98966508  0.24287026  1
  O  O274  1  0.63173242  0.99831179  0.73984332  1
  O  O275  1  0.36870362  -0.00587654  0.26265708  1
  O  O276  1  0.36836397  -0.00756516  0.75856069  1
  O  O277  1  0.37330004  0.50625245  0.25534488  1
  O  O278  1  0.36774808  0.51302487  0.75113854  1
  O  O279  1  0.87992081  0.01128415  0.25486906  1
  O  O280  1  0.87038994  0.00111459  0.75703885  1
  O  O281  1  0.86789481  0.51033911  0.24138467  1
  O  O282  1  0.86464174  0.49934836  0.75868430  1
  O  O283  1  0.11539354  0.37766722  0.36594805  1
  O  O284  1  0.13304879  0.36558019  0.86613888  1
  O  O285  1  0.11508852  0.87753559  0.37443124  1
  O  O286  1  0.12407331  0.86892734  0.85965725  1
  O  O287  1  0.61744177  0.37768870  0.36870982  1
  O  O288  1  0.62357493  0.36463338  0.86768044  1
  O  O289  1  0.62493728  0.87181952  0.36875660  1
  O  O290  1  0.61765383  0.86996497  0.87821523  1
  O  O291  1  0.39066223  0.12955081  0.12664359  1
  O  O292  1  0.38119369  0.10802984  0.60553294  1
  O  O293  1  0.37924623  0.63854297  0.13294026  1
  O  O294  1  0.38222155  0.62919698  0.63059615  1
  O  O295  1  0.87471508  0.12916904  0.13311175  1
  O  O296  1  0.88024457  0.13366453  0.63059282  1
  O  O297  1  0.87087217  0.63504807  0.13153089  1
  O  O298  1  0.88281411  0.63133357  0.62699548  1
  O  O299  1  0.25840148  0.25201966  0.12166394  1
  O  O300  1  0.23771408  0.26375656  0.60261089  1
  O  O301  1  0.26108334  0.74876269  0.11887874  1
  O  O302  1  0.26352703  0.75026325  0.62606465  1
  O  O303  1  0.75169437  0.25324144  0.11769037  1
  O  O304  1  0.76523029  0.25334961  0.61271196  1
  O  O305  1  0.76052059  0.75805195  0.12945335  1
  O  O306  1  0.76345197  0.75033723  0.63238138  1
  O  O307  1  0.24997231  0.24833511  0.38038460  1
  O  O308  1  0.24220102  0.23740600  0.88366583  1
  O  O309  1  0.25204696  0.73346692  0.36727406  1
  O  O310  1  0.24937077  0.73928862  0.88375559  1
  O  O311  1  0.75798678  0.23953459  0.38589655  1
  O  O312  1  0.74347060  0.24094014  0.88067934  1
  O  O313  1  0.74056750  0.74921377  0.37007417  1
  O  O314  1  0.73606507  0.74950229  0.87276712  1
  O  O315  1  -0.00179378  0.10939204  0.00152398  1
  O  O316  1  0.00372998  0.13352263  0.50944608  1
  O  O317  1  0.01389483  0.62097078  -0.00236446  1
  O  O318  1  0.00487392  0.62151647  0.50896690  1
  O  O319  1  0.50121245  0.12848307  0.01694190  1
  O  O320  1  0.50871072  0.12463722  0.48917187  1
  O  O321  1  0.50934169  0.61462944  0.00439369  1
  O  O322  1  0.50909769  0.61851758  0.50590515  1
  O  O323  1  0.50604277  0.38162743  0.48143182  1
  O  O324  1  0.50107346  0.38710820  1.00088483  1
  O  O325  1  0.49623951  0.87057666  0.48549556  1
  O  O326  1  0.48858328  0.86940069  0.98930697  1
  O  O327  1  0.99374782  0.37908302  0.49136735  1
  O  O328  1  0.99435276  0.38037558  1.00390668  1
  O  O329  1  0.99304167  0.87759826  0.49255226  1
  O  O330  1  0.98724410  0.88361605  1.00334750  1
  O  O331  1  0.49761786  0.48927705  0.37419309  1
  O  O332  1  0.49837080  0.49883646  0.88701065  1
  O  O333  1  0.49565577  0.99367258  0.36788061  1
  O  O334  1  0.48734360  0.99194293  0.87550934  1
  O  O335  1  1.00189845  0.49092950  0.37901560  1
  O  O336  1  0.98429403  0.50374051  0.87052948  1
  O  O337  1  0.98874670  0.99291260  0.37309218  1
  O  O338  1  0.98564475  1.00392500  0.88064401  1
  O  O339  1  0.00050302  -0.00040321  0.11551722  1
  O  O340  1  -0.00620125  0.01722932  0.62398093  1
  O  O341  1  0.01445035  0.49942293  0.12692154  1
  O  O342  1  0.00340347  0.50917074  0.62086552  1
  O  O343  1  0.50935334  0.01146929  0.13077086  1
  O  O344  1  0.50553312  -0.00732042  0.62015150  1
  O  O345  1  0.50996893  0.50054083  0.12220452  1
  O  O346  1  0.49535008  0.50916534  0.61330589  1
  O  O347  1  0.24579257  0.38112044  0.24467125  1
  O  O348  1  0.23829990  0.38490473  0.74093225  1
  O  O349  1  0.23999478  0.88556020  0.26172323  1
  O  O350  1  0.23614767  0.87394157  0.74963921  1
  O  O351  1  0.75676243  0.38305902  0.24095831  1
  O  O352  1  0.73771647  0.38342085  0.74779166  1
  O  O353  1  0.74425036  0.87368197  0.23813130  1
  O  O354  1  0.74819433  0.88753292  0.74718097  1
  O  O355  1  0.24641575  0.11990201  0.26319722  1
  O  O356  1  0.23305732  0.10937827  0.76379448  1
  O  O357  1  0.25766304  0.61843688  0.25673573  1
  O  O358  1  0.25446826  0.62289946  0.75802937  1
  O  O359  1  0.75952698  0.13034382  0.26012773  1
  O  O360  1  0.75842664  0.10947029  0.75853510  1
  O  O361  1  0.76064723  0.61635819  0.25369855  1
  O  O362  1  0.74784546  0.61191557  0.75355630  1
  O  O363  1  0.36787276  0.11785592  0.38003586  1
  O  O364  1  0.36005104  0.11716037  0.87561804  1
  O  O365  1  0.37277240  0.61766685  0.37045357  1
  O  O366  1  0.36934936  0.62638780  0.86844844  1
  O  O367  1  0.87069481  0.11854860  0.36977072  1
  O  O368  1  0.86621080  0.11630291  0.86809021  1
  O  O369  1  0.87533015  0.62977655  0.36378830  1
  O  O370  1  0.86872856  0.61278492  0.87144658  1
  O  O371  1  0.13337423  0.38320372  0.13070547  1
  O  O372  1  0.12915822  0.38331157  0.63052822  1
  O  O373  1  0.12376009  0.87664627  0.13915326  1
  O  O374  1  0.12442207  0.86349165  0.64482896  1
  O  O375  1  0.63783701  0.38235493  0.12174033  1
  O  O376  1  0.62530081  0.37025461  0.63817067  1
  O  O377  1  0.63032662  0.88360447  0.12972183  1
  O  O378  1  0.62622869  0.88405570  0.62205701  1
  O  O379  1  0.11568982  0.25860621  0.24887290  1
  O  O380  1  0.12427139  0.25918356  0.75831407  1
  O  O381  1  0.12039783  0.75672212  0.25347020  1
  O  O382  1  0.10965033  0.74918726  0.75393377  1
  O  O383  1  0.61692022  0.25128467  0.24424823  1
  O  O384  1  0.63152950  0.26374007  0.75911923  1
  O  O385  1  0.62115008  0.75827479  0.25543868  1
  O  O386  1  0.62135632  0.75359871  0.76037476  1
  O  O387  1  0.38449649  0.25221660  0.23860575  1
  O  O388  1  0.32481065  0.23734218  0.73260845  1
  O  O389  1  0.38423861  0.75044075  0.24569800  1
  O  O390  1  0.37540648  0.73888685  0.74439388  1
  O  O391  1  0.88060107  0.23984416  0.24466227  1
  O  O392  1  0.87787512  0.24771917  0.74313085  1
  O  O393  1  0.88354367  0.74206952  0.24378114  1
  O  O394  1  0.88418398  0.74913787  0.74399694  1
  O  O395  1  0.39059276  0.50603085  0.48783657  1
  O  O396  1  0.38586566  0.50003611  1.00263416  1
  O  O397  1  0.38723721  0.99142883  0.48881451  1
  O  O398  1  0.36860174  0.98753433  0.99911585  1
  O  O399  1  0.87952657  0.48802103  0.50480330  1
  O  O400  1  0.87512699  0.49946077  0.98549378  1
  O  O401  1  0.87892202  0.99425972  0.49122130  1
  O  O402  1  0.87900572  0.99100324  0.99313015  1
  O  O403  1  0.11497769  -0.00519101  0.00093069  1
  O  O404  1  0.11203979  0.02605688  0.48244089  1
  O  O405  1  0.12760030  0.50863258  0.00830431  1
  O  O406  1  0.11653641  0.51043720  0.50455576  1
  O  O407  1  0.62429163  -0.00527919  0.01218521  1
  O  O408  1  0.62815149  0.00761019  0.50603731  1
  O  O409  1  0.62091667  0.50478998  0.01037638  1
  O  O410  1  0.61212687  0.50945017  0.49413937  1
  O  O411  1  0.36928605  0.36618980  0.12349255  1
  O  O412  1  0.36085654  0.38249169  0.62822292  1
  O  O413  1  0.38318614  0.86570896  0.11889234  1
  O  O414  1  0.37150831  0.86659041  0.61300905  1
  O  O415  1  0.86334840  0.36515110  0.12324203  1
  O  O416  1  0.87539977  0.36811439  0.61659472  1
  O  O417  1  0.86828613  0.86587787  0.12189769  1
  O  O418  1  0.87553331  0.86775616  0.61545088  1
  O  O419  1  0.13333671  0.13456165  0.37741902  1
  O  O420  1  0.13397860  0.13092393  0.88144175  1
  O  O421  1  0.13610578  0.62528757  0.38406548  1
  O  O422  1  0.13338570  0.62831540  0.88514835  1
  O  O423  1  0.63837217  0.11741447  0.38309653  1
  O  O424  1  0.63568626  0.12989714  0.86826225  1
  O  O425  1  0.62773331  0.63481580  0.38274789  1
  O  O426  1  0.62542183  0.63333828  0.88483899  1
