# generated using pymatgen
data_V85Zn86O256
_symmetry_space_group_name_H-M   'P 1'
_cell_length_a   16.96016450
_cell_length_b   16.95883942
_cell_length_c   16.96055012
_cell_angle_alpha   90.06038047
_cell_angle_beta   89.96625656
_cell_angle_gamma   89.89115474
_symmetry_Int_Tables_number   1
_chemical_formula_structural   V85Zn86O256
_chemical_formula_sum   'V85 Zn86 O256'
_cell_volume   4878.26088326
_cell_formula_units_Z   1
loop_
 _symmetry_equiv_pos_site_id
 _symmetry_equiv_pos_as_xyz
  1  'x, y, z'
loop_
 _atom_site_type_symbol
 _atom_site_label
 _atom_site_symmetry_multiplicity
 _atom_site_fract_x
 _atom_site_fract_y
 _atom_site_fract_z
 _atom_site_occupancy
  V  V0  1  0.24650340  0.74961038  -0.00556768  1
  V  V1  1  0.87756555  0.62422080  0.25273983  1
  V  V2  1  0.00628556  0.12742048  0.12223163  1
  V  V3  1  0.61975729  0.25116675  0.36115053  1
  V  V4  1  0.12826651  0.74574704  0.37215042  1
  V  V5  1  0.75088003  0.37360934  0.62797214  1
  V  V6  1  -0.00103645  0.49768588  -0.00281452  1
  V  V7  1  0.37439736  0.24819182  0.62544969  1
  V  V8  1  0.11490466  0.12592209  0.50253448  1
  V  V9  1  0.87571041  0.25235317  0.12629201  1
  V  V10  1  0.12709347  -0.00092857  0.12361527  1
  V  V11  1  0.00367437  0.38003629  0.37335703  1
  V  V12  1  0.00203291  0.87684416  0.36764377  1
  V  V13  1  0.87486618  0.12811448  0.25300884  1
  V  V14  1  0.01021892  0.25630500  0.25096863  1
  V  V15  1  0.24979881  0.37264303  0.62668216  1
  V  V16  1  0.25505727  0.73992450  0.49753614  1
  V  V17  1  0.62977049  0.87763217  0.74807312  1
  V  V18  1  0.62419790  0.87237858  0.24910930  1
  V  V19  1  0.12419331  0.49491464  0.12562671  1
  V  V20  1  0.00052964  0.36166968  0.86856640  1
  V  V21  1  0.75168668  0.62574951  0.87494336  1
  V  V22  1  0.49309642  0.75211311  0.73560197  1
  V  V23  1  0.62342476  -0.00160499  0.12494336  1
  V  V24  1  0.25142131  -0.00379735  0.25458411  1
  V  V25  1  0.87645080  0.00183177  0.37432200  1
  V  V26  1  0.63926561  0.74457492  0.38100638  1
  V  V27  1  0.50258136  0.13008802  0.13475017  1
  V  V28  1  0.88579995  0.12341070  0.76107121  1
  V  V29  1  0.37557150  0.87234175  0.50512182  1
  V  V30  1  0.25527814  0.49597456  0.75686486  1
  V  V31  1  0.50195030  0.37649514  0.37710756  1
  V  V32  1  -0.00560380  0.50671105  0.49972150  1
  V  V33  1  -0.01649429  0.87301228  0.87903437  1
  V  V34  1  0.24960185  0.12678289  0.37679623  1
  V  V35  1  0.01391312  0.74628561  0.74852067  1
  V  V36  1  0.57620304  0.43723227  0.19462285  1
  V  V37  1  0.75638915  0.49785856  0.25178365  1
  V  V38  1  0.12616146  0.87137232  0.75852452  1
  V  V39  1  0.25344888  0.00034020  0.75380234  1
  V  V40  1  0.12436662  0.62579055  -0.00783375  1
  V  V41  1  0.49907305  0.25479761  0.75596653  1
  V  V42  1  0.37336934  0.87790982  -0.00171048  1
  V  V43  1  0.50174427  0.73836722  0.24710750  1
  V  V44  1  0.50109377  0.87354172  0.37448529  1
  V  V45  1  0.49711657  0.00242949  -0.00188757  1
  V  V46  1  0.62560215  0.75045957  0.87395730  1
  V  V47  1  0.88586015  0.23959533  0.62614615  1
  V  V48  1  0.63309633  0.00497835  0.61850789  1
  V  V49  1  0.37470717  0.37605538  0.49925670  1
  V  V50  1  0.37666453  0.25138170  0.12288066  1
  V  V51  1  0.24046994  0.49365267  0.25816062  1
  V  V52  1  0.24640856  0.36863555  0.11163023  1
  V  V53  1  0.63134536  0.24638881  0.87292122  1
  V  V54  1  0.50372538  0.00223210  0.50086744  1
  V  V55  1  0.50047812  0.51247838  0.51136515  1
  V  V56  1  0.88589649  0.62615205  0.74722622  1
  V  V57  1  0.87860764  0.49906162  0.87370261  1
  V  V58  1  0.87302944  0.37734508  0.49614795  1
  V  V59  1  0.50615081  0.12680948  0.62106919  1
  V  V60  1  0.75213193  0.24732087  -0.00349253  1
  V  V61  1  0.37890434  0.74163553  0.12101241  1
  V  V62  1  0.24922643  0.24888140  0.50067496  1
  V  V63  1  0.62871855  0.12237585  -0.00579727  1
  V  V64  1  0.75393847  0.00923125  0.76469762  1
  V  V65  1  0.49787344  0.88056553  0.87498952  1
  V  V66  1  0.74340893  0.12595039  0.37944477  1
  V  V67  1  0.24873152  0.87321964  0.62275353  1
  V  V68  1  0.37669959  0.00073484  0.37614694  1
  V  V69  1  0.73847272  0.24787613  0.50250929  1
  V  V70  1  0.75823326  0.75211858  -0.00066966  1
  V  V71  1  0.37585910  0.11942156  0.75425272  1
  V  V72  1  0.36326427  0.62643566  0.25686629  1
  V  V73  1  0.75148951  0.50046741  0.75480669  1
  V  V74  1  0.87183943  0.87149223  0.49800446  1
  V  V75  1  0.13780421  0.23566643  0.87270697  1
  V  V76  1  0.11692371  0.00194043  0.62577697  1
  V  V77  1  0.62219899  0.37527011  0.75141023  1
  V  V78  1  0.74900429  0.37696759  0.12759944  1
  V  V79  1  0.12162074  0.50175269  0.62621723  1
  V  V80  1  0.26321961  0.61965074  0.87546404  1
  V  V81  1  0.12289323  0.62624400  0.50104082  1
  V  V82  1  0.75485376  0.87466647  0.12214706  1
  V  V83  1  0.62023206  0.62320955  0.01532353  1
  V  V84  1  0.87809803  0.74900698  0.62233042  1
  Zn  Zn85  1  0.14170013  0.12649520  -0.00168200  1
  Zn  Zn86  1  0.87250178  0.37545402  -0.00204901  1
  Zn  Zn87  1  -0.00845454  -0.00188634  -0.01006605  1
  Zn  Zn88  1  0.88053732  0.74775008  0.12072523  1
  Zn  Zn89  1  0.00226403  0.74871498  0.24464368  1
  Zn  Zn90  1  0.12615169  0.87113993  0.24849837  1
  Zn  Zn91  1  0.31181155  0.06516255  0.91698227  1
  Zn  Zn92  1  0.48889359  0.51776694  0.01518599  1
  Zn  Zn93  1  0.75399443  0.87475037  0.62145478  1
  Zn  Zn94  1  0.64163512  0.63235302  0.50700047  1
  Zn  Zn95  1  -0.00230715  0.00136128  0.50198474  1
  Zn  Zn96  1  0.24911069  0.86995369  0.12709110  1
  Zn  Zn97  1  0.74874709  0.00151228  0.24983793  1
  Zn  Zn98  1  0.37173114  0.50541539  0.37836059  1
  Zn  Zn99  1  0.12745705  0.25357266  0.37313799  1
  Zn  Zn100  1  0.38764580  0.61637750  0.73605891  1
  Zn  Zn101  1  0.38172126  0.13687539  0.25668763  1
  Zn  Zn102  1  -0.00070419  0.62624917  0.12188167  1
  Zn  Zn103  1  0.80574456  0.56543704  0.41192383  1
  Zn  Zn104  1  0.62037597  0.51152498  0.62864380  1
  Zn  Zn105  1  0.38835879  0.38191508  -0.01504000  1
  Zn  Zn106  1  0.11918469  0.36519906  0.74599233  1
  Zn  Zn107  1  0.19183379  0.18740201  0.18890565  1
  Zn  Zn108  1  0.18356996  0.18437759  0.69236951  1
  Zn  Zn109  1  0.18695443  0.68303522  0.18194594  1
  Zn  Zn110  1  0.22242493  0.67214116  0.67182658  1
  Zn  Zn111  1  0.68892732  0.18667928  0.18580725  1
  Zn  Zn112  1  0.69072560  0.18562341  0.68715148  1
  Zn  Zn113  1  0.69569354  0.68586747  0.19243403  1
  Zn  Zn114  1  0.69192846  0.68940088  0.68359510  1
  Zn  Zn115  1  0.31391705  0.31528768  0.30848927  1
  Zn  Zn116  1  0.30813760  0.30745444  0.81280886  1
  Zn  Zn117  1  0.31323458  0.81187790  0.31545878  1
  Zn  Zn118  1  0.31121020  0.81274619  0.81603652  1
  Zn  Zn119  1  0.81205776  0.31351614  0.31446083  1
  Zn  Zn120  1  0.81641765  0.30825793  0.81223233  1
  Zn  Zn121  1  0.81582896  0.81352379  0.30629272  1
  Zn  Zn122  1  0.81325172  0.81119328  0.80590831  1
  Zn  Zn123  1  0.18331107  0.43692283  0.43934454  1
  Zn  Zn124  1  0.18303540  0.43405220  0.93393768  1
  Zn  Zn125  1  0.18536242  0.93681198  0.43828774  1
  Zn  Zn126  1  0.18060843  0.93668682  0.94088476  1
  Zn  Zn127  1  0.68049177  0.43528855  0.43890222  1
  Zn  Zn128  1  0.58269757  0.43463276  0.92789451  1
  Zn  Zn129  1  0.69001647  0.93575628  0.43560296  1
  Zn  Zn130  1  0.68950931  0.93554349  0.93885387  1
  Zn  Zn131  1  0.31483126  0.06298597  0.07793860  1
  Zn  Zn132  1  0.31149748  0.06065115  0.56548264  1
  Zn  Zn133  1  0.30967790  0.56130669  0.06592282  1
  Zn  Zn134  1  0.31619544  0.55959291  0.56706217  1
  Zn  Zn135  1  0.81415546  0.06191294  0.05995768  1
  Zn  Zn136  1  0.81381083  0.06252749  0.56033749  1
  Zn  Zn137  1  0.80944225  0.56251447  0.06521437  1
  Zn  Zn138  1  0.81115934  0.56531555  0.57687895  1
  Zn  Zn139  1  0.41563151  0.44151202  0.18310926  1
  Zn  Zn140  1  0.43621823  0.43902106  0.81376905  1
  Zn  Zn141  1  0.43672306  0.93498117  0.18551236  1
  Zn  Zn142  1  0.43970491  0.93748339  0.68524460  1
  Zn  Zn143  1  0.93663603  0.43900119  0.18747723  1
  Zn  Zn144  1  0.93804876  0.43519066  0.68468920  1
  Zn  Zn145  1  0.92491165  0.95350366  0.15972096  1
  Zn  Zn146  1  0.93759482  0.93692710  0.69056233  1
  Zn  Zn147  1  0.06367024  0.06405792  0.31088616  1
  Zn  Zn148  1  0.06002780  0.05649940  0.81204949  1
  Zn  Zn149  1  0.05994999  0.56383005  0.31502744  1
  Zn  Zn150  1  0.06932758  0.55937621  0.81191984  1
  Zn  Zn151  1  0.56643416  0.06100704  0.31481378  1
  Zn  Zn152  1  0.56333124  0.06322841  0.81053910  1
  Zn  Zn153  1  0.55874651  0.56650110  0.32421367  1
  Zn  Zn154  1  0.56622179  0.57214504  0.80516055  1
  Zn  Zn155  1  0.43974195  0.18919348  0.43833150  1
  Zn  Zn156  1  0.44069054  0.19702033  0.94018451  1
  Zn  Zn157  1  0.43921742  0.69022357  0.43413808  1
  Zn  Zn158  1  0.43999428  0.68979370  0.93081861  1
  Zn  Zn159  1  0.93459942  0.19351095  0.43760465  1
  Zn  Zn160  1  0.93854219  0.18497531  0.94033678  1
  Zn  Zn161  1  0.94250902  0.69115505  0.43669398  1
  Zn  Zn162  1  0.94278889  0.68925518  0.93156390  1
  Zn  Zn163  1  0.06529647  0.31156600  0.05440633  1
  Zn  Zn164  1  0.06212011  0.31451116  0.55894555  1
  Zn  Zn165  1  0.06294160  0.81181229  0.06205737  1
  Zn  Zn166  1  0.05964984  0.81403042  0.56207334  1
  Zn  Zn167  1  0.55905541  0.30748915  0.05985900  1
  Zn  Zn168  1  0.56122806  0.31796218  0.56496139  1
  Zn  Zn169  1  0.56371456  0.80838097  0.06177656  1
  Zn  Zn170  1  0.56804525  0.81733254  0.56052369  1
  O  O171  1  0.12149967  0.12175522  0.12369037  1
  O  O172  1  0.13323632  0.11455646  0.61439037  1
  O  O173  1  0.12530701  0.60941634  0.11250885  1
  O  O174  1  0.13346519  0.61474288  0.61126246  1
  O  O175  1  0.61956217  0.11987848  0.11805996  1
  O  O176  1  0.61825536  0.11732722  0.62770270  1
  O  O177  1  0.62786766  0.63463994  0.11346990  1
  O  O178  1  0.63035862  0.62452880  0.62056922  1
  O  O179  1  0.38537227  0.37412742  0.38078381  1
  O  O180  1  0.38188515  0.36167399  0.87292082  1
  O  O181  1  0.38108951  0.88132960  0.38370281  1
  O  O182  1  0.38461407  0.87017235  0.88833750  1
  O  O183  1  0.88205045  0.36653755  0.39134822  1
  O  O184  1  0.88453745  0.37966535  0.87526399  1
  O  O185  1  0.88095922  0.87994016  0.37748754  1
  O  O186  1  0.88444055  0.87273914  0.87201743  1
  O  O187  1  0.25548107  0.00652148  0.37248567  1
  O  O188  1  0.24846096  -0.01122984  0.85859534  1
  O  O189  1  0.24832686  0.49282919  0.36175180  1
  O  O190  1  0.24571089  0.50382403  0.86778363  1
  O  O191  1  0.75555096  0.00990786  0.37226419  1
  O  O192  1  0.74797471  -0.00031202  0.86324553  1
  O  O193  1  0.74914588  0.48278300  0.35881774  1
  O  O194  1  0.76004803  0.50378940  0.86230108  1
  O  O195  1  0.24085615  0.48894469  0.13219440  1
  O  O196  1  0.23901796  0.48830345  0.62935637  1
  O  O197  1  0.24257112  0.99609010  0.13771133  1
  O  O198  1  0.24277081  0.98974365  0.63158717  1
  O  O199  1  0.75095945  0.48902057  0.13576735  1
  O  O200  1  0.75267940  0.48859423  0.64015738  1
  O  O201  1  0.73967713  0.99185674  0.12795036  1
  O  O202  1  0.74154358  1.00041006  0.62819283  1
  O  O203  1  -0.00922765  0.36837639  0.26102522  1
  O  O204  1  -0.00015960  0.37945711  0.76483264  1
  O  O205  1  0.00046260  0.87411667  0.26208753  1
  O  O206  1  0.00786895  0.86882097  0.75711561  1
  O  O207  1  0.50635799  0.38882826  0.25368484  1
  O  O208  1  0.51091363  0.36606834  0.74551220  1
  O  O209  1  0.50911372  0.86835760  0.25277308  1
  O  O210  1  0.51168682  0.87559630  0.75583844  1
  O  O211  1  0.50133845  0.11692717  0.23830914  1
  O  O212  1  0.49640543  0.12951031  0.73880410  1
  O  O213  1  0.49206704  0.63540650  0.25420750  1
  O  O214  1  0.49978679  0.64651312  0.74786071  1
  O  O215  1  0.99439986  0.13636140  0.24481453  1
  O  O216  1  0.98388697  0.11419168  0.74609067  1
  O  O217  1  0.99005563  0.62155148  0.24393675  1
  O  O218  1  0.99709563  0.63271830  0.75869540  1
  O  O219  1  0.38243376  0.25694764  0.01616919  1
  O  O220  1  0.36849026  0.25408694  0.50650848  1
  O  O221  1  0.37176373  0.75407491  0.00552471  1
  O  O222  1  0.36614422  0.76002497  0.49129124  1
  O  O223  1  0.86890354  0.24820944  0.00989529  1
  O  O224  1  0.86595203  0.25617985  0.51103614  1
  O  O225  1  0.86131788  0.74066675  -0.00155434  1
  O  O226  1  0.88415363  0.75766392  0.50970754  1
  O  O227  1  0.13209848  0.24182927  0.49981735  1
  O  O228  1  0.11814173  0.24380280  0.97978877  1
  O  O229  1  0.12888934  0.74297429  0.49532288  1
  O  O230  1  0.13648310  0.73873089  1.00683023  1
  O  O231  1  0.63613596  0.25627534  0.49741915  1
  O  O232  1  0.63280834  0.24096362  0.99532963  1
  O  O233  1  0.62546599  0.75522537  0.48480430  1
  O  O234  1  0.63348478  0.74544220  0.99027143  1
  O  O235  1  0.49465735  0.23938372  0.12628102  1
  O  O236  1  0.49761496  0.24417848  0.63265303  1
  O  O237  1  0.49100754  0.75649673  0.13556999  1
  O  O238  1  0.50271472  0.76440102  0.63775923  1
  O  O239  1  0.99574149  0.24793054  0.13099943  1
  O  O240  1  0.98359889  0.25579876  0.62100770  1
  O  O241  1  0.99824694  0.74581046  0.12673533  1
  O  O242  1  0.99023598  0.75643857  0.63604076  1
  O  O243  1  0.00049537  0.25770712  0.36659296  1
  O  O244  1  -0.00395860  0.26095407  0.87496932  1
  O  O245  1  0.01332296  0.75766621  0.37165268  1
  O  O246  1  -0.00005900  0.76127321  0.86209090  1
  O  O247  1  0.50911027  0.25778238  0.37956927  1
  O  O248  1  0.51246822  0.24263759  0.86036196  1
  O  O249  1  0.50610033  0.75817286  0.36482267  1
  O  O250  1  0.50975294  0.76322812  0.86776548  1
  O  O251  1  0.24602000  0.12755788  0.49066449  1
  O  O252  1  0.25396713  0.11147391  0.99869128  1
  O  O253  1  0.24430095  0.63649718  0.49733967  1
  O  O254  1  0.24576491  0.62927466  0.99318266  1
  O  O255  1  0.75491674  0.13549115  0.49029875  1
  O  O256  1  0.74119659  0.13339097  1.00954812  1
  O  O257  1  0.75462492  0.61408155  0.49592350  1
  O  O258  1  0.74013553  0.63149689  0.99330874  1
  O  O259  1  0.24826586  0.37749940  0.01113361  1
  O  O260  1  0.25343792  0.36917731  0.50475585  1
  O  O261  1  0.25666189  0.86738413  -0.00092478  1
  O  O262  1  0.25728511  0.87141550  0.50458075  1
  O  O263  1  0.75263284  0.36070582  0.01754262  1
  O  O264  1  0.75493802  0.37118861  0.50833656  1
  O  O265  1  0.74544185  0.86602448  0.01018968  1
  O  O266  1  0.76702552  0.87854532  0.49904285  1
  O  O267  1  0.13321955  0.50469106  0.24218221  1
  O  O268  1  0.13119713  0.49256845  0.74017580  1
  O  O269  1  0.14021718  0.99994647  0.24945467  1
  O  O270  1  0.13292187  0.99245387  0.74250085  1
  O  O271  1  0.63049144  0.50299593  0.25263477  1
  O  O272  1  0.63544147  0.49270470  0.74870435  1
  O  O273  1  0.62502352  0.98893422  0.24415657  1
  O  O274  1  0.63658823  0.99722659  0.74411299  1
  O  O275  1  0.36566622  -0.00008854  0.25584037  1
  O  O276  1  0.36816478  0.00672617  0.74390921  1
  O  O277  1  0.35945114  0.50955766  0.25352880  1
  O  O278  1  0.35926361  0.49984861  0.74641614  1
  O  O279  1  0.87412443  0.01582336  0.25268317  1
  O  O280  1  0.86201028  0.01062210  0.74273804  1
  O  O281  1  0.86864877  0.50974286  0.24806334  1
  O  O282  1  0.87363231  0.50728531  0.75211729  1
  O  O283  1  0.10865685  0.37058846  0.38210944  1
  O  O284  1  0.11339180  0.36299565  0.87271887  1
  O  O285  1  0.11771845  0.86863737  0.37416717  1
  O  O286  1  0.12688982  0.87274852  0.85992460  1
  O  O287  1  0.61011175  0.36625512  0.37810829  1
  O  O288  1  0.63535745  0.36321299  0.85815836  1
  O  O289  1  0.62063227  0.86864860  0.36676570  1
  O  O290  1  0.62146066  0.86823785  0.86843440  1
  O  O291  1  0.38626528  0.13275927  0.13156370  1
  O  O292  1  0.38276238  0.12883392  0.63287229  1
  O  O293  1  0.37174783  0.63692484  0.13601752  1
  O  O294  1  0.33210116  0.63886185  0.64135787  1
  O  O295  1  0.88202267  0.13799286  0.13529567  1
  O  O296  1  0.87318826  0.13662983  0.62650821  1
  O  O297  1  0.87626021  0.62569856  0.13565518  1
  O  O298  1  0.87995465  0.63181196  0.64002470  1
  O  O299  1  0.25209759  0.26329243  0.12750938  1
  O  O300  1  0.25191498  0.25380305  0.62115865  1
  O  O301  1  0.25899116  0.74995406  0.11318342  1
  O  O302  1  0.24031846  0.76786041  0.60994079  1
  O  O303  1  0.75927349  0.25298808  0.12207810  1
  O  O304  1  0.75559380  0.25631517  0.61936021  1
  O  O305  1  0.74845999  0.75668140  0.11493038  1
  O  O306  1  0.77215663  0.75787895  0.63713605  1
  O  O307  1  0.24981709  0.24317993  0.37946457  1
  O  O308  1  0.23695617  0.24042659  0.87146783  1
  O  O309  1  0.23676827  0.75768643  0.38463799  1
  O  O310  1  0.25436182  0.74044535  0.88724680  1
  O  O311  1  0.74249442  0.24606918  0.38303582  1
  O  O312  1  0.74899011  0.25178887  0.88885015  1
  O  O313  1  0.73670447  0.75464675  0.36827989  1
  O  O314  1  0.74432393  0.74922517  0.87905142  1
  O  O315  1  -0.00047285  0.12293572  0.01647278  1
  O  O316  1  0.01192479  0.12596741  0.49424987  1
  O  O317  1  0.00712365  0.61649386  -0.00227495  1
  O  O318  1  0.00582910  0.61413416  0.49962771  1
  O  O319  1  0.50887299  0.12059927  0.00822860  1
  O  O320  1  0.49499404  0.11987028  0.51405867  1
  O  O321  1  0.51489610  0.63462748  -0.00167395  1
  O  O322  1  0.49623144  0.61396524  0.49687175  1
  O  O323  1  0.49246379  0.38161725  0.49454538  1
  O  O324  1  0.50923543  0.38943594  1.00336029  1
  O  O325  1  0.49241313  0.88050156  0.49580099  1
  O  O326  1  0.49498010  0.87951255  0.99319589  1
  O  O327  1  0.99139299  0.38335869  0.49499235  1
  O  O328  1  0.99636945  0.38130237  0.98801910  1
  O  O329  1  0.99158723  0.87741884  0.48644935  1
  O  O330  1  1.00546211  0.86894667  0.98057345  1
  O  O331  1  0.49478508  0.49194847  0.38452926  1
  O  O332  1  0.50854987  0.50371536  0.87192343  1
  O  O333  1  0.49715195  0.99468132  0.38096125  1
  O  O334  1  0.50733886  0.98765720  0.87929400  1
  O  O335  1  1.00236742  0.49222916  0.38659985  1
  O  O336  1  0.99921356  0.49186601  0.88335619  1
  O  O337  1  0.99389055  0.99529732  0.37479276  1
  O  O338  1  1.00186702  0.97986286  0.87391078  1
  O  O339  1  0.02137453  0.01467189  0.14668709  1
  O  O340  1  0.01348692  -0.00585066  0.62326526  1
  O  O341  1  0.00621029  0.49600873  0.11230581  1
  O  O342  1  0.01327034  0.49144540  0.61581642  1
  O  O343  1  0.50482847  0.00486545  0.11794683  1
  O  O344  1  0.51191117  0.00738583  0.62219334  1
  O  O345  1  0.51302543  0.49422179  0.13935624  1
  O  O346  1  0.49873818  0.49904540  0.60952996  1
  O  O347  1  0.25116577  0.38973570  0.24065152  1
  O  O348  1  0.24509190  0.37814534  0.74165715  1
  O  O349  1  0.24971306  0.88284176  0.25001723  1
  O  O350  1  0.24558431  0.87616633  0.74099928  1
  O  O351  1  0.75860436  0.37855016  0.23722096  1
  O  O352  1  0.74868084  0.37933391  0.74441394  1
  O  O353  1  0.73592726  0.87556675  0.24534901  1
  O  O354  1  0.74324496  0.88767880  0.74876309  1
  O  O355  1  0.25232699  0.11867775  0.26381163  1
  O  O356  1  0.26226601  0.11234138  0.74385662  1
  O  O357  1  0.25349463  0.61030328  0.24375265  1
  O  O358  1  0.23452121  0.61071286  0.76775361  1
  O  O359  1  0.75883294  0.12665857  0.25857896  1
  O  O360  1  0.75670137  0.11317695  0.74867671  1
  O  O361  1  0.76274137  0.61363761  0.25103893  1
  O  O362  1  0.76035288  0.61826325  0.75588844  1
  O  O363  1  0.36946213  0.11930883  0.37513935  1
  O  O364  1  0.38806062  0.12729400  0.85967852  1
  O  O365  1  0.37342323  0.62741390  0.36099592  1
  O  O366  1  0.36543952  0.62942173  0.86397111  1
  O  O367  1  0.86655035  0.12499407  0.36969534  1
  O  O368  1  0.87900145  0.12729436  0.86098515  1
  O  O369  1  0.88596210  0.62478377  0.36021032  1
  O  O370  1  0.87168921  0.61964744  0.86584111  1
  O  O371  1  0.13252556  0.38327347  0.11947941  1
  O  O372  1  0.13407002  0.37865984  0.62318696  1
  O  O373  1  0.12776246  0.88459857  0.12831348  1
  O  O374  1  0.13122431  0.88348282  0.62949346  1
  O  O375  1  0.63085468  0.37119458  0.13415829  1
  O  O376  1  0.63683985  0.37661339  0.63465411  1
  O  O377  1  0.63035049  0.87687727  0.13184514  1
  O  O378  1  0.63048282  0.88492203  0.63319183  1
  O  O379  1  0.11315583  0.24767958  0.25128440  1
  O  O380  1  0.12235692  0.24839674  0.76389622  1
  O  O381  1  0.12633689  0.74823639  0.25741748  1
  O  O382  1  0.11695100  0.75653353  0.73833854  1
  O  O383  1  0.62880222  0.24805219  0.26217217  1
  O  O384  1  0.62079122  0.25505116  0.75101538  1
  O  O385  1  0.61892682  0.75333634  0.25621813  1
  O  O386  1  0.62195706  0.76259861  0.75497751  1
  O  O387  1  0.37072599  0.25061026  0.23359503  1
  O  O388  1  0.38326042  0.24159136  0.74246366  1
  O  O389  1  0.37928411  0.74555046  0.24350429  1
  O  O390  1  0.39320590  0.76283146  0.75184597  1
  O  O391  1  0.88168607  0.24290136  0.24611732  1
  O  O392  1  0.86857874  0.23459758  0.73739851  1
  O  O393  1  0.87622352  0.73455171  0.24887238  1
  O  O394  1  0.88760614  0.74249657  0.74620663  1
  O  O395  1  0.38096469  0.49508343  0.49863898  1
  O  O396  1  0.38009314  0.49479643  1.01395833  1
  O  O397  1  0.38155494  0.99375083  0.49539436  1
  O  O398  1  0.38008883  0.99267594  1.00024322  1
  O  O399  1  0.88139382  0.49260966  0.50517718  1
  O  O400  1  0.88214848  0.49996693  0.99376998  1
  O  O401  1  0.87873489  0.99463135  0.49156907  1
  O  O402  1  0.89637568  0.99061877  1.05018287  1
  O  O403  1  0.11663214  0.00237028  0.01114644  1
  O  O404  1  0.12410222  0.00796087  0.50779953  1
  O  O405  1  0.11690981  0.50296408  0.00493037  1
  O  O406  1  0.11853266  0.50723364  0.50546005  1
  O  O407  1  0.62059449  0.00586779  0.00477253  1
  O  O408  1  0.61875793  -0.00689346  0.50843754  1
  O  O409  1  0.62161656  0.52229185  -0.00044188  1
  O  O410  1  0.60992834  0.50051746  0.50195258  1
  O  O411  1  0.35938535  0.36792050  0.12162468  1
  O  O412  1  0.35883466  0.36553120  0.61673624  1
  O  O413  1  0.37394790  0.86606687  0.11242476  1
  O  O414  1  0.36739968  0.88199557  0.61193931  1
  O  O415  1  0.87130355  0.36390020  0.12351023  1
  O  O416  1  0.86639263  0.36620640  0.61959460  1
  O  O417  1  0.85554176  0.86344659  0.14558071  1
  O  O418  1  0.87788070  0.87068925  0.61519309  1
  O  O419  1  0.13393756  0.12681504  0.38351493  1
  O  O420  1  0.11749373  0.13229831  0.87551387  1
  O  O421  1  0.12085638  0.63263181  0.38815754  1
  O  O422  1  0.13295688  0.61898470  0.88925284  1
  O  O423  1  0.63622555  0.13168732  0.37336006  1
  O  O424  1  0.62331816  0.12771997  0.88720289  1
  O  O425  1  0.62388293  0.64150973  0.38022671  1
  O  O426  1  0.63404709  0.64077895  0.87238820  1
