# generated using pymatgen
data_V85Zn86O256
_symmetry_space_group_name_H-M   'P 1'
_cell_length_a   16.92379262
_cell_length_b   16.92102396
_cell_length_c   16.93034239
_cell_angle_alpha   90.03340788
_cell_angle_beta   90.02992035
_cell_angle_gamma   89.94568923
_symmetry_Int_Tables_number   1
_chemical_formula_structural   V85Zn86O256
_chemical_formula_sum   'V85 Zn86 O256'
_cell_volume   4848.30294099
_cell_formula_units_Z   1
loop_
 _symmetry_equiv_pos_site_id
 _symmetry_equiv_pos_as_xyz
  1  'x, y, z'
loop_
 _atom_site_type_symbol
 _atom_site_label
 _atom_site_symmetry_multiplicity
 _atom_site_fract_x
 _atom_site_fract_y
 _atom_site_fract_z
 _atom_site_occupancy
  V  V0  1  0.00149282  0.61960603  0.12565651  1
  V  V1  1  -0.00378560  0.63107978  0.64085348  1
  V  V2  1  0.87512117  0.49563353  0.37701092  1
  V  V3  1  0.24619154  0.87697280  0.12463632  1
  V  V4  1  0.24953469  0.87657856  0.62404230  1
  V  V5  1  0.87270831  0.37055119  0.00438908  1
  V  V6  1  0.12647895  0.50718844  0.62373963  1
  V  V7  1  0.38035886  0.24382909  0.62953190  1
  V  V8  1  0.49274388  0.62657241  0.63151156  1
  V  V9  1  0.38089911  0.87263298  0.49832240  1
  V  V10  1  0.37475188  0.36934101  0.50025244  1
  V  V11  1  0.75261158  0.74694859  0.00153758  1
  V  V12  1  0.25060312  0.36035138  0.11903486  1
  V  V13  1  0.75092796  0.13494293  0.88297387  1
  V  V14  1  0.87026995  0.13009476  0.25002989  1
  V  V15  1  0.62751916  0.37310972  0.25218693  1
  V  V16  1  0.37748769  0.49650764  0.37427961  1
  V  V17  1  0.75637959  0.37632033  0.63091403  1
  V  V18  1  0.00541561  0.50263416  0.50132218  1
  V  V19  1  0.49926976  0.76082242  0.25232696  1
  V  V20  1  0.74567361  -0.00148175  0.25704983  1
  V  V21  1  0.07952592  0.68364715  0.43853662  1
  V  V22  1  0.24978094  0.00685336  0.75066536  1
  V  V23  1  0.37710073  -0.01169644  0.37036871  1
  V  V24  1  0.11754145  0.74954398  0.87032065  1
  V  V25  1  0.38345034  -0.00043174  0.87295996  1
  V  V26  1  0.74507323  0.87419817  0.13166899  1
  V  V27  1  0.62077703  0.87857663  0.75843730  1
  V  V28  1  0.74529703  0.75273001  0.50230214  1
  V  V29  1  0.25378981  0.49497612  0.24404836  1
  V  V30  1  0.75064252  0.24957908  0.49578570  1
  V  V31  1  0.25009447  0.74967394  0.49937502  1
  V  V32  1  0.12879302  0.24847616  0.88887162  1
  V  V33  1  0.00153579  -0.00086599  0.49815483  1
  V  V34  1  0.00059367  0.13305431  0.62510119  1
  V  V35  1  0.50311697  0.49875260  0.50178875  1
  V  V36  1  0.37866767  0.50447999  0.87200374  1
  V  V37  1  0.74460590  0.00549245  0.74822231  1
  V  V38  1  0.87300625  0.74877371  0.64004130  1
  V  V39  1  0.75359251  0.35675751  0.12277570  1
  V  V40  1  0.37779476  0.62480979  0.24548559  1
  V  V41  1  0.87903935  0.00325996  0.87943622  1
  V  V42  1  0.50090455  0.36619628  0.87094968  1
  V  V43  1  0.50293691  0.37056303  0.37366410  1
  V  V44  1  0.11772174  0.87531412  0.74965792  1
  V  V45  1  0.87813576  0.87975589  0.00260085  1
  V  V46  1  0.12734399  0.37608974  0.75175355  1
  V  V47  1  0.87499703  0.13016009  0.74838876  1
  V  V48  1  0.37849270  0.12163325  0.24517211  1
  V  V49  1  0.12134661  0.62313421  -0.00211237  1
  V  V50  1  0.49334407  0.75313418  0.75909871  1
  V  V51  1  -0.00476444  0.12527498  0.11239958  1
  V  V52  1  0.37454671  0.36605937  -0.00233197  1
  V  V53  1  0.61921797  -0.00048749  0.13241966  1
  V  V54  1  0.00148961  0.38402634  0.88506614  1
  V  V55  1  0.74612434  0.62533226  0.37314417  1
  V  V56  1  0.25002816  0.62108939  0.38150069  1
  V  V57  1  0.50478169  -0.00064798  0.00084869  1
  V  V58  1  0.87363376  0.00243449  0.37618506  1
  V  V59  1  0.62568230  0.13215228  0.00674222  1
  V  V60  1  -0.00086236  0.25326791  0.75111312  1
  V  V61  1  0.12476464  0.49450235  0.11704129  1
  V  V62  1  0.74366228  0.88131130  0.62625188  1
  V  V63  1  0.12458070  0.00684177  0.62433773  1
  V  V64  1  0.88479048  0.75304288  0.13332037  1
  V  V65  1  0.87824842  0.37169295  0.50573474  1
  V  V66  1  0.62000125  0.76105762  0.37075231  1
  V  V67  1  0.50090371  0.00709852  0.50590920  1
  V  V68  1  0.24514486  0.12911271  0.37390289  1
  V  V69  1  0.25511549  0.50808136  0.74946085  1
  V  V70  1  0.50201231  0.24256445  0.24236877  1
  V  V71  1  0.75213503  0.62515692  0.86166665  1
  V  V72  1  0.87217774  0.50601472  0.87180371  1
  V  V73  1  0.00891301  0.24180197  0.25530408  1
  V  V74  1  0.62306771  0.62386161  0.50027303  1
  V  V75  1  0.62815553  0.62148395  0.00171718  1
  V  V76  1  0.25077985  0.75017642  -0.00317560  1
  V  V77  1  0.11533265  0.00087505  0.11184233  1
  V  V78  1  0.62665080  0.36450260  0.75034405  1
  V  V79  1  -0.00155158  0.87736084  0.87527685  1
  V  V80  1  0.88749353  0.62482534  0.25154806  1
  V  V81  1  0.75325746  0.49936774  0.24307863  1
  V  V82  1  0.62864372  0.50124884  0.63800501  1
  V  V83  1  0.38260840  0.87352007  -0.00577220  1
  V  V84  1  0.24818968  0.12902173  0.88956517  1
  Zn  Zn85  1  0.62465607  0.49760823  0.12301376  1
  Zn  Zn86  1  0.38132348  0.13147696  0.75383287  1
  Zn  Zn87  1  0.37317920  0.74724848  0.63013906  1
  Zn  Zn88  1  0.01059485  0.35751816  0.38463973  1
  Zn  Zn89  1  0.63128294  0.23477222  0.37279825  1
  Zn  Zn90  1  0.10865205  0.86250536  0.25406369  1
  Zn  Zn91  1  0.25372251  0.62788330  0.87037174  1
  Zn  Zn92  1  0.37602864  0.23833415  0.11744902  1
  Zn  Zn93  1  0.11656346  0.13793605  0.48653488  1
  Zn  Zn94  1  0.37767162  0.74821418  0.12102277  1
  Zn  Zn95  1  -0.00105857  0.86147765  0.36742467  1
  Zn  Zn96  1  0.62555975  0.24882517  0.87656968  1
  Zn  Zn97  1  0.63739747  0.11461212  0.49973142  1
  Zn  Zn98  1  0.50090104  0.62248287  0.12361036  1
  Zn  Zn99  1  0.87263322  0.87768387  0.50222912  1
  Zn  Zn100  1  0.24337484  0.25054917  0.49896575  1
  Zn  Zn101  1  0.62365161  0.75476561  0.87969388  1
  Zn  Zn102  1  0.51890922  0.12788924  0.63876368  1
  Zn  Zn103  1  0.12966168  0.36341223  0.25201848  1
  Zn  Zn104  1  0.50123415  0.49889574  0.00099810  1
  Zn  Zn105  1  0.25089823  0.37394311  0.62396327  1
  Zn  Zn106  1  0.23956804  -0.00032262  0.25097015  1
  Zn  Zn107  1  0.18537811  0.17701734  0.18452768  1
  Zn  Zn108  1  0.19118722  0.19165172  0.68700441  1
  Zn  Zn109  1  0.18752915  0.68511994  0.18496779  1
  Zn  Zn110  1  0.18516291  0.68837394  0.68588435  1
  Zn  Zn111  1  0.68602437  0.18231674  0.19024198  1
  Zn  Zn112  1  0.69162866  0.18988798  0.67877754  1
  Zn  Zn113  1  0.68842672  0.68789168  0.18818711  1
  Zn  Zn114  1  0.67909862  0.69306394  0.68775749  1
  Zn  Zn115  1  0.31598406  0.30828497  0.30884707  1
  Zn  Zn116  1  0.31218648  0.31378290  0.81131754  1
  Zn  Zn117  1  0.28028124  0.79706964  0.29670133  1
  Zn  Zn118  1  0.30876852  0.81682067  0.81248821  1
  Zn  Zn119  1  0.81883798  0.31243388  0.31351454  1
  Zn  Zn120  1  0.81425536  0.31737469  0.81320834  1
  Zn  Zn121  1  0.81697603  0.81505718  0.31462142  1
  Zn  Zn122  1  0.80830198  0.81565042  0.81490808  1
  Zn  Zn123  1  0.18569016  0.43260130  0.43459583  1
  Zn  Zn124  1  0.19323304  0.43608279  0.93716373  1
  Zn  Zn125  1  0.18476255  0.93878876  0.43341209  1
  Zn  Zn126  1  0.18947268  0.93887671  0.93713671  1
  Zn  Zn127  1  0.68918445  0.43528810  0.43895511  1
  Zn  Zn128  1  0.69228237  0.43774245  0.93566594  1
  Zn  Zn129  1  0.68355336  0.93775976  0.43548641  1
  Zn  Zn130  1  0.69255695  0.94162077  0.93897561  1
  Zn  Zn131  1  0.31231263  0.05743580  0.06273571  1
  Zn  Zn132  1  0.31272585  0.06357043  0.55802060  1
  Zn  Zn133  1  0.31289657  0.55861026  0.05762098  1
  Zn  Zn134  1  0.31436459  0.55904129  0.56213091  1
  Zn  Zn135  1  0.81008664  0.06296217  0.06684200  1
  Zn  Zn136  1  0.81553394  0.06526279  0.56681758  1
  Zn  Zn137  1  0.81783348  0.55746458  0.05786252  1
  Zn  Zn138  1  0.81198758  0.56227605  0.56739187  1
  Zn  Zn139  1  0.43987823  0.43407409  0.18145020  1
  Zn  Zn140  1  0.44035027  0.43357280  0.68792090  1
  Zn  Zn141  1  0.43304624  0.93513238  0.18316882  1
  Zn  Zn142  1  0.43681046  0.93764471  0.68629547  1
  Zn  Zn143  1  0.94155127  0.43137318  0.18596671  1
  Zn  Zn144  1  0.93986679  0.44111966  0.68998390  1
  Zn  Zn145  1  0.94086490  0.93821104  0.19282570  1
  Zn  Zn146  1  0.93317358  0.94094404  0.68672052  1
  Zn  Zn147  1  0.06298098  0.04978600  0.30597136  1
  Zn  Zn148  1  0.06372934  0.06458204  0.81705524  1
  Zn  Zn149  1  0.06994470  0.53252077  0.31466349  1
  Zn  Zn150  1  0.06183565  0.56119508  0.81413936  1
  Zn  Zn151  1  0.56199593  0.06114932  0.32173635  1
  Zn  Zn152  1  0.56374647  0.06632573  0.81491224  1
  Zn  Zn153  1  0.56336270  0.56207790  0.31118972  1
  Zn  Zn154  1  0.56238937  0.56446580  0.81590070  1
  Zn  Zn155  1  0.43522754  0.18551532  0.43115330  1
  Zn  Zn156  1  0.44135042  0.18345762  0.93651414  1
  Zn  Zn157  1  0.43626555  0.68748731  0.43634408  1
  Zn  Zn158  1  0.44030940  0.68442628  0.93610182  1
  Zn  Zn159  1  0.93091417  0.18408027  0.43591393  1
  Zn  Zn160  1  0.93698225  0.19503426  0.93453905  1
  Zn  Zn161  1  0.91729064  0.68144104  0.44977353  1
  Zn  Zn162  1  0.93863005  0.68776786  0.93878106  1
  Zn  Zn163  1  0.05639486  0.30905682  0.06702168  1
  Zn  Zn164  1  0.06698842  0.31300530  0.56482624  1
  Zn  Zn165  1  0.06141248  0.81229282  0.06148612  1
  Zn  Zn166  1  0.05773345  0.81690345  0.56799953  1
  Zn  Zn167  1  0.56180598  0.31576475  0.06365836  1
  Zn  Zn168  1  0.56469799  0.30906016  0.56467280  1
  Zn  Zn169  1  0.56280734  0.81135717  0.06619270  1
  Zn  Zn170  1  0.56182061  0.81543967  0.56763064  1
  O  O171  1  0.11156151  0.11106248  0.12328883  1
  O  O172  1  0.11637292  0.12161653  0.62840516  1
  O  O173  1  0.12263210  0.61891162  0.11729423  1
  O  O174  1  0.11721166  0.61372434  0.62876416  1
  O  O175  1  0.63022389  0.11174386  0.11820687  1
  O  O176  1  0.62851696  0.12876720  0.61108142  1
  O  O177  1  0.62980088  0.62323699  0.11254634  1
  O  O178  1  0.61741261  0.61822912  0.62031869  1
  O  O179  1  0.38190761  0.37771794  0.37953615  1
  O  O180  1  0.38204045  0.37913324  0.87852523  1
  O  O181  1  0.36438377  0.88547489  0.38102160  1
  O  O182  1  0.36634266  0.88622839  0.88614164  1
  O  O183  1  0.88358988  0.38318641  0.38296444  1
  O  O184  1  0.88136850  0.38346198  0.88293284  1
  O  O185  1  0.87954658  0.88587421  0.38120060  1
  O  O186  1  0.87691969  0.88330926  0.88173057  1
  O  O187  1  0.26244596  0.00670995  0.37264961  1
  O  O188  1  0.25498096  0.01079295  0.87017627  1
  O  O189  1  0.25745471  0.50363421  0.36630264  1
  O  O190  1  0.25841452  0.50075275  0.86570511  1
  O  O191  1  0.75543679  -0.00758317  0.36453602  1
  O  O192  1  0.76106660  0.01079982  0.86865818  1
  O  O193  1  0.75969613  0.50161106  0.36744113  1
  O  O194  1  0.76290498  0.50986027  0.87608426  1
  O  O195  1  0.24805256  0.48860478  0.12861285  1
  O  O196  1  0.24314440  0.49733410  0.63037609  1
  O  O197  1  0.23486131  0.99437051  0.11940727  1
  O  O198  1  0.24548821  0.99827864  0.63158681  1
  O  O199  1  0.75359180  0.49469133  0.13671153  1
  O  O200  1  0.73996337  0.48996906  0.61927901  1
  O  O201  1  0.74269730  0.99136870  0.13481991  1
  O  O202  1  0.75581500  0.99365634  0.63535554  1
  O  O203  1  -0.00286564  0.35000470  0.24600981  1
  O  O204  1  0.00963542  0.37141290  0.75781062  1
  O  O205  1  -0.00695438  0.85997273  0.25036468  1
  O  O206  1  0.01110193  0.88336842  0.75430231  1
  O  O207  1  0.51005907  0.36966071  0.25389603  1
  O  O208  1  0.51295271  0.37873338  0.75852731  1
  O  O209  1  0.49302738  0.85920808  0.24844766  1
  O  O210  1  0.50797893  0.86560896  0.74403372  1
  O  O211  1  0.49268412  0.13183438  0.25646062  1
  O  O212  1  0.49283435  0.11720164  0.74839091  1
  O  O213  1  0.48708860  0.62561834  0.25040274  1
  O  O214  1  0.50723311  0.64040110  0.74426753  1
  O  O215  1  0.99248696  0.12891435  0.24492541  1
  O  O216  1  0.99552497  0.13369630  0.74780474  1
  O  O217  1  0.99079536  0.61554332  0.24957572  1
  O  O218  1  1.00127342  0.62477360  0.74018210  1
  O  O219  1  0.38214912  0.26003003  0.00040601  1
  O  O220  1  0.37269587  0.25632119  0.50485957  1
  O  O221  1  0.36942551  0.75596206  -0.00522007  1
  O  O222  1  0.36926110  0.75637074  0.50325481  1
  O  O223  1  0.87314432  0.27034945  -0.00821897  1
  O  O224  1  0.87123358  0.26525409  0.49648508  1
  O  O225  1  0.86712040  0.75445847  0.00930203  1
  O  O226  1  0.85618750  0.75535911  0.50962446  1
  O  O227  1  0.12806326  0.25167068  0.49581474  1
  O  O228  1  0.12206797  0.25590029  0.98779927  1
  O  O229  1  0.13204145  0.74844133  0.50543346  1
  O  O230  1  0.13189338  0.74459525  0.99208799  1
  O  O231  1  0.64308823  0.26027472  0.49564824  1
  O  O232  1  0.61882838  0.23583723  1.00178821  1
  O  O233  1  0.62968312  0.74654817  0.49562351  1
  O  O234  1  0.63760451  0.74568452  1.00067468  1
  O  O235  1  0.49873025  0.25407611  0.13882828  1
  O  O236  1  0.48523354  0.24535326  0.61696392  1
  O  O237  1  0.49882055  0.74446951  0.13800520  1
  O  O238  1  0.49901129  0.74237919  0.63484441  1
  O  O239  1  1.00277384  0.23167216  0.13554815  1
  O  O240  1  1.00380625  0.24115022  0.63493380  1
  O  O241  1  0.98905757  0.74060698  0.12029642  1
  O  O242  1  0.98675072  0.74289454  0.62032761  1
  O  O243  1  -0.00157777  0.24319787  0.36152652  1
  O  O244  1  0.00945462  0.26022821  0.86909747  1
  O  O245  1  0.00365300  0.74080116  0.39600822  1
  O  O246  1  0.01077032  0.75723115  0.87796309  1
  O  O247  1  0.50199532  0.25691471  0.36522631  1
  O  O248  1  0.50283152  0.26180678  0.87557199  1
  O  O249  1  0.50543410  0.74363640  0.36203788  1
  O  O250  1  0.50264624  0.74897335  0.86279813  1
  O  O251  1  0.24908331  0.12509195  0.48356423  1
  O  O252  1  0.25229558  0.12376835  0.98810578  1
  O  O253  1  0.25382933  0.62756308  0.49017721  1
  O  O254  1  0.24061454  0.63289699  0.99689591  1
  O  O255  1  0.76232268  0.14724357  0.50653669  1
  O  O256  1  0.74136094  0.11943954  0.99370175  1
  O  O257  1  0.74355047  0.63258680  0.49556168  1
  O  O258  1  0.74832577  0.63227420  0.99598564  1
  O  O259  1  0.25997670  0.37402712  0.00741482  1
  O  O260  1  0.26398542  0.37737574  0.49765065  1
  O  O261  1  0.25663560  0.86906414  0.00446071  1
  O  O262  1  0.25526263  0.86717111  0.50399502  1
  O  O263  1  0.75976628  0.37850556  0.01036580  1
  O  O264  1  0.76075628  0.37290820  0.50648007  1
  O  O265  1  0.75944064  0.86765176  0.00647561  1
  O  O266  1  0.74573748  0.87015070  0.50931861  1
  O  O267  1  0.14352913  0.50507402  0.23111552  1
  O  O268  1  0.13076845  0.49418207  0.74547108  1
  O  O269  1  0.12458913  0.98894183  0.23158229  1
  O  O270  1  0.13164352  0.99637730  0.74667770  1
  O  O271  1  0.63658783  0.49223164  0.25003089  1
  O  O272  1  0.62295191  0.49557764  0.74061306  1
  O  O273  1  0.63259133  1.00420775  0.24432136  1
  O  O274  1  0.63792941  0.99604848  0.75666774  1
  O  O275  1  0.37943701  0.00364022  0.25973880  1
  O  O276  1  0.36536742  -0.00469170  0.75919015  1
  O  O277  1  0.36850086  0.50212587  0.25147994  1
  O  O278  1  0.36582448  0.49070978  0.75709428  1
  O  O279  1  0.86790593  0.00615073  0.25738822  1
  O  O280  1  0.86615033  0.00910764  0.75803555  1
  O  O281  1  0.87191658  0.50209624  0.25780006  1
  O  O282  1  0.88096189  0.49448121  0.77161433  1
  O  O283  1  0.10799112  0.41116482  0.35557383  1
  O  O284  1  0.11966483  0.37216923  0.87111850  1
  O  O285  1  0.11155863  0.88502382  0.37097675  1
  O  O286  1  0.11975512  0.87076194  0.86914277  1
  O  O287  1  0.62262540  0.37479524  0.36299484  1
  O  O288  1  0.62097192  0.37389263  0.86825557  1
  O  O289  1  0.62517246  0.86004407  0.37415137  1
  O  O290  1  0.63430257  0.87513374  0.86308335  1
  O  O291  1  0.37070047  0.12023528  0.13892634  1
  O  O292  1  0.37032981  0.13845979  0.62531255  1
  O  O293  1  0.37383235  0.62603027  0.13163857  1
  O  O294  1  0.38915038  0.62366685  0.62320259  1
  O  O295  1  0.88692129  0.11545266  0.13588723  1
  O  O296  1  0.88406529  0.12433801  0.64140111  1
  O  O297  1  0.88086417  0.62859036  0.13236550  1
  O  O298  1  0.88358782  0.63489399  0.61986987  1
  O  O299  1  0.25048928  0.25738161  0.13040723  1
  O  O300  1  0.26090066  0.25549231  0.62052355  1
  O  O301  1  0.25297362  0.75659963  0.10759968  1
  O  O302  1  0.25199838  0.75306912  0.61589674  1
  O  O303  1  0.75140664  0.25795912  0.13152273  1
  O  O304  1  0.75219032  0.26888736  0.61345782  1
  O  O305  1  0.75862719  0.75621232  0.12165703  1
  O  O306  1  0.75099235  0.75626237  0.61953721  1
  O  O307  1  0.25683791  0.23309383  0.37317273  1
  O  O308  1  0.24494757  0.23661779  0.86880744  1
  O  O309  1  0.25595518  0.73643328  0.39204635  1
  O  O310  1  0.24036567  0.75040480  0.88165856  1
  O  O311  1  0.75182043  0.26006049  0.39082942  1
  O  O312  1  0.75053547  0.23796755  0.87153508  1
  O  O313  1  0.74345484  0.74592128  0.38198555  1
  O  O314  1  0.75195832  0.74300437  0.88594700  1
  O  O315  1  -0.01080925  0.12958032  0.01346433  1
  O  O316  1  -0.00309539  0.11985314  0.50956661  1
  O  O317  1  0.01473776  0.62808259  0.00527948  1
  O  O318  1  0.00932680  0.62180519  0.50173054  1
  O  O319  1  0.50915536  0.10917880  -0.00348844  1
  O  O320  1  0.49338689  0.11094970  0.49897546  1
  O  O321  1  0.51309801  0.62364099  0.00050553  1
  O  O322  1  0.50498105  0.62014109  0.50741098  1
  O  O323  1  0.49314429  0.37740455  0.49434789  1
  O  O324  1  0.49508585  0.37781346  0.99085923  1
  O  O325  1  0.48551465  0.88007926  0.50620575  1
  O  O326  1  0.49522349  0.88370667  1.00122883  1
  O  O327  1  0.99443622  0.38434900  0.50198582  1
  O  O328  1  0.98996333  0.37308054  0.99533478  1
  O  O329  1  0.99492607  0.89170185  0.50627976  1
  O  O330  1  0.98474096  0.86926918  0.99413806  1
  O  O331  1  0.49626175  0.49191221  0.37969381  1
  O  O332  1  0.49329931  0.49101743  0.87501694  1
  O  O333  1  0.48287446  0.99838136  0.38517781  1
  O  O334  1  0.48899567  0.99965606  0.88204138  1
  O  O335  1  0.98481748  0.50979019  0.38822772  1
  O  O336  1  0.99562241  0.48987786  0.87664103  1
  O  O337  1  0.99010690  1.00601253  0.38547271  1
  O  O338  1  0.98677402  0.99679529  0.87167696  1
  O  O339  1  0.00616029  0.00918700  0.12504238  1
  O  O340  1  0.00256231  0.01270370  0.62127835  1
  O  O341  1  0.01348460  0.50438806  0.13075713  1
  O  O342  1  0.00386423  0.51036978  0.61791067  1
  O  O343  1  0.51249105  -0.00795652  0.11940570  1
  O  O344  1  0.48881185  0.00429650  0.60886235  1
  O  O345  1  0.50583495  0.50321718  0.12105058  1
  O  O346  1  0.50805100  0.50649478  0.62223072  1
  O  O347  1  0.25085832  0.37974084  0.24238660  1
  O  O348  1  0.23837461  0.38333853  0.75066515  1
  O  O349  1  0.27403254  0.88792361  0.22543629  1
  O  O350  1  0.23954026  0.88683543  0.74617934  1
  O  O351  1  0.74816094  0.37950997  0.24519188  1
  O  O352  1  0.74383196  0.37512639  0.74229667  1
  O  O353  1  0.75612373  0.88282057  0.24101486  1
  O  O354  1  0.74410294  0.88549858  0.74561230  1
  O  O355  1  0.25737697  0.11934415  0.25695127  1
  O  O356  1  0.25337014  0.11491533  0.75484536  1
  O  O357  1  0.26241604  0.61583106  0.25703783  1
  O  O358  1  0.24672146  0.61274618  0.75000780  1
  O  O359  1  0.76214937  0.11403496  0.24376139  1
  O  O360  1  0.75797077  0.12301775  0.75466480  1
  O  O361  1  0.75740812  0.61536326  0.25379565  1
  O  O362  1  0.74278120  0.63245399  0.76265025  1
  O  O363  1  0.36669738  0.11441423  0.36486219  1
  O  O364  1  0.36469363  0.11843929  0.87470002  1
  O  O365  1  0.36807106  0.61589017  0.36929982  1
  O  O366  1  0.37365853  0.60917128  0.87880104  1
  O  O367  1  0.87348291  0.11254148  0.36420524  1
  O  O368  1  0.87219362  0.12143240  0.86863592  1
  O  O369  1  0.86533116  0.61775622  0.36848954  1
  O  O370  1  0.86983041  0.61463448  0.88166830  1
  O  O371  1  0.13179238  0.37927761  0.12620873  1
  O  O372  1  0.12394313  0.38826479  0.63580516  1
  O  O373  1  0.13121695  0.88019035  0.12210544  1
  O  O374  1  0.12875561  0.88407645  0.63257755  1
  O  O375  1  0.63508335  0.37506226  0.13597236  1
  O  O376  1  0.63036200  0.38187251  0.63279600  1
  O  O377  1  0.63830214  0.88112574  0.12087636  1
  O  O378  1  0.63689064  0.87195895  0.63797935  1
  O  O379  1  0.11309756  0.24441219  0.24924834  1
  O  O380  1  0.11855898  0.25895845  0.75657620  1
  O  O381  1  0.17393815  0.76802860  0.25492490  1
  O  O382  1  0.13121848  0.76201999  0.75841466  1
  O  O383  1  0.62087330  0.25511294  0.25358041  1
  O  O384  1  0.63068192  0.26134362  0.75068506  1
  O  O385  1  0.60956214  0.74165621  0.25682582  1
  O  O386  1  0.61411544  0.76098121  0.75517284  1
  O  O387  1  0.38455211  0.23903214  0.24658670  1
  O  O388  1  0.37236525  0.25283746  0.73350310  1
  O  O389  1  0.38116751  0.74077292  0.24939772  1
  O  O390  1  0.38784457  0.75824913  0.75014101  1
  O  O391  1  0.88132846  0.23426105  0.25411770  1
  O  O392  1  0.89012697  0.24543954  0.75883751  1
  O  O393  1  0.86699424  0.73677970  0.24274621  1
  O  O394  1  0.86835690  0.75349788  0.73962099  1
  O  O395  1  0.38382142  0.49088809  0.49567258  1
  O  O396  1  0.37550106  0.48700584  0.98915045  1
  O  O397  1  0.37853800  0.99232033  0.49065303  1
  O  O398  1  0.38425099  0.99433120  0.99448473  1
  O  O399  1  0.88149806  0.49464455  0.49528182  1
  O  O400  1  0.87497800  0.48725923  0.98674906  1
  O  O401  1  0.87952296  1.00234856  0.49299104  1
  O  O402  1  0.86713073  0.99117470  0.99227376  1
  O  O403  1  0.11941898  -0.00844660  0.01168753  1
  O  O404  1  0.11667970  0.00860985  0.50763696  1
  O  O405  1  0.13340292  0.50732865  0.00888395  1
  O  O406  1  0.11462448  0.49438431  0.50971797  1
  O  O407  1  0.62042695  0.00347417  0.00728944  1
  O  O408  1  0.60355162  -0.00776849  0.49637263  1
  O  O409  1  0.62792922  0.50825292  0.00121601  1
  O  O410  1  0.61986454  0.50300083  0.50743801  1
  O  O411  1  0.36749746  0.37033835  0.11513653  1
  O  O412  1  0.37674641  0.36612965  0.61572132  1
  O  O413  1  0.36977074  0.87279091  0.10720044  1
  O  O414  1  0.36490098  0.87363396  0.61626173  1
  O  O415  1  0.86951641  0.37902806  0.11274320  1
  O  O416  1  0.86927436  0.38559571  0.61798877  1
  O  O417  1  0.86818340  0.86919567  0.11960479  1
  O  O418  1  0.86202920  0.86925108  0.62575676  1
  O  O419  1  0.14181926  0.11264332  0.36937197  1
  O  O420  1  0.13818330  0.13270111  0.87304833  1
  O  O421  1  0.13342374  0.61707675  0.37354577  1
  O  O422  1  0.12609787  0.63241123  0.88027249  1
  O  O423  1  0.62840118  0.12242648  0.38741606  1
  O  O424  1  0.63517479  0.12546462  0.88591426  1
  O  O425  1  0.62968631  0.62974890  0.38113923  1
  O  O426  1  0.63517283  0.62701320  0.88595716  1
