# generated using pymatgen
data_V85Zn86O256
_symmetry_space_group_name_H-M   'P 1'
_cell_length_a   16.92088230
_cell_length_b   16.93224839
_cell_length_c   16.92512488
_cell_angle_alpha   90.00545807
_cell_angle_beta   89.96174105
_cell_angle_gamma   89.95038670
_symmetry_Int_Tables_number   1
_chemical_formula_structural   V85Zn86O256
_chemical_formula_sum   'V85 Zn86 O256'
_cell_volume   4849.19060824
_cell_formula_units_Z   1
loop_
 _symmetry_equiv_pos_site_id
 _symmetry_equiv_pos_as_xyz
  1  'x, y, z'
loop_
 _atom_site_type_symbol
 _atom_site_label
 _atom_site_symmetry_multiplicity
 _atom_site_fract_x
 _atom_site_fract_y
 _atom_site_fract_z
 _atom_site_occupancy
  V  V0  1  0.00233591  0.63616554  0.61937095  1
  V  V1  1  0.24698218  0.49972046  0.25175182  1
  V  V2  1  0.37470997  0.87302493  0.00243161  1
  V  V3  1  0.37509434  0.50012220  0.87641907  1
  V  V4  1  0.49938345  0.00361028  0.00400447  1
  V  V5  1  0.24657925  0.50134127  0.75062272  1
  V  V6  1  0.87342397  0.25567002  0.62065501  1
  V  V7  1  0.62358335  0.38576376  0.74471344  1
  V  V8  1  0.49880635  0.87309749  0.38519135  1
  V  V9  1  0.76270503  0.49739004  0.74875997  1
  V  V10  1  0.24783599  0.75130204  0.50244822  1
  V  V11  1  0.74856937  0.38097069  0.61479518  1
  V  V12  1  0.00016068  0.25142318  0.75282320  1
  V  V13  1  0.63121067  -0.00099027  0.63176289  1
  V  V14  1  0.50347309  0.75849379  0.74984991  1
  V  V15  1  0.62062112  0.62053899  0.01290560  1
  V  V16  1  0.88261791  0.64230476  0.75123697  1
  V  V17  1  0.87383449  0.12474185  0.74747552  1
  V  V18  1  0.25532058  0.88147445  0.62725110  1
  V  V19  1  0.74843534  0.00675897  0.25763007  1
  V  V20  1  0.75231743  0.61653185  0.87677820  1
  V  V21  1  0.50138243  0.13462348  0.62721010  1
  V  V22  1  -0.00140061  0.61892064  0.12314501  1
  V  V23  1  0.37346991  0.37311161  0.00132021  1
  V  V24  1  0.12929238  0.86134022  0.75486038  1
  V  V25  1  0.62482974  0.75248006  0.87387416  1
  V  V26  1  0.49616090  0.24548413  0.23502109  1
  V  V27  1  0.62136482  0.12858394  0.00252988  1
  V  V28  1  0.25121824  0.36994424  0.12667899  1
  V  V29  1  0.24622126  0.37598049  0.62526404  1
  V  V30  1  0.62199436  0.25062669  0.86466178  1
  V  V31  1  0.62841182  0.12763853  0.49248815  1
  V  V32  1  0.24587850  0.63458508  0.87529900  1
  V  V33  1  0.24979429  0.12503713  0.37583603  1
  V  V34  1  0.87609477  0.61844009  0.25524476  1
  V  V35  1  0.24828390  0.12247862  0.86671833  1
  V  V36  1  0.87693913  0.25407390  0.12417003  1
  V  V37  1  0.62286326  0.87763647  0.25167632  1
  V  V38  1  0.73983689  0.38049922  0.12147615  1
  V  V39  1  0.37357960  -0.00131673  0.86832318  1
  V  V40  1  0.12163838  0.49942629  0.12031637  1
  V  V41  1  -0.00325895  0.49225309  0.49452065  1
  V  V42  1  0.37329454  0.37550233  0.49991616  1
  V  V43  1  0.49853364  -0.00030659  0.50243827  1
  V  V44  1  0.87444244  0.12959643  0.25799870  1
  V  V45  1  0.37669078  0.12588700  0.23550933  1
  V  V46  1  0.11467834  0.36755636  0.25448436  1
  V  V47  1  0.24726129  0.24883001  0.50074900  1
  V  V48  1  -0.00105252  0.13053507  0.12812604  1
  V  V49  1  0.37875886  0.13288227  0.75048866  1
  V  V50  1  0.74940771  0.87737642  0.12447954  1
  V  V51  1  0.24063896  0.62606277  0.37981286  1
  V  V52  1  0.11972603  -0.00104956  0.63378260  1
  V  V53  1  0.25004315  -0.00297068  0.24983071  1
  V  V54  1  0.63162787  0.62236196  0.50391891  1
  V  V55  1  0.62810391  0.74869883  0.37813275  1
  V  V56  1  0.37301083  0.50327928  0.37792247  1
  V  V57  1  0.37560930  -0.00386696  0.37823478  1
  V  V58  1  0.25447038  0.24837565  0.00123576  1
  V  V59  1  0.50313782  0.61809845  0.62663114  1
  V  V60  1  0.88245207  -0.01205955  0.37537077  1
  V  V61  1  0.49842942  0.37322987  0.86944939  1
  V  V62  1  0.62017279  0.25641621  0.37124067  1
  V  V63  1  -0.00295268  0.39109173  0.87725504  1
  V  V64  1  0.62365978  0.00493188  0.12440477  1
  V  V65  1  0.38048533  0.75520088  0.61641284  1
  V  V66  1  0.11640189  0.75816230  0.38007218  1
  V  V67  1  0.87767887  0.00153421  0.87545163  1
  V  V68  1  0.74065726  0.49907751  0.25154929  1
  V  V69  1  0.50866676  0.49767290  0.50111423  1
  V  V70  1  0.00052987  0.00000126  -0.00356288  1
  V  V71  1  0.12474301  -0.00373657  0.12497050  1
  V  V72  1  0.86822723  0.85347074  0.52018185  1
  V  V73  1  0.75363651  0.62214200  0.37864937  1
  V  V74  1  0.12550895  0.12612589  -0.00272594  1
  V  V75  1  0.74705944  0.74805965  0.00267024  1
  V  V76  1  0.75043754  0.12656870  0.87536967  1
  V  V77  1  0.87655479  0.75079504  0.12716327  1
  V  V78  1  0.87764062  0.39010608  -0.00161908  1
  V  V79  1  0.75529972  0.25100711  0.48896052  1
  V  V80  1  0.49503705  0.74457069  0.24501281  1
  V  V81  1  0.37628735  0.62636073  0.75002070  1
  V  V82  1  0.12028139  0.63124590  -0.00328706  1
  V  V83  1  0.00327614  0.85820474  0.87291890  1
  V  V84  1  0.50093545  0.50112846  0.01584149  1
  Zn  Zn85  1  0.75089961  0.25453087  -0.00207076  1
  Zn  Zn86  1  -0.00133659  0.75287975  0.25535994  1
  Zn  Zn87  1  0.11573767  0.87863421  0.25799001  1
  Zn  Zn88  1  0.74753405  -0.00613080  0.75136185  1
  Zn  Zn89  1  0.12221500  0.50541936  0.62012721  1
  Zn  Zn90  1  0.11843470  0.24548174  0.37309655  1
  Zn  Zn91  1  0.25055988  0.86957351  0.12691071  1
  Zn  Zn92  1  0.12214628  0.37608217  0.75028734  1
  Zn  Zn93  1  0.75564327  0.84021915  0.65614386  1
  Zn  Zn94  1  0.12301127  0.11817379  0.50068098  1
  Zn  Zn95  1  -0.02123689  0.36212641  0.37656358  1
  Zn  Zn96  1  -0.00093562  -0.00547347  0.49764249  1
  Zn  Zn97  1  0.50424095  0.87737725  0.87333282  1
  Zn  Zn98  1  0.87638909  0.87423923  0.00057450  1
  Zn  Zn99  1  0.12427001  0.25349321  0.87387466  1
  Zn  Zn100  1  0.61543399  0.38065996  0.24118052  1
  Zn  Zn101  1  0.37340872  0.73747146  0.11950742  1
  Zn  Zn102  1  0.49488447  0.37174807  0.37174359  1
  Zn  Zn103  1  0.37661823  0.61899796  0.24215317  1
  Zn  Zn104  1  -0.00089287  0.12530383  0.62266921  1
  Zn  Zn105  1  0.37720258  0.25232459  0.62779194  1
  Zn  Zn106  1  0.24622660  0.75206551  0.00229114  1
  Zn  Zn107  1  0.18798777  0.18584269  0.18616743  1
  Zn  Zn108  1  0.18703828  0.18807984  0.68784059  1
  Zn  Zn109  1  0.18962797  0.68880539  0.19133481  1
  Zn  Zn110  1  0.18662734  0.68789002  0.68376776  1
  Zn  Zn111  1  0.68966186  0.19095899  0.18493547  1
  Zn  Zn112  1  0.68857479  0.18941188  0.68391535  1
  Zn  Zn113  1  0.68642609  0.68861011  0.19236583  1
  Zn  Zn114  1  0.68640152  0.67855101  0.69029928  1
  Zn  Zn115  1  0.31204447  0.31152277  0.31143608  1
  Zn  Zn116  1  0.31039504  0.31115797  0.81295028  1
  Zn  Zn117  1  0.31211047  0.81380761  0.31544157  1
  Zn  Zn118  1  0.31556804  0.81362745  0.80977807  1
  Zn  Zn119  1  0.80635802  0.31000493  0.30532932  1
  Zn  Zn120  1  0.81380869  0.31440153  0.81212939  1
  Zn  Zn121  1  0.80969307  0.81075676  0.31131948  1
  Zn  Zn122  1  0.81125151  0.81416037  0.82228106  1
  Zn  Zn123  1  0.17990416  0.44030961  0.44046545  1
  Zn  Zn124  1  0.18325140  0.44037744  0.93706000  1
  Zn  Zn125  1  0.18995386  0.93466541  0.44581874  1
  Zn  Zn126  1  0.18933899  0.93669767  0.93449025  1
  Zn  Zn127  1  0.81860587  0.44349959  0.43755590  1
  Zn  Zn128  1  0.68496289  0.43924841  0.93796597  1
  Zn  Zn129  1  0.69099675  0.93808841  0.44090411  1
  Zn  Zn130  1  0.68870916  0.93742613  0.93467587  1
  Zn  Zn131  1  0.31062931  0.05894351  0.05820111  1
  Zn  Zn132  1  0.31293468  0.06133686  0.56445044  1
  Zn  Zn133  1  0.31024869  0.56294645  0.06363712  1
  Zn  Zn134  1  0.31332966  0.56514074  0.56250735  1
  Zn  Zn135  1  0.81177630  0.06454586  0.06320252  1
  Zn  Zn136  1  0.81139133  0.06678233  0.55828607  1
  Zn  Zn137  1  0.80951108  0.56233692  0.06647128  1
  Zn  Zn138  1  0.81578914  0.56941472  0.57078143  1
  Zn  Zn139  1  0.43171706  0.43334514  0.18982381  1
  Zn  Zn140  1  0.43463034  0.43683854  0.68751231  1
  Zn  Zn141  1  0.43886967  0.93572434  0.18734308  1
  Zn  Zn142  1  0.44081186  0.94115023  0.68677881  1
  Zn  Zn143  1  0.93250139  0.43822234  0.19191003  1
  Zn  Zn144  1  0.93815176  0.43954558  0.68309241  1
  Zn  Zn145  1  0.93804959  0.93709557  0.19023182  1
  Zn  Zn146  1  0.93763281  0.93059074  0.69216528  1
  Zn  Zn147  1  0.06041734  0.06402220  0.31185701  1
  Zn  Zn148  1  0.06401596  0.06057990  0.80766780  1
  Zn  Zn149  1  0.06135162  0.56168343  0.31497978  1
  Zn  Zn150  1  0.06308272  0.56758171  0.80884369  1
  Zn  Zn151  1  0.56042429  0.06725712  0.31285145  1
  Zn  Zn152  1  0.55794486  0.06506423  0.81345949  1
  Zn  Zn153  1  0.56220594  0.56220033  0.31649411  1
  Zn  Zn154  1  0.56460783  0.56271439  0.81779504  1
  Zn  Zn155  1  0.43554835  0.18545847  0.43522507  1
  Zn  Zn156  1  0.43772496  0.18876847  0.93709692  1
  Zn  Zn157  1  0.43838307  0.68511507  0.43702493  1
  Zn  Zn158  1  0.43862061  0.68530252  0.93907349  1
  Zn  Zn159  1  0.94345985  0.18350933  0.43943401  1
  Zn  Zn160  1  0.93700433  0.19281278  0.93931608  1
  Zn  Zn161  1  0.93552996  0.68554018  0.44485140  1
  Zn  Zn162  1  0.93343206  0.67862699  0.94127324  1
  Zn  Zn163  1  0.06332435  0.31327103  0.05940260  1
  Zn  Zn164  1  0.06156080  0.31422303  0.56003324  1
  Zn  Zn165  1  0.06026383  0.81134814  0.06586566  1
  Zn  Zn166  1  0.05903427  0.81763882  0.55979027  1
  Zn  Zn167  1  0.56027295  0.31083120  0.05603462  1
  Zn  Zn168  1  0.56536063  0.31503560  0.56023152  1
  Zn  Zn169  1  0.56206338  0.81502669  0.06138865  1
  Zn  Zn170  1  0.59654067  0.79587053  0.57979428  1
  O  O171  1  0.11816080  0.11565010  0.12084496  1
  O  O172  1  0.12785651  0.10849092  0.62834725  1
  O  O173  1  0.11751469  0.61818053  0.12242511  1
  O  O174  1  0.10718246  0.62299426  0.63537930  1
  O  O175  1  0.63161712  0.12186764  0.10952670  1
  O  O176  1  0.61793828  0.12288806  0.61473839  1
  O  O177  1  0.63015072  0.62926044  0.11211044  1
  O  O178  1  0.61117056  0.61983532  0.61772273  1
  O  O179  1  0.37147129  0.38568914  0.38191469  1
  O  O180  1  0.38094192  0.37870850  0.87822494  1
  O  O181  1  0.38272094  0.88821969  0.37299642  1
  O  O182  1  0.37717162  0.88351742  0.88072098  1
  O  O183  1  0.86919480  0.38167678  0.36064553  1
  O  O184  1  0.88681981  0.37106617  0.88377736  1
  O  O185  1  0.87253241  0.88677931  0.37164289  1
  O  O186  1  0.88995261  0.88169387  0.87877425  1
  O  O187  1  0.25713210  0.00302621  0.37211484  1
  O  O188  1  0.26111611  0.01096799  0.88082960  1
  O  O189  1  0.25294150  0.50771957  0.37549028  1
  O  O190  1  0.25523960  0.50512655  0.86767642  1
  O  O191  1  0.75547574  -0.00088927  0.36153775  1
  O  O192  1  0.75576847  0.01282844  0.87563279  1
  O  O193  1  0.75184376  0.51473958  0.36824405  1
  O  O194  1  0.74540356  0.51084739  0.86835483  1
  O  O195  1  0.23993837  0.49101290  0.13066586  1
  O  O196  1  0.24904591  0.49511730  0.63176528  1
  O  O197  1  0.24113435  1.00036656  0.13296960  1
  O  O198  1  0.24323081  0.98671316  0.62118131  1
  O  O199  1  0.75200856  0.49060496  0.13508514  1
  O  O200  1  0.75290108  0.49092628  0.63368437  1
  O  O201  1  0.74461667  0.99543533  0.13181269  1
  O  O202  1  0.73587104  1.01006225  0.62656876  1
  O  O203  1  0.01273261  0.38060652  0.25168621  1
  O  O204  1  -0.00269454  0.36968500  0.76050388  1
  O  O205  1  0.00385498  0.86572754  0.24207021  1
  O  O206  1  0.01057485  0.87542438  0.76518240  1
  O  O207  1  0.49807727  0.36059111  0.25027648  1
  O  O208  1  0.50838100  0.38095480  0.75665455  1
  O  O209  1  0.50551328  0.87115816  0.26212210  1
  O  O210  1  0.49914634  0.86242561  0.75130529  1
  O  O211  1  0.49022800  0.13457171  0.25007895  1
  O  O212  1  0.49229694  0.12583381  0.74047748  1
  O  O213  1  0.49887238  0.64159794  0.25903029  1
  O  O214  1  0.49534650  0.62640565  0.74340463  1
  O  O215  1  0.99138652  0.11867853  0.23501844  1
  O  O216  1  0.99045342  0.13268130  0.74770373  1
  O  O217  1  0.99152248  0.62875037  0.24602206  1
  O  O218  1  0.98734083  0.62506580  0.74576701  1
  O  O219  1  0.36275539  0.25556372  -0.00470499  1
  O  O220  1  0.36333824  0.25540460  0.49932539  1
  O  O221  1  0.37692789  0.76110546  -0.00040417  1
  O  O222  1  0.37400768  0.74869178  0.51225254  1
  O  O223  1  0.87273348  0.25792406  0.01057971  1
  O  O224  1  0.86533317  0.24106781  0.50835428  1
  O  O225  1  0.86715402  0.74744712  0.01279378  1
  O  O226  1  0.86713689  0.75481662  0.50587272  1
  O  O227  1  0.13791509  0.24663325  0.50118248  1
  O  O228  1  0.13481401  0.24324711  0.99718805  1
  O  O229  1  0.13366291  0.75440209  0.49162926  1
  O  O230  1  0.12564286  0.73539980  1.00544673  1
  O  O231  1  0.63039347  0.24629417  0.49071943  1
  O  O232  1  0.62622811  0.24376933  0.98610424  1
  O  O233  1  0.60856698  0.73443227  0.48350047  1
  O  O234  1  0.62701011  0.74156015  0.99606667  1
  O  O235  1  0.50190474  0.24991421  0.13572721  1
  O  O236  1  0.49718906  0.23860727  0.61648539  1
  O  O237  1  0.49958073  0.75908733  0.14282391  1
  O  O238  1  0.49826288  0.74342448  0.63159482  1
  O  O239  1  0.99337952  0.24099431  0.11905000  1
  O  O240  1  0.99164061  0.25226509  0.63455108  1
  O  O241  1  0.99113013  0.73808547  0.12557053  1
  O  O242  1  1.00197931  0.73566748  0.61806687  1
  O  O243  1  0.00637764  0.25181263  0.37877978  1
  O  O244  1  0.00004034  0.25345978  0.86293008  1
  O  O245  1  0.01466628  0.74338857  0.38065199  1
  O  O246  1  -0.00311635  0.76059820  0.88402771  1
  O  O247  1  0.50454820  0.24909209  0.36712418  1
  O  O248  1  0.50691152  0.26367197  0.87781772  1
  O  O249  1  0.50237146  0.75812829  0.36811612  1
  O  O250  1  0.50627189  0.74875373  0.86674509  1
  O  O251  1  0.24984934  0.13079982  0.49333311  1
  O  O252  1  0.24670002  0.13143887  0.99134122  1
  O  O253  1  0.25543603  0.63941969  0.49518963  1
  O  O254  1  0.24082695  0.62365452  0.98989200  1
  O  O255  1  0.73855509  0.13835362  0.50305918  1
  O  O256  1  0.74251017  0.12756842  0.99079144  1
  O  O257  1  0.73840457  0.61795419  0.49639095  1
  O  O258  1  0.74423078  0.62668012  0.99365951  1
  O  O259  1  0.25107668  0.36783781  0.00498709  1
  O  O260  1  0.25205904  0.36967259  0.50602374  1
  O  O261  1  0.25977486  0.87356579  -0.00035482  1
  O  O262  1  0.25277881  0.86210258  0.51254134  1
  O  O263  1  0.75768105  0.37716701  0.00412032  1
  O  O264  1  0.75288885  0.37004962  0.50920616  1
  O  O265  1  0.75201682  0.86841159  0.00589110  1
  O  O266  1  0.77141133  0.88283049  0.49865475  1
  O  O267  1  0.12890319  0.49228517  0.24207436  1
  O  O268  1  0.13777108  0.49859894  0.74929750  1
  O  O269  1  0.13223765  1.00035461  0.24258300  1
  O  O270  1  0.12558012  0.98870708  0.73931276  1
  O  O271  1  0.63524757  0.49990092  0.25402759  1
  O  O272  1  0.63455261  0.48964376  0.75567405  1
  O  O273  1  0.63022660  1.00048169  0.24620043  1
  O  O274  1  0.62481139  1.01230807  0.73547666  1
  O  O275  1  0.36999329  0.00571132  0.25627077  1
  O  O276  1  0.38277530  0.00965865  0.76266433  1
  O  O277  1  0.36662224  0.49722299  0.26183718  1
  O  O278  1  0.36456483  0.50609033  0.75428757  1
  O  O279  1  0.86796730  0.00634428  0.25693016  1
  O  O280  1  0.87594571  0.01047724  0.75647199  1
  O  O281  1  0.86294253  0.51412731  0.24526303  1
  O  O282  1  0.86460743  0.50295991  0.75099098  1
  O  O283  1  0.12954322  0.37420397  0.35846098  1
  O  O284  1  0.11087032  0.37474891  0.87405151  1
  O  O285  1  0.12922376  0.86239748  0.37742549  1
  O  O286  1  0.11767845  0.87828416  0.86421212  1
  O  O287  1  0.61848182  0.35879089  0.36729822  1
  O  O288  1  0.61861260  0.36929083  0.86780666  1
  O  O289  1  0.62094859  0.86805264  0.37239842  1
  O  O290  1  0.62319889  0.85762862  0.88358391  1
  O  O291  1  0.36834688  0.11997561  0.13638078  1
  O  O292  1  0.38197538  0.12428083  0.63367140  1
  O  O293  1  0.37605798  0.62343742  0.12856417  1
  O  O294  1  0.38427887  0.63407426  0.62965949  1
  O  O295  1  0.88206534  0.13269712  0.12751270  1
  O  O296  1  0.87323175  0.13460429  0.63335966  1
  O  O297  1  0.88054984  0.63033931  0.13125729  1
  O  O298  1  0.88386852  0.62668399  0.64309064  1
  O  O299  1  0.24400326  0.25767122  0.11495030  1
  O  O300  1  0.25251445  0.25765172  0.61875510  1
  O  O301  1  0.25393532  0.75274158  0.12289160  1
  O  O302  1  0.25928604  0.75579953  0.62108211  1
  O  O303  1  0.75734352  0.26159255  0.12020277  1
  O  O304  1  0.75485601  0.25774938  0.61458952  1
  O  O305  1  0.75499130  0.75585763  0.12255172  1
  O  O306  1  0.70224419  0.75537344  0.61165163  1
  O  O307  1  0.24774774  0.24053089  0.38114844  1
  O  O308  1  0.24637323  0.24244316  0.88207778  1
  O  O309  1  0.24620859  0.74558658  0.38415827  1
  O  O310  1  0.25524566  0.73701431  0.87542587  1
  O  O311  1  0.74017526  0.25235923  0.38343550  1
  O  O312  1  0.74423841  0.24148433  0.87570505  1
  O  O313  1  0.73735055  0.73913953  0.36796364  1
  O  O314  1  0.74372025  0.73877077  0.88398085  1
  O  O315  1  0.00500326  0.11955600  0.00597572  1
  O  O316  1  0.00536505  0.11415653  0.50683629  1
  O  O317  1  0.00622104  0.62281296  0.00993955  1
  O  O318  1  -0.00541527  0.61685786  0.51518909  1
  O  O319  1  0.50951386  0.11818156  -0.00596544  1
  O  O320  1  0.50554431  0.11852909  0.50515878  1
  O  O321  1  0.50852193  0.61323229  -0.00431493  1
  O  O322  1  0.50394011  0.61748815  0.50731912  1
  O  O323  1  0.49229839  0.38179958  0.49904478  1
  O  O324  1  0.49338786  0.38064445  0.99189674  1
  O  O325  1  0.50846053  0.88446759  0.48844088  1
  O  O326  1  0.49264904  0.88392038  0.99680201  1
  O  O327  1  0.99663065  0.38612769  0.49843905  1
  O  O328  1  0.99407867  0.37248349  0.98584808  1
  O  O329  1  0.97419929  0.87933628  0.50893647  1
  O  O330  1  1.00316581  0.88292045  0.99008193  1
  O  O331  1  0.48972050  0.49766054  0.38185603  1
  O  O332  1  0.49373205  0.48943345  0.87909715  1
  O  O333  1  0.49476518  0.99574581  0.38128334  1
  O  O334  1  0.49454362  0.99867404  0.88499987  1
  O  O335  1  1.00103980  0.50033544  0.39077250  1
  O  O336  1  1.00001458  0.48914263  0.87029046  1
  O  O337  1  0.98635509  0.99876788  0.37253022  1
  O  O338  1  0.99809842  0.99993632  0.88512253  1
  O  O339  1  0.00436108  0.00633812  0.11319070  1
  O  O340  1  0.01126885  -0.00141448  0.63067162  1
  O  O341  1  0.00562996  0.51103196  0.13303253  1
  O  O342  1  0.00166477  0.50669052  0.61831284  1
  O  O343  1  0.50651814  -0.00226600  0.11250106  1
  O  O344  1  0.50683050  0.01112236  0.61793987  1
  O  O345  1  0.49757179  0.49014091  0.11490527  1
  O  O346  1  0.49012601  0.50828418  0.61538846  1
  O  O347  1  0.24299696  0.37875861  0.24226871  1
  O  O348  1  0.25020833  0.38304369  0.74297037  1
  O  O349  1  0.24853925  0.88832524  0.25035343  1
  O  O350  1  0.23833021  0.87124347  0.74469955  1
  O  O351  1  0.74153741  0.38275433  0.23876622  1
  O  O352  1  0.74437509  0.38147745  0.74431486  1
  O  O353  1  0.74179926  0.88322546  0.24439795  1
  O  O354  1  0.74817730  0.88078607  0.75965069  1
  O  O355  1  0.25480569  0.11585592  0.25610675  1
  O  O356  1  0.25703013  0.12833095  0.76096541  1
  O  O357  1  0.25142250  0.61647643  0.26166887  1
  O  O358  1  0.25399623  0.61949659  0.75460876  1
  O  O359  1  0.76059919  0.11691872  0.24044334  1
  O  O360  1  0.75881644  0.12588799  0.75717460  1
  O  O361  1  0.75350891  0.61907842  0.25763012  1
  O  O362  1  0.75836728  0.61772313  0.75605551  1
  O  O363  1  0.36513083  0.11450578  0.36837543  1
  O  O364  1  0.37023752  0.12024312  0.86887213  1
  O  O365  1  0.36660651  0.61501613  0.37437462  1
  O  O366  1  0.36802691  0.61870247  0.86997787  1
  O  O367  1  0.87839053  0.11926715  0.35985830  1
  O  O368  1  0.86829677  0.12372828  0.86971469  1
  O  O369  1  0.86583442  0.63565813  0.36681054  1
  O  O370  1  0.86638001  0.62619324  0.86409239  1
  O  O371  1  0.12890470  0.38085540  0.13185632  1
  O  O372  1  0.13675007  0.37737690  0.62732873  1
  O  O373  1  0.12716287  0.88842346  0.12248461  1
  O  O374  1  0.12946409  0.87959533  0.63638363  1
  O  O375  1  0.63616465  0.36967498  0.12047294  1
  O  O376  1  0.63499718  0.36957828  0.63413087  1
  O  O377  1  0.62874794  0.88379959  0.13115553  1
  O  O378  1  0.61960860  0.89993759  0.62222525  1
  O  O379  1  0.12884375  0.26455001  0.24750532  1
  O  O380  1  0.11457626  0.25329420  0.75075104  1
  O  O381  1  0.12714628  0.75163398  0.26866846  1
  O  O382  1  0.12601926  0.76257334  0.74961435  1
  O  O383  1  0.61180678  0.24386177  0.25387575  1
  O  O384  1  0.63066869  0.25912017  0.76018300  1
  O  O385  1  0.61399383  0.75508577  0.25935718  1
  O  O386  1  0.61330340  0.73712573  0.76259708  1
  O  O387  1  0.38599592  0.24064232  0.25324846  1
  O  O388  1  0.37305249  0.23775277  0.74915062  1
  O  O389  1  0.38774428  0.75206082  0.25198214  1
  O  O390  1  0.38420660  0.74368013  0.74213331  1
  O  O391  1  0.86822272  0.24146168  0.23405407  1
  O  O392  1  0.87905977  0.24265695  0.74400324  1
  O  O393  1  0.87081091  0.73979236  0.23924668  1
  O  O394  1  0.87202744  0.74070492  0.75429574  1
  O  O395  1  0.37972581  0.49598570  0.49367967  1
  O  O396  1  0.37978775  0.49224239  0.99345604  1
  O  O397  1  0.38904435  1.00560174  0.49348150  1
  O  O398  1  0.38224959  0.99566325  0.99133635  1
  O  O399  1  0.88647942  0.50440340  0.50659519  1
  O  O400  1  0.87503721  0.48955197  1.00516394  1
  O  O401  1  0.87141899  1.00761091  0.47933623  1
  O  O402  1  0.88419968  0.99990089  0.99506474  1
  O  O403  1  0.12029831  0.00618723  0.00523354  1
  O  O404  1  0.12168317  -0.00675146  0.51725239  1
  O  O405  1  0.12818258  0.50771299  0.01490664  1
  O  O406  1  0.10757166  0.50024847  0.50382184  1
  O  O407  1  0.61829331  0.00819515  0.00114421  1
  O  O408  1  0.61857250  0.01000952  0.50389244  1
  O  O409  1  0.61344286  0.50788979  -0.00361027  1
  O  O410  1  0.60970148  0.50882694  0.49482356  1
  O  O411  1  0.35843126  0.37766478  0.11871257  1
  O  O412  1  0.36338329  0.37382605  0.61917322  1
  O  O413  1  0.37329478  0.87728507  0.11239843  1
  O  O414  1  0.36763028  0.86803937  0.63452952  1
  O  O415  1  0.87047127  0.37010060  0.11920748  1
  O  O416  1  0.86418288  0.36201347  0.63360057  1
  O  O417  1  0.86932724  0.86652831  0.12280823  1
  O  O418  1  0.86562731  0.87002813  0.62556526  1
  O  O419  1  0.13879417  0.12175817  0.37521969  1
  O  O420  1  0.13300587  0.12435685  0.87811704  1
  O  O421  1  0.13625954  0.63327999  0.37479204  1
  O  O422  1  0.13253841  0.61833381  0.88444081  1
  O  O423  1  0.61937044  0.13358934  0.38654812  1
  O  O424  1  0.63065942  0.13196535  0.87890973  1
  O  O425  1  0.63173510  0.62975259  0.38252479  1
  O  O426  1  0.63314537  0.63249631  0.88371619  1
