# generated using pymatgen
data_V85Zn86O256
_symmetry_space_group_name_H-M   'P 1'
_cell_length_a   16.95148406
_cell_length_b   16.94027051
_cell_length_c   16.95666241
_cell_angle_alpha   89.96221656
_cell_angle_beta   90.05254555
_cell_angle_gamma   89.98410056
_symmetry_Int_Tables_number   1
_chemical_formula_structural   V85Zn86O256
_chemical_formula_sum   'V85 Zn86 O256'
_cell_volume   4869.31809723
_cell_formula_units_Z   1
loop_
 _symmetry_equiv_pos_site_id
 _symmetry_equiv_pos_as_xyz
  1  'x, y, z'
loop_
 _atom_site_type_symbol
 _atom_site_label
 _atom_site_symmetry_multiplicity
 _atom_site_fract_x
 _atom_site_fract_y
 _atom_site_fract_z
 _atom_site_occupancy
  V  V0  1  0.62478354  0.87637768  0.24946865  1
  V  V1  1  0.11762955  0.49556193  0.11728740  1
  V  V2  1  0.75061573  -0.00130312  0.74536707  1
  V  V3  1  0.87946759  0.24772837  0.13536064  1
  V  V4  1  0.37471383  0.50016163  0.37531158  1
  V  V5  1  0.62809373  0.25420392  0.87267319  1
  V  V6  1  0.24061625  0.37742288  0.63544579  1
  V  V7  1  0.75356203  0.00340337  0.24777593  1
  V  V8  1  0.18835799  0.18425434  0.82366755  1
  V  V9  1  0.00039653  -0.00422443  -0.00315569  1
  V  V10  1  0.24562160  0.87501896  0.62407307  1
  V  V11  1  0.87073887  0.26511184  0.61964853  1
  V  V12  1  0.37925606  0.87556252  0.50067717  1
  V  V13  1  0.37323311  0.62287865  0.25183190  1
  V  V14  1  0.75175375  0.49718424  0.73968939  1
  V  V15  1  0.12384902  0.86892754  0.76296757  1
  V  V16  1  0.50132187  0.87798214  0.87450402  1
  V  V17  1  0.62661643  0.13616373  0.49432472  1
  V  V18  1  0.25780247  0.24589112  0.01021644  1
  V  V19  1  0.00003397  0.87483287  0.37520840  1
  V  V20  1  0.62536524  0.36550433  0.25344120  1
  V  V21  1  0.87577166  0.62613902  0.74636768  1
  V  V22  1  0.12311423  0.00111322  0.12511243  1
  V  V23  1  0.01521012  0.37129478  0.87954266  1
  V  V24  1  -0.00531356  0.12727448  0.13177902  1
  V  V25  1  0.87413037  0.00345101  0.37196077  1
  V  V26  1  0.62619451  0.00065505  0.62416889  1
  V  V27  1  -0.00051155  0.74890948  0.24386649  1
  V  V28  1  0.12354492  0.13285427  -0.00095314  1
  V  V29  1  0.24978838  0.87478405  0.12459063  1
  V  V30  1  -0.00275846  0.75139234  0.76133316  1
  V  V31  1  -0.00338587  -0.00632917  0.50463581  1
  V  V32  1  0.86519686  0.86170194  0.50154317  1
  V  V33  1  0.62851761  0.38178795  0.73575097  1
  V  V34  1  0.10125338  0.13882719  0.47569090  1
  V  V35  1  0.37408649  0.51487335  0.86956238  1
  V  V36  1  0.37431601  0.12665134  0.75235940  1
  V  V37  1  0.37377680  0.87570184  -0.00031908  1
  V  V38  1  0.24413624  0.25365697  0.49462840  1
  V  V39  1  0.49982519  0.62546455  0.12587857  1
  V  V40  1  0.24346146  0.51210175  0.75593290  1
  V  V41  1  0.50156293  0.37778333  0.87546815  1
  V  V42  1  -0.00249445  0.12440116  0.62798002  1
  V  V43  1  0.01073201  0.49246939  0.49356758  1
  V  V44  1  0.12428168  0.87582447  0.25031855  1
  V  V45  1  0.01127680  0.63215214  0.61844994  1
  V  V46  1  0.74847015  0.13210149  0.37258516  1
  V  V47  1  0.63216939  0.62515972  0.50416980  1
  V  V48  1  0.75491127  0.49932390  0.24864931  1
  V  V49  1  0.12542261  0.63080840  -0.00946265  1
  V  V50  1  0.12515576  0.74180360  0.37675729  1
  V  V51  1  0.37723494  -0.00093692  0.37123843  1
  V  V52  1  0.62657430  0.12578832  0.00040619  1
  V  V53  1  0.76267216  0.25381624  -0.00446139  1
  V  V54  1  0.83203617  0.43934313  0.43101667  1
  V  V55  1  0.37227672  0.37722388  0.50173462  1
  V  V56  1  0.50233553  0.25266588  0.74919520  1
  V  V57  1  0.75025570  0.86883338  0.11919891  1
  V  V58  1  0.87482799  0.12897454  0.74787061  1
  V  V59  1  0.50264723  0.62060870  0.63049089  1
  V  V60  1  0.50018380  0.00232232  0.50019843  1
  V  V61  1  0.49919355  0.12709649  0.62417612  1
  V  V62  1  0.63231604  0.74756424  0.37622442  1
  V  V63  1  0.37427131  0.25209168  0.62423365  1
  V  V64  1  0.87539192  0.86495836  -0.00400830  1
  V  V65  1  0.87608273  0.48882780  0.88923943  1
  V  V66  1  0.11206649  0.36270967  0.26261862  1
  V  V67  1  0.24447447  0.49638314  0.24938191  1
  V  V68  1  0.49382195  0.13278080  0.12484502  1
  V  V69  1  0.37840131  0.74828226  0.62652003  1
  V  V70  1  0.24951827  0.00108265  0.24997017  1
  V  V71  1  0.63391490  0.75134390  0.88067789  1
  V  V72  1  0.25406381  0.12776745  0.37748743  1
  V  V73  1  0.36790374  0.00405415  0.87414130  1
  V  V74  1  0.75404943  0.37563916  0.11852365  1
  V  V75  1  0.24733675  0.74370756  0.50164427  1
  V  V76  1  0.49918760  0.50100342  0.00225951  1
  V  V77  1  0.75124753  0.12727767  0.87300806  1
  V  V78  1  0.87845206  -0.00509827  0.87355624  1
  V  V79  1  0.49951736  0.50169599  0.50465915  1
  V  V80  1  0.49747488  0.74460343  0.75487642  1
  V  V81  1  0.36950545  0.74948341  0.12564232  1
  V  V82  1  0.63294564  0.62859688  0.00267932  1
  V  V83  1  0.49885596  0.75074540  0.25081714  1
  V  V84  1  0.87677624  0.62239365  0.25496324  1
  Zn  Zn85  1  0.50251307  0.87331795  0.37654963  1
  Zn  Zn86  1  0.24538740  0.00055121  0.74985425  1
  Zn  Zn87  1  0.24989611  0.74426510  -0.01609756  1
  Zn  Zn88  1  0.62844433  0.87285004  0.75016446  1
  Zn  Zn89  1  0.75344204  0.26465794  0.49753026  1
  Zn  Zn90  1  0.87228879  0.74665240  0.12073483  1
  Zn  Zn91  1  0.75640050  0.62482976  0.87944297  1
  Zn  Zn92  1  0.50283454  0.36924214  0.37730497  1
  Zn  Zn93  1  -0.00327255  0.61746999  0.11961964  1
  Zn  Zn94  1  0.25340226  0.37064620  0.12964532  1
  Zn  Zn95  1  0.24576282  0.62087390  0.38126209  1
  Zn  Zn96  1  0.36916363  0.13523557  0.24045785  1
  Zn  Zn97  1  0.49530823  0.24938772  0.25752531  1
  Zn  Zn98  1  0.49977835  0.00277288  -0.00001340  1
  Zn  Zn99  1  0.12382838  -0.00248069  0.62161982  1
  Zn  Zn100  1  0.62500064  0.49950675  0.12739918  1
  Zn  Zn101  1  0.62484423  0.00115627  0.12289347  1
  Zn  Zn102  1  0.75579817  0.62646095  0.38056839  1
  Zn  Zn103  1  0.37668908  0.37149097  0.00400481  1
  Zn  Zn104  1  0.12349479  0.50265112  0.62726719  1
  Zn  Zn105  1  0.00872225  0.26030418  0.74986799  1
  Zn  Zn106  1  0.76238610  0.85365931  0.62983134  1
  Zn  Zn107  1  0.18419211  0.18620079  0.18861358  1
  Zn  Zn108  1  0.18381420  0.18407968  0.65956759  1
  Zn  Zn109  1  0.18552733  0.68058452  0.18572889  1
  Zn  Zn110  1  0.18590843  0.68630593  0.81196804  1
  Zn  Zn111  1  0.69010666  0.18661198  0.18329570  1
  Zn  Zn112  1  0.69026084  0.19151095  0.68248419  1
  Zn  Zn113  1  0.68917671  0.68706996  0.18943884  1
  Zn  Zn114  1  0.68557285  0.68162846  0.69402500  1
  Zn  Zn115  1  0.31370000  0.31385281  0.30973445  1
  Zn  Zn116  1  0.31831681  0.32154443  0.81380496  1
  Zn  Zn117  1  0.31104416  0.81282006  0.31429854  1
  Zn  Zn118  1  0.31546056  0.81610951  0.80940219  1
  Zn  Zn119  1  0.81327629  0.30958103  0.30628293  1
  Zn  Zn120  1  0.81793033  0.31705271  0.80700551  1
  Zn  Zn121  1  0.81384510  0.81420468  0.31137184  1
  Zn  Zn122  1  0.81445899  0.81182857  0.81168197  1
  Zn  Zn123  1  0.18285035  0.43745959  0.43721310  1
  Zn  Zn124  1  0.18946551  0.43605717  0.93857105  1
  Zn  Zn125  1  0.18623287  0.93734790  0.43777606  1
  Zn  Zn126  1  0.18958316  0.93794823  0.93926299  1
  Zn  Zn127  1  0.67132134  0.44289620  0.43596782  1
  Zn  Zn128  1  0.68919501  0.44162197  0.93391192  1
  Zn  Zn129  1  0.68733803  0.93984742  0.43647466  1
  Zn  Zn130  1  0.69127929  0.93903285  0.93627838  1
  Zn  Zn131  1  0.31039615  0.06408325  0.05763464  1
  Zn  Zn132  1  0.30997853  0.06374574  0.56073358  1
  Zn  Zn133  1  0.30850877  0.55855686  0.06156572  1
  Zn  Zn134  1  0.31283806  0.56489404  0.57016918  1
  Zn  Zn135  1  0.81313305  0.06113297  0.06163523  1
  Zn  Zn136  1  0.81256407  0.06206090  0.55924568  1
  Zn  Zn137  1  0.81455144  0.56393102  0.06672747  1
  Zn  Zn138  1  0.81752620  0.56748080  0.56850302  1
  Zn  Zn139  1  0.43544905  0.43231497  0.18458546  1
  Zn  Zn140  1  0.43277236  0.43846776  0.68996939  1
  Zn  Zn141  1  0.44086176  0.94348110  0.18474874  1
  Zn  Zn142  1  0.43838675  0.93764624  0.68946939  1
  Zn  Zn143  1  0.93726596  0.43268682  0.18901264  1
  Zn  Zn144  1  0.94428586  0.44278799  0.69200098  1
  Zn  Zn145  1  0.93582013  0.93721293  0.18463222  1
  Zn  Zn146  1  0.93728389  0.93050494  0.68627193  1
  Zn  Zn147  1  0.05609093  0.07522713  0.31855542  1
  Zn  Zn148  1  0.05792122  0.05156933  0.80690921  1
  Zn  Zn149  1  0.06103997  0.55834029  0.31045764  1
  Zn  Zn150  1  0.05497642  0.55457144  0.81360173  1
  Zn  Zn151  1  0.56348118  0.06473115  0.31037535  1
  Zn  Zn152  1  0.56198056  0.06383235  0.81294937  1
  Zn  Zn153  1  0.56455231  0.55927952  0.31383837  1
  Zn  Zn154  1  0.56677747  0.56377944  0.81406994  1
  Zn  Zn155  1  0.43664095  0.19293387  0.43244660  1
  Zn  Zn156  1  0.43940884  0.18716339  0.93611125  1
  Zn  Zn157  1  0.44167091  0.68736750  0.43835201  1
  Zn  Zn158  1  0.43895731  0.68987279  0.94133032  1
  Zn  Zn159  1  0.93129429  0.18682422  0.43860644  1
  Zn  Zn160  1  0.94411607  0.19145169  0.93500223  1
  Zn  Zn161  1  0.94165340  0.68355297  0.43554457  1
  Zn  Zn162  1  0.94296154  0.67807514  0.93498052  1
  Zn  Zn163  1  0.06241790  0.31732141  0.06095010  1
  Zn  Zn164  1  0.05794148  0.31540413  0.56388524  1
  Zn  Zn165  1  0.06300258  0.81128583  0.05835348  1
  Zn  Zn166  1  0.06180445  0.80632775  0.56569053  1
  Zn  Zn167  1  0.56857204  0.31236682  0.06296190  1
  Zn  Zn168  1  0.56153042  0.31333397  0.55865940  1
  Zn  Zn169  1  0.56066911  0.81361827  0.06267814  1
  Zn  Zn170  1  0.59541177  0.79372730  0.58132338  1
  O  O171  1  0.11780774  0.11937821  0.11591146  1
  O  O172  1  0.11080938  0.11881066  0.60562879  1
  O  O173  1  0.12039973  0.61079125  0.12173334  1
  O  O174  1  0.10917542  0.62442576  0.62800840  1
  O  O175  1  0.62073889  0.12356063  0.11442180  1
  O  O176  1  0.62135578  0.11821685  0.61804516  1
  O  O177  1  0.61803185  0.62539394  0.12035553  1
  O  O178  1  0.61022674  0.62447036  0.61808476  1
  O  O179  1  0.37390685  0.38818981  0.38325313  1
  O  O180  1  0.39020427  0.38254370  0.88144092  1
  O  O181  1  0.37780263  0.88181173  0.38210967  1
  O  O182  1  0.38389714  0.88393186  0.87832919  1
  O  O183  1  0.88148229  0.37574571  0.37243225  1
  O  O184  1  0.87261885  0.38626793  0.87849143  1
  O  O185  1  0.87844005  0.88375585  0.38278158  1
  O  O186  1  0.86865996  0.88608450  0.88171876  1
  O  O187  1  0.26433562  -0.00037338  0.37205727  1
  O  O188  1  0.26338640  -0.00391083  0.87071203  1
  O  O189  1  0.25628841  0.50281867  0.37064448  1
  O  O190  1  0.26370090  0.49443854  0.86674400  1
  O  O191  1  0.75609100  0.00483569  0.36678820  1
  O  O192  1  0.75740228  0.00703369  0.86389628  1
  O  O193  1  0.76124756  0.49673907  0.37170961  1
  O  O194  1  0.76155474  0.50315233  0.86938486  1
  O  O195  1  0.23898430  0.49948692  0.13507058  1
  O  O196  1  0.25190180  0.49507223  0.63899308  1
  O  O197  1  0.24417129  0.99670150  0.12922858  1
  O  O198  1  0.24924112  0.98831678  0.62454065  1
  O  O199  1  0.74944582  0.49099367  0.13120699  1
  O  O200  1  0.75322970  0.50222167  0.64067516  1
  O  O201  1  0.74865212  0.99250623  0.13197826  1
  O  O202  1  0.74354990  1.00178450  0.63382842  1
  O  O203  1  0.01255139  0.37342641  0.24872079  1
  O  O204  1  -0.00525437  0.37376534  0.76571286  1
  O  O205  1  0.00332726  0.86913551  0.25537611  1
  O  O206  1  0.01002879  0.86175932  0.74411559  1
  O  O207  1  0.51768318  0.37869496  0.24616743  1
  O  O208  1  0.50601942  0.37267097  0.75659215  1
  O  O209  1  0.50905591  0.87107155  0.24957692  1
  O  O210  1  0.50295616  0.87067236  0.76250412  1
  O  O211  1  0.50300055  0.12547921  0.23415211  1
  O  O212  1  0.49679745  0.13376873  0.74336381  1
  O  O213  1  0.49445982  0.62857991  0.24470082  1
  O  O214  1  0.50389355  0.63238127  0.74397189  1
  O  O215  1  1.00118261  0.11984350  0.23083880  1
  O  O216  1  0.99322893  0.12455820  0.74123186  1
  O  O217  1  0.99394939  0.63191244  0.24712721  1
  O  O218  1  0.99578431  0.63349386  0.74545627  1
  O  O219  1  0.36032686  0.24710970  -0.00672341  1
  O  O220  1  0.36524923  0.25565783  0.50568893  1
  O  O221  1  0.37256762  0.75601798  0.01000049  1
  O  O222  1  0.37280136  0.75950708  0.50390451  1
  O  O223  1  0.86411240  0.24504152  0.00177482  1
  O  O224  1  0.87467596  0.24916599  0.51391235  1
  O  O225  1  0.88504447  0.76198082  -0.00278813  1
  O  O226  1  0.87468921  0.76349229  0.48868062  1
  O  O227  1  0.13154833  0.24337508  0.50703983  1
  O  O228  1  0.13157961  0.23699235  1.00248176  1
  O  O229  1  0.13603958  0.75897111  0.48965162  1
  O  O230  1  0.12942329  0.73629956  1.00381903  1
  O  O231  1  0.63308412  0.23994034  0.50591968  1
  O  O232  1  0.63527474  0.24115709  0.99300714  1
  O  O233  1  0.60960387  0.73556654  0.48447196  1
  O  O234  1  0.61586388  0.74117591  0.99239247  1
  O  O235  1  0.50745027  0.23555533  0.12424878  1
  O  O236  1  0.49383290  0.24618320  0.62851429  1
  O  O237  1  0.48786831  0.74765322  0.13119027  1
  O  O238  1  0.49848017  0.74543472  0.63539833  1
  O  O239  1  0.98532488  0.24410644  0.11461152  1
  O  O240  1  0.99159373  0.24143571  0.62965482  1
  O  O241  1  1.00019614  0.75236609  0.13754897  1
  O  O242  1  1.00127324  0.73784716  0.63452360  1
  O  O243  1  0.03552345  0.17505458  0.39648891  1
  O  O244  1  -0.00181786  0.26257445  0.86693308  1
  O  O245  1  0.00769529  0.75495916  0.36572428  1
  O  O246  1  0.00117028  0.74738737  0.86020026  1
  O  O247  1  0.50454949  0.25542191  0.37366779  1
  O  O248  1  0.50638549  0.25961415  0.87020542  1
  O  O249  1  0.50716556  0.75078049  0.36456809  1
  O  O250  1  0.50313545  0.75827243  0.87121337  1
  O  O251  1  0.24240208  0.13521242  0.49545981  1
  O  O252  1  0.24129126  0.13568293  0.99741994  1
  O  O253  1  0.25586188  0.64033683  0.50191851  1
  O  O254  1  0.23265686  0.62676611  1.00784852  1
  O  O255  1  0.74153056  0.12209253  0.48986288  1
  O  O256  1  0.74537028  0.13124402  0.99216600  1
  O  O257  1  0.73632564  0.61617163  0.50085017  1
  O  O258  1  0.73650561  0.62285711  1.00266746  1
  O  O259  1  0.24717583  0.35428240  -0.00251209  1
  O  O260  1  0.25330192  0.37008216  0.50605502  1
  O  O261  1  0.25573117  0.87189962  0.00844911  1
  O  O262  1  0.26072421  0.87128920  0.50421234  1
  O  O263  1  0.74075032  0.36620629  0.00811691  1
  O  O264  1  0.76098683  0.38461130  0.48394935  1
  O  O265  1  0.76100525  0.88159029  0.00789767  1
  O  O266  1  0.76292506  0.88013283  0.50055545  1
  O  O267  1  0.13025677  0.49485557  0.24208426  1
  O  O268  1  0.13997694  0.50288293  0.75098238  1
  O  O269  1  0.12900485  0.99523535  0.24471658  1
  O  O270  1  0.12501892  0.98553092  0.74300927  1
  O  O271  1  0.63975935  0.49413323  0.24969056  1
  O  O272  1  0.64008881  0.49465246  0.75679909  1
  O  O273  1  0.63133897  0.98785286  0.25034361  1
  O  O274  1  0.63548367  1.00350175  0.74436913  1
  O  O275  1  0.37012018  0.00465295  0.25721400  1
  O  O276  1  0.37064737  0.00804832  0.75465351  1
  O  O277  1  0.36871838  0.50279280  0.25852342  1
  O  O278  1  0.36940326  0.49922576  0.76472460  1
  O  O279  1  0.86494982  -0.00738719  0.25850380  1
  O  O280  1  0.86998720  0.00414114  0.75422031  1
  O  O281  1  0.86435146  0.50579222  0.24460901  1
  O  O282  1  0.86468668  0.50568931  0.75580663  1
  O  O283  1  0.12442297  0.37606764  0.36202220  1
  O  O284  1  0.11482141  0.38068800  0.87361308  1
  O  O285  1  0.11954758  0.86907851  0.36829483  1
  O  O286  1  0.12640432  0.88040393  0.86132314  1
  O  O287  1  0.62523686  0.37684224  0.35758002  1
  O  O288  1  0.61593891  0.37299683  0.86837108  1
  O  O289  1  0.62340323  0.86850628  0.36783571  1
  O  O290  1  0.61871771  0.86985282  0.87658287  1
  O  O291  1  0.39040085  0.12030166  0.12112926  1
  O  O292  1  0.37721993  0.13185826  0.63098213  1
  O  O293  1  0.37859551  0.63184212  0.12989630  1
  O  O294  1  0.38564175  0.64188334  0.62018148  1
  O  O295  1  0.88062504  0.13703852  0.11683880  1
  O  O296  1  0.87888459  0.12534712  0.63439846  1
  O  O297  1  0.87785566  0.62950095  0.13594179  1
  O  O298  1  0.88335565  0.62433668  0.64116476  1
  O  O299  1  0.24986505  0.24617257  0.11262998  1
  O  O300  1  0.25570233  0.25963572  0.61622748  1
  O  O301  1  0.26103264  0.75397550  0.13077645  1
  O  O302  1  0.26334380  0.76364618  0.61590993  1
  O  O303  1  0.76015513  0.25359300  0.11603757  1
  O  O304  1  0.76552312  0.24977553  0.61931715  1
  O  O305  1  0.75164194  0.76483664  0.13031077  1
  O  O306  1  0.70179793  0.76158319  0.61979748  1
  O  O307  1  0.25368426  0.24220875  0.38688694  1
  O  O308  1  0.24792562  0.24824985  0.87576275  1
  O  O309  1  0.24293616  0.74970751  0.38350687  1
  O  O310  1  0.25400709  0.75057285  0.87170523  1
  O  O311  1  0.75841995  0.23563902  0.37675106  1
  O  O312  1  0.74827779  0.24764173  0.87794361  1
  O  O313  1  0.73604022  0.74880399  0.36756607  1
  O  O314  1  0.73726544  0.74846837  0.87161660  1
  O  O315  1  0.00649324  0.11612591  0.00311790  1
  O  O316  1  -0.01046057  0.11185243  0.51684771  1
  O  O317  1  0.01734223  0.62702247  0.00494859  1
  O  O318  1  -0.00597689  0.62081769  0.51432558  1
  O  O319  1  0.50929635  0.12694306  0.00694756  1
  O  O320  1  0.50731276  0.12175991  0.50475625  1
  O  O321  1  0.50647405  0.61904444  0.00723885  1
  O  O322  1  0.50415779  0.61825166  0.50850282  1
  O  O323  1  0.49209749  0.38497999  0.50152327  1
  O  O324  1  0.50504118  0.38381195  0.99320105  1
  O  O325  1  0.48751709  0.88363285  0.49955704  1
  O  O326  1  0.49368358  0.87745433  0.98981591  1
  O  O327  1  1.00056515  0.39244202  0.50349788  1
  O  O328  1  1.00082607  0.36916774  0.98163715  1
  O  O329  1  0.99240043  0.87777284  0.49492674  1
  O  O330  1  0.99363493  0.88854897  1.00473824  1
  O  O331  1  0.49170327  0.49677755  0.38374228  1
  O  O332  1  0.49315361  0.49629051  0.87908610  1
  O  O333  1  0.49026535  1.00046373  0.37866711  1
  O  O334  1  0.49318754  0.99321409  0.87539358  1
  O  O335  1  1.00229632  0.51077814  0.39461171  1
  O  O336  1  0.98442079  0.48759575  0.87208922  1
  O  O337  1  0.99088531  0.99538201  0.38045179  1
  O  O338  1  0.98733930  1.00308294  0.88176838  1
  O  O339  1  0.00226596  0.00669381  0.11583363  1
  O  O340  1  -0.00164181  0.00328206  0.61940132  1
  O  O341  1  0.01382679  0.49687211  0.12769369  1
  O  O342  1  0.00094504  0.51185735  0.61875335  1
  O  O343  1  0.50622193  0.01231827  0.11910816  1
  O  O344  1  0.50402619  0.01029444  0.62183329  1
  O  O345  1  0.50237508  0.50601993  0.11633248  1
  O  O346  1  0.48775252  0.51014091  0.61827067  1
  O  O347  1  0.24259298  0.38684765  0.25206992  1
  O  O348  1  0.25768767  0.38517953  0.74147590  1
  O  O349  1  0.24545588  0.88152480  0.24440246  1
  O  O350  1  0.23787047  0.87448680  0.74056332  1
  O  O351  1  0.74347799  0.37932907  0.24257692  1
  O  O352  1  0.74281240  0.38813607  0.75272011  1
  O  O353  1  0.74330830  0.88337088  0.24358229  1
  O  O354  1  0.74906001  0.88431231  0.74600268  1
  O  O355  1  0.25106987  0.11836119  0.25753766  1
  O  O356  1  0.24754123  0.12872835  0.75367351  1
  O  O357  1  0.25623124  0.61348363  0.25356802  1
  O  O358  1  0.25127189  0.61088466  0.74914229  1
  O  O359  1  0.74104492  0.11158354  0.25585610  1
  O  O360  1  0.75687289  0.11960007  0.75283373  1
  O  O361  1  0.75613060  0.61556725  0.25235149  1
  O  O362  1  0.75606790  0.61602980  0.75439320  1
  O  O363  1  0.36561753  0.11563175  0.37895071  1
  O  O364  1  0.38250392  0.11587969  0.86565918  1
  O  O365  1  0.37478882  0.61479944  0.37132605  1
  O  O366  1  0.38124349  0.61319696  0.87686226  1
  O  O367  1  0.86510892  0.11052157  0.37888141  1
  O  O368  1  0.87199449  0.11937538  0.86410896  1
  O  O369  1  0.87237001  0.63102854  0.36028214  1
  O  O370  1  0.87654852  0.61531295  0.86502351  1
  O  O371  1  0.12990775  0.38457526  0.12995764  1
  O  O372  1  0.13748184  0.37655634  0.62492497  1
  O  O373  1  0.13002798  0.88091609  0.12941865  1
  O  O374  1  0.13386370  0.87466593  0.62740791  1
  O  O375  1  0.63715944  0.37711264  0.13288355  1
  O  O376  1  0.62012734  0.37404683  0.63683181  1
  O  O377  1  0.63106265  0.87742357  0.13047274  1
  O  O378  1  0.61369004  0.89680587  0.63032914  1
  O  O379  1  0.12892366  0.26383582  0.24742480  1
  O  O380  1  0.13179682  0.23414993  0.75484373  1
  O  O381  1  0.12019139  0.75574289  0.25519995  1
  O  O382  1  0.11539953  0.76097096  0.75176163  1
  O  O383  1  0.62810976  0.26375452  0.24429754  1
  O  O384  1  0.62244473  0.25807444  0.75354192  1
  O  O385  1  0.61964302  0.75947994  0.25361868  1
  O  O386  1  0.61209673  0.75162789  0.76446887  1
  O  O387  1  0.37969517  0.24670310  0.25294184  1
  O  O388  1  0.38180504  0.24644070  0.74573825  1
  O  O389  1  0.37881437  0.74452984  0.24603123  1
  O  O390  1  0.38963091  0.75921739  0.73976384  1
  O  O391  1  0.87254680  0.24352594  0.23401652  1
  O  O392  1  0.87316363  0.24008111  0.73913538  1
  O  O393  1  0.88411562  0.74566663  0.24824654  1
  O  O394  1  0.88722037  0.74475568  0.75327786  1
  O  O395  1  0.37972377  0.49935434  0.49490926  1
  O  O396  1  0.38546015  0.50225175  0.98928204  1
  O  O397  1  0.37919594  0.99545460  0.49320236  1
  O  O398  1  0.37610345  0.99450653  0.99103856  1
  O  O399  1  0.88220990  0.50098224  0.49703659  1
  O  O400  1  0.87189162  0.50553236  0.98741172  1
  O  O401  1  0.88239370  0.99179648  0.49278069  1
  O  O402  1  0.88161882  0.99470833  0.99107832  1
  O  O403  1  0.11860679  0.00755436  0.00332776  1
  O  O404  1  0.10676560  0.00486291  0.49604323  1
  O  O405  1  0.13226343  0.50534758  0.01335523  1
  O  O406  1  0.11647789  0.50143289  0.50601691  1
  O  O407  1  0.62627510  0.01549528  -0.00466072  1
  O  O408  1  0.61905752  0.00741002  0.50660456  1
  O  O409  1  0.61365722  0.50907519  -0.00122943  1
  O  O410  1  0.60807134  0.50925708  0.49932893  1
  O  O411  1  0.36604072  0.38291974  0.11552956  1
  O  O412  1  0.36707934  0.37059747  0.61929254  1
  O  O413  1  0.37129531  0.86931123  0.12142666  1
  O  O414  1  0.37250442  0.86962755  0.61831425  1
  O  O415  1  0.86464632  0.36229279  0.12773392  1
  O  O416  1  0.88014533  0.36216844  0.63088014  1
  O  O417  1  0.86770441  0.87345057  0.11415764  1
  O  O418  1  0.87420227  0.87422364  0.60792340  1
  O  O419  1  0.15180788  0.09907791  0.38038427  1
  O  O420  1  0.12605424  0.12057305  0.87788293  1
  O  O421  1  0.12640485  0.63878769  0.36928579  1
  O  O422  1  0.12271493  0.61806327  0.88593207  1
  O  O423  1  0.63431131  0.11762791  0.38457482  1
  O  O424  1  0.63077957  0.13380828  0.87883691  1
  O  O425  1  0.62882360  0.63000874  0.38181448  1
  O  O426  1  0.62559980  0.63424291  0.88584207  1
