# generated using pymatgen
data_V85Zn86O256
_symmetry_space_group_name_H-M   'P 1'
_cell_length_a   16.95217683
_cell_length_b   16.96857090
_cell_length_c   16.97310220
_cell_angle_alpha   90.03833122
_cell_angle_beta   90.05445719
_cell_angle_gamma   89.94172165
_symmetry_Int_Tables_number   1
_chemical_formula_structural   V85Zn86O256
_chemical_formula_sum   'V85 Zn86 O256'
_cell_volume   4882.37855889
_cell_formula_units_Z   1
loop_
 _symmetry_equiv_pos_site_id
 _symmetry_equiv_pos_as_xyz
  1  'x, y, z'
loop_
 _atom_site_type_symbol
 _atom_site_label
 _atom_site_symmetry_multiplicity
 _atom_site_fract_x
 _atom_site_fract_y
 _atom_site_fract_z
 _atom_site_occupancy
  V  V0  1  0.76530816  0.12685303  0.38279190  1
  V  V1  1  0.49718261  0.62187440  0.12606960  1
  V  V2  1  0.00053148  0.37435491  0.87942534  1
  V  V3  1  0.36765743  0.61825175  0.74693274  1
  V  V4  1  0.24942286  0.37443811  0.12491996  1
  V  V5  1  0.12148620  0.24946929  0.87268789  1
  V  V6  1  0.63839641  0.37373991  0.24416506  1
  V  V7  1  -0.05845641  0.68072434  0.57062104  1
  V  V8  1  0.87037209  0.36518649  0.00307722  1
  V  V9  1  0.62874312  0.62553669  0.49516541  1
  V  V10  1  0.75559904  0.00509763  0.25573501  1
  V  V11  1  0.49878761  0.12010360  0.61920712  1
  V  V12  1  0.25080220  0.12070534  0.86077763  1
  V  V13  1  0.63056765  0.11692893  0.49904213  1
  V  V14  1  0.12069165  0.37928989  0.75157297  1
  V  V15  1  0.12584294  0.50927245  0.63353480  1
  V  V16  1  -0.00055573  0.86857968  0.87256752  1
  V  V17  1  -0.00466705  0.24457583  0.25067994  1
  V  V18  1  0.61674798  0.63457491  -0.01311354  1
  V  V19  1  0.37214835  0.75991380  0.11846880  1
  V  V20  1  0.24899425  0.50075414  0.25161465  1
  V  V21  1  0.87404290  0.13924796  0.74238846  1
  V  V22  1  0.49922564  0.24317224  0.75889632  1
  V  V23  1  0.64439600  0.34065251  0.71612101  1
  V  V24  1  0.74685776  0.49992629  0.75179406  1
  V  V25  1  0.25399820  -0.00180725  0.24673798  1
  V  V26  1  0.86147023  0.36415218  0.51605697  1
  V  V27  1  0.75498708  0.75431610  -0.00144481  1
  V  V28  1  0.74746588  0.61930820  0.35883295  1
  V  V29  1  0.24987857  0.62890851  0.37424012  1
  V  V30  1  0.11834889  0.76041741  0.37131428  1
  V  V31  1  0.62735692  0.87579249  0.25460856  1
  V  V32  1  0.49672159  0.12435898  0.12066701  1
  V  V33  1  0.25384099  0.88670833  0.62697165  1
  V  V34  1  0.36698010  0.49316842  0.86776644  1
  V  V35  1  0.37428243  0.50038887  0.37529255  1
  V  V36  1  0.37520920  0.75199163  0.62441434  1
  V  V37  1  -0.00290133  0.49639050  0.50660852  1
  V  V38  1  0.25067884  0.38108437  0.63467256  1
  V  V39  1  0.25151173  0.25309386  0.49906480  1
  V  V40  1  0.49708539  0.24548528  0.25168879  1
  V  V41  1  0.12689478  0.25118988  0.37318611  1
  V  V42  1  0.38338229  0.00414404  0.37439734  1
  V  V43  1  0.88626052  -0.01752250  0.37280770  1
  V  V44  1  0.37589943  0.37503674  0.50288125  1
  V  V45  1  0.62681829  0.87252195  0.75304341  1
  V  V46  1  0.64562044  0.12275751  0.00042358  1
  V  V47  1  0.49738465  0.49800463  -0.00023956  1
  V  V48  1  0.00290713  -0.00208640  -0.00326284  1
  V  V49  1  0.87806485  0.50203171  0.87371268  1
  V  V50  1  0.12506930  0.50504946  0.12140839  1
  V  V51  1  0.63137303  0.24732284  0.38016841  1
  V  V52  1  -0.04529590  0.55067722  0.05610267  1
  V  V53  1  0.00218615  -0.00945034  0.50165577  1
  V  V54  1  0.62399632  -0.00460316  0.62293031  1
  V  V55  1  0.64315525  0.25015097  0.88801134  1
  V  V56  1  0.49853512  0.75026407  0.25450685  1
  V  V57  1  0.62602630  0.00105372  0.12808804  1
  V  V58  1  0.37130503  0.24326987  0.12937154  1
  V  V59  1  0.13368539  0.87611842  0.75891560  1
  V  V60  1  0.38065485  -0.01457554  0.87378007  1
  V  V61  1  0.37388749  0.37244627  0.00068286  1
  V  V62  1  0.86883913  0.00832195  0.87114973  1
  V  V63  1  0.25821686  0.12712565  0.36717521  1
  V  V64  1  -0.00052919  0.37450714  0.37961764  1
  V  V65  1  0.50125030  0.37207809  0.37511513  1
  V  V66  1  0.25342830  0.75563251  0.49798442  1
  V  V67  1  0.86821047  0.49388572  0.36855126  1
  V  V68  1  0.62641326  0.50249044  0.62942465  1
  V  V69  1  0.12489036  0.12478151  0.50029267  1
  V  V70  1  0.12604184  0.62713201  0.50255397  1
  V  V71  1  -0.01021874  0.75318784  0.23219871  1
  V  V72  1  0.12670570  0.12687866  -0.00176379  1
  V  V73  1  0.38908108  0.88162107  0.50045049  1
  V  V74  1  0.50594371  0.36941020  0.87579389  1
  V  V75  1  0.49999530  0.49721617  0.50125635  1
  V  V76  1  0.37518256  0.25085515  0.62890140  1
  V  V77  1  0.49727693  0.62684967  0.62401204  1
  V  V78  1  -0.00207062  0.12486533  0.12640811  1
  V  V79  1  0.50328889  0.75130548  0.75515428  1
  V  V80  1  0.12357438  0.37655243  0.25013157  1
  V  V81  1  0.86554674  0.24609011  0.12486252  1
  V  V82  1  0.87661287  0.63706502  0.74979000  1
  V  V83  1  0.24440762  0.62704065  0.87195873  1
  V  V84  1  0.12408326  0.62918756  -0.00162500  1
  Zn  Zn85  1  0.77443165  0.74914809  0.49311333  1
  Zn  Zn86  1  0.24986639  0.24918055  -0.00030658  1
  Zn  Zn87  1  0.12058721  0.87863612  0.24825036  1
  Zn  Zn88  1  0.00438299  0.74924567  0.74571268  1
  Zn  Zn89  1  0.75051768  -0.00260510  0.74973844  1
  Zn  Zn90  1  0.75966623  0.86199305  0.13345324  1
  Zn  Zn91  1  0.36908483  0.11686039  0.74521611  1
  Zn  Zn92  1  0.37414909  0.62641735  0.24911869  1
  Zn  Zn93  1  0.55322063  0.81791895  0.91767631  1
  Zn  Zn94  1  0.24791604  0.75833691  -0.00958203  1
  Zn  Zn95  1  0.12919040  0.00422195  0.63464879  1
  Zn  Zn96  1  0.62842759  0.49742782  0.13118301  1
  Zn  Zn97  1  0.12670438  -0.00099738  0.12566682  1
  Zn  Zn98  1  0.87901062  0.87187024  0.00399137  1
  Zn  Zn99  1  0.63127516  0.75202340  0.37381890  1
  Zn  Zn100  1  0.49654836  -0.01153134  -0.00271664  1
  Zn  Zn101  1  0.50458696  0.88075904  0.37888883  1
  Zn  Zn102  1  0.78613130  0.85441014  0.62654735  1
  Zn  Zn103  1  0.87518385  0.61976373  0.23355238  1
  Zn  Zn104  1  0.74327794  0.63072139  0.87157864  1
  Zn  Zn105  1  -0.01071196  0.13684125  0.62410825  1
  Zn  Zn106  1  0.24817895  0.88014970  0.11654686  1
  Zn  Zn107  1  0.18451961  0.18496110  0.18760249  1
  Zn  Zn108  1  0.15964377  0.20265227  0.67456570  1
  Zn  Zn109  1  0.18514902  0.68902690  0.18753668  1
  Zn  Zn110  1  0.18866570  0.69531595  0.68848645  1
  Zn  Zn111  1  0.68610488  0.18332029  0.19464666  1
  Zn  Zn112  1  0.69112999  0.17177824  0.69162642  1
  Zn  Zn113  1  0.68269974  0.68588713  0.18190671  1
  Zn  Zn114  1  0.68981413  0.68705751  0.68794581  1
  Zn  Zn115  1  0.31459648  0.31394480  0.31078931  1
  Zn  Zn116  1  0.30715239  0.30811836  0.81254603  1
  Zn  Zn117  1  0.31448537  0.81750819  0.30979343  1
  Zn  Zn118  1  0.31428392  0.80962268  0.81050246  1
  Zn  Zn119  1  0.81502620  0.30860856  0.31738695  1
  Zn  Zn120  1  0.81311065  0.31443122  0.81359228  1
  Zn  Zn121  1  0.81370551  0.80922615  0.31195754  1
  Zn  Zn122  1  0.80824152  0.81763022  0.81894247  1
  Zn  Zn123  1  0.18601230  0.43950817  0.44215792  1
  Zn  Zn124  1  0.18677694  0.44175397  0.94030086  1
  Zn  Zn125  1  0.19398184  0.94081689  0.43679740  1
  Zn  Zn126  1  0.19188067  0.93944630  0.93650072  1
  Zn  Zn127  1  0.68829268  0.43492492  0.43807378  1
  Zn  Zn128  1  0.69430575  0.44266359  0.95952802  1
  Zn  Zn129  1  0.69346016  0.93993374  0.44047784  1
  Zn  Zn130  1  0.68705962  0.93916872  0.94047268  1
  Zn  Zn131  1  0.31263415  0.06066897  0.05608433  1
  Zn  Zn132  1  0.31369567  0.06573674  0.55644329  1
  Zn  Zn133  1  0.31090185  0.56506324  0.06018509  1
  Zn  Zn134  1  0.30956874  0.56148283  0.56126619  1
  Zn  Zn135  1  0.82525760  0.03969928  0.07478532  1
  Zn  Zn136  1  0.82838970  0.02958237  0.57618290  1
  Zn  Zn137  1  0.78838741  0.56020936  0.06259210  1
  Zn  Zn138  1  0.80509585  0.55175680  0.55741324  1
  Zn  Zn139  1  0.43845986  0.43364671  0.18948710  1
  Zn  Zn140  1  0.44684986  0.43257182  0.69209681  1
  Zn  Zn141  1  0.43809208  0.93896249  0.19131995  1
  Zn  Zn142  1  0.43970270  0.93777279  0.69488131  1
  Zn  Zn143  1  0.93300531  0.42595393  0.19160131  1
  Zn  Zn144  1  0.93909458  0.44079844  0.68977706  1
  Zn  Zn145  1  0.93833768  0.93618404  0.18650010  1
  Zn  Zn146  1  0.94694391  0.94162915  0.68857564  1
  Zn  Zn147  1  0.06643734  0.06298107  0.31372968  1
  Zn  Zn148  1  0.05692864  0.06068532  0.80869350  1
  Zn  Zn149  1  0.06073465  0.56474428  0.31215834  1
  Zn  Zn150  1  0.05633478  0.56703036  0.81251942  1
  Zn  Zn151  1  0.56431383  0.06651308  0.31195914  1
  Zn  Zn152  1  0.56427694  0.06106241  0.81513609  1
  Zn  Zn153  1  0.56261896  0.55695616  0.31014470  1
  Zn  Zn154  1  0.55576742  0.55955087  0.81238785  1
  Zn  Zn155  1  0.43942888  0.18577355  0.44038570  1
  Zn  Zn156  1  0.43452996  0.18123379  0.94166771  1
  Zn  Zn157  1  0.43915584  0.68905107  0.43833294  1
  Zn  Zn158  1  0.42791326  0.68244239  0.93653968  1
  Zn  Zn159  1  0.93925184  0.18944112  0.44327373  1
  Zn  Zn160  1  0.93853901  0.18624284  0.93400908  1
  Zn  Zn161  1  0.94624391  0.67636696  0.39685064  1
  Zn  Zn162  1  0.93088592  0.69212328  0.93400684  1
  Zn  Zn163  1  0.05880786  0.31371031  0.06114039  1
  Zn  Zn164  1  0.05912719  0.31254842  0.56507738  1
  Zn  Zn165  1  0.06776516  0.81518595  0.06323366  1
  Zn  Zn166  1  0.07373449  0.81954161  0.56171972  1
  Zn  Zn167  1  0.56285518  0.30743958  0.06249877  1
  Zn  Zn168  1  0.57044445  0.30247778  0.56504785  1
  Zn  Zn169  1  0.56523693  0.81265323  0.07847136  1
  Zn  Zn170  1  0.63976892  0.81074593  0.56156275  1
  O  O171  1  0.11631330  0.12561282  0.11431868  1
  O  O172  1  0.15558232  0.11265444  0.60142794  1
  O  O173  1  0.12840614  0.61326944  0.11906455  1
  O  O174  1  0.13582676  0.61945602  0.61684166  1
  O  O175  1  0.61873640  0.12208147  0.11757382  1
  O  O176  1  0.61654970  0.11753360  0.61691046  1
  O  O177  1  0.60993575  0.62068619  0.11358807  1
  O  O178  1  0.61599420  0.61736598  0.61706369  1
  O  O179  1  0.38039203  0.38037985  0.38188643  1
  O  O180  1  0.37953848  0.37715224  0.87845189  1
  O  O181  1  0.37661066  0.88475830  0.38338684  1
  O  O182  1  0.37265523  0.88626790  0.87194025  1
  O  O183  1  0.88140696  0.37829825  0.38469834  1
  O  O184  1  0.88363134  0.37982255  0.87935940  1
  O  O185  1  0.87552813  0.88476184  0.37760810  1
  O  O186  1  0.88330887  0.88586184  0.88029896  1
  O  O187  1  0.26034296  0.00957256  0.36873150  1
  O  O188  1  0.25847157  0.01590098  0.87550944  1
  O  O189  1  0.25262528  0.50862446  0.37301392  1
  O  O190  1  0.26192033  0.50566004  0.87783441  1
  O  O191  1  0.76646027  0.00503324  0.37471557  1
  O  O192  1  0.76710679  -0.00391117  0.87822623  1
  O  O193  1  0.75780883  0.50407985  0.37715691  1
  O  O194  1  0.75912776  0.50039444  0.86831464  1
  O  O195  1  0.24352750  0.49634009  0.13135479  1
  O  O196  1  0.24023754  0.48938168  0.61817770  1
  O  O197  1  0.25083217  1.00527163  0.13425766  1
  O  O198  1  0.25734475  0.98878204  0.62197170  1
  O  O199  1  0.72034086  0.47648799  0.07161309  1
  O  O200  1  0.73911016  0.50317719  0.63864502  1
  O  O201  1  0.73524890  1.01190726  0.14120065  1
  O  O202  1  0.72740404  1.00540295  0.62727588  1
  O  O203  1  0.00749089  0.36739100  0.25944294  1
  O  O204  1  0.01327481  0.38131805  0.75931831  1
  O  O205  1  0.00018992  0.85896385  0.24579042  1
  O  O206  1  0.00917933  0.87211363  0.75556586  1
  O  O207  1  0.50324518  0.36235957  0.25770945  1
  O  O208  1  0.52097576  0.35751730  0.75208627  1
  O  O209  1  0.50879210  0.86683707  0.25176591  1
  O  O210  1  0.50572080  0.86039668  0.74995696  1
  O  O211  1  0.50846490  0.13876806  0.23858310  1
  O  O212  1  0.49978907  0.13498251  0.74579915  1
  O  O213  1  0.50057339  0.62995570  0.24220278  1
  O  O214  1  0.48844440  0.62618367  0.74199268  1
  O  O215  1  1.00946736  0.13484591  0.24043199  1
  O  O216  1  0.98066576  0.11952901  0.74695686  1
  O  O217  1  0.98970276  0.64462917  0.27127573  1
  O  O218  1  0.98735619  0.63169635  0.74873728  1
  O  O219  1  0.37327537  0.25545755  0.01171256  1
  O  O220  1  0.37110450  0.25685220  0.50809088  1
  O  O221  1  0.37351698  0.74418375  0.01594323  1
  O  O222  1  0.37114278  0.75756209  0.50480578  1
  O  O223  1  0.88662549  0.25766442  0.00944169  1
  O  O224  1  0.88111998  0.26551571  0.50449157  1
  O  O225  1  0.86084831  0.75219674  0.00325314  1
  O  O226  1  0.89078416  0.73124596  0.49871161  1
  O  O227  1  0.13441994  0.24609464  0.48970644  1
  O  O228  1  0.12469300  0.24496045  0.99048503  1
  O  O229  1  0.13304522  0.74737018  0.48987644  1
  O  O230  1  0.12554795  0.73234380  1.00622416  1
  O  O231  1  0.62115931  0.23985739  0.48447789  1
  O  O232  1  0.62649646  0.23563299  0.99721336  1
  O  O233  1  0.60703576  0.72914356  0.48949688  1
  O  O234  1  0.62138738  0.74523858  0.99694558  1
  O  O235  1  0.49156396  0.24381728  0.13176370  1
  O  O236  1  0.49554639  0.24011418  0.63476519  1
  O  O237  1  0.49050721  0.74148008  0.13587116  1
  O  O238  1  0.49308683  0.73365665  0.63322207  1
  O  O239  1  0.99670075  0.24425539  0.13326030  1
  O  O240  1  1.05143834  0.22983046  0.63512531  1
  O  O241  1  1.00231846  0.74494784  0.13485453  1
  O  O242  1  0.99876288  0.74977447  0.61995155  1
  O  O243  1  0.00616622  0.25333644  0.36838706  1
  O  O244  1  0.00942136  0.25979004  0.87555653  1
  O  O245  1  0.01740016  0.76109742  0.37829160  1
  O  O246  1  -0.00554509  0.76501758  0.87302729  1
  O  O247  1  0.50514250  0.25141470  0.36780207  1
  O  O248  1  0.49915012  0.25296838  0.87282814  1
  O  O249  1  0.49997081  0.74972340  0.36146729  1
  O  O250  1  0.49224664  0.73973394  0.86062052  1
  O  O251  1  0.25012093  0.13479682  0.48489237  1
  O  O252  1  0.23591521  0.12647131  0.99290335  1
  O  O253  1  0.24757542  0.63203393  0.48930525  1
  O  O254  1  0.24222948  0.62658576  0.98975736  1
  O  O255  1  0.73778758  0.11694354  0.49292879  1
  O  O256  1  0.74246905  0.11601518  1.00931603  1
  O  O257  1  0.74041326  0.62358425  0.48966407  1
  O  O258  1  0.73342429  0.63804293  0.99492854  1
  O  O259  1  0.25561943  0.37388431  0.00778594  1
  O  O260  1  0.25605263  0.37132677  0.50776368  1
  O  O261  1  0.24522110  0.86961917  0.00288790  1
  O  O262  1  0.25810025  0.87181036  0.50778321  1
  O  O263  1  0.77397419  0.36085390  -0.01569067  1
  O  O264  1  0.76193634  0.37609201  0.50242809  1
  O  O265  1  0.74565244  0.86202436  0.00223968  1
  O  O266  1  0.73288419  0.85910821  0.50618003  1
  O  O267  1  0.12844724  0.49753327  0.24414368  1
  O  O268  1  0.12055842  0.49942632  0.73865182  1
  O  O269  1  0.13949328  0.99997618  0.25200711  1
  O  O270  1  0.12196658  0.98421417  0.74910448  1
  O  O271  1  0.61964960  0.47924636  0.24761907  1
  O  O272  1  0.63117792  0.50360814  0.74355381  1
  O  O273  1  0.63141721  0.99434778  0.24851294  1
  O  O274  1  0.62540667  0.99379823  0.74388248  1
  O  O275  1  0.36440830  -0.00196996  0.25867727  1
  O  O276  1  0.37605803  0.00335339  0.76548696  1
  O  O277  1  0.36755101  0.50041619  0.25732760  1
  O  O278  1  0.38037030  0.50458438  0.75647191  1
  O  O279  1  0.87019552  -0.00124950  0.26442417  1
  O  O280  1  0.87589416  0.00040652  0.76556864  1
  O  O281  1  0.88210279  0.49729499  0.26458858  1
  O  O282  1  0.86567766  0.50553247  0.75535502  1
  O  O283  1  0.12008671  0.37142502  0.37158971  1
  O  O284  1  0.12007399  0.37426464  0.87177992  1
  O  O285  1  0.13813587  0.86159591  0.37067669  1
  O  O286  1  0.12024068  0.87805147  0.86400174  1
  O  O287  1  0.62039732  0.36595094  0.36981068  1
  O  O288  1  0.62156028  0.35685177  0.89381379  1
  O  O289  1  0.62381839  0.87564230  0.36514019  1
  O  O290  1  0.62911584  0.88132500  0.85916699  1
  O  O291  1  0.38104013  0.13452821  0.12079853  1
  O  O292  1  0.38012480  0.13200006  0.62604178  1
  O  O293  1  0.38530040  0.62779053  0.12712074  1
  O  O294  1  0.37786014  0.62678298  0.62947809  1
  O  O295  1  0.89101181  0.13009046  0.11932388  1
  O  O296  1  0.87317142  0.12217180  0.63640490  1
  O  O297  1  0.88016563  0.59967507  0.11637966  1
  O  O298  1  0.87599032  0.62320448  0.62648907  1
  O  O299  1  0.25609041  0.25358938  0.12558752  1
  O  O300  1  0.25333535  0.26451874  0.62105251  1
  O  O301  1  0.26691877  0.74639280  0.12893893  1
  O  O302  1  0.25789709  0.76062705  0.61755351  1
  O  O303  1  0.76696982  0.23830990  0.13635851  1
  O  O304  1  0.67586957  0.27258785  0.64123960  1
  O  O305  1  0.74110545  0.74903570  0.10802269  1
  O  O306  1  0.73811931  0.75133765  0.60978579  1
  O  O307  1  0.24797992  0.24604356  0.37660580  1
  O  O308  1  0.24166144  0.24024483  0.88048939  1
  O  O309  1  0.24675025  0.74353161  0.37631559  1
  O  O310  1  0.25871540  0.73135549  0.87395785  1
  O  O311  1  0.74275037  0.23874428  0.37175293  1
  O  O312  1  0.74035818  0.24807273  0.87671736  1
  O  O313  1  0.75001450  0.73574145  0.37564254  1
  O  O314  1  0.75007504  0.74775184  0.89067357  1
  O  O315  1  0.01100502  0.12099915  0.00316840  1
  O  O316  1  0.01330255  0.12259048  0.50110333  1
  O  O317  1  0.00308307  0.62065780  -0.00608248  1
  O  O318  1  0.00116027  0.62066461  0.50322267  1
  O  O319  1  0.50518918  0.12273375  0.01416147  1
  O  O320  1  0.51064304  0.13010828  0.51087913  1
  O  O321  1  0.49869245  0.61891725  0.00553966  1
  O  O322  1  0.50103210  0.61523308  0.50669148  1
  O  O323  1  0.49603210  0.37726745  0.49552229  1
  O  O324  1  0.49322837  0.38019905  0.99821090  1
  O  O325  1  0.48804664  0.87072585  0.49749492  1
  O  O326  1  0.51390635  0.87705835  1.00311383  1
  O  O327  1  0.99961986  0.38206866  0.49710774  1
  O  O328  1  0.99442831  0.37612084  0.98638889  1
  O  O329  1  1.00785725  0.89207998  0.50087574  1
  O  O330  1  1.00197316  0.88264800  0.99284697  1
  O  O331  1  0.49384099  0.49294388  0.38075189  1
  O  O332  1  0.48677542  0.48888747  0.87776014  1
  O  O333  1  0.48738865  1.00160150  0.36605096  1
  O  O334  1  0.48524593  1.00677128  0.87732236  1
  O  O335  1  0.99534020  0.49580755  0.38785459  1
  O  O336  1  0.98504467  0.49282122  0.86819097  1
  O  O337  1  0.99183513  1.00141898  0.37673676  1
  O  O338  1  0.99492862  0.99061462  0.88026305  1
  O  O339  1  0.00352583  0.00919595  0.11614384  1
  O  O340  1  0.01130037  0.01084719  0.60905085  1
  O  O341  1  0.00826936  0.49314342  0.12722691  1
  O  O342  1  0.00958572  0.49892843  0.61415523  1
  O  O343  1  0.51054961  0.00840490  0.13079340  1
  O  O344  1  0.50378814  0.01519679  0.63385097  1
  O  O345  1  0.49963273  0.50436091  0.11696827  1
  O  O346  1  0.50166762  0.51116746  0.62261029  1
  O  O347  1  0.24307184  0.38161121  0.24537072  1
  O  O348  1  0.24044562  0.37740372  0.74353350  1
  O  O349  1  0.24945009  0.88620372  0.24412994  1
  O  O350  1  0.24175333  0.87100646  0.74350667  1
  O  O351  1  0.73707523  0.36871617  0.25409590  1
  O  O352  1  0.73473964  0.38122805  0.75668370  1
  O  O353  1  0.74510935  0.88484288  0.25235892  1
  O  O354  1  0.74261291  0.87451919  0.74127959  1
  O  O355  1  0.24599026  0.12157616  0.26211257  1
  O  O356  1  0.24384298  0.13278903  0.76088500  1
  O  O357  1  0.24914999  0.62022718  0.26166624  1
  O  O358  1  0.26079732  0.62631328  0.75263386  1
  O  O359  1  0.74249073  0.11089688  0.26736890  1
  O  O360  1  0.76591737  0.11615139  0.75130344  1
  O  O361  1  0.75039429  0.62340253  0.25443800  1
  O  O362  1  0.75574630  0.61704380  0.75275616  1
  O  O363  1  0.36925713  0.11915387  0.37832686  1
  O  O364  1  0.35827181  0.13106204  0.87035215  1
  O  O365  1  0.36680413  0.61935833  0.37426954  1
  O  O366  1  0.36831815  0.61221074  0.86509103  1
  O  O367  1  0.86672531  0.12856945  0.37722773  1
  O  O368  1  0.87996230  0.11434503  0.86618916  1
  O  O369  1  0.86091258  0.60957422  0.37268034  1
  O  O370  1  0.87141000  0.61735020  0.86619530  1
  O  O371  1  0.12991797  0.38321826  0.12878372  1
  O  O372  1  0.13187671  0.38546609  0.63494754  1
  O  O373  1  0.12873182  0.88105859  0.13081251  1
  O  O374  1  0.13830205  0.88213862  0.63194529  1
  O  O375  1  0.61939250  0.36467973  0.14328493  1
  O  O376  1  0.60596917  0.39802914  0.62415343  1
  O  O377  1  0.63213631  0.88579624  0.14027299  1
  O  O378  1  0.60917142  0.88667147  0.63772378  1
  O  O379  1  0.11753954  0.25681403  0.25437205  1
  O  O380  1  0.13420281  0.26611112  0.76744228  1
  O  O381  1  0.11595481  0.74852466  0.25980673  1
  O  O382  1  0.12188663  0.76893311  0.74389565  1
  O  O383  1  0.61846685  0.25541308  0.26092874  1
  O  O384  1  0.61911379  0.24263016  0.77589574  1
  O  O385  1  0.61803425  0.75799573  0.24986562  1
  O  O386  1  0.61441203  0.75626969  0.74446030  1
  O  O387  1  0.38328979  0.25357289  0.24015166  1
  O  O388  1  0.38359477  0.25022436  0.74482668  1
  O  O389  1  0.38285242  0.74766810  0.24239955  1
  O  O390  1  0.38083408  0.73997541  0.74166561  1
  O  O391  1  0.88973140  0.25878719  0.24286297  1
  O  O392  1  0.86989069  0.23885520  0.75064716  1
  O  O393  1  0.88448094  0.74636407  0.24553237  1
  O  O394  1  0.87045648  0.73954602  0.75132623  1
  O  O395  1  0.37994085  0.49362282  0.49552465  1
  O  O396  1  0.38096427  0.49456178  0.99239341  1
  O  O397  1  0.37255395  0.99297459  0.48837829  1
  O  O398  1  0.37812291  1.00787918  0.98077969  1
  O  O399  1  0.88201338  0.49074699  0.49297218  1
  O  O400  1  0.88163246  0.49264351  0.99432592  1
  O  O401  1  0.89568386  1.01261010  0.48192907  1
  O  O402  1  0.89212545  1.00904433  0.98525169  1
  O  O403  1  0.11557880  0.00999107  -0.00403211  1
  O  O404  1  0.11493235  0.00879821  0.48779445  1
  O  O405  1  0.12540874  0.50933794  0.01178196  1
  O  O406  1  0.11650551  0.50819589  0.50755235  1
  O  O407  1  0.62474139  0.01053237  0.01036451  1
  O  O408  1  0.62027216  0.00639860  0.50635368  1
  O  O409  1  0.60062336  0.50970013  -0.01502517  1
  O  O410  1  0.61946777  0.50802619  0.50529478  1
  O  O411  1  0.36847017  0.36681075  0.12187143  1
  O  O412  1  0.36978823  0.37265577  0.62474477  1
  O  O413  1  0.37683695  0.86167056  0.12797426  1
  O  O414  1  0.37330092  0.87187654  0.62001467  1
  O  O415  1  0.87990151  0.36474906  0.11125617  1
  O  O416  1  0.87787768  0.38130671  0.61448678  1
  O  O417  1  0.85872097  0.91506524  0.10955672  1
  O  O418  1  0.86884436  0.92438589  0.61215355  1
  O  O419  1  0.13473576  0.13235353  0.38270986  1
  O  O420  1  0.12954639  0.13170835  0.87683856  1
  O  O421  1  0.13199601  0.63498536  0.38185868  1
  O  O422  1  0.13429573  0.61344615  0.88268646  1
  O  O423  1  0.63183598  0.12882366  0.38248225  1
  O  O424  1  0.62414258  0.13190844  0.89401434  1
  O  O425  1  0.63228605  0.61925983  0.37828459  1
  O  O426  1  0.61998843  0.62348500  0.88344804  1
