# generated using pymatgen
data_V85Zn86O256
_symmetry_space_group_name_H-M   'P 1'
_cell_length_a   16.94652719
_cell_length_b   16.95171710
_cell_length_c   16.95318200
_cell_angle_alpha   89.98113954
_cell_angle_beta   90.00302624
_cell_angle_gamma   90.04821677
_symmetry_Int_Tables_number   1
_chemical_formula_structural   V85Zn86O256
_chemical_formula_sum   'V85 Zn86 O256'
_cell_volume   4870.18496130
_cell_formula_units_Z   1
loop_
 _symmetry_equiv_pos_site_id
 _symmetry_equiv_pos_as_xyz
  1  'x, y, z'
loop_
 _atom_site_type_symbol
 _atom_site_label
 _atom_site_symmetry_multiplicity
 _atom_site_fract_x
 _atom_site_fract_y
 _atom_site_fract_z
 _atom_site_occupancy
  V  V0  1  0.49169077  0.48982882  0.48718097  1
  V  V1  1  0.00303002  0.00037665  0.50302044  1
  V  V2  1  0.50041717  -0.00023011  0.50211873  1
  V  V3  1  0.12650693  0.26364082  0.87276839  1
  V  V4  1  0.13025771  0.25270245  0.38160871  1
  V  V5  1  0.25411523  0.36013076  0.62936854  1
  V  V6  1  0.49949688  0.12604927  0.62766863  1
  V  V7  1  0.24222884  -0.00011167  0.24287267  1
  V  V8  1  0.86968295  0.74528379  0.13218738  1
  V  V9  1  0.37421148  0.87557436  0.49825994  1
  V  V10  1  0.75035280  0.37805495  0.13470182  1
  V  V11  1  0.62584941  0.75522848  0.36870168  1
  V  V12  1  0.37763946  0.74450974  0.62653590  1
  V  V13  1  0.75473618  0.87823994  0.63424023  1
  V  V14  1  0.87877568  0.38653258  0.49869215  1
  V  V15  1  0.36991298  0.75087792  0.13357668  1
  V  V16  1  0.50081416  0.24969224  0.74646402  1
  V  V17  1  -0.00064083  0.62195436  0.12788219  1
  V  V18  1  0.75284169  0.38481703  0.62946465  1
  V  V19  1  0.24372048  0.74505782  0.49957279  1
  V  V20  1  0.50906161  0.12279336  0.12286435  1
  V  V21  1  0.87764030  -0.00129361  0.37517696  1
  V  V22  1  0.12503283  -0.00317457  0.62734888  1
  V  V23  1  0.37461465  -0.00149169  0.87690193  1
  V  V24  1  0.00072919  0.24925027  0.24796672  1
  V  V25  1  0.73470043  0.87899587  0.13074460  1
  V  V26  1  -0.00864614  0.38242030  0.87470835  1
  V  V27  1  0.74905647  0.74951058  0.50252595  1
  V  V28  1  -0.00714889  0.74465445  0.25427488  1
  V  V29  1  0.50023207  0.74318123  0.74672245  1
  V  V30  1  0.24331192  0.24663329  0.00038234  1
  V  V31  1  0.73195287  0.00031225  0.25009274  1
  V  V32  1  0.88004351  0.12119544  0.24355288  1
  V  V33  1  0.49078486  0.50379399  -0.00037396  1
  V  V34  1  0.88027270  0.75048690  0.62995586  1
  V  V35  1  0.75217510  0.60852716  0.87633087  1
  V  V36  1  0.87610067  0.87630808  0.50552344  1
  V  V37  1  0.00175845  0.37906729  0.37496069  1
  V  V38  1  0.05645516  0.06401086  0.06534088  1
  V  V39  1  0.88027118  0.25739508  0.62307385  1
  V  V40  1  0.24832073  0.12581942  0.38107891  1
  V  V41  1  0.62709366  0.87877057  0.75253613  1
  V  V42  1  0.75306408  0.62381917  0.36396228  1
  V  V43  1  0.37454720  0.12654042  0.74737301  1
  V  V44  1  0.24788190  0.37797436  0.12122557  1
  V  V45  1  0.62495482  0.62307092  -0.00088918  1
  V  V46  1  0.00388902  0.12912547  0.62522695  1
  V  V47  1  0.87196731  0.61256187  0.75363694  1
  V  V48  1  0.88042385  0.24942426  0.12135261  1
  V  V49  1  0.50570587  0.88102156  0.36820473  1
  V  V50  1  0.24800431  0.87251054  0.62429253  1
  V  V51  1  0.74931173  0.75313376  0.00036890  1
  V  V52  1  0.62608337  0.24756530  0.87731924  1
  V  V53  1  0.75629307  0.12490996  0.37915777  1
  V  V54  1  0.75237319  0.25503744  0.49879132  1
  V  V55  1  0.75205052  0.24804001  0.00045042  1
  V  V56  1  0.23770992  0.12276616  0.87709412  1
  V  V57  1  0.62613818  0.50474959  0.62467439  1
  V  V58  1  0.37045122  0.12411231  0.24675157  1
  V  V59  1  0.12757448  0.37887062  0.25043650  1
  V  V60  1  0.00668988  0.25495381  0.74856691  1
  V  V61  1  0.26601144  0.62323142  0.37003632  1
  V  V62  1  0.12250908  0.73995577  0.37604523  1
  V  V63  1  0.49485379  0.37647156  0.87900581  1
  V  V64  1  0.11940927  0.87562101  0.24599982  1
  V  V65  1  0.13657354  0.50760242  0.62674911  1
  V  V66  1  0.88731830  0.87729956  0.00056447  1
  V  V67  1  0.62887042  0.38607682  0.75320049  1
  V  V68  1  0.62980883  0.12582059  0.50569998  1
  V  V69  1  0.12432159  0.86646931  0.76538582  1
  V  V70  1  0.62955440  0.00013664  0.62970989  1
  V  V71  1  0.49506882  0.62657892  0.13501719  1
  V  V72  1  0.86724833  0.12362797  0.74909679  1
  V  V73  1  0.37151250  0.87611883  0.00387594  1
  V  V74  1  0.61948548  0.62497607  0.50188216  1
  V  V75  1  0.00322758  0.74793060  0.76643804  1
  V  V76  1  0.62799815  0.49980611  0.13385616  1
  V  V77  1  0.26392259  0.50453449  0.25064978  1
  V  V78  1  0.12404338  0.62888965  -0.01423267  1
  V  V79  1  0.87412351  0.50580096  0.36082185  1
  V  V80  1  0.37065801  0.35221608  0.49200914  1
  V  V81  1  0.24920248  -0.00453807  0.75113480  1
  V  V82  1  0.37582002  0.24891510  0.12151034  1
  V  V83  1  0.51018998  -0.00134839  0.00236835  1
  V  V84  1  0.62599671  0.74898799  0.87483234  1
  Zn  Zn85  1  0.61928105  0.25681305  0.37602610  1
  Zn  Zn86  1  0.74893684  0.11823066  0.87166369  1
  Zn  Zn87  1  0.86789979  0.38680801  -0.00462845  1
  Zn  Zn88  1  0.36786898  0.37757144  -0.00748919  1
  Zn  Zn89  1  0.24298845  0.87672728  0.12320073  1
  Zn  Zn90  1  0.63011681  0.12092512  0.00230172  1
  Zn  Zn91  1  0.49700126  0.75311467  0.25252834  1
  Zn  Zn92  1  0.12579859  0.50519888  0.12189349  1
  Zn  Zn93  1  0.45500801  0.58214621  0.66150414  1
  Zn  Zn94  1  0.61885498  0.37741398  0.26224093  1
  Zn  Zn95  1  0.50082910  0.87548214  0.87447547  1
  Zn  Zn96  1  0.50058015  0.25553968  0.25644039  1
  Zn  Zn97  1  -0.00494330  0.50510571  -0.00674087  1
  Zn  Zn98  1  0.00079314  0.87340879  0.37705370  1
  Zn  Zn99  1  0.27108750  0.50487524  0.74927714  1
  Zn  Zn100  1  0.01862729  0.51289790  0.49482248  1
  Zn  Zn101  1  0.37248002  -0.00004990  0.37370729  1
  Zn  Zn102  1  0.13034142  0.13176897  0.50430639  1
  Zn  Zn103  1  0.27388089  0.62208983  0.86865974  1
  Zn  Zn104  1  0.87822361  -0.00357565  0.88360840  1
  Zn  Zn105  1  0.24142175  0.75312267  -0.00531081  1
  Zn  Zn106  1  0.00866734  0.62386324  0.62254494  1
  Zn  Zn107  1  0.18287452  0.18656845  0.18660673  1
  Zn  Zn108  1  0.18742342  0.18682490  0.69068695  1
  Zn  Zn109  1  0.18536245  0.68914311  0.18653300  1
  Zn  Zn110  1  0.19208182  0.68039910  0.69666239  1
  Zn  Zn111  1  0.69074247  0.19120782  0.19123315  1
  Zn  Zn112  1  0.68721610  0.19777473  0.68494396  1
  Zn  Zn113  1  0.68256823  0.68980307  0.18712994  1
  Zn  Zn114  1  0.69088971  0.68623825  0.69072857  1
  Zn  Zn115  1  0.31405400  0.31224647  0.31054034  1
  Zn  Zn116  1  0.31315026  0.31208272  0.80903453  1
  Zn  Zn117  1  0.30975586  0.81554689  0.31347022  1
  Zn  Zn118  1  0.31042588  0.80410143  0.81374687  1
  Zn  Zn119  1  0.81274411  0.31365344  0.31282501  1
  Zn  Zn120  1  0.81310384  0.30877217  0.81062655  1
  Zn  Zn121  1  0.80977919  0.81739100  0.31354333  1
  Zn  Zn122  1  0.81465408  0.80866851  0.81676037  1
  Zn  Zn123  1  0.19778961  0.43930637  0.44093432  1
  Zn  Zn124  1  0.18657783  0.45131512  0.93219960  1
  Zn  Zn125  1  0.18473017  0.93555765  0.43105436  1
  Zn  Zn126  1  0.18221120  0.94097382  0.94455064  1
  Zn  Zn127  1  0.68896601  0.44212574  0.43599262  1
  Zn  Zn128  1  0.68112442  0.43357099  0.94608884  1
  Zn  Zn129  1  0.68967576  0.93907148  0.44142395  1
  Zn  Zn130  1  0.69731165  0.93871916  0.93297554  1
  Zn  Zn131  1  0.30818491  0.06178172  0.06076209  1
  Zn  Zn132  1  0.31266741  0.06317781  0.56372879  1
  Zn  Zn133  1  0.31123397  0.56686597  0.05921103  1
  Zn  Zn134  1  0.30606279  0.55995788  0.55466523  1
  Zn  Zn135  1  0.81306136  0.05945289  0.06483096  1
  Zn  Zn136  1  0.81799811  0.06243415  0.57197492  1
  Zn  Zn137  1  0.81504428  0.56126985  0.06302141  1
  Zn  Zn138  1  0.81617232  0.56789577  0.55991588  1
  Zn  Zn139  1  0.43940092  0.43533879  0.18622570  1
  Zn  Zn140  1  0.43929279  0.41829265  0.67808724  1
  Zn  Zn141  1  0.43544501  0.94203297  0.18681404  1
  Zn  Zn142  1  0.43920039  0.93291384  0.68820215  1
  Zn  Zn143  1  0.93629129  0.43509691  0.18449608  1
  Zn  Zn144  1  0.95012667  0.43990727  0.68635843  1
  Zn  Zn145  1  0.93420019  0.93393848  0.18346042  1
  Zn  Zn146  1  0.95138307  0.95000369  0.71978494  1
  Zn  Zn147  1  0.06210360  0.06291166  0.31150632  1
  Zn  Zn148  1  0.05669478  0.06158012  0.81848663  1
  Zn  Zn149  1  0.06487704  0.56266959  0.31036740  1
  Zn  Zn150  1  0.06922785  0.55909830  0.80111706  1
  Zn  Zn151  1  0.55466420  0.08813018  0.32330343  1
  Zn  Zn152  1  0.56390864  0.06106553  0.81544075  1
  Zn  Zn153  1  0.56479853  0.56348187  0.31396715  1
  Zn  Zn154  1  0.44105021  0.55572308  0.82377939  1
  Zn  Zn155  1  0.43722715  0.18345082  0.43543328  1
  Zn  Zn156  1  0.43483636  0.18619910  0.93684078  1
  Zn  Zn157  1  0.44034894  0.68971664  0.44087125  1
  Zn  Zn158  1  0.43961184  0.69734084  0.94301258  1
  Zn  Zn159  1  0.94188623  0.19055072  0.43777744  1
  Zn  Zn160  1  0.94028938  0.18778398  0.93606932  1
  Zn  Zn161  1  0.93554134  0.68652232  0.44016140  1
  Zn  Zn162  1  0.93258170  0.68340445  0.94141500  1
  Zn  Zn163  1  0.06279460  0.31098671  0.05839466  1
  Zn  Zn164  1  0.07021583  0.32440364  0.56237859  1
  Zn  Zn165  1  0.06114480  0.80526115  0.06588955  1
  Zn  Zn166  1  0.06256554  0.81155263  0.56627932  1
  Zn  Zn167  1  0.56282729  0.31391153  0.06706150  1
  Zn  Zn168  1  0.56320355  0.31624563  0.56006936  1
  Zn  Zn169  1  0.55869738  0.81209081  0.06358717  1
  Zn  Zn170  1  0.56294019  0.81320364  0.56224346  1
  O  O171  1  0.11180359  0.13007955  0.12193622  1
  O  O172  1  0.12160791  0.11700633  0.62393067  1
  O  O173  1  0.11284177  0.62532048  0.12259262  1
  O  O174  1  0.12932692  0.61399733  0.62409817  1
  O  O175  1  0.61167576  0.13044825  0.12397127  1
  O  O176  1  0.62262223  0.12027825  0.62430153  1
  O  O177  1  0.62104474  0.62026245  0.11740022  1
  O  O178  1  0.63377330  0.61411240  0.61872618  1
  O  O179  1  0.37087591  0.36804983  0.39100763  1
  O  O180  1  0.39086703  0.36818229  0.87534822  1
  O  O181  1  0.38120736  0.87720968  0.38550508  1
  O  O182  1  0.37458345  0.88744733  0.88161393  1
  O  O183  1  0.87877707  0.38430440  0.38086237  1
  O  O184  1  0.88803614  0.36804003  0.87526400  1
  O  O185  1  0.87587334  0.88285127  0.38615349  1
  O  O186  1  0.86834907  0.86837207  0.89814311  1
  O  O187  1  0.24805778  0.00895372  0.36448477  1
  O  O188  1  0.25486552  0.00690392  0.87244726  1
  O  O189  1  0.24924435  0.51585233  0.36774440  1
  O  O190  1  0.25290989  0.50590843  0.86468321  1
  O  O191  1  0.75972823  0.00565799  0.37267637  1
  O  O192  1  0.76369569  0.00640204  0.87636190  1
  O  O193  1  0.75745779  0.51697142  0.37891609  1
  O  O194  1  0.74255371  0.50990033  0.88440245  1
  O  O195  1  0.24772263  0.49269929  0.13040395  1
  O  O196  1  0.24789369  0.49500384  0.62571472  1
  O  O197  1  0.24983166  1.00050490  0.13853373  1
  O  O198  1  0.24436304  0.99352210  0.63029919  1
  O  O199  1  0.74089883  0.49013313  0.11863285  1
  O  O200  1  0.74457022  0.49013587  0.61726530  1
  O  O201  1  0.74981137  0.99197556  0.13742898  1
  O  O202  1  0.74136612  0.98936054  0.61882291  1
  O  O203  1  0.00888059  0.37159550  0.25493046  1
  O  O204  1  -0.00384618  0.36309614  0.75977464  1
  O  O205  1  0.00253955  0.86410042  0.25311672  1
  O  O206  1  0.01138557  0.85467765  0.74282599  1
  O  O207  1  0.50561990  0.36719507  0.23907411  1
  O  O208  1  0.50922241  0.36536084  0.75700967  1
  O  O209  1  0.49597860  0.88097953  0.26575388  1
  O  O210  1  0.51136883  0.86748500  0.75178141  1
  O  O211  1  0.48086618  0.11550706  0.23447282  1
  O  O212  1  0.49498258  0.12942654  0.74740442  1
  O  O213  1  0.50517807  0.62778189  0.23853368  1
  O  O214  1  0.50462011  0.64001976  0.75027498  1
  O  O215  1  0.98665120  0.13318479  0.25970649  1
  O  O216  1  0.99293666  0.13882671  0.74211032  1
  O  O217  1  1.00250233  0.63744817  0.24597181  1
  O  O218  1  0.99124273  0.63379800  0.74610325  1
  O  O219  1  0.36288345  0.25223527  0.00408365  1
  O  O220  1  0.37983329  0.25302500  0.50151276  1
  O  O221  1  0.38094057  0.76825009  0.01242036  1
  O  O222  1  0.36708170  0.75957746  0.50307467  1
  O  O223  1  0.86890801  0.25118703  0.00665001  1
  O  O224  1  0.87293849  0.26345726  0.50382692  1
  O  O225  1  0.86544163  0.75432922  0.00998995  1
  O  O226  1  0.86804849  0.75782094  0.50954417  1
  O  O227  1  0.11958853  0.25105036  0.48518676  1
  O  O228  1  0.13635604  0.25101182  0.99044653  1
  O  O229  1  0.13675714  0.75754132  0.49298383  1
  O  O230  1  0.12372427  0.73426607  1.00336887  1
  O  O231  1  0.63644305  0.24395618  0.50219476  1
  O  O232  1  0.63169078  0.24849551  0.99284188  1
  O  O233  1  0.62922359  0.74297110  0.49545421  1
  O  O234  1  0.62988391  0.74343683  0.99787911  1
  O  O235  1  0.48774349  0.23996611  0.11840501  1
  O  O236  1  0.50919733  0.24502847  0.63929477  1
  O  O237  1  0.49378430  0.74374154  0.13028160  1
  O  O238  1  0.49149056  0.75527203  0.63137057  1
  O  O239  1  0.98745832  0.25892991  0.13038415  1
  O  O240  1  1.00207876  0.25216046  0.63029621  1
  O  O241  1  0.98937847  0.74146214  0.13540866  1
  O  O242  1  0.98730897  0.74787367  0.62758526  1
  O  O243  1  0.00668581  0.25933009  0.36761241  1
  O  O244  1  0.00847095  0.25589527  0.86771990  1
  O  O245  1  0.00419284  0.74998484  0.37079066  1
  O  O246  1  -0.00531536  0.74773607  0.86421563  1
  O  O247  1  0.51655788  0.20122870  0.36082109  1
  O  O248  1  0.50845810  0.25314908  0.86972573  1
  O  O249  1  0.50795952  0.76087592  0.37601713  1
  O  O250  1  0.50872815  0.75527595  0.86749312  1
  O  O251  1  0.24898143  0.11902130  0.48589984  1
  O  O252  1  0.25547418  0.13356558  0.98735454  1
  O  O253  1  0.25279057  0.63479258  0.48332737  1
  O  O254  1  0.23047653  0.62167763  1.00053224  1
  O  O255  1  0.75418184  0.13410438  0.49913244  1
  O  O256  1  0.74923523  0.13608168  1.00203990  1
  O  O257  1  0.74127061  0.63300615  0.49416763  1
  O  O258  1  0.74528913  0.63568034  0.99850438  1
  O  O259  1  0.24762236  0.36979029  0.00645184  1
  O  O260  1  0.26515578  0.37251097  0.50695492  1
  O  O261  1  0.25737843  0.87647225  0.00413406  1
  O  O262  1  0.25691751  0.86956010  0.50111675  1
  O  O263  1  0.74981999  0.36168013  0.00763617  1
  O  O264  1  0.75962694  0.37038490  0.50664907  1
  O  O265  1  0.74856889  0.86339952  0.01017866  1
  O  O266  1  0.75576854  0.86960687  0.51187892  1
  O  O267  1  0.13173839  0.48810034  0.24839911  1
  O  O268  1  0.13181457  0.49629204  0.73117583  1
  O  O269  1  0.12922889  0.98874638  0.25740490  1
  O  O270  1  0.13242731  0.99084007  0.74559693  1
  O  O271  1  0.62426283  0.50134276  0.23708432  1
  O  O272  1  0.62194136  0.48644267  0.73978379  1
  O  O273  1  0.63527307  1.01635627  0.26311981  1
  O  O274  1  0.62176998  0.98698525  0.74671151  1
  O  O275  1  0.36282561  0.00688607  0.25225967  1
  O  O276  1  0.37016643  0.00153324  0.75841397  1
  O  O277  1  0.36275246  0.49852617  0.24326697  1
  O  O278  1  0.39639565  0.50754143  0.73263297  1
  O  O279  1  0.87237681  0.00697121  0.25728804  1
  O  O280  1  0.86432014  0.02666856  0.72097938  1
  O  O281  1  0.87590277  0.49600947  0.26205433  1
  O  O282  1  0.88016594  0.51471028  0.74407817  1
  O  O283  1  0.12569596  0.37120434  0.36846794  1
  O  O284  1  0.11751853  0.36595144  0.87734265  1
  O  O285  1  0.12228858  0.86178014  0.36559897  1
  O  O286  1  0.13175234  0.87590941  0.86399212  1
  O  O287  1  0.63527767  0.36861753  0.37631751  1
  O  O288  1  0.62002088  0.36494068  0.86946347  1
  O  O289  1  0.61719933  0.86750776  0.38667681  1
  O  O290  1  0.62782392  0.86845887  0.86687188  1
  O  O291  1  0.37359818  0.13457369  0.12758716  1
  O  O292  1  0.38031669  0.11722655  0.64059088  1
  O  O293  1  0.38446060  0.63746226  0.11748029  1
  O  O294  1  0.37423002  0.64176365  0.60785220  1
  O  O295  1  0.86865210  0.13432565  0.13592349  1
  O  O296  1  0.88498375  0.14098199  0.62616393  1
  O  O297  1  0.87892834  0.63882113  0.12431238  1
  O  O298  1  0.86682319  0.63530826  0.64054238  1
  O  O299  1  0.25287788  0.25448235  0.11661570  1
  O  O300  1  0.24878497  0.26002616  0.62911359  1
  O  O301  1  0.25764303  0.75158085  0.11920297  1
  O  O302  1  0.25541989  0.75478153  0.61552034  1
  O  O303  1  0.75965175  0.25560644  0.11937344  1
  O  O304  1  0.75725664  0.26240155  0.61384752  1
  O  O305  1  0.75313620  0.75478837  0.12181407  1
  O  O306  1  0.75905608  0.75728896  0.62275565  1
  O  O307  1  0.24026778  0.23895821  0.36574481  1
  O  O308  1  0.24380825  0.24491846  0.87845118  1
  O  O309  1  0.24369620  0.74241664  0.37876273  1
  O  O310  1  0.26371313  0.73718236  0.88536071  1
  O  O311  1  0.75854219  0.24233160  0.38844058  1
  O  O312  1  0.74344104  0.24793439  0.88343997  1
  O  O313  1  0.74491600  0.74505317  0.38209838  1
  O  O314  1  0.74427657  0.74359654  0.88542852  1
  O  O315  1  -0.00489495  0.11526598  0.00066637  1
  O  O316  1  0.00351392  0.11837603  0.50733400  1
  O  O317  1  0.00589742  0.62774317  0.01039076  1
  O  O318  1  -0.01604751  0.61938244  0.51181642  1
  O  O319  1  0.49941639  0.11645494  0.00608053  1
  O  O320  1  0.50544272  0.11778269  0.51144330  1
  O  O321  1  0.51106153  0.62076420  0.01099735  1
  O  O322  1  0.51388023  0.61868053  0.49681777  1
  O  O323  1  0.48731827  0.38130930  0.50219465  1
  O  O324  1  0.49966332  0.38198377  0.99409551  1
  O  O325  1  0.49273833  0.88146508  0.49468012  1
  O  O326  1  0.49276301  0.88390114  0.99856667  1
  O  O327  1  0.99301482  0.37963561  0.49190588  1
  O  O328  1  0.99882143  0.37367687  0.98334727  1
  O  O329  1  0.99389775  0.88308086  0.50204303  1
  O  O330  1  0.98571580  0.86741046  1.00700314  1
  O  O331  1  0.50772505  0.50021083  0.38945008  1
  O  O332  1  0.51118589  0.48708724  0.88788229  1
  O  O333  1  0.49937434  0.99856471  0.38576612  1
  O  O334  1  0.49017219  0.99959723  0.88269777  1
  O  O335  1  0.99365263  0.49689891  0.37567386  1
  O  O336  1  1.00521911  0.48322212  0.86623654  1
  O  O337  1  0.99522572  0.99904324  0.38634647  1
  O  O338  1  0.97645217  0.98781182  0.82904511  1
  O  O339  1  0.00042259  0.00643511  0.12892411  1
  O  O340  1  0.00742039  0.00596122  0.62214528  1
  O  O341  1  -0.00073358  0.51474127  0.13162556  1
  O  O342  1  0.01986088  0.49861699  0.62104624  1
  O  O343  1  0.49323735  0.00959053  0.11266679  1
  O  O344  1  0.50830495  0.00317553  0.62138388  1
  O  O345  1  0.50708617  0.50901842  0.11906950  1
  O  O346  1  0.51390454  0.49533893  0.61148693  1
  O  O347  1  0.24472630  0.38123575  0.24298727  1
  O  O348  1  0.26684788  0.38046714  0.73269893  1
  O  O349  1  0.23987860  0.88398162  0.25059469  1
  O  O350  1  0.24481638  0.87603869  0.74406229  1
  O  O351  1  0.74889798  0.37121313  0.23696708  1
  O  O352  1  0.74251775  0.36779223  0.73996390  1
  O  O353  1  0.75012193  0.88815050  0.24430855  1
  O  O354  1  0.74450320  0.86747358  0.74099999  1
  O  O355  1  0.25412454  0.11996126  0.25382856  1
  O  O356  1  0.25787482  0.11782712  0.75703443  1
  O  O357  1  0.24523626  0.61871940  0.26065738  1
  O  O358  1  0.26626429  0.62272342  0.75186688  1
  O  O359  1  0.76164024  0.12071482  0.26077957  1
  O  O360  1  0.76457041  0.14181667  0.74799345  1
  O  O361  1  0.74499785  0.63165612  0.26572871  1
  O  O362  1  0.76207468  0.62779610  0.76205497  1
  O  O363  1  0.36380703  0.12258455  0.36392403  1
  O  O364  1  0.36851763  0.11456388  0.86689047  1
  O  O365  1  0.36439151  0.63487319  0.37112922  1
  O  O366  1  0.38654272  0.61131432  0.90189721  1
  O  O367  1  0.87017589  0.11985838  0.37312495  1
  O  O368  1  0.87666726  0.12864551  0.85595907  1
  O  O369  1  0.86108206  0.62136366  0.37646001  1
  O  O370  1  0.86704435  0.62773966  0.86318973  1
  O  O371  1  0.13431907  0.37412878  0.13114210  1
  O  O372  1  0.14788532  0.38113708  0.62130697  1
  O  O373  1  0.12481717  0.86479617  0.14153829  1
  O  O374  1  0.13197523  0.87948972  0.63141499  1
  O  O375  1  0.63472727  0.38468533  0.12287049  1
  O  O376  1  0.63450173  0.38149050  0.63012763  1
  O  O377  1  0.63524682  0.86952523  0.12700634  1
  O  O378  1  0.63382313  0.87899463  0.63220947  1
  O  O379  1  0.12111458  0.26169640  0.25645849  1
  O  O380  1  0.11731519  0.24767678  0.75907745  1
  O  O381  1  0.11572987  0.75461993  0.25847530  1
  O  O382  1  0.11206198  0.75162588  0.74628685  1
  O  O383  1  0.62309019  0.25136142  0.25512108  1
  O  O384  1  0.61922873  0.25776250  0.75843709  1
  O  O385  1  0.62192885  0.75019024  0.26574200  1
  O  O386  1  0.62058872  0.75850952  0.75237110  1
  O  O387  1  0.37462735  0.24055832  0.23936870  1
  O  O388  1  0.38775633  0.23729643  0.75826662  1
  O  O389  1  0.37613427  0.75904459  0.23765750  1
  O  O390  1  0.38706342  0.76204292  0.73626642  1
  O  O391  1  0.87964339  0.24349852  0.24333179  1
  O  O392  1  0.88383710  0.24627535  0.73984137  1
  O  O393  1  0.88100064  0.75635093  0.24520874  1
  O  O394  1  0.88565839  0.74636757  0.74638358  1
  O  O395  1  0.39171807  0.50271505  0.49973700  1
  O  O396  1  0.38869346  0.49261588  1.01465765  1
  O  O397  1  0.38069130  0.99209163  0.49965696  1
  O  O398  1  0.37961094  0.99331718  0.99430515  1
  O  O399  1  0.87184754  0.49123204  0.49233875  1
  O  O400  1  0.88244482  0.49910981  1.00076692  1
  O  O401  1  0.88650891  0.99728573  0.49975114  1
  O  O402  1  0.87372132  0.98138644  1.00598318  1
  O  O403  1  0.11892412  0.00576660  0.00837842  1
  O  O404  1  0.11447655  -0.00194158  0.50467645  1
  O  O405  1  0.11371470  0.51155491  0.00334979  1
  O  O406  1  0.13117384  0.49301956  0.51513289  1
  O  O407  1  0.61323639  0.00057659  -0.00784525  1
  O  O408  1  0.62056783  0.00647209  0.50903369  1
  O  O409  1  0.61641528  0.50775077  0.01018580  1
  O  O410  1  0.62009003  0.50670916  0.50704170  1
  O  O411  1  0.36148414  0.36251161  0.12342269  1
  O  O412  1  0.36511581  0.37197103  0.60775283  1
  O  O413  1  0.37130314  0.87187866  0.11902116  1
  O  O414  1  0.36953742  0.86961395  0.61386669  1
  O  O415  1  0.86694657  0.36711990  0.12209481  1
  O  O416  1  0.87198421  0.37699701  0.61901999  1
  O  O417  1  0.86478912  0.86326902  0.11803255  1
  O  O418  1  0.86907218  0.86932670  0.62641848  1
  O  O419  1  0.13145288  0.13474386  0.37493143  1
  O  O420  1  0.13467851  0.13114095  0.86670186  1
  O  O421  1  0.13083093  0.63705845  0.37217791  1
  O  O422  1  0.11372688  0.62277574  0.88637272  1
  O  O423  1  0.64860203  0.12054738  0.38992228  1
  O  O424  1  0.62720272  0.13683616  0.87544219  1
  O  O425  1  0.63459372  0.63249853  0.38262017  1
  O  O426  1  0.63441697  0.63193530  0.89085088  1
