# generated using pymatgen
data_V85Zn86O256
_symmetry_space_group_name_H-M   'P 1'
_cell_length_a   16.97775778
_cell_length_b   16.97389711
_cell_length_c   16.97320689
_cell_angle_alpha   89.97782746
_cell_angle_beta   90.01030315
_cell_angle_gamma   90.07376896
_symmetry_Int_Tables_number   1
_chemical_formula_structural   V85Zn86O256
_chemical_formula_sum   'V85 Zn86 O256'
_cell_volume   4891.31243065
_cell_formula_units_Z   1
loop_
 _symmetry_equiv_pos_site_id
 _symmetry_equiv_pos_as_xyz
  1  'x, y, z'
loop_
 _atom_site_type_symbol
 _atom_site_label
 _atom_site_symmetry_multiplicity
 _atom_site_fract_x
 _atom_site_fract_y
 _atom_site_fract_z
 _atom_site_occupancy
  V  V0  1  0.43824868  0.30835444  0.06157480  1
  V  V1  1  0.24516589  -0.01448749  0.24923153  1
  V  V2  1  0.87502947  0.25107362  0.12743593  1
  V  V3  1  0.12709510  0.74632384  0.88936578  1
  V  V4  1  0.12836999  0.12534287  0.49522231  1
  V  V5  1  0.36539610  0.12559902  0.24887484  1
  V  V6  1  0.00756884  0.25698773  0.24963634  1
  V  V7  1  0.24982186  0.37712126  0.62642060  1
  V  V8  1  -0.01090799  0.50063051  0.49547195  1
  V  V9  1  0.24933694  0.87545940  0.62442966  1
  V  V10  1  0.74859557  0.22800307  -0.00974075  1
  V  V11  1  0.24833356  0.74908825  0.50344551  1
  V  V12  1  0.12410621  0.75341911  0.36936091  1
  V  V13  1  0.00401499  0.12535575  0.12691125  1
  V  V14  1  0.61506710  0.50827479  0.13001277  1
  V  V15  1  0.74522998  0.37064328  0.62309879  1
  V  V16  1  0.61744076  0.86897699  0.74531258  1
  V  V17  1  -0.00598698  0.74868222  0.25494892  1
  V  V18  1  0.61800144  0.74878833  0.37031298  1
  V  V19  1  0.12835294  -0.01234129  0.12819103  1
  V  V20  1  0.62446972  0.62558564  0.49922211  1
  V  V21  1  -0.00564177  0.24806922  0.74675759  1
  V  V22  1  0.36164990  0.61814214  0.74998722  1
  V  V23  1  0.00367752  0.88406200  0.37444908  1
  V  V24  1  -0.00333605  0.12154908  0.61759354  1
  V  V25  1  0.35875195  0.86159168  0.00467159  1
  V  V26  1  0.74909406  0.00037301  0.25260573  1
  V  V27  1  0.24527653  0.62264368  0.89248351  1
  V  V28  1  0.61362480  0.87229439  0.24771649  1
  V  V29  1  0.37340320  0.36717664  0.50198442  1
  V  V30  1  0.13382517  0.25216625  0.37316111  1
  V  V31  1  0.62856654  0.25162349  0.37399492  1
  V  V32  1  0.87760320  0.87650653  0.00623486  1
  V  V33  1  0.12273246  0.37849418  0.75035474  1
  V  V34  1  0.87969846  0.88461621  0.49946734  1
  V  V35  1  -0.00083836  0.37972317  0.37265045  1
  V  V36  1  0.49992763  0.49978215  0.50219435  1
  V  V37  1  0.01225141  0.62666338  0.12474830  1
  V  V38  1  0.87004978  0.24974904  0.61597144  1
  V  V39  1  -0.00125143  0.74977984  0.74942800  1
  V  V40  1  0.49461337  0.86416250  0.86963940  1
  V  V41  1  0.36708295  0.75466329  0.14638713  1
  V  V42  1  0.62338778  0.13273515  0.49837517  1
  V  V43  1  0.76189468  0.62215147  0.37261265  1
  V  V44  1  0.75452752  0.63032538  0.87166562  1
  V  V45  1  0.74905375  0.87862705  0.62341646  1
  V  V46  1  0.62267691  0.00090279  0.12254588  1
  V  V47  1  0.24518704  0.35671356  0.11417354  1
  V  V48  1  0.74464540  0.37529987  0.12652919  1
  V  V49  1  0.87123506  0.74035054  0.13204496  1
  V  V50  1  -0.00129953  0.62277253  0.62626564  1
  V  V51  1  0.25119879  0.00612414  0.74646203  1
  V  V52  1  0.75121183  0.75217786  0.49804578  1
  V  V53  1  -0.00786896  0.37615633  0.87442939  1
  V  V54  1  0.49761491  0.00070555  0.49527220  1
  V  V55  1  0.75039965  0.12877738  0.37746680  1
  V  V56  1  0.37285008  -0.00195349  0.87220985  1
  V  V57  1  0.12360447  0.87544694  0.74865510  1
  V  V58  1  0.76357853  0.50365388  0.25251106  1
  V  V59  1  0.12443585  0.62129414  0.49965185  1
  V  V60  1  0.37265018  0.49723089  0.37402954  1
  V  V61  1  0.49650534  0.25159222  0.24838815  1
  V  V62  1  0.24774600  0.62103375  0.37178135  1
  V  V63  1  0.62574322  -0.00009863  0.61763438  1
  V  V64  1  0.12866215  0.12518571  0.00327463  1
  V  V65  1  0.00057568  0.87530399  0.87760046  1
  V  V66  1  0.37807042  0.75090123  0.63094409  1
  V  V67  1  0.73149691  0.01018297  0.78282971  1
  V  V68  1  0.74884973  0.87535427  0.12879703  1
  V  V69  1  0.87567922  0.12641960  0.25179009  1
  V  V70  1  0.62451523  0.49638414  0.62579847  1
  V  V71  1  0.87102734  0.12291273  0.75586994  1
  V  V72  1  0.49584530  0.12452690  0.12265573  1
  V  V73  1  0.38923570  0.62826894  0.25924699  1
  V  V74  1  0.12257142  0.24981868  0.87882187  1
  V  V75  1  0.74547975  0.75613595  -0.00178283  1
  V  V76  1  0.52365817  0.24393243  0.76283699  1
  V  V77  1  0.50212924  0.62784389  0.63536009  1
  V  V78  1  0.49626145  -0.00524164  0.00141147  1
  V  V79  1  0.87432772  0.37813246  0.00213998  1
  V  V80  1  0.11870378  -0.00022437  0.61790018  1
  V  V81  1  0.36807884  0.00397833  0.37530509  1
  V  V82  1  0.37390161  0.24595971  0.64610374  1
  V  V83  1  0.50027942  0.37333948  0.37473365  1
  V  V84  1  0.24806174  0.12281163  0.87659449  1
  Zn  Zn85  1  0.59964743  0.40815273  0.79166147  1
  Zn  Zn86  1  0.86951871  0.37341819  0.49499004  1
  Zn  Zn87  1  0.00311044  0.00043372  0.00282934  1
  Zn  Zn88  1  0.62648151  0.61916833  -0.00505788  1
  Zn  Zn89  1  0.25306275  0.24601928  0.49789491  1
  Zn  Zn90  1  0.62454069  0.37695714  0.25107211  1
  Zn  Zn91  1  0.28296325  0.46514042  0.79800339  1
  Zn  Zn92  1  0.88051982  0.00641134  0.87988363  1
  Zn  Zn93  1  0.87994199  0.00415251  0.37688527  1
  Zn  Zn94  1  0.24843939  0.48765797  0.24086785  1
  Zn  Zn95  1  0.49429604  0.12305210  0.63201087  1
  Zn  Zn96  1  0.47963985  0.62038912  0.10058435  1
  Zn  Zn97  1  0.13074577  0.49131638  0.12728112  1
  Zn  Zn98  1  0.87659489  0.62547094  0.75046306  1
  Zn  Zn99  1  0.87520462  0.75393710  0.62629357  1
  Zn  Zn100  1  0.12670329  0.49876795  0.62707957  1
  Zn  Zn101  1  0.87373843  0.50203254  0.87242705  1
  Zn  Zn102  1  0.75298749  0.50306461  0.74797295  1
  Zn  Zn103  1  0.49437765  0.87185943  0.37204848  1
  Zn  Zn104  1  0.62186529  0.75324163  0.87110598  1
  Zn  Zn105  1  0.37455117  0.87561988  0.50038989  1
  Zn  Zn106  1  -0.00082367  0.51178862  -0.00054809  1
  Zn  Zn107  1  0.18947566  0.19138511  0.18586473  1
  Zn  Zn108  1  0.18462376  0.18963421  0.68800442  1
  Zn  Zn109  1  0.19208844  0.68994920  0.19016961  1
  Zn  Zn110  1  0.18455868  0.68789035  0.69033799  1
  Zn  Zn111  1  0.68300575  0.18818162  0.18285450  1
  Zn  Zn112  1  0.69241367  0.18299281  0.68194274  1
  Zn  Zn113  1  0.68859377  0.68659634  0.19085106  1
  Zn  Zn114  1  0.68964959  0.68929552  0.68586200  1
  Zn  Zn115  1  0.31311959  0.31433593  0.30389598  1
  Zn  Zn116  1  0.31216948  0.30256947  0.82690580  1
  Zn  Zn117  1  0.30892334  0.81542164  0.32024461  1
  Zn  Zn118  1  0.30909018  0.80921416  0.81242394  1
  Zn  Zn119  1  0.81516329  0.31528394  0.31212950  1
  Zn  Zn120  1  0.76995590  0.32942330  0.82988362  1
  Zn  Zn121  1  0.81160180  0.81441447  0.31534586  1
  Zn  Zn122  1  0.80999222  0.82560424  0.81311425  1
  Zn  Zn123  1  0.18391798  0.43474572  0.43765641  1
  Zn  Zn124  1  0.18264427  0.43843899  0.95447853  1
  Zn  Zn125  1  0.18840729  0.93860865  0.43690072  1
  Zn  Zn126  1  0.18367355  0.93833854  0.93857199  1
  Zn  Zn127  1  0.69068213  0.43758160  0.43932624  1
  Zn  Zn128  1  0.69383669  0.44742735  0.94817293  1
  Zn  Zn129  1  0.68633315  0.93782697  0.43393195  1
  Zn  Zn130  1  0.68142866  0.94809448  0.93418961  1
  Zn  Zn131  1  0.31222875  0.05997710  0.06311420  1
  Zn  Zn132  1  0.31046477  0.06645706  0.56229329  1
  Zn  Zn133  1  0.32120862  0.54872684  0.06394009  1
  Zn  Zn134  1  0.31336694  0.55899351  0.56381086  1
  Zn  Zn135  1  0.81842770  0.05773827  0.06902536  1
  Zn  Zn136  1  0.81011276  0.06501556  0.55935424  1
  Zn  Zn137  1  0.81151335  0.56399311  0.06077791  1
  Zn  Zn138  1  0.81204234  0.56484980  0.56365532  1
  Zn  Zn139  1  0.49809108  0.47949518  -0.02202182  1
  Zn  Zn140  1  0.44047875  0.43041558  0.81148291  1
  Zn  Zn141  1  0.43182799  0.93523797  0.18553156  1
  Zn  Zn142  1  0.43618300  0.93991023  0.68556332  1
  Zn  Zn143  1  0.93861852  0.43924611  0.18906746  1
  Zn  Zn144  1  0.93210561  0.43778181  0.68685367  1
  Zn  Zn145  1  0.94113580  0.93639290  0.19239201  1
  Zn  Zn146  1  0.93324758  0.94088623  0.68995176  1
  Zn  Zn147  1  0.06672711  0.06679040  0.31080842  1
  Zn  Zn148  1  0.06066895  0.06150774  0.80844091  1
  Zn  Zn149  1  0.06290255  0.56010470  0.30556291  1
  Zn  Zn150  1  0.06539860  0.56102733  0.81578553  1
  Zn  Zn151  1  0.55931585  0.06287989  0.30966164  1
  Zn  Zn152  1  0.56084345  0.05898531  0.81232325  1
  Zn  Zn153  1  0.56786393  0.55841196  0.31394150  1
  Zn  Zn154  1  0.56670238  0.57685806  0.81076052  1
  Zn  Zn155  1  0.43808744  0.18454100  0.43376034  1
  Zn  Zn156  1  0.44169507  0.17424469  0.93052428  1
  Zn  Zn157  1  0.43667272  0.68760039  0.44496292  1
  Zn  Zn158  1  0.42737169  0.66122810  0.94673901  1
  Zn  Zn159  1  0.94359765  0.18899131  0.43555390  1
  Zn  Zn160  1  0.93651469  0.19044204  0.94053049  1
  Zn  Zn161  1  0.93764498  0.69219599  0.44094084  1
  Zn  Zn162  1  0.93536709  0.69300496  0.94164338  1
  Zn  Zn163  1  0.06570224  0.31635520  0.05984723  1
  Zn  Zn164  1  0.06050240  0.31174493  0.55918298  1
  Zn  Zn165  1  0.06112106  0.80970205  0.06716704  1
  Zn  Zn166  1  0.06134416  0.81127954  0.55937552  1
  Zn  Zn167  1  0.58385395  0.30340473  -0.06112039  1
  Zn  Zn168  1  0.55565606  0.31157009  0.56942335  1
  Zn  Zn169  1  0.53848957  0.78491464  0.04467092  1
  Zn  Zn170  1  0.55995143  0.81240008  0.55810582  1
  O  O171  1  0.12215761  0.12120689  0.11749027  1
  O  O172  1  0.11635800  0.11890917  0.62035648  1
  O  O173  1  0.11200639  0.63695192  0.12577709  1
  O  O174  1  0.11460146  0.62423567  0.61823341  1
  O  O175  1  0.60864872  0.11320045  0.13369962  1
  O  O176  1  0.62356371  0.11735843  0.61279802  1
  O  O177  1  0.63071557  0.61285498  0.12497525  1
  O  O178  1  0.61826787  0.62366847  0.61948478  1
  O  O179  1  0.37816442  0.38113233  0.38210936  1
  O  O180  1  0.35002940  0.39669855  0.86532069  1
  O  O181  1  0.37601015  0.88759094  0.37960911  1
  O  O182  1  0.37517575  0.88031250  0.87981607  1
  O  O183  1  0.89198197  0.36657427  0.37955323  1
  O  O184  1  0.87636731  0.37431747  0.88343355  1
  O  O185  1  0.88359764  0.87783234  0.38263331  1
  O  O186  1  0.89342030  0.86454322  0.88691532  1
  O  O187  1  0.25469135  -0.00057839  0.36272304  1
  O  O188  1  0.25029761  0.00505431  0.86676845  1
  O  O189  1  0.25642478  0.50670415  0.38138731  1
  O  O190  1  0.22521909  0.51975644  0.87872293  1
  O  O191  1  0.74997464  0.00944546  0.36681864  1
  O  O192  1  0.77552046  -0.04181128  0.86740191  1
  O  O193  1  0.74462685  0.50755047  0.36230838  1
  O  O194  1  0.75284093  0.51682199  0.87547024  1
  O  O195  1  0.25330769  0.48546076  0.12141348  1
  O  O196  1  0.24784014  0.48252844  0.62105968  1
  O  O197  1  0.24316223  1.00273746  0.13947689  1
  O  O198  1  0.24418383  0.99637256  0.63089989  1
  O  O199  1  0.75000497  0.49642104  0.13605236  1
  O  O200  1  0.73753278  0.49915111  0.62230135  1
  O  O201  1  0.74109934  0.99743448  0.13373293  1
  O  O202  1  0.73446807  0.99498685  0.61313493  1
  O  O203  1  -0.00253508  0.36513959  0.25561314  1
  O  O204  1  0.00118361  0.36721234  0.75587349  1
  O  O205  1  -0.00233064  0.86197050  0.26164775  1
  O  O206  1  0.00387207  0.87058761  0.75781148  1
  O  O207  1  0.50333212  0.36152229  0.26116973  1
  O  O208  1  0.50526747  0.34995454  0.75581310  1
  O  O209  1  0.51057618  0.88031319  0.25181966  1
  O  O210  1  0.50580518  0.88365999  0.75677564  1
  O  O211  1  0.49132169  0.12921483  0.24237190  1
  O  O212  1  0.50529118  0.13604985  0.74967511  1
  O  O213  1  0.48926033  0.62354134  0.26114246  1
  O  O214  1  0.49196905  0.62833095  0.73830019  1
  O  O215  1  0.99517637  0.13486516  0.24640629  1
  O  O216  1  0.99329763  0.12721391  0.73743305  1
  O  O217  1  0.99996675  0.64081626  0.24268478  1
  O  O218  1  1.00191711  0.63252575  0.74287174  1
  O  O219  1  0.38845202  0.24830297  -0.00095299  1
  O  O220  1  0.37553322  0.25910426  0.49637515  1
  O  O221  1  0.37231597  0.76168321  -0.00028911  1
  O  O222  1  0.36539648  0.75074799  0.51194612  1
  O  O223  1  0.86733236  0.25411174  0.01070517  1
  O  O224  1  0.88141622  0.24721949  0.51250467  1
  O  O225  1  0.86682130  0.76157203  0.01068771  1
  O  O226  1  0.86313096  0.76100115  0.50011579  1
  O  O227  1  0.12589085  0.24241556  0.49187306  1
  O  O228  1  0.11797416  0.24092483  0.98533115  1
  O  O229  1  0.12737229  0.73760823  0.49407117  1
  O  O230  1  0.12178418  0.75399048  0.98728542  1
  O  O231  1  0.61581377  0.23820727  0.49322813  1
  O  O232  1  0.65037127  0.24392048  1.00895075  1
  O  O233  1  0.63576730  0.74786134  0.49395590  1
  O  O234  1  0.64379853  0.77234314  0.99694003  1
  O  O235  1  0.49419734  0.24113144  0.13189632  1
  O  O236  1  0.48844276  0.24645664  0.63847143  1
  O  O237  1  0.47244218  0.74717743  0.12944216  1
  O  O238  1  0.48907135  0.74090229  0.61576387  1
  O  O239  1  0.99721375  0.24598202  0.13268284  1
  O  O240  1  0.99484624  0.24112709  0.62878748  1
  O  O241  1  0.99125073  0.74556858  0.13482750  1
  O  O242  1  1.00036038  0.74310329  0.63279570  1
  O  O243  1  0.00912852  0.25624932  0.36667388  1
  O  O244  1  0.00249003  0.25843633  0.86857051  1
  O  O245  1  0.00547977  0.75541802  0.37132130  1
  O  O246  1  0.01033803  0.75303577  0.86942154  1
  O  O247  1  0.51102975  0.25094441  0.36909152  1
  O  O248  1  0.51667414  0.23621608  0.86925063  1
  O  O249  1  0.51429707  0.75260001  0.38692731  1
  O  O250  1  0.49671254  0.76379590  0.87193232  1
  O  O251  1  0.23384774  0.12902251  0.50497933  1
  O  O252  1  0.23675653  0.11642504  0.99191645  1
  O  O253  1  0.24230852  0.62741446  0.49547564  1
  O  O254  1  0.25430659  0.62497011  0.98947780  1
  O  O255  1  0.74026858  0.12224068  0.48478920  1
  O  O256  1  0.75788858  0.12946116  1.00761858  1
  O  O257  1  0.74465013  0.63378867  0.49553865  1
  O  O258  1  0.74766191  0.63898336  0.99353530  1
  O  O259  1  0.24923777  0.36824397  0.01153633  1
  O  O260  1  0.25680249  0.36952989  0.50677131  1
  O  O261  1  0.26120576  0.87641843  -0.00542622  1
  O  O262  1  0.25038948  0.86916309  0.50816481  1
  O  O263  1  0.76296107  0.37094539  0.01074801  1
  O  O264  1  0.75451419  0.38144409  0.51459569  1
  O  O265  1  0.76107685  0.87583289  0.00978028  1
  O  O266  1  0.75454815  0.86929762  0.50184127  1
  O  O267  1  0.13691838  0.51201845  0.24021030  1
  O  O268  1  0.11728467  0.48303677  0.74710978  1
  O  O269  1  0.13914431  1.00689647  0.24437365  1
  O  O270  1  0.12985235  0.99414313  0.73879644  1
  O  O271  1  0.63492368  0.49754047  0.24190118  1
  O  O272  1  0.63067605  0.50580072  0.73787039  1
  O  O273  1  0.62889030  0.99334615  0.24365174  1
  O  O274  1  0.62724562  0.99077498  0.73137056  1
  O  O275  1  0.36385260  0.00257764  0.25536118  1
  O  O276  1  0.36294337  -0.00556516  0.75869514  1
  O  O277  1  0.36879636  0.51229258  0.27052633  1
  O  O278  1  0.37758687  0.51563974  0.74832356  1
  O  O279  1  0.86734245  0.00812119  0.25181684  1
  O  O280  1  0.86334894  0.00948133  0.75084221  1
  O  O281  1  0.86207683  0.49859189  0.25219454  1
  O  O282  1  0.87240139  0.50716463  0.75280751  1
  O  O283  1  0.11188667  0.36476068  0.38089010  1
  O  O284  1  0.11624272  0.36544211  0.86973712  1
  O  O285  1  0.11540737  0.86456741  0.38633335  1
  O  O286  1  0.11711115  0.86627207  0.87187036  1
  O  O287  1  0.62051345  0.36623868  0.37661503  1
  O  O288  1  0.66003454  0.36509547  0.87610611  1
  O  O289  1  0.62395181  0.86687516  0.36579745  1
  O  O290  1  0.61209922  0.87629033  0.86307719  1
  O  O291  1  0.38723141  0.11416225  0.13369217  1
  O  O292  1  0.37473303  0.14343768  0.61943405  1
  O  O293  1  0.37023071  0.63467100  0.14784751  1
  O  O294  1  0.37998281  0.63029854  0.63011700  1
  O  O295  1  0.88451417  0.13022841  0.13288231  1
  O  O296  1  0.88026543  0.12702573  0.62710090  1
  O  O297  1  0.87451678  0.63893167  0.12484267  1
  O  O298  1  0.88808513  0.63163742  0.62380984  1
  O  O299  1  0.25563246  0.25540035  0.12222628  1
  O  O300  1  0.25970413  0.25584417  0.62706121  1
  O  O301  1  0.26678232  0.74855189  0.12716828  1
  O  O302  1  0.25235145  0.75570469  0.62095841  1
  O  O303  1  0.75803789  0.25899881  0.12865182  1
  O  O304  1  0.75759072  0.25694229  0.62379399  1
  O  O305  1  0.75522318  0.75601006  0.12135753  1
  O  O306  1  0.75179170  0.75891315  0.61475165  1
  O  O307  1  0.23699163  0.25757164  0.37362803  1
  O  O308  1  0.23701184  0.23008234  0.86834251  1
  O  O309  1  0.24167495  0.74421580  0.38451795  1
  O  O310  1  0.23247975  0.74207933  0.86940850  1
  O  O311  1  0.73681918  0.24474004  0.36781318  1
  O  O312  1  0.76128347  0.23485593  0.89027160  1
  O  O313  1  0.74130853  0.74488900  0.38123277  1
  O  O314  1  0.75221823  0.75111513  0.88281402  1
  O  O315  1  0.00993009  0.12365609  0.00695557  1
  O  O316  1  0.00881023  0.12642124  0.51144453  1
  O  O317  1  -0.00715020  0.63188504  0.02021947  1
  O  O318  1  0.00606836  0.62119405  0.50514548  1
  O  O319  1  0.49521670  0.10443121  0.00760710  1
  O  O320  1  0.50667539  0.11521093  0.50009164  1
  O  O321  1  0.52538166  0.67165831  0.00414316  1
  O  O322  1  0.50497393  0.61881432  0.50879286  1
  O  O323  1  0.49104542  0.37841742  0.49629349  1
  O  O324  1  0.50473440  0.36485385  1.00242792  1
  O  O325  1  0.49775128  0.88981187  0.49761575  1
  O  O326  1  0.48828998  0.87992123  0.99060469  1
  O  O327  1  0.99888284  0.38603862  0.49388743  1
  O  O328  1  0.98554225  0.36694099  0.99159377  1
  O  O329  1  0.98908100  0.86826357  0.49026445  1
  O  O330  1  0.99463315  0.87484501  0.99590312  1
  O  O331  1  0.49359223  0.49323568  0.38214745  1
  O  O332  1  0.52521423  0.48484266  0.86383431  1
  O  O333  1  0.49161800  0.99861993  0.38066149  1
  O  O334  1  0.48798430  0.99379810  0.88230257  1
  O  O335  1  1.00561112  0.49264411  0.38215400  1
  O  O336  1  0.99789685  0.48584065  0.87561250  1
  O  O337  1  1.00165961  0.98762664  0.36709215  1
  O  O338  1  1.00040312  0.98861057  0.87653519  1
  O  O339  1  0.00988286  0.00915595  0.13035870  1
  O  O340  1  0.00863498  0.00721809  0.62945874  1
  O  O341  1  -0.00503094  0.52213379  0.13378286  1
  O  O342  1  0.00260536  0.50785474  0.61661108  1
  O  O343  1  0.50356104  0.00161972  0.12008719  1
  O  O344  1  0.50712377  0.00364424  0.61557111  1
  O  O345  1  0.51668748  0.50744837  0.13607216  1
  O  O346  1  0.51396706  0.51106824  0.61774528  1
  O  O347  1  0.26536791  0.37477306  0.22587777  1
  O  O348  1  0.23763783  0.37037336  0.74304349  1
  O  O349  1  0.24818326  0.88691787  0.25205987  1
  O  O350  1  0.24189343  0.88362950  0.74475396  1
  O  O351  1  0.75006708  0.38572874  0.24552610  1
  O  O352  1  0.75242223  0.38185993  0.73087545  1
  O  O353  1  0.74359236  0.88344104  0.24746921  1
  O  O354  1  0.73875762  0.88734452  0.73932888  1
  O  O355  1  0.26345160  0.12114598  0.24549920  1
  O  O356  1  0.24006632  0.11149895  0.75606689  1
  O  O357  1  0.25760682  0.62965431  0.26808350  1
  O  O358  1  0.25408288  0.62085018  0.74994849  1
  O  O359  1  0.75272541  0.12116530  0.25901795  1
  O  O360  1  0.75719977  0.11109096  0.74399155  1
  O  O361  1  0.74902572  0.61287147  0.25820560  1
  O  O362  1  0.75602604  0.63077977  0.75761366  1
  O  O363  1  0.37922015  0.11133759  0.36537264  1
  O  O364  1  0.36240180  0.10731933  0.88019356  1
  O  O365  1  0.36709638  0.61968390  0.37928584  1
  O  O366  1  0.35201079  0.63579969  0.86378586  1
  O  O367  1  0.86754620  0.12648739  0.37160113  1
  O  O368  1  0.88641063  0.12336114  0.85989277  1
  O  O369  1  0.86045068  0.63168166  0.38202354  1
  O  O370  1  0.86591720  0.62964151  0.87573963  1
  O  O371  1  0.13877457  0.36645164  0.12786762  1
  O  O372  1  0.13166585  0.36995326  0.63249892  1
  O  O373  1  0.11937926  0.88850468  0.12385659  1
  O  O374  1  0.12732519  0.88293456  0.62637446  1
  O  O375  1  0.64162061  0.38866301  0.12821809  1
  O  O376  1  0.62956219  0.38450220  0.61918645  1
  O  O377  1  0.63115263  0.88141194  0.13567474  1
  O  O378  1  0.62592330  0.88160570  0.62546714  1
  O  O379  1  0.11554933  0.24115761  0.25896324  1
  O  O380  1  0.11490919  0.25505639  0.75890795  1
  O  O381  1  0.11962072  0.74696725  0.26530331  1
  O  O382  1  0.11354859  0.75811497  0.75387277  1
  O  O383  1  0.61439599  0.24970780  0.25670333  1
  O  O384  1  0.62184122  0.24538676  0.74712021  1
  O  O385  1  0.63022334  0.75907453  0.25922607  1
  O  O386  1  0.62714429  0.76588000  0.74627964  1
  O  O387  1  0.38914856  0.23775085  0.26249401  1
  O  O388  1  0.37683562  0.24633102  0.74624585  1
  O  O389  1  0.37187599  0.74711544  0.25311696  1
  O  O390  1  0.36656905  0.74214624  0.73570651  1
  O  O391  1  0.88362125  0.24504897  0.24535181  1
  O  O392  1  0.88009381  0.23643914  0.73449901  1
  O  O393  1  0.88028889  0.75577610  0.24335908  1
  O  O394  1  0.88922623  0.75500799  0.74968561  1
  O  O395  1  0.37958964  0.48889949  0.49496126  1
  O  O396  1  0.41818870  0.55577749  1.00852332  1
  O  O397  1  0.37927027  1.00304395  0.49283004  1
  O  O398  1  0.37788252  0.98713692  0.99478110  1
  O  O399  1  0.88691499  0.50165917  0.50185470  1
  O  O400  1  0.88018720  0.49187905  0.99872168  1
  O  O401  1  0.87075627  0.98879575  0.49622682  1
  O  O402  1  0.88226753  0.98846968  1.00220850  1
  O  O403  1  0.12304806  0.00676361  0.00968004  1
  O  O404  1  0.12919144  0.00727429  0.51122044  1
  O  O405  1  0.10728300  0.49175371  0.01556355  1
  O  O406  1  0.11852959  0.51148517  0.50189323  1
  O  O407  1  0.61360213  -0.01126998  0.01667088  1
  O  O408  1  0.61636546  0.00830122  0.49879719  1
  O  O409  1  0.61792850  0.50201574  0.01512227  1
  O  O410  1  0.61977265  0.50794306  0.50325777  1
  O  O411  1  0.37531329  0.36725344  0.10818677  1
  O  O412  1  0.36672713  0.35786214  0.61693231  1
  O  O413  1  0.37244844  0.86599006  0.11553262  1
  O  O414  1  0.36901524  0.86755611  0.62370656  1
  O  O415  1  0.87076812  0.37086542  0.12033703  1
  O  O416  1  0.86936671  0.36436042  0.62047612  1
  O  O417  1  0.87145042  0.86995098  0.12136902  1
  O  O418  1  0.86950147  0.87583474  0.61700015  1
  O  O419  1  0.11716529  0.13574285  0.38621959  1
  O  O420  1  0.12653542  0.12733174  0.88136835  1
  O  O421  1  0.13046912  0.63103708  0.38303809  1
  O  O422  1  0.12967683  0.63919038  0.87302788  1
  O  O423  1  0.63008178  0.13119696  0.37842201  1
  O  O424  1  0.66360603  0.04857020  0.85984417  1
  O  O425  1  0.63219719  0.63234410  0.38073287  1
  O  O426  1  0.63956701  0.63717403  0.87482203  1
