# generated using pymatgen
data_V85Zn86O256
_symmetry_space_group_name_H-M   'P 1'
_cell_length_a   16.94685408
_cell_length_b   16.93543022
_cell_length_c   16.93260749
_cell_angle_alpha   90.02106961
_cell_angle_beta   89.99610559
_cell_angle_gamma   89.99332000
_symmetry_Int_Tables_number   1
_chemical_formula_structural   V85Zn86O256
_chemical_formula_sum   'V85 Zn86 O256'
_cell_volume   4859.69632346
_cell_formula_units_Z   1
loop_
 _symmetry_equiv_pos_site_id
 _symmetry_equiv_pos_as_xyz
  1  'x, y, z'
loop_
 _atom_site_type_symbol
 _atom_site_label
 _atom_site_symmetry_multiplicity
 _atom_site_fract_x
 _atom_site_fract_y
 _atom_site_fract_z
 _atom_site_occupancy
  V  V0  1  0.00385460  0.61700874  0.12997475  1
  V  V1  1  -0.04942989  0.82946656  0.42431850  1
  V  V2  1  0.74033138  0.63047315  0.36710478  1
  V  V3  1  0.00546494  0.76378219  0.24868886  1
  V  V4  1  0.12902532  0.25218876  0.37654474  1
  V  V5  1  0.62366511  0.74995654  0.87474230  1
  V  V6  1  0.00043712  0.00023281  -0.00279599  1
  V  V7  1  0.62447966  0.37942920  0.26292973  1
  V  V8  1  0.00084381  0.37451795  0.87445944  1
  V  V9  1  -0.00158243  0.38104563  0.37533247  1
  V  V10  1  0.24188028  0.50286080  0.24871372  1
  V  V11  1  0.75965265  0.86852502  0.61191044  1
  V  V12  1  0.12672093  0.37281842  0.74621801  1
  V  V13  1  0.62316486  0.61827174  -0.00178698  1
  V  V14  1  0.00218287  0.24182353  0.74377636  1
  V  V15  1  0.12389423  0.74959448  0.87540271  1
  V  V16  1  0.25162543  0.12962832  0.38351191  1
  V  V17  1  0.11904738  0.50434632  0.62183025  1
  V  V18  1  0.13749991  0.76488213  0.37415457  1
  V  V19  1  0.87415436  0.87343993  -0.00188880  1
  V  V20  1  0.25378537  0.00217783  0.74171119  1
  V  V21  1  0.50051676  0.12752251  0.12582714  1
  V  V22  1  -0.00081723  0.87429987  0.86981289  1
  V  V23  1  0.75010271  0.24662280  -0.00627654  1
  V  V24  1  0.24680238  0.38023100  0.12462551  1
  V  V25  1  0.36285588  0.87546454  0.50743428  1
  V  V26  1  0.25142153  0.37159500  0.61341558  1
  V  V27  1  0.74672017  0.23770779  0.49699855  1
  V  V28  1  0.00059827  0.25139518  0.25013623  1
  V  V29  1  0.62346534  0.87246875  0.25542890  1
  V  V30  1  0.87425245  0.25017356  0.12460778  1
  V  V31  1  0.49961224  0.00081079  0.00137547  1
  V  V32  1  0.50020653  0.61788699  0.12298083  1
  V  V33  1  0.86729063  0.37861352  0.49975994  1
  V  V34  1  0.62807310  0.87980869  0.74217083  1
  V  V35  1  0.37399746  0.87554357  0.00046403  1
  V  V36  1  0.37603352  0.62668363  0.74697462  1
  V  V37  1  0.11580517  0.12808003  0.50679345  1
  V  V38  1  0.50090370  0.25549452  0.25607853  1
  V  V39  1  0.74824752  0.00252623  0.25580700  1
  V  V40  1  0.49954843  0.87507117  0.87476998  1
  V  V41  1  0.36098786  0.75304860  0.62227064  1
  V  V42  1  0.62565160  0.49827022  0.12728741  1
  V  V43  1  0.37924576  0.49770079  0.87973037  1
  V  V44  1  0.51410351  0.00248460  0.50501034  1
  V  V45  1  0.37277328  0.00875083  0.87351043  1
  V  V46  1  0.50472136  0.25354153  0.74892487  1
  V  V47  1  0.62802926  0.23346055  0.37806473  1
  V  V48  1  0.12571020  -0.00684362  0.13205121  1
  V  V49  1  0.75045061  0.74727345  0.00028987  1
  V  V50  1  0.74901966  0.37976558  0.13014185  1
  V  V51  1  0.24957856  0.75038797  0.00127824  1
  V  V52  1  0.62617708  0.00080755  0.12543339  1
  V  V53  1  0.37107122  0.23919308  0.62670091  1
  V  V54  1  0.86911828  0.12343430  0.75081196  1
  V  V55  1  0.87696729  0.74660268  0.12643298  1
  V  V56  1  0.62372229  0.65231417  0.49584105  1
  V  V57  1  0.12664692  0.12491541  -0.00068850  1
  V  V58  1  0.12609242  0.61692349  0.00607972  1
  V  V59  1  0.75395644  0.62028541  0.86036750  1
  V  V60  1  0.88107083  0.00285343  0.37992989  1
  V  V61  1  0.25226881  0.62506563  0.38357186  1
  V  V62  1  0.62869344  0.12459519  -0.01092037  1
  V  V63  1  0.50290916  0.74929751  0.25631066  1
  V  V64  1  0.38812276  0.37212774  0.49738943  1
  V  V65  1  0.51119844  0.37968066  0.87533327  1
  V  V66  1  0.12885548  0.87543310  0.74126713  1
  V  V67  1  0.25024521  0.62423861  0.87557762  1
  V  V68  1  -0.00327872  0.73704887  0.74055504  1
  V  V69  1  0.11787207  0.62854086  0.49726251  1
  V  V70  1  0.86499382  0.00409864  0.87430186  1
  V  V71  1  0.37468153  0.12601391  0.25284697  1
  V  V72  1  0.12708699  0.24912376  0.87392664  1
  V  V73  1  0.86865701  0.12674756  0.25433481  1
  V  V74  1  0.25075529  0.49716800  0.74861775  1
  V  V75  1  0.37602405  0.62254514  0.25235019  1
  V  V76  1  0.87516788  0.37934329  0.00053875  1
  V  V77  1  0.87718688  0.24245810  0.62064849  1
  V  V78  1  0.87318490  0.50159044  0.85999610  1
  V  V79  1  0.37652091  0.74970586  0.12452998  1
  V  V80  1  0.37725994  -0.00062294  0.38008659  1
  V  V81  1  0.25498774  0.25111020  0.00091061  1
  V  V82  1  0.74169053  0.37719578  0.63760721  1
  V  V83  1  0.51817439  0.12099401  0.62876140  1
  V  V84  1  0.00056391  0.12582630  0.12516356  1
  Zn  Zn85  1  0.50923543  0.50081443  0.49453789  1
  Zn  Zn86  1  0.49646989  0.75180274  0.74677846  1
  Zn  Zn87  1  0.63227947  0.25166166  0.86619056  1
  Zn  Zn88  1  0.85417607  0.49488001  0.36196938  1
  Zn  Zn89  1  0.12321975  0.37978062  0.24648507  1
  Zn  Zn90  1  0.85772274  0.73240046  0.63561754  1
  Zn  Zn91  1  -0.00887333  0.00170862  0.51150002  1
  Zn  Zn92  1  0.87463762  0.62351609  0.25863718  1
  Zn  Zn93  1  0.74921936  0.87346593  0.12529130  1
  Zn  Zn94  1  0.38144058  0.37887662  0.00252892  1
  Zn  Zn95  1  0.74365827  0.00468471  0.74552816  1
  Zn  Zn96  1  0.24551519  -0.00412422  0.25594791  1
  Zn  Zn97  1  0.38107344  0.49261993  0.37463880  1
  Zn  Zn98  1  0.24553459  0.87121290  0.13227360  1
  Zn  Zn99  1  0.11853408  0.00091617  0.62563339  1
  Zn  Zn100  1  0.62083222  0.50021732  0.63203287  1
  Zn  Zn101  1  0.50503795  0.86827367  0.38680385  1
  Zn  Zn102  1  0.00335381  0.49849833  0.00164822  1
  Zn  Zn103  1  0.25397849  0.12757068  0.87207692  1
  Zn  Zn104  1  -0.00516483  0.50067990  0.50356293  1
  Zn  Zn105  1  0.37622848  0.25299480  0.12689079  1
  Zn  Zn106  1  0.49675210  0.62485783  0.61688363  1
  Zn  Zn107  1  0.18958033  0.18644272  0.18959177  1
  Zn  Zn108  1  0.19312722  0.18470170  0.68831175  1
  Zn  Zn109  1  0.18745887  0.68889053  0.19156703  1
  Zn  Zn110  1  0.18479696  0.68603808  0.68701358  1
  Zn  Zn111  1  0.68649726  0.18959912  0.18514761  1
  Zn  Zn112  1  0.69148205  0.19205555  0.68706250  1
  Zn  Zn113  1  0.68813313  0.68658862  0.18996661  1
  Zn  Zn114  1  0.67913197  0.67040925  0.69446556  1
  Zn  Zn115  1  0.31086660  0.31343465  0.31236041  1
  Zn  Zn116  1  0.31787255  0.31277349  0.80865564  1
  Zn  Zn117  1  0.31527806  0.81613004  0.31319553  1
  Zn  Zn118  1  0.31080461  0.81526607  0.81197969  1
  Zn  Zn119  1  0.80805230  0.31223322  0.31393318  1
  Zn  Zn120  1  0.81669479  0.31145170  0.81242388  1
  Zn  Zn121  1  0.80676191  0.80840096  0.31003539  1
  Zn  Zn122  1  0.81157598  0.80773512  0.80948201  1
  Zn  Zn123  1  0.18913238  0.43994279  0.43551544  1
  Zn  Zn124  1  0.19064638  0.43558597  0.93634881  1
  Zn  Zn125  1  0.18801037  0.94616533  0.44156540  1
  Zn  Zn126  1  0.18833717  0.93742439  0.93654171  1
  Zn  Zn127  1  0.68488041  0.44388526  0.44578415  1
  Zn  Zn128  1  0.69055624  0.44035086  0.93869209  1
  Zn  Zn129  1  0.69195630  0.93539263  0.43600463  1
  Zn  Zn130  1  0.68745211  0.93478445  0.93706709  1
  Zn  Zn131  1  0.31155923  0.06457701  0.06381493  1
  Zn  Zn132  1  0.31000010  0.06251210  0.56012227  1
  Zn  Zn133  1  0.31253562  0.56092265  0.06359807  1
  Zn  Zn134  1  0.31228718  0.55765598  0.56243420  1
  Zn  Zn135  1  0.81106751  0.06208193  0.06486822  1
  Zn  Zn136  1  0.80618188  0.05515776  0.56697045  1
  Zn  Zn137  1  0.81173785  0.56258385  0.06277846  1
  Zn  Zn138  1  0.79278545  0.56275645  0.55967164  1
  Zn  Zn139  1  0.43539713  0.43754878  0.18898492  1
  Zn  Zn140  1  0.44054226  0.43755193  0.68566889  1
  Zn  Zn141  1  0.43434945  0.93703253  0.19016098  1
  Zn  Zn142  1  0.43832298  0.93801784  0.68645215  1
  Zn  Zn143  1  0.93724769  0.43966207  0.18932915  1
  Zn  Zn144  1  0.93693446  0.43010487  0.68373880  1
  Zn  Zn145  1  0.93469937  0.93895463  0.18620480  1
  Zn  Zn146  1  0.93501712  0.93443064  0.68292868  1
  Zn  Zn147  1  0.05979626  0.06493104  0.31501028  1
  Zn  Zn148  1  0.06175281  0.06159549  0.80962085  1
  Zn  Zn149  1  0.06004140  0.56860473  0.31481691  1
  Zn  Zn150  1  0.06318815  0.55912627  0.81534174  1
  Zn  Zn151  1  0.55905670  0.06092188  0.31365150  1
  Zn  Zn152  1  0.55766028  0.06259122  0.80885791  1
  Zn  Zn153  1  0.56215131  0.55855917  0.31991760  1
  Zn  Zn154  1  0.56415582  0.55892287  0.80526063  1
  Zn  Zn155  1  0.44237707  0.18921032  0.44337175  1
  Zn  Zn156  1  0.44201387  0.19142921  0.93617742  1
  Zn  Zn157  1  0.43582958  0.68922714  0.43970823  1
  Zn  Zn158  1  0.43898499  0.68520641  0.93675652  1
  Zn  Zn159  1  0.93654098  0.19030128  0.43472219  1
  Zn  Zn160  1  0.93780427  0.18794771  0.93495175  1
  Zn  Zn161  1  0.90347359  0.65507923  0.47756539  1
  Zn  Zn162  1  0.93902836  0.68440361  0.93630432  1
  Zn  Zn163  1  0.06568285  0.31326722  0.06303463  1
  Zn  Zn164  1  0.06101242  0.31217826  0.55944861  1
  Zn  Zn165  1  0.06052655  0.81000479  0.06062521  1
  Zn  Zn166  1  0.06845301  0.80910530  0.56293257  1
  Zn  Zn167  1  0.56289910  0.31274428  0.06021284  1
  Zn  Zn168  1  0.56643861  0.30813772  0.56418467  1
  Zn  Zn169  1  0.56186533  0.81143732  0.06547814  1
  Zn  Zn170  1  0.55389976  0.80926435  0.56766766  1
  O  O171  1  0.11979949  0.11930204  0.11786971  1
  O  O172  1  0.12901651  0.13210242  0.60849829  1
  O  O173  1  0.11715715  0.63259668  0.11690229  1
  O  O174  1  0.13221410  0.61563500  0.61256818  1
  O  O175  1  0.61939494  0.11806088  0.11848017  1
  O  O176  1  0.61661218  0.12478293  0.62629447  1
  O  O177  1  0.62004972  0.61764869  0.11981970  1
  O  O178  1  0.61612893  0.64763869  0.60214337  1
  O  O179  1  0.36832712  0.36780726  0.39523899  1
  O  O180  1  0.38355409  0.38380772  0.87579820  1
  O  O181  1  0.38052764  0.88425338  0.38790970  1
  O  O182  1  0.38083194  0.88147408  0.88309471  1
  O  O183  1  0.87999402  0.37489647  0.38077893  1
  O  O184  1  0.88012138  0.38037083  0.88283141  1
  O  O185  1  0.87970220  0.88310916  0.36747967  1
  O  O186  1  0.88208211  0.88065967  0.87767916  1
  O  O187  1  0.26251887  0.00997282  0.37591776  1
  O  O188  1  0.25881544  0.00259397  0.87077216  1
  O  O189  1  0.25702292  0.50707140  0.36686567  1
  O  O190  1  0.25813127  0.50316051  0.86785721  1
  O  O191  1  0.76017512  -0.00466160  0.36133580  1
  O  O192  1  0.76274276  -0.00258981  0.87555842  1
  O  O193  1  0.74224700  0.51535211  0.37864094  1
  O  O194  1  0.75928195  0.50727815  0.87553767  1
  O  O195  1  0.25325712  0.49273696  0.13366236  1
  O  O196  1  0.24168579  0.49011754  0.63053389  1
  O  O197  1  0.23370263  1.00210005  0.12338900  1
  O  O198  1  0.24562738  1.00408591  0.63883846  1
  O  O199  1  0.74101781  0.48987857  0.12064589  1
  O  O200  1  0.75300431  0.47891470  0.62474680  1
  O  O201  1  0.74371642  0.99736453  0.13515467  1
  O  O202  1  0.75301986  0.97844173  0.63185057  1
  O  O203  1  0.00290354  0.36756867  0.25469931  1
  O  O204  1  0.00707463  0.36265515  0.75404410  1
  O  O205  1  0.00137861  0.86334985  0.23935953  1
  O  O206  1  0.00839692  0.86948352  0.75988558  1
  O  O207  1  0.50881119  0.36219624  0.24279832  1
  O  O208  1  0.49723613  0.36677164  0.76189127  1
  O  O209  1  0.50578764  0.86653884  0.24942705  1
  O  O210  1  0.50927867  0.87475960  0.75722481  1
  O  O211  1  0.49588464  0.13510818  0.24610906  1
  O  O212  1  0.49886305  0.12880239  0.73521951  1
  O  O213  1  0.49631384  0.63096584  0.24257579  1
  O  O214  1  0.48129249  0.62858794  0.75518136  1
  O  O215  1  0.99189377  0.13232593  0.24359541  1
  O  O216  1  0.99226193  0.13670714  0.75403098  1
  O  O217  1  1.00122110  0.63741615  0.24258957  1
  O  O218  1  1.00830300  0.63889542  0.75457605  1
  O  O219  1  0.36349124  0.24923622  0.00017534  1
  O  O220  1  0.37976047  0.25898056  0.51506206  1
  O  O221  1  0.37046165  0.75457053  0.00394888  1
  O  O222  1  0.37714350  0.76689369  0.50542320  1
  O  O223  1  0.87014970  0.25869443  0.00325265  1
  O  O224  1  0.86926539  0.25521003  0.50422013  1
  O  O225  1  0.87106200  0.75380271  0.00484723  1
  O  O226  1  0.89565450  0.77118643  0.48169269  1
  O  O227  1  0.12068509  0.24096707  0.48782638  1
  O  O228  1  0.13559640  0.24546595  0.99513102  1
  O  O229  1  0.12395578  0.74350455  0.48446235  1
  O  O230  1  0.13028440  0.74233001  0.99404145  1
  O  O231  1  0.63004865  0.25131123  0.48516160  1
  O  O232  1  0.63380158  0.24117795  0.99878958  1
  O  O233  1  0.61237166  0.75144609  0.48630224  1
  O  O234  1  0.62939696  0.74528734  0.99226763  1
  O  O235  1  0.50022728  0.24297670  0.13255299  1
  O  O236  1  0.49569786  0.23812683  0.62865957  1
  O  O237  1  0.49492707  0.73855378  0.12999704  1
  O  O238  1  0.48115422  0.74604152  0.63034993  1
  O  O239  1  0.99393567  0.24677324  0.12966121  1
  O  O240  1  0.99098321  0.25451369  0.63272360  1
  O  O241  1  0.99560512  0.74295802  0.12960784  1
  O  O242  1  1.00455627  0.75115277  0.63979403  1
  O  O243  1  0.00546284  0.26064609  0.36844660  1
  O  O244  1  0.00651961  0.25628122  0.86796174  1
  O  O245  1  0.01109429  0.76297664  0.36706204  1
  O  O246  1  0.00529301  0.75664607  0.86992990  1
  O  O247  1  0.51403340  0.24584384  0.36846677  1
  O  O248  1  0.50189585  0.25969424  0.86558778  1
  O  O249  1  0.49267995  0.75252857  0.35918482  1
  O  O250  1  0.50708233  0.75689940  0.87544059  1
  O  O251  1  0.24070637  0.12482657  0.48866273  1
  O  O252  1  0.24379442  0.13362448  0.99772209  1
  O  O253  1  0.24465863  0.61835963  0.48732820  1
  O  O254  1  0.24452495  0.63083009  0.99701712  1
  O  O255  1  0.75337583  0.13850851  0.50650026  1
  O  O256  1  0.74138484  0.13399933  1.00642850  1
  O  O257  1  0.72972100  0.63229200  0.48938043  1
  O  O258  1  0.73844586  0.63016847  0.99733926  1
  O  O259  1  0.25301098  0.36823088  0.00632332  1
  O  O260  1  0.25327485  0.37566438  0.51109124  1
  O  O261  1  0.25680469  0.86782653  0.00285677  1
  O  O262  1  0.26434654  0.88357884  0.50154398  1
  O  O263  1  0.75638204  0.36859377  0.00896406  1
  O  O264  1  0.75569648  0.36328238  0.50411276  1
  O  O265  1  0.75623988  0.86660987  0.00249241  1
  O  O266  1  0.74600210  0.87202440  0.51281752  1
  O  O267  1  0.13807312  0.50220615  0.25530456  1
  O  O268  1  0.13100903  0.49426864  0.74343455  1
  O  O269  1  0.12317672  1.00735938  0.23500842  1
  O  O270  1  0.13457126  0.99241964  0.75156679  1
  O  O271  1  0.61806922  0.49140580  0.23634542  1
  O  O272  1  0.64229406  0.55837209  0.72920492  1
  O  O273  1  0.63048273  0.99749316  0.24483699  1
  O  O274  1  0.62602504  0.98418315  0.75934223  1
  O  O275  1  0.38363566  0.01164584  0.26370528  1
  O  O276  1  0.36195407  -0.00828484  0.75794121  1
  O  O277  1  0.36676175  0.50897459  0.25082596  1
  O  O278  1  0.36869561  0.50632529  0.75707574  1
  O  O279  1  0.86763986  0.00831489  0.25148454  1
  O  O280  1  0.87480104  0.00770062  0.75845069  1
  O  O281  1  0.88092271  0.50931402  0.25204839  1
  O  O282  1  0.88277833  0.49442399  0.76100822  1
  O  O283  1  0.11901849  0.36764078  0.37392883  1
  O  O284  1  0.12145236  0.36900016  0.86783667  1
  O  O285  1  0.14083047  0.86397713  0.37640683  1
  O  O286  1  0.11645678  0.86956971  0.87114946  1
  O  O287  1  0.63226986  0.37044680  0.36362737  1
  O  O288  1  0.61479728  0.37583313  0.87729536  1
  O  O289  1  0.62058981  0.88398642  0.35957070  1
  O  O290  1  0.61801986  0.86663193  0.87327200  1
  O  O291  1  0.38176501  0.12616820  0.13423395  1
  O  O292  1  0.37473531  0.13782362  0.62094439  1
  O  O293  1  0.38337370  0.62817382  0.12910630  1
  O  O294  1  0.37075874  0.63085808  0.63151110  1
  O  O295  1  0.88105530  0.13040799  0.13185054  1
  O  O296  1  0.87140690  0.13600736  0.63158234  1
  O  O297  1  0.88430227  0.63592358  0.12005904  1
  O  O298  1  0.87551135  0.63358078  0.58641687  1
  O  O299  1  0.25255309  0.25541954  0.11739678  1
  O  O300  1  0.26357753  0.25665761  0.63196416  1
  O  O301  1  0.25754735  0.74963561  0.11887893  1
  O  O302  1  0.26039269  0.74897384  0.62904500  1
  O  O303  1  0.75547030  0.25738097  0.11534616  1
  O  O304  1  0.75689505  0.25734863  0.61678043  1
  O  O305  1  0.75951727  0.74881736  0.11863891  1
  O  O306  1  0.74483394  0.76524376  0.63835615  1
  O  O307  1  0.23841980  0.24357808  0.36895766  1
  O  O308  1  0.24658851  0.24989432  0.88070376  1
  O  O309  1  0.24299815  0.74193413  0.36943653  1
  O  O310  1  0.24462309  0.74443770  0.88158300  1
  O  O311  1  0.73747432  0.24992530  0.38104135  1
  O  O312  1  0.75016800  0.25570371  0.88884703  1
  O  O313  1  0.75233169  0.73285590  0.37186563  1
  O  O314  1  0.74280349  0.74456164  0.88338103  1
  O  O315  1  0.00553869  0.12166746  0.00570631  1
  O  O316  1  0.01309950  0.12557628  0.49280668  1
  O  O317  1  0.01061688  0.62503998  0.00837501  1
  O  O318  1  0.01593649  0.61773083  0.48649113  1
  O  O319  1  0.50776589  0.12102675  0.00585718  1
  O  O320  1  0.49669079  0.11332133  0.51508269  1
  O  O321  1  0.51412517  0.63018825  0.00745804  1
  O  O322  1  0.51074053  0.62565905  0.49405774  1
  O  O323  1  0.48960951  0.37202439  0.50568658  1
  O  O324  1  0.49736826  0.36795559  0.98182724  1
  O  O325  1  0.49354542  0.89076216  0.50413749  1
  O  O326  1  0.49541264  0.88167565  0.99517217  1
  O  O327  1  0.98928879  0.37378334  0.49093363  1
  O  O328  1  0.99241721  0.37444676  0.99563805  1
  O  O329  1  1.00986772  0.88142624  0.49078175  1
  O  O330  1  0.99489084  0.87795574  0.98846178  1
  O  O331  1  0.49392528  0.49460806  0.37836009  1
  O  O332  1  0.49614751  0.48864665  0.86708820  1
  O  O333  1  0.49115529  1.00423669  0.38937282  1
  O  O334  1  0.49205266  0.99466862  0.88108008  1
  O  O335  1  1.00385060  0.48584694  0.37535280  1
  O  O336  1  0.99370397  0.49216123  0.87973383  1
  O  O337  1  0.98578320  1.00121501  0.37319948  1
  O  O338  1  0.99405337  0.99148553  0.87897421  1
  O  O339  1  0.00787728  0.00472364  0.11817044  1
  O  O340  1  0.00427385  -0.00207756  0.62485275  1
  O  O341  1  0.00037379  0.51327547  0.12160694  1
  O  O342  1  0.01546839  0.48997431  0.62355933  1
  O  O343  1  0.50536063  0.00711627  0.12008537  1
  O  O344  1  0.49837782  0.01203372  0.61904309  1
  O  O345  1  0.50413522  0.51146088  0.12634289  1
  O  O346  1  0.50137452  0.50666086  0.62182380  1
  O  O347  1  0.24979858  0.38453658  0.24328974  1
  O  O348  1  0.24529669  0.37889529  0.74181712  1
  O  O349  1  0.26533789  0.88546966  0.24251126  1
  O  O350  1  0.23934133  0.88894228  0.75997957  1
  O  O351  1  0.74031731  0.36767902  0.23690560  1
  O  O352  1  0.75249578  0.36550725  0.73623980  1
  O  O353  1  0.74123803  0.88160116  0.24544827  1
  O  O354  1  0.73473880  0.87568366  0.75571235  1
  O  O355  1  0.25836689  0.12110789  0.26049048  1
  O  O356  1  0.24569400  0.10803063  0.75602309  1
  O  O357  1  0.25654662  0.61954558  0.25642392  1
  O  O358  1  0.25614520  0.61807340  0.75628131  1
  O  O359  1  0.75867482  0.11758568  0.24202562  1
  O  O360  1  0.76352582  0.12508086  0.74861418  1
  O  O361  1  0.75068789  0.62579878  0.26028156  1
  O  O362  1  0.76921292  0.64443564  0.76544275  1
  O  O363  1  0.36962548  0.12274537  0.37541355  1
  O  O364  1  0.37770575  0.11181066  0.87934813  1
  O  O365  1  0.36663877  0.62746193  0.36834203  1
  O  O366  1  0.36864089  0.61947477  0.86955105  1
  O  O367  1  0.87777541  0.12056496  0.36084533  1
  O  O368  1  0.88063017  0.11515581  0.86666853  1
  O  O369  1  0.85846890  0.61714125  0.38037359  1
  O  O370  1  0.86592589  0.61102153  0.88712213  1
  O  O371  1  0.14027348  0.37148634  0.12740644  1
  O  O372  1  0.13343645  0.37672193  0.62785285  1
  O  O373  1  0.12418155  0.89011262  0.11688055  1
  O  O374  1  0.12757009  0.87394994  0.63852976  1
  O  O375  1  0.63106796  0.38069615  0.12854763  1
  O  O376  1  0.63756039  0.37272013  0.62689533  1
  O  O377  1  0.62354564  0.88629924  0.13197204  1
  O  O378  1  0.62481160  0.86971915  0.64081039  1
  O  O379  1  0.11763880  0.24909450  0.25910340  1
  O  O380  1  0.11996289  0.25111450  0.75296660  1
  O  O381  1  0.11960685  0.74805248  0.26511418  1
  O  O382  1  0.12034304  0.75674181  0.75743242  1
  O  O383  1  0.62072070  0.25535584  0.25931966  1
  O  O384  1  0.61159093  0.24405989  0.75101947  1
  O  O385  1  0.61483339  0.76152814  0.23840778  1
  O  O386  1  0.62128746  0.75674543  0.76474877  1
  O  O387  1  0.38451162  0.24438753  0.25245176  1
  O  O388  1  0.38704260  0.25323362  0.73490268  1
  O  O389  1  0.38215621  0.74206244  0.24198952  1
  O  O390  1  0.37105426  0.74331950  0.74537142  1
  O  O391  1  0.87752256  0.24405200  0.24529088  1
  O  O392  1  0.88299142  0.24327921  0.74363425  1
  O  O393  1  0.88395695  0.74714466  0.24082876  1
  O  O394  1  0.89297328  0.75128487  0.75100255  1
  O  O395  1  0.37496386  0.48144788  0.50192629  1
  O  O396  1  0.37293329  0.50235154  0.98366626  1
  O  O397  1  0.38034555  0.99358026  0.49771065  1
  O  O398  1  0.37844259  0.99453648  0.99474711  1
  O  O399  1  0.87425540  0.48407655  0.49816378  1
  O  O400  1  0.87533056  0.48683503  0.99819096  1
  O  O401  1  0.87396299  1.00822002  0.48561519  1
  O  O402  1  0.88077439  0.99576138  0.99450674  1
  O  O403  1  0.11901441  0.00681548  0.00513484  1
  O  O404  1  0.12286053  0.01698638  0.50129126  1
  O  O405  1  0.12675605  0.51324718  -0.00541821  1
  O  O406  1  0.12541383  0.50652391  0.50673556  1
  O  O407  1  0.62200600  0.00620441  0.00511621  1
  O  O408  1  0.61228162  -0.00128772  0.49441623  1
  O  O409  1  0.62668671  0.50745434  0.01168508  1
  O  O410  1  0.62398232  0.50901149  0.51362121  1
  O  O411  1  0.36500024  0.37310235  0.12129117  1
  O  O412  1  0.36888513  0.36680533  0.61814323  1
  O  O413  1  0.37940530  0.86920404  0.11325188  1
  O  O414  1  0.37560764  0.87085498  0.61526429  1
  O  O415  1  0.86884950  0.37027864  0.11931151  1
  O  O416  1  0.86864938  0.36229983  0.61714477  1
  O  O417  1  0.87585505  0.86328209  0.11684053  1
  O  O418  1  0.86297086  0.86214912  0.62818494  1
  O  O419  1  0.13198730  0.13171242  0.38044082  1
  O  O420  1  0.12404700  0.13146015  0.88372597  1
  O  O421  1  0.13505470  0.63276386  0.37991393  1
  O  O422  1  0.13188222  0.62971835  0.88255176  1
  O  O423  1  0.62793851  0.13505497  0.36950764  1
  O  O424  1  0.61974621  0.12581656  0.88640119  1
  O  O425  1  0.63053600  0.62848092  0.37913334  1
  O  O426  1  0.63132433  0.63104446  0.88293297  1
