# generated using pymatgen
data_V85Zn86O256
_symmetry_space_group_name_H-M   'P 1'
_cell_length_a   16.93601905
_cell_length_b   16.94768584
_cell_length_c   16.95629258
_cell_angle_alpha   89.98599126
_cell_angle_beta   89.91781315
_cell_angle_gamma   89.99652184
_symmetry_Int_Tables_number   1
_chemical_formula_structural   V85Zn86O256
_chemical_formula_sum   'V85 Zn86 O256'
_cell_volume   4866.89726975
_cell_formula_units_Z   1
loop_
 _symmetry_equiv_pos_site_id
 _symmetry_equiv_pos_as_xyz
  1  'x, y, z'
loop_
 _atom_site_type_symbol
 _atom_site_label
 _atom_site_symmetry_multiplicity
 _atom_site_fract_x
 _atom_site_fract_y
 _atom_site_fract_z
 _atom_site_occupancy
  V  V0  1  0.23949973  0.37486524  0.12974893  1
  V  V1  1  0.25516024  0.87595424  0.11810357  1
  V  V2  1  0.25719176  0.75121860  -0.00747980  1
  V  V3  1  0.00726231  0.25198982  0.74504177  1
  V  V4  1  0.51337901  0.61809092  0.62129370  1
  V  V5  1  0.49524627  0.13347742  0.63006838  1
  V  V6  1  0.63671883  0.49080991  0.13089329  1
  V  V7  1  0.49988619  0.74713910  0.74673368  1
  V  V8  1  0.87583561  0.25405078  0.62431272  1
  V  V9  1  0.49376787  -0.00162987  0.00006198  1
  V  V10  1  0.74905815  0.87561895  0.12570901  1
  V  V11  1  0.62389446  0.36426131  0.74184424  1
  V  V12  1  -0.00177400  0.75307817  0.25524608  1
  V  V13  1  0.75670920  0.25359766  0.01467976  1
  V  V14  1  0.37649223  0.12427556  0.25902172  1
  V  V15  1  0.24800066  0.47962361  0.75276334  1
  V  V16  1  0.12809096  0.74677136  0.87228360  1
  V  V17  1  0.24772287  0.49458197  0.25402781  1
  V  V18  1  0.87880194  0.12662891  0.74189841  1
  V  V19  1  0.87324931  0.62239518  0.74665034  1
  V  V20  1  0.49933538  0.12642289  0.12826891  1
  V  V21  1  0.62416026  0.62514470  0.00403314  1
  V  V22  1  0.88459785  0.00363699  0.37204713  1
  V  V23  1  0.24674665  0.12160270  0.37805175  1
  V  V24  1  0.62231930  0.87555172  0.25477268  1
  V  V25  1  0.50047423  0.50022602  -0.00003778  1
  V  V26  1  0.62681310  0.74496146  0.38276655  1
  V  V27  1  0.51816812  0.49915216  0.49417122  1
  V  V28  1  0.62549082  0.75148801  0.87608965  1
  V  V29  1  0.87155819  0.37820204  0.49769087  1
  V  V30  1  0.12080015  0.12355449  0.51339796  1
  V  V31  1  0.36441192  0.62473829  0.74974004  1
  V  V32  1  0.47970803  -0.00220691  0.49887793  1
  V  V33  1  0.74744623  0.61906968  0.87211755  1
  V  V34  1  0.87147778  0.00217876  0.87261095  1
  V  V35  1  0.48632446  0.87829108  0.37825128  1
  V  V36  1  -0.00784437  0.12971901  0.12824694  1
  V  V37  1  0.24933094  0.12396396  0.87635230  1
  V  V38  1  0.37198051  0.25221983  0.12970373  1
  V  V39  1  0.75082370  0.87620749  0.62120347  1
  V  V40  1  -0.05597268  0.57082045  0.18042111  1
  V  V41  1  0.37443737  0.38247250  0.49995747  1
  V  V42  1  0.00069301  0.74975738  0.74921264  1
  V  V43  1  0.25453625  -0.00130657  0.25431370  1
  V  V44  1  0.87931893  0.87346315  0.49114073  1
  V  V45  1  0.73926980  0.49696594  0.73065989  1
  V  V46  1  0.74754941  0.25144053  0.50558724  1
  V  V47  1  0.49225374  0.87523589  0.87664406  1
  V  V48  1  0.00087187  0.25652586  0.25120232  1
  V  V49  1  0.00167977  0.62248143  0.62434741  1
  V  V50  1  0.77662493  0.60288321  0.36761094  1
  V  V51  1  0.12623824  0.50451859  0.12779543  1
  V  V52  1  0.49885907  0.26406467  0.25625200  1
  V  V53  1  0.62194683  0.25754687  0.37762512  1
  V  V54  1  -0.00089423  0.00213517  -0.00095183  1
  V  V55  1  0.12323659  0.87463323  0.25579217  1
  V  V56  1  0.88088277  0.75000869  0.12849328  1
  V  V57  1  0.25389417  0.25365273  0.50754027  1
  V  V58  1  0.12166461  0.13252641  0.00037600  1
  V  V59  1  0.37365936  0.37707435  0.00122028  1
  V  V60  1  0.50615269  0.36313429  0.87262022  1
  V  V61  1  0.62398260  0.11856896  0.49862566  1
  V  V62  1  0.12833337  0.62741764  -0.00053731  1
  V  V63  1  0.62490376  0.00158245  0.12604348  1
  V  V64  1  0.25727328  0.87932535  0.62061627  1
  V  V65  1  0.12468010  0.87951477  0.74371611  1
  V  V66  1  0.87552873  0.87529703  -0.00206876  1
  V  V67  1  0.87685006  0.75010932  0.62155464  1
  V  V68  1  0.00502471  0.37776149  0.86871892  1
  V  V69  1  0.12470395  -0.00047038  0.12373236  1
  V  V70  1  0.75168857  0.75075618  -0.00000567  1
  V  V71  1  0.74701736  0.13905548  0.87035556  1
  V  V72  1  0.24687204  0.25117794  0.00325915  1
  V  V73  1  0.26016570  0.75439778  0.49866870  1
  V  V74  1  0.00579138  -0.00338895  0.51203998  1
  V  V75  1  0.24853908  0.00229669  0.74694775  1
  V  V76  1  -0.00128197  0.49887781  0.49721675  1
  V  V77  1  0.62298567  0.13261417  -0.00456991  1
  V  V78  1  0.62498026  0.87686375  0.74902612  1
  V  V79  1  -0.00277194  0.50613840  -0.00767019  1
  V  V80  1  0.12966240  0.62656510  0.50386727  1
  V  V81  1  0.13156282  0.48357850  0.62718565  1
  V  V82  1  0.37729340  0.74928476  0.12289702  1
  V  V83  1  0.00769893  0.37456553  0.37536522  1
  V  V84  1  0.25425925  0.62516420  0.37462544  1
  Zn  Zn85  1  0.75003322  0.12276801  0.37446596  1
  Zn  Zn86  1  0.49674363  0.74894566  0.25350928  1
  Zn  Zn87  1  0.64168711  0.37720265  0.25297310  1
  Zn  Zn88  1  0.37305098  0.26569400  0.63998685  1
  Zn  Zn89  1  0.87263606  0.49626903  0.86911416  1
  Zn  Zn90  1  0.37074863  -0.00333883  0.87882361  1
  Zn  Zn91  1  0.37915390  0.75078323  0.62046674  1
  Zn  Zn92  1  0.37988756  0.12975964  0.75587033  1
  Zn  Zn93  1  0.00008045  0.87580295  0.87348060  1
  Zn  Zn94  1  0.37139325  0.50314890  0.87624620  1
  Zn  Zn95  1  0.50114570  0.62329139  0.12814778  1
  Zn  Zn96  1  0.38386286  0.49580134  0.37157950  1
  Zn  Zn97  1  0.12707745  0.25608151  0.86850362  1
  Zn  Zn98  1  0.62113560  -0.00144779  0.62222636  1
  Zn  Zn99  1  0.12914869  0.25230144  0.37490176  1
  Zn  Zn100  1  0.87026006  0.12926931  0.24545108  1
  Zn  Zn101  1  0.75065401  0.00200944  0.25360284  1
  Zn  Zn102  1  0.74733221  0.74186639  0.49781584  1
  Zn  Zn103  1  0.37562066  0.62427104  0.24788058  1
  Zn  Zn104  1  0.74921359  0.00252114  0.74733995  1
  Zn  Zn105  1  0.12255571  0.75393534  0.37848545  1
  Zn  Zn106  1  0.86966329  0.37550720  -0.00089837  1
  Zn  Zn107  1  0.18052901  0.18752292  0.18991510  1
  Zn  Zn108  1  0.19024191  0.18793983  0.68738587  1
  Zn  Zn109  1  0.18817294  0.68740466  0.18632347  1
  Zn  Zn110  1  0.18885338  0.69009514  0.68307071  1
  Zn  Zn111  1  0.68667597  0.18830064  0.19281350  1
  Zn  Zn112  1  0.68592038  0.18727834  0.68369136  1
  Zn  Zn113  1  0.68887065  0.68574410  0.19341877  1
  Zn  Zn114  1  0.68832971  0.69112721  0.68598803  1
  Zn  Zn115  1  0.31168794  0.31453045  0.31981211  1
  Zn  Zn116  1  0.31936718  0.30943996  0.81942133  1
  Zn  Zn117  1  0.30995210  0.81036965  0.30938394  1
  Zn  Zn118  1  0.31264322  0.81155983  0.80760924  1
  Zn  Zn119  1  0.81701752  0.30750605  0.32192453  1
  Zn  Zn120  1  0.81413188  0.31791835  0.81125522  1
  Zn  Zn121  1  0.81052857  0.81368840  0.31114545  1
  Zn  Zn122  1  0.81219186  0.81152383  0.81047568  1
  Zn  Zn123  1  0.18986841  0.43736659  0.44151193  1
  Zn  Zn124  1  0.18531432  0.43822171  0.93572734  1
  Zn  Zn125  1  0.18872055  0.93920252  0.43724041  1
  Zn  Zn126  1  0.18404653  0.93596934  0.93448848  1
  Zn  Zn127  1  0.69324930  0.43623236  0.43364799  1
  Zn  Zn128  1  0.68325708  0.43432509  0.93732460  1
  Zn  Zn129  1  0.69011286  0.93611250  0.43517050  1
  Zn  Zn130  1  0.68513538  0.94232719  0.93717621  1
  Zn  Zn131  1  0.31299180  0.06431976  0.06583098  1
  Zn  Zn132  1  0.30938766  0.06587037  0.56723303  1
  Zn  Zn133  1  0.30940597  0.56574678  0.06097483  1
  Zn  Zn134  1  0.31544935  0.56046025  0.56861365  1
  Zn  Zn135  1  0.80909144  0.06472711  0.05986199  1
  Zn  Zn136  1  0.81333487  0.06164834  0.56048584  1
  Zn  Zn137  1  0.80911402  0.56194524  0.05596867  1
  Zn  Zn138  1  0.80915123  0.56502389  0.55332937  1
  Zn  Zn139  1  0.43493672  0.44099193  0.18468864  1
  Zn  Zn140  1  0.44164193  0.43980512  0.68602985  1
  Zn  Zn141  1  0.43621469  0.93600288  0.18862508  1
  Zn  Zn142  1  0.43481632  0.94274462  0.68828374  1
  Zn  Zn143  1  0.82060502  0.41692230  0.18040308  1
  Zn  Zn144  1  0.93511908  0.43661375  0.68450135  1
  Zn  Zn145  1  0.93934908  0.93640716  0.18690413  1
  Zn  Zn146  1  0.93654516  0.93733634  0.68617216  1
  Zn  Zn147  1  0.06291653  0.06269638  0.31385491  1
  Zn  Zn148  1  0.06162993  0.06443233  0.81057924  1
  Zn  Zn149  1  0.06716768  0.56179177  0.31878144  1
  Zn  Zn150  1  0.06938467  0.56321908  0.81028980  1
  Zn  Zn151  1  0.56083611  0.06282853  0.31760310  1
  Zn  Zn152  1  0.56430968  0.06151554  0.81261820  1
  Zn  Zn153  1  0.56347514  0.56622633  0.30900365  1
  Zn  Zn154  1  0.56055642  0.55953094  0.81198818  1
  Zn  Zn155  1  0.43630676  0.19029605  0.44038108  1
  Zn  Zn156  1  0.43327269  0.18806597  0.93909895  1
  Zn  Zn157  1  0.44229317  0.68415540  0.43694182  1
  Zn  Zn158  1  0.43705780  0.68503385  0.93464503  1
  Zn  Zn159  1  0.94047688  0.18724685  0.43801018  1
  Zn  Zn160  1  0.93620999  0.19095344  0.93262180  1
  Zn  Zn161  1  0.93739307  0.68435977  0.43472008  1
  Zn  Zn162  1  0.93827840  0.68613541  0.93430664  1
  Zn  Zn163  1  0.00734079  0.35677874  0.10729466  1
  Zn  Zn164  1  0.06076401  0.30749112  0.56162306  1
  Zn  Zn165  1  0.06302658  0.81299914  0.06396677  1
  Zn  Zn166  1  0.06646368  0.81384008  0.56295420  1
  Zn  Zn167  1  0.56279319  0.31180972  0.06336460  1
  Zn  Zn168  1  0.55934403  0.31663797  0.56023914  1
  Zn  Zn169  1  0.56237713  0.81512502  0.06188635  1
  Zn  Zn170  1  0.55896752  0.81421595  0.56093198  1
  O  O171  1  0.11619125  0.11821587  0.11755294  1
  O  O172  1  0.12910589  0.12115582  0.61147206  1
  O  O173  1  0.13183382  0.61753285  0.11286277  1
  O  O174  1  0.12193817  0.62112554  0.61574295  1
  O  O175  1  0.61751249  0.11948588  0.11983288  1
  O  O176  1  0.61347255  0.12267381  0.61631633  1
  O  O177  1  0.62715289  0.61702032  0.11951206  1
  O  O178  1  0.61217431  0.63015552  0.62624636  1
  O  O179  1  0.37650984  0.37751056  0.39169317  1
  O  O180  1  0.38721890  0.38069947  0.88370837  1
  O  O181  1  0.38710166  0.87132554  0.36876394  1
  O  O182  1  0.38890036  0.87500860  0.87011970  1
  O  O183  1  0.89053265  0.36876391  0.39186361  1
  O  O184  1  0.88652465  0.37775461  0.88006674  1
  O  O185  1  0.87424594  0.88331218  0.38625190  1
  O  O186  1  0.87454504  0.88363406  0.87879855  1
  O  O187  1  0.24977157  0.00605238  0.36456120  1
  O  O188  1  0.25051106  0.00645898  0.87079660  1
  O  O189  1  0.24921823  0.50662404  0.36797687  1
  O  O190  1  0.25080102  0.49659301  0.85819254  1
  O  O191  1  0.76749577  0.00048773  0.37725108  1
  O  O192  1  0.76084178  0.00815191  0.87468896  1
  O  O193  1  0.75668289  0.50406974  0.36935049  1
  O  O194  1  0.74810130  0.51201370  0.87469712  1
  O  O195  1  0.24327670  0.49539310  0.13144885  1
  O  O196  1  0.24235262  0.50296752  0.63876829  1
  O  O197  1  0.24479522  0.99373288  0.12970391  1
  O  O198  1  0.25044800  0.99377281  0.63448615  1
  O  O199  1  0.74063978  0.49729007  0.12168063  1
  O  O200  1  0.74714652  0.50486570  0.63276500  1
  O  O201  1  0.74134567  0.99414773  0.12383147  1
  O  O202  1  0.74966928  0.98715743  0.62558116  1
  O  O203  1  0.00146462  0.36008916  0.25936892  1
  O  O204  1  -0.00703115  0.36591500  0.75642358  1
  O  O205  1  0.01138315  0.86546585  0.24268025  1
  O  O206  1  0.00752761  0.86996693  0.74846266  1
  O  O207  1  0.49883818  0.36498332  0.24673867  1
  O  O208  1  0.50999847  0.38341914  0.76369533  1
  O  O209  1  0.50556892  0.87540116  0.25878239  1
  O  O210  1  0.50690802  0.87112852  0.75449918  1
  O  O211  1  0.49049767  0.12822573  0.24776965  1
  O  O212  1  0.50191164  0.11692897  0.73359838  1
  O  O213  1  0.49454885  0.63108391  0.24491147  1
  O  O214  1  0.49668371  0.62630398  0.73873075  1
  O  O215  1  0.99818965  0.12683819  0.24153607  1
  O  O216  1  0.98800549  0.13559868  0.75670850  1
  O  O217  1  1.00257307  0.62837115  0.24497053  1
  O  O218  1  0.99525207  0.62828235  0.74281250  1
  O  O219  1  0.36657555  0.25553378  0.00957007  1
  O  O220  1  0.36925358  0.26060925  0.50261063  1
  O  O221  1  0.36355690  0.74558465  0.00209512  1
  O  O222  1  0.36327795  0.74656259  0.49910650  1
  O  O223  1  0.85959152  0.24647376  -0.00148858  1
  O  O224  1  0.86907852  0.25196317  0.50661610  1
  O  O225  1  0.87117910  0.75415926  0.00497178  1
  O  O226  1  0.87936058  0.75871962  0.50348887  1
  O  O227  1  0.13050708  0.23605489  0.50000115  1
  O  O228  1  0.12879645  0.23640387  0.99984440  1
  O  O229  1  0.13269791  0.74189718  0.49924462  1
  O  O230  1  0.13054690  0.74673289  0.99258316  1
  O  O231  1  0.62882946  0.24422846  0.49688931  1
  O  O232  1  0.63216061  0.23770627  1.00469175  1
  O  O233  1  0.62602113  0.75639400  0.48680814  1
  O  O234  1  0.63209029  0.74590111  0.99643848  1
  O  O235  1  0.49409952  0.24417486  0.13409901  1
  O  O236  1  0.49744111  0.23508020  0.61711076  1
  O  O237  1  0.48527120  0.75403687  0.11995946  1
  O  O238  1  0.49837761  0.74147300  0.62860876  1
  O  O239  1  1.00623629  0.24336167  0.14215954  1
  O  O240  1  0.98965471  0.25012327  0.63237719  1
  O  O241  1  0.98790155  0.75172112  0.12998466  1
  O  O242  1  0.99733715  0.74325789  0.62966197  1
  O  O243  1  0.00660651  0.25631802  0.37309967  1
  O  O244  1  0.00143574  0.25886867  0.86557314  1
  O  O245  1  0.00388289  0.74415084  0.35950228  1
  O  O246  1  0.00684805  0.75296083  0.86587589  1
  O  O247  1  0.50789949  0.24363636  0.36704638  1
  O  O248  1  0.49827305  0.26444543  0.88204589  1
  O  O249  1  0.50876526  0.76032878  0.37730051  1
  O  O250  1  0.50709215  0.75714739  0.87009172  1
  O  O251  1  0.24177868  0.12671898  0.49449060  1
  O  O252  1  0.24181287  0.12778043  0.99679899  1
  O  O253  1  0.24567867  0.63110962  0.49743806  1
  O  O254  1  0.23927041  0.63630420  0.99777280  1
  O  O255  1  0.73954239  0.13034802  0.50150724  1
  O  O256  1  0.74260057  0.13391459  0.99237481  1
  O  O257  1  0.75823443  0.62851434  0.47520298  1
  O  O258  1  0.74402592  0.63220764  0.99011112  1
  O  O259  1  0.25186865  0.37093713  0.00764255  1
  O  O260  1  0.26089350  0.36686656  0.49894315  1
  O  O261  1  0.24307365  0.86651349  0.00798860  1
  O  O262  1  0.24256002  0.86781765  0.50883301  1
  O  O263  1  0.74789446  0.35725649  -0.00591189  1
  O  O264  1  0.76001911  0.36589479  0.49685118  1
  O  O265  1  0.75393076  0.86999568  0.00415144  1
  O  O266  1  0.76114168  0.87357202  0.50700799  1
  O  O267  1  0.13716430  0.50893523  0.24160063  1
  O  O268  1  0.13999260  0.50287466  0.74174763  1
  O  O269  1  0.13331804  0.99453037  0.24408512  1
  O  O270  1  0.13464458  0.99132231  0.75702040  1
  O  O271  1  0.61948610  0.49716627  0.23386902  1
  O  O272  1  0.63668773  0.49556268  0.75203248  1
  O  O273  1  0.62305709  0.99141654  0.24593004  1
  O  O274  1  0.62716533  0.98716822  0.74713009  1
  O  O275  1  0.36290823  0.00978141  0.24264164  1
  O  O276  1  0.36196304  0.00596967  0.75547537  1
  O  O277  1  0.36252638  0.50207811  0.25157570  1
  O  O278  1  0.36274912  0.50705096  0.74756695  1
  O  O279  1  0.87844334  -0.00190258  0.26352657  1
  O  O280  1  0.87425716  0.00785760  0.75572564  1
  O  O281  1  0.89090374  0.50651062  0.23096733  1
  O  O282  1  0.85974037  0.50410125  0.74807790  1
  O  O283  1  0.11291275  0.37314157  0.38453129  1
  O  O284  1  0.11081472  0.37342527  0.87633108  1
  O  O285  1  0.13088201  0.87388569  0.35963973  1
  O  O286  1  0.12209918  0.86492085  0.86361575  1
  O  O287  1  0.62705430  0.36122935  0.37426846  1
  O  O288  1  0.61155737  0.37721638  0.86815596  1
  O  O289  1  0.61566839  0.87329757  0.36867140  1
  O  O290  1  0.61998066  0.87168664  0.86705494  1
  O  O291  1  0.37783526  0.13275646  0.13723205  1
  O  O292  1  0.38888926  0.12543299  0.62570491  1
  O  O293  1  0.37496967  0.63608212  0.12410876  1
  O  O294  1  0.38437088  0.62683621  0.63710592  1
  O  O295  1  0.88895058  0.11827168  0.12378979  1
  O  O296  1  0.86855166  0.13293848  0.63554767  1
  O  O297  1  0.87652953  0.63067560  0.12518428  1
  O  O298  1  0.87953008  0.63075032  0.62728439  1
  O  O299  1  0.24940807  0.25570042  0.12355789  1
  O  O300  1  0.25450429  0.24321628  0.61150171  1
  O  O301  1  0.25769584  0.75747036  0.11612080  1
  O  O302  1  0.25325891  0.75867453  0.61532258  1
  O  O303  1  0.74925391  0.24485667  0.11309250  1
  O  O304  1  0.75707869  0.24654962  0.61300778  1
  O  O305  1  0.76116906  0.75442752  0.12184350  1
  O  O306  1  0.75626952  0.75899241  0.62007991  1
  O  O307  1  0.24836889  0.24065981  0.38671337  1
  O  O308  1  0.24569002  0.24284399  0.88522698  1
  O  O309  1  0.24604264  0.74332217  0.38091101  1
  O  O310  1  0.24269467  0.75853831  0.88276603  1
  O  O311  1  0.74283340  0.24321630  0.38998647  1
  O  O312  1  0.75396405  0.24040730  0.87788793  1
  O  O313  1  0.73321630  0.76202741  0.37750121  1
  O  O314  1  0.74448368  0.74052445  0.87712549  1
  O  O315  1  0.00504002  0.12371720  0.00441337  1
  O  O316  1  0.01447455  0.11606523  0.49693394  1
  O  O317  1  0.01449322  0.61823981  -0.01089057  1
  O  O318  1  0.00839149  0.61779343  0.50393320  1
  O  O319  1  0.50607253  0.12148161  0.00485450  1
  O  O320  1  0.50315657  0.11440819  0.50563623  1
  O  O321  1  0.50761546  0.61806449  0.00159016  1
  O  O322  1  0.49584591  0.61427268  0.51272098  1
  O  O323  1  0.49439229  0.39314067  0.50120363  1
  O  O324  1  0.49713283  0.38055987  0.99325983  1
  O  O325  1  0.49975563  0.89061462  0.49535390  1
  O  O326  1  0.50888860  0.88653829  0.98841875  1
  O  O327  1  0.99610603  0.38157218  0.49658636  1
  O  O328  1  1.00430737  0.39754570  0.99071532  1
  O  O329  1  0.99642762  0.88703556  0.50406731  1
  O  O330  1  0.99352433  0.88239817  0.99809259  1
  O  O331  1  0.50075301  0.51162447  0.39054313  1
  O  O332  1  0.50126632  0.49422552  0.88934228  1
  O  O333  1  0.49986893  0.99471948  0.39055904  1
  O  O334  1  0.49825384  0.99342038  0.88227866  1
  O  O335  1  1.00745332  0.49300879  0.38976433  1
  O  O336  1  0.99959912  0.49698057  0.87498906  1
  O  O337  1  0.98940583  1.00094287  0.38467820  1
  O  O338  1  0.98721977  1.00121338  0.87968617  1
  O  O339  1  0.00563811  0.00695755  0.11851495  1
  O  O340  1  -0.00456024  0.00216083  0.61064738  1
  O  O341  1  0.00723000  0.51645507  0.11433540  1
  O  O342  1  0.00933969  0.50454010  0.61906946  1
  O  O343  1  0.50491361  0.00451191  0.11899565  1
  O  O344  1  0.49957306  0.00510430  0.61203141  1
  O  O345  1  0.50721168  0.49984431  0.11267801  1
  O  O346  1  0.50142653  0.51219745  0.61532125  1
  O  O347  1  0.25071357  0.38226340  0.24420417  1
  O  O348  1  0.25338306  0.38141246  0.75132498  1
  O  O349  1  0.24499826  0.88260063  0.24184441  1
  O  O350  1  0.24413022  0.88252630  0.74448510  1
  O  O351  1  0.75468672  0.36486535  0.25067770  1
  O  O352  1  0.73787223  0.38865912  0.75500623  1
  O  O353  1  0.74113567  0.88033195  0.24272300  1
  O  O354  1  0.74260298  0.87495303  0.74153101  1
  O  O355  1  0.25384662  0.11845119  0.25698393  1
  O  O356  1  0.24575285  0.11768097  0.76035525  1
  O  O357  1  0.25050589  0.61973070  0.26006335  1
  O  O358  1  0.26330009  0.62804374  0.74695050  1
  O  O359  1  0.75370636  0.12011297  0.25419468  1
  O  O360  1  0.75462470  0.12324501  0.75541066  1
  O  O361  1  0.74996990  0.63571729  0.27380090  1
  O  O362  1  0.74982984  0.61547154  0.75362913  1
  O  O363  1  0.36465094  0.12942563  0.36515550  1
  O  O364  1  0.36023795  0.12183596  0.87952921  1
  O  O365  1  0.36279972  0.62315135  0.37541866  1
  O  O366  1  0.38551310  0.62003668  0.85479742  1
  O  O367  1  0.87540385  0.11100291  0.37850151  1
  O  O368  1  0.86678551  0.11961134  0.86572501  1
  O  O369  1  0.87716457  0.61541107  0.36891246  1
  O  O370  1  0.86365618  0.62710608  0.86345686  1
  O  O371  1  0.11970011  0.39700806  0.12160112  1
  O  O372  1  0.12347143  0.38503308  0.61921028  1
  O  O373  1  0.13505677  0.87979316  0.13176090  1
  O  O374  1  0.13567129  0.86990131  0.63840061  1
  O  O375  1  0.62365412  0.38826789  0.12560336  1
  O  O376  1  0.61499398  0.37408140  0.64254345  1
  O  O377  1  0.62816418  0.88129513  0.13246716  1
  O  O378  1  0.63252913  0.87453457  0.63117386  1
  O  O379  1  0.10880124  0.23954211  0.26000955  1
  O  O380  1  0.11133109  0.24433973  0.74813994  1
  O  O381  1  0.11831285  0.75802738  0.24699811  1
  O  O382  1  0.12185419  0.75500257  0.75512451  1
  O  O383  1  0.61470117  0.25072382  0.25909916  1
  O  O384  1  0.63310542  0.26499974  0.75043007  1
  O  O385  1  0.62138998  0.76424685  0.25519172  1
  O  O386  1  0.62044917  0.76000112  0.75480167  1
  O  O387  1  0.37959237  0.24439269  0.24900542  1
  O  O388  1  0.37254374  0.24237700  0.74987422  1
  O  O389  1  0.37407358  0.74838039  0.23673852  1
  O  O390  1  0.38210332  0.73928623  0.74823108  1
  O  O391  1  0.89543011  0.24157706  0.26404159  1
  O  O392  1  0.87861660  0.24580166  0.74171703  1
  O  O393  1  0.88431829  0.75950749  0.24099359  1
  O  O394  1  0.88017438  0.74405376  0.74186247  1
  O  O395  1  0.37514771  0.49202077  0.49727521  1
  O  O396  1  0.38190013  0.49573699  1.00036547  1
  O  O397  1  0.38152218  1.00329660  0.49933688  1
  O  O398  1  0.38962358  1.00522594  1.00178055  1
  O  O399  1  0.88756651  0.48983269  0.51117481  1
  O  O400  1  0.88544741  0.50953026  0.98930526  1
  O  O401  1  0.88700591  0.99525155  0.49400836  1
  O  O402  1  0.87846698  0.99677123  0.99146551  1
  O  O403  1  0.11820553  0.00809767  0.00290296  1
  O  O404  1  0.11320061  0.00677211  0.49646009  1
  O  O405  1  0.12264797  0.51171065  0.00347089  1
  O  O406  1  0.12247653  0.50774618  0.50961385  1
  O  O407  1  0.61668046  0.01090263  0.00572372  1
  O  O408  1  0.62361540  0.01013060  0.50006733  1
  O  O409  1  0.62057174  0.50458226  0.00947426  1
  O  O410  1  0.61666451  0.49590651  0.49747863  1
  O  O411  1  0.36574068  0.36941428  0.11990491  1
  O  O412  1  0.38399214  0.37689777  0.60892997  1
  O  O413  1  0.36184040  0.87013758  0.12673942  1
  O  O414  1  0.36149199  0.87155023  0.63204951  1
  O  O415  1  0.89674378  0.38225984  0.10845051  1
  O  O416  1  0.87822903  0.36219115  0.61422239  1
  O  O417  1  0.86978451  0.86936074  0.11739436  1
  O  O418  1  0.86931341  0.87001481  0.61651822  1
  O  O419  1  0.13730592  0.12159100  0.38324755  1
  O  O420  1  0.13351462  0.12561012  0.88334608  1
  O  O421  1  0.13624921  0.62551451  0.38873685  1
  O  O422  1  0.12536817  0.64030728  0.87807690  1
  O  O423  1  0.62476918  0.13324288  0.38539986  1
  O  O424  1  0.63430127  0.11922264  0.88354605  1
  O  O425  1  0.62243069  0.64553360  0.37059746  1
  O  O426  1  0.63010856  0.63103338  0.88038736  1
