# generated using pymatgen
data_V85Zn86O256
_symmetry_space_group_name_H-M   'P 1'
_cell_length_a   16.98683218
_cell_length_b   16.97650460
_cell_length_c   16.99480267
_cell_angle_alpha   90.00357195
_cell_angle_beta   90.10825992
_cell_angle_gamma   90.01852437
_symmetry_Int_Tables_number   1
_chemical_formula_structural   V85Zn86O256
_chemical_formula_sum   'V85 Zn86 O256'
_cell_volume   4900.90178301
_cell_formula_units_Z   1
loop_
 _symmetry_equiv_pos_site_id
 _symmetry_equiv_pos_as_xyz
  1  'x, y, z'
loop_
 _atom_site_type_symbol
 _atom_site_label
 _atom_site_symmetry_multiplicity
 _atom_site_fract_x
 _atom_site_fract_y
 _atom_site_fract_z
 _atom_site_occupancy
  V  V0  1  0.61792265  0.75348365  0.36626536  1
  V  V1  1  0.49828896  0.00337290  0.49966616  1
  V  V2  1  0.05676429  0.06799249  0.17678361  1
  V  V3  1  0.37879068  0.73568627  0.14593512  1
  V  V4  1  0.00032078  0.62716440  0.12342126  1
  V  V5  1  0.87382247  0.37286035  -0.00003440  1
  V  V6  1  0.23647600  0.88013701  0.63103781  1
  V  V7  1  0.12526868  0.50124659  0.62616311  1
  V  V8  1  0.24686390  0.75054004  0.50352807  1
  V  V9  1  0.12047367  0.12351878  -0.01103720  1
  V  V10  1  0.52603640  0.49862635  0.02035321  1
  V  V11  1  0.62590587  0.24537801  0.37266176  1
  V  V12  1  0.00438332  0.75666366  0.74825288  1
  V  V13  1  -0.00065802  0.37089619  0.87441369  1
  V  V14  1  0.86246944  0.12441640  0.25204596  1
  V  V15  1  0.74876484  0.49812435  0.74969778  1
  V  V16  1  0.49538202  0.10844028  0.12302760  1
  V  V17  1  0.87658378  0.62581591  0.74977978  1
  V  V18  1  0.74152078  0.24702736  -0.00004326  1
  V  V19  1  0.49849446  0.87645599  0.36853828  1
  V  V20  1  0.00015752  0.49917271  0.49815875  1
  V  V21  1  0.62326651  0.87459352  0.75470012  1
  V  V22  1  0.50294131  0.87813313  0.88792375  1
  V  V23  1  0.74088405  0.63768905  0.87556165  1
  V  V24  1  0.12872991  0.63178719  -0.00516672  1
  V  V25  1  0.24991086  0.37469939  0.62452819  1
  V  V26  1  0.74764222  0.50097708  0.24241277  1
  V  V27  1  0.87542425  0.62451795  0.24847021  1
  V  V28  1  0.35966346  0.12697913  0.25412969  1
  V  V29  1  0.00448630  0.25108858  0.24601085  1
  V  V30  1  0.00938620  0.11762777  0.62467013  1
  V  V31  1  0.00222858  0.87989070  0.87230961  1
  V  V32  1  0.74787302  0.12283927  0.87483527  1
  V  V33  1  0.49689625  0.50017390  0.49445340  1
  V  V34  1  0.87557248  0.49799197  0.37391233  1
  V  V35  1  0.50089842  0.75143600  0.75417403  1
  V  V36  1  0.74730665  0.87769990  0.62661309  1
  V  V37  1  0.12669784  0.37405565  0.75100654  1
  V  V38  1  0.87652862  0.24000440  0.12256838  1
  V  V39  1  0.86761899  0.00406810  0.37608427  1
  V  V40  1  0.37635809  -0.00041076  0.88790080  1
  V  V41  1  0.12820631  0.37538883  0.25125180  1
  V  V42  1  -0.00396568  0.75414380  0.25065650  1
  V  V43  1  0.63095196  0.12557089  0.49664079  1
  V  V44  1  0.87510862  0.50110978  0.87396072  1
  V  V45  1  0.50176422  0.13165020  0.62622117  1
  V  V46  1  0.00038430  0.62593287  0.62501992  1
  V  V47  1  0.37989134  0.12237893  0.75288208  1
  V  V48  1  0.37550284  0.25039977  0.63009680  1
  V  V49  1  -0.00033614  0.50174258  -0.00080526  1
  V  V50  1  0.26373660  0.50491249  0.74745121  1
  V  V51  1  0.00251899  0.36923187  0.37511557  1
  V  V52  1  0.25478846  0.61321767  0.37157407  1
  V  V53  1  0.36112808  0.85049893  0.00056015  1
  V  V54  1  0.13041277  0.50558139  0.12644198  1
  V  V55  1  0.25310274  0.37487192  0.10926333  1
  V  V56  1  0.61907992  0.10788253  0.00484473  1
  V  V57  1  0.37745617  0.50036443  0.89614503  1
  V  V58  1  0.74061095  0.87519531  0.12601651  1
  V  V59  1  0.13066248  0.75679426  0.87334903  1
  V  V60  1  0.37539838  0.37591399  0.49422041  1
  V  V61  1  0.74898007  0.75223336  0.49969167  1
  V  V62  1  0.24241628  0.00051863  0.75031674  1
  V  V63  1  0.87531477  0.12776624  0.74794909  1
  V  V64  1  0.62579275  0.62597017  0.50270591  1
  V  V65  1  0.61650980  0.36807440  0.75156450  1
  V  V66  1  0.37487471  0.87907397  0.50658371  1
  V  V67  1  0.12405417  0.62889801  0.49379527  1
  V  V68  1  0.49558295  0.24933154  0.24764336  1
  V  V69  1  0.16268110  0.80149146  0.32601302  1
  V  V70  1  0.24265361  0.24778884  0.48941077  1
  V  V71  1  0.36085896  0.00897564  0.37563019  1
  V  V72  1  0.87507858  0.88235153  0.50209949  1
  V  V73  1  0.86877821  0.87084758  -0.00158324  1
  V  V74  1  0.74919484  0.37450652  0.12448943  1
  V  V75  1  0.62569423  0.37413675  0.24594921  1
  V  V76  1  0.49439374  0.62624785  0.63000308  1
  V  V77  1  0.75119066  0.62538464  0.37602201  1
  V  V78  1  0.37349732  0.25382654  0.10743679  1
  V  V79  1  0.12434936  0.12055808  0.49569181  1
  V  V80  1  0.37273289  0.75161936  0.63200530  1
  V  V81  1  0.75350286  0.25107891  0.49537006  1
  V  V82  1  0.62544625  0.50068905  0.62534267  1
  V  V83  1  0.26154810  0.63010373  0.87098789  1
  V  V84  1  -0.00549051  0.87199773  0.37926584  1
  Zn  Zn85  1  0.61463266  0.24356377  0.86874216  1
  Zn  Zn86  1  0.75246419  0.37249349  0.62418062  1
  Zn  Zn87  1  0.87811846  0.25113099  0.62175126  1
  Zn  Zn88  1  0.14584338  0.26484859  0.89486311  1
  Zn  Zn89  1  0.73705173  0.00196983  0.24728533  1
  Zn  Zn90  1  0.19226590  -0.07185065  0.17514832  1
  Zn  Zn91  1  0.86956740  0.74643740  0.11613831  1
  Zn  Zn92  1  0.62347696  0.00110488  0.62546656  1
  Zn  Zn93  1  0.87501772  0.37369477  0.50111992  1
  Zn  Zn94  1  0.49545239  0.37896409  0.36903892  1
  Zn  Zn95  1  0.49119600  0.37102220  0.88181708  1
  Zn  Zn96  1  0.25761974  0.13356562  0.88339183  1
  Zn  Zn97  1  0.39911324  0.60370203  0.26789574  1
  Zn  Zn98  1  0.51779346  0.62823071  0.14445306  1
  Zn  Zn99  1  0.26121753  0.49509601  0.25230191  1
  Zn  Zn100  1  0.74864299  0.00122173  0.74991158  1
  Zn  Zn101  1  0.63931802  0.64271681  0.01272066  1
  Zn  Zn102  1  0.87596630  0.00231578  0.87516257  1
  Zn  Zn103  1  0.00191113  0.25040704  0.74864881  1
  Zn  Zn104  1  -0.00011043  0.00099326  0.00535088  1
  Zn  Zn105  1  0.87569005  0.75258712  0.62535475  1
  Zn  Zn106  1  0.60425447  0.88534847  0.23451654  1
  Zn  Zn107  1  0.19073156  0.19584853  0.18216935  1
  Zn  Zn108  1  0.19094742  0.18917483  0.69153121  1
  Zn  Zn109  1  0.17659640  0.73799632  0.15218583  1
  Zn  Zn110  1  0.18597773  0.68838260  0.68915189  1
  Zn  Zn111  1  0.68162735  0.18451314  0.18227923  1
  Zn  Zn112  1  0.69033268  0.18862155  0.68315112  1
  Zn  Zn113  1  0.68815154  0.69651051  0.18804832  1
  Zn  Zn114  1  0.68606026  0.69052472  0.69015771  1
  Zn  Zn115  1  0.31244656  0.31570715  0.30908605  1
  Zn  Zn116  1  0.31720220  0.31577940  0.81374575  1
  Zn  Zn117  1  0.32626349  0.81336690  0.31989142  1
  Zn  Zn118  1  0.31436110  0.81688730  0.81290617  1
  Zn  Zn119  1  0.81363004  0.31003482  0.31431655  1
  Zn  Zn120  1  0.80868559  0.30970203  0.81225960  1
  Zn  Zn121  1  0.80889057  0.81343946  0.30975247  1
  Zn  Zn122  1  0.81657110  0.81363009  0.81035970  1
  Zn  Zn123  1  0.18434089  0.43502025  0.43895931  1
  Zn  Zn124  1  0.18770333  0.44818515  0.93441674  1
  Zn  Zn125  1  0.18866578  0.94120698  0.44795657  1
  Zn  Zn126  1  0.18831227  0.94304702  0.93911032  1
  Zn  Zn127  1  0.68598341  0.43478312  0.43358777  1
  Zn  Zn128  1  0.68788626  0.43802385  0.93251467  1
  Zn  Zn129  1  0.68544822  0.94069053  0.43297848  1
  Zn  Zn130  1  0.68935532  0.93473051  0.93683273  1
  Zn  Zn131  1  0.29811762  0.06423733  0.06625677  1
  Zn  Zn132  1  0.30834101  0.06577779  0.56530014  1
  Zn  Zn133  1  0.30782633  0.58798145  0.07248243  1
  Zn  Zn134  1  0.31356691  0.56343191  0.56075697  1
  Zn  Zn135  1  0.81300308  0.05605099  0.06030376  1
  Zn  Zn136  1  0.81421306  0.06351001  0.56457289  1
  Zn  Zn137  1  0.80974896  0.56424476  0.05980104  1
  Zn  Zn138  1  0.81490199  0.56162646  0.56372152  1
  Zn  Zn139  1  0.43509419  0.43717031  0.18364372  1
  Zn  Zn140  1  0.43875948  0.43760066  0.68230571  1
  Zn  Zn141  1  0.38244937  0.94948227  0.16990601  1
  Zn  Zn142  1  0.43592931  0.94123994  0.69011874  1
  Zn  Zn143  1  0.93777240  0.43625742  0.18467389  1
  Zn  Zn144  1  0.93634155  0.43581502  0.68528640  1
  Zn  Zn145  1  0.92556505  0.93171774  0.19151399  1
  Zn  Zn146  1  0.93620059  0.94250267  0.68845008  1
  Zn  Zn147  1  0.06510501  0.05200208  0.33977982  1
  Zn  Zn148  1  0.06219427  0.06533842  0.81178242  1
  Zn  Zn149  1  0.06464474  0.56322618  0.31096495  1
  Zn  Zn150  1  0.06554232  0.56273088  0.81190904  1
  Zn  Zn151  1  0.55520249  0.06262277  0.31016108  1
  Zn  Zn152  1  0.56183242  0.05807147  0.81381261  1
  Zn  Zn153  1  0.57012524  0.56055822  0.31399986  1
  Zn  Zn154  1  0.55850171  0.56048786  0.81320805  1
  Zn  Zn155  1  0.43683114  0.19098326  0.43739656  1
  Zn  Zn156  1  0.44441649  0.18601408  0.93494854  1
  Zn  Zn157  1  0.43616811  0.68983469  0.44171463  1
  Zn  Zn158  1  0.47914341  0.69938402  0.95652119  1
  Zn  Zn159  1  0.94219658  0.18566396  0.43649010  1
  Zn  Zn160  1  0.94007669  0.18520595  0.93838207  1
  Zn  Zn161  1  0.93515926  0.69032984  0.43718059  1
  Zn  Zn162  1  0.93797049  0.69024655  0.93278796  1
  Zn  Zn163  1  0.06418819  0.31233054  0.06425804  1
  Zn  Zn164  1  0.06076049  0.30852410  0.56580919  1
  Zn  Zn165  1  0.05639331  0.81819922  0.05899233  1
  Zn  Zn166  1  0.06081530  0.81302064  0.56101570  1
  Zn  Zn167  1  0.55874984  0.31293139  0.06080456  1
  Zn  Zn168  1  0.56460751  0.31346020  0.56344943  1
  Zn  Zn169  1  0.55808593  0.80914841  0.06246320  1
  Zn  Zn170  1  0.56252510  0.81446542  0.56222871  1
  O  O171  1  0.12107422  0.12423069  0.12045468  1
  O  O172  1  0.11437496  0.13241600  0.62182885  1
  O  O173  1  0.12008172  0.62435991  0.11387469  1
  O  O174  1  0.11988426  0.61952054  0.61662203  1
  O  O175  1  0.60547516  0.12428691  0.12028693  1
  O  O176  1  0.61696729  0.12458971  0.61767229  1
  O  O177  1  0.63002940  0.62871167  0.12446460  1
  O  O178  1  0.61847218  0.62164768  0.62005830  1
  O  O179  1  0.37736727  0.36826456  0.39086002  1
  O  O180  1  0.37481451  0.39746826  0.87003655  1
  O  O181  1  0.38115812  0.88513589  0.38830774  1
  O  O182  1  0.38114087  0.88132136  0.88274468  1
  O  O183  1  0.88461340  0.38211163  0.37438917  1
  O  O184  1  0.87986566  0.37985360  0.87937942  1
  O  O185  1  0.87666714  0.87832615  0.38343889  1
  O  O186  1  0.88049848  0.87735201  0.88203416  1
  O  O187  1  0.26186612  -0.00208789  0.38089378  1
  O  O188  1  0.25866294  0.00504128  0.86397128  1
  O  O189  1  0.24851477  0.51054861  0.38048868  1
  O  O190  1  0.25945071  0.50743581  0.86570408  1
  O  O191  1  0.76407457  -0.00563023  0.37048920  1
  O  O192  1  0.75053623  0.01316939  0.87379478  1
  O  O193  1  0.75656166  0.50406572  0.36687121  1
  O  O194  1  0.75691723  0.50506398  0.86239757  1
  O  O195  1  0.23985654  0.49987975  0.12514853  1
  O  O196  1  0.24503057  0.49621726  0.62916212  1
  O  O197  1  0.27734476  0.99017758  0.14475260  1
  O  O198  1  0.25699200  0.99241970  0.63865746  1
  O  O199  1  0.75827648  0.49306054  0.13706062  1
  O  O200  1  0.74563508  0.50186181  0.63634932  1
  O  O201  1  0.75663578  0.98193139  0.12699151  1
  O  O202  1  0.74760282  0.98816733  0.62513944  1
  O  O203  1  0.00574099  0.36904802  0.25431947  1
  O  O204  1  0.00825924  0.37834703  0.75842001  1
  O  O205  1  -0.00766409  0.86113043  0.25852289  1
  O  O206  1  -0.00767625  0.86631854  0.75590510  1
  O  O207  1  0.50895961  0.36450783  0.24859124  1
  O  O208  1  0.51499980  0.38286132  0.74854087  1
  O  O209  1  0.49087124  0.87742621  0.26857009  1
  O  O210  1  0.50668603  0.87069874  0.75248880  1
  O  O211  1  0.49400165  0.13545884  0.23848059  1
  O  O212  1  0.48975364  0.11875554  0.73988736  1
  O  O213  1  0.50779409  0.63128221  0.26027433  1
  O  O214  1  0.50714844  0.63453956  0.73801886  1
  O  O215  1  1.00096229  0.12861258  0.24404512  1
  O  O216  1  0.99431439  0.12866345  0.74252388  1
  O  O217  1  0.99400990  0.63083954  0.24612774  1
  O  O218  1  0.99487294  0.63008995  0.74556385  1
  O  O219  1  0.37666419  0.24566947  0.01027956  1
  O  O220  1  0.36564845  0.25387696  0.51004251  1
  O  O221  1  0.37607869  0.75215934  -0.01467593  1
  O  O222  1  0.36729791  0.75769890  0.51180398  1
  O  O223  1  0.86597932  0.25173513  0.00641784  1
  O  O224  1  0.86553693  0.24955538  0.49489866  1
  O  O225  1  0.87981890  0.76602774  -0.00393105  1
  O  O226  1  0.86129027  0.75639642  0.50128766  1
  O  O227  1  0.13900768  0.24813398  0.50469002  1
  O  O228  1  0.11552137  0.23392051  1.00219960  1
  O  O229  1  0.13235435  0.73882121  0.50798470  1
  O  O230  1  0.11571515  0.73894134  0.98674873  1
  O  O231  1  0.62935718  0.24548226  0.49154055  1
  O  O232  1  0.63543601  0.24278921  1.00393679  1
  O  O233  1  0.63581693  0.74657339  0.49812429  1
  O  O234  1  0.58575036  0.73753071  0.98176100  1
  O  O235  1  0.48716955  0.24947538  0.13009796  1
  O  O236  1  0.49284335  0.23862763  0.61751052  1
  O  O237  1  0.48174955  0.74463066  0.12137754  1
  O  O238  1  0.49276624  0.74544898  0.63022499  1
  O  O239  1  0.98739002  0.25896533  0.13546435  1
  O  O240  1  0.99626800  0.24097361  0.63009964  1
  O  O241  1  0.99381811  0.74323009  0.13445834  1
  O  O242  1  0.99865349  0.74432803  0.63216045  1
  O  O243  1  -0.00514060  0.26267822  0.36299560  1
  O  O244  1  -0.00127377  0.26538695  0.87294801  1
  O  O245  1  -0.00460350  0.76018109  0.36800354  1
  O  O246  1  0.00707420  0.76011504  0.86649927  1
  O  O247  1  0.50627292  0.25361995  0.36510149  1
  O  O248  1  0.50361829  0.25883970  0.87794073  1
  O  O249  1  0.50836371  0.76250589  0.38979219  1
  O  O250  1  0.48800421  0.76138288  0.85592046  1
  O  O251  1  0.23813056  0.13915049  0.50875565  1
  O  O252  1  0.22976083  0.12226500  0.99887492  1
  O  O253  1  0.24260748  0.63059683  0.49524265  1
  O  O254  1  0.23680341  0.61849035  0.98470772  1
  O  O255  1  0.73598282  0.12947291  0.50326596  1
  O  O256  1  0.74287672  0.12963014  0.99608150  1
  O  O257  1  0.74754017  0.63292361  0.49661150  1
  O  O258  1  0.75259010  0.62389852  0.98086764  1
  O  O259  1  0.23665973  0.37901977  0.01117091  1
  O  O260  1  0.25480160  0.36783376  0.50566046  1
  O  O261  1  0.26373854  0.86899990  -0.01145831  1
  O  O262  1  0.25555494  0.87014180  0.51082077  1
  O  O263  1  0.75345044  0.36637452  0.00221753  1
  O  O264  1  0.75056742  0.36553211  0.49947075  1
  O  O265  1  0.76118104  0.87709391  0.00609030  1
  O  O266  1  0.75463172  0.86959004  0.50603922  1
  O  O267  1  0.12703319  0.49453067  0.24008009  1
  O  O268  1  0.13221983  0.49173461  0.74527599  1
  O  O269  1  0.11360966  1.01138735  0.23989119  1
  O  O270  1  0.14394962  1.00878893  0.75372044  1
  O  O271  1  0.63870466  0.48615832  0.25891806  1
  O  O272  1  0.63201969  0.49430788  0.74472953  1
  O  O273  1  0.62564976  0.99202917  0.26436712  1
  O  O274  1  0.62663984  0.98857486  0.74560256  1
  O  O275  1  0.38224959  0.01561284  0.26620535  1
  O  O276  1  0.36973297  0.00813204  0.75839312  1
  O  O277  1  0.37394685  0.49293565  0.25685131  1
  O  O278  1  0.36471240  0.50205219  0.74264624  1
  O  O279  1  0.87316545  0.01077549  0.25691334  1
  O  O280  1  0.87004848  0.01437295  0.75284831  1
  O  O281  1  0.86991300  0.50464591  0.25484584  1
  O  O282  1  0.86807324  0.50591888  0.75309206  1
  O  O283  1  0.11732397  0.38136891  0.36049707  1
  O  O284  1  0.11760810  0.37874080  0.86904437  1
  O  O285  1  0.11345615  0.87166139  0.38904362  1
  O  O286  1  0.11795088  0.86492628  0.88132950  1
  O  O287  1  0.62331981  0.36292133  0.36302143  1
  O  O288  1  0.62567919  0.37566384  0.85841165  1
  O  O289  1  0.61238260  0.86667111  0.38526458  1
  O  O290  1  0.61535063  0.88035040  0.86740895  1
  O  O291  1  0.38072075  0.13791557  0.13081963  1
  O  O292  1  0.38237963  0.13203456  0.62969545  1
  O  O293  1  0.39174757  0.62551396  0.14105875  1
  O  O294  1  0.38545252  0.63590384  0.61827819  1
  O  O295  1  0.87102306  0.13492420  0.13039403  1
  O  O296  1  0.88382382  0.12776821  0.63116760  1
  O  O297  1  0.88122738  0.62514865  0.12949597  1
  O  O298  1  0.88209672  0.62749523  0.63278160  1
  O  O299  1  0.26485860  0.26018243  0.12398504  1
  O  O300  1  0.25788891  0.25798773  0.62025000  1
  O  O301  1  0.27902442  0.71512068  0.11528177  1
  O  O302  1  0.25652265  0.75670029  0.62560060  1
  O  O303  1  0.75684238  0.25299947  0.11815320  1
  O  O304  1  0.75150629  0.25048497  0.60801773  1
  O  O305  1  0.75620848  0.76766550  0.12693177  1
  O  O306  1  0.75081828  0.76105010  0.61847138  1
  O  O307  1  0.25325423  0.25555815  0.39184454  1
  O  O308  1  0.25139273  0.24494740  0.86485175  1
  O  O309  1  0.24042354  0.74721706  0.38184083  1
  O  O310  1  0.23977239  0.74289538  0.86145880  1
  O  O311  1  0.74034073  0.25158841  0.38373283  1
  O  O312  1  0.74447832  0.23919142  0.88363974  1
  O  O313  1  0.74312046  0.74720899  0.38285222  1
  O  O314  1  0.75204320  0.73562920  0.86475206  1
  O  O315  1  0.00984339  0.11898323  -0.00134604  1
  O  O316  1  0.01302115  0.13348421  0.51327522  1
  O  O317  1  0.00410944  0.61985153  0.00183559  1
  O  O318  1  0.00657097  0.62219122  0.50286940  1
  O  O319  1  0.50435308  0.12405748  0.01512727  1
  O  O320  1  0.50815017  0.12162078  0.50531834  1
  O  O321  1  0.49561860  0.59725351  0.00731818  1
  O  O322  1  0.50523683  0.61935009  0.50839441  1
  O  O323  1  0.49259260  0.38283540  0.50241917  1
  O  O324  1  0.50878271  0.39447444  0.99766067  1
  O  O325  1  0.49332152  0.88734809  0.50171575  1
  O  O326  1  0.48601489  0.87436650  0.98955220  1
  O  O327  1  1.00254361  0.37898583  0.48955185  1
  O  O328  1  0.99528612  0.38146003  0.99333295  1
  O  O329  1  0.98285763  0.86576731  0.49532585  1
  O  O330  1  0.98961371  0.87900091  0.98992050  1
  O  O331  1  0.51058855  0.49605570  0.39185484  1
  O  O332  1  0.48486267  0.50254467  0.88028020  1
  O  O333  1  0.49192554  0.99625630  0.38920879  1
  O  O334  1  0.48878733  0.98824499  0.87018384  1
  O  O335  1  0.99584612  0.49103383  0.37760267  1
  O  O336  1  0.99441091  0.49195717  0.87824039  1
  O  O337  1  0.98584155  0.98050872  0.37312539  1
  O  O338  1  1.00018516  0.98668649  0.86841007  1
  O  O339  1  -0.00268622  0.00098199  0.12809124  1
  O  O340  1  -0.00122289  0.01831030  0.62823018  1
  O  O341  1  0.01062279  0.50591686  0.12067871  1
  O  O342  1  0.00455213  0.50682782  0.61827718  1
  O  O343  1  0.48105202  0.01178021  0.13049958  1
  O  O344  1  0.49795358  0.01196880  0.61430150  1
  O  O345  1  0.51348727  0.49434464  0.12140774  1
  O  O346  1  0.50552053  0.51002579  0.61803269  1
  O  O347  1  0.24045274  0.37547811  0.24144743  1
  O  O348  1  0.24444095  0.38574702  0.74315337  1
  O  O349  1  0.23016432  0.86010716  0.27190675  1
  O  O350  1  0.25443695  0.89082050  0.74470195  1
  O  O351  1  0.74655280  0.38021447  0.24581324  1
  O  O352  1  0.74273450  0.38383376  0.74830628  1
  O  O353  1  0.75367346  0.87867068  0.23405134  1
  O  O354  1  0.74334978  0.87493403  0.74292706  1
  O  O355  1  0.26067509  0.13630539  0.24988927  1
  O  O356  1  0.26463545  0.11560853  0.74537534  1
  O  O357  1  0.24482073  0.61956420  0.27262729  1
  O  O358  1  0.24195943  0.61484373  0.75818998  1
  O  O359  1  0.75994325  0.12598497  0.24600040  1
  O  O360  1  0.75438523  0.12579260  0.75743163  1
  O  O361  1  0.75523078  0.61789513  0.25650408  1
  O  O362  1  0.75670760  0.61920203  0.75390193  1
  O  O363  1  0.37811475  0.12058422  0.36798529  1
  O  O364  1  0.37836522  0.11683363  0.86761244  1
  O  O365  1  0.35864483  0.63165447  0.38037624  1
  O  O366  1  0.36298925  0.61451638  0.87500219  1
  O  O367  1  0.88436451  0.11567311  0.36462423  1
  O  O368  1  0.86653374  0.12593216  0.86840073  1
  O  O369  1  0.86986797  0.61833201  0.36993165  1
  O  O370  1  0.87035405  0.61959458  0.86604489  1
  O  O371  1  0.12915488  0.38591916  0.13222082  1
  O  O372  1  0.12863365  0.38248085  0.63153564  1
  O  O373  1  0.13678064  0.84287948  0.13041190  1
  O  O374  1  0.13755732  0.87270691  0.62133492  1
  O  O375  1  0.63420054  0.36356887  0.13897877  1
  O  O376  1  0.62769590  0.38242023  0.63445986  1
  O  O377  1  0.63464173  0.87065770  0.12174501  1
  O  O378  1  0.63216310  0.87812494  0.63046417  1
  O  O379  1  0.11375063  0.26033064  0.24051673  1
  O  O380  1  0.12550473  0.26768109  0.74874861  1
  O  O381  1  0.11341047  0.73876891  0.25804526  1
  O  O382  1  0.11173899  0.74576887  0.75771699  1
  O  O383  1  0.61872822  0.25151908  0.25564774  1
  O  O384  1  0.63082403  0.26546961  0.74720254  1
  O  O385  1  0.62976099  0.76422735  0.26536757  1
  O  O386  1  0.61483338  0.76445215  0.74312245  1
  O  O387  1  0.38336788  0.24599481  0.24853114  1
  O  O388  1  0.37335800  0.24348690  0.73559556  1
  O  O389  1  0.37426817  0.74501177  0.24636376  1
  O  O390  1  0.38137838  0.75600916  0.73714411  1
  O  O391  1  0.88216546  0.24179857  0.24438569  1
  O  O392  1  0.87436771  0.23863725  0.74928841  1
  O  O393  1  0.88094607  0.73940976  0.25127560  1
  O  O394  1  0.88651243  0.74281406  0.74806822  1
  O  O395  1  0.38521949  0.48940998  0.50802556  1
  O  O396  1  0.36639183  0.50330698  0.99376857  1
  O  O397  1  0.38030909  1.00155044  0.49702844  1
  O  O398  1  0.36598936  0.99946582  0.98836616  1
  O  O399  1  0.88268513  0.49979736  0.49159470  1
  O  O400  1  0.87959815  0.49289628  0.99425783  1
  O  O401  1  0.86953740  0.99140431  0.49291622  1
  O  O402  1  0.87978244  0.98811356  0.99445365  1
  O  O403  1  0.11854614  0.01302315  -0.00244844  1
  O  O404  1  0.12941836  0.02056656  0.50238288  1
  O  O405  1  0.11737032  0.51071415  0.00503567  1
  O  O406  1  0.11831328  0.50593516  0.50670310  1
  O  O407  1  0.62765434  0.00951297  -0.00047213  1
  O  O408  1  0.61681327  0.00957106  0.49971163  1
  O  O409  1  0.62633431  0.50652558  0.00025934  1
  O  O410  1  0.62155867  0.50469448  0.50734024  1
  O  O411  1  0.36751955  0.36294552  0.12254947  1
  O  O412  1  0.37157565  0.36731721  0.61688237  1
  O  O413  1  0.37317460  0.85112969  0.10809242  1
  O  O414  1  0.36968697  0.86953915  0.62215741  1
  O  O415  1  0.86855515  0.36566710  0.11874565  1
  O  O416  1  0.87156021  0.37124699  0.61966781  1
  O  O417  1  0.87181214  0.87102597  0.11002019  1
  O  O418  1  0.86706937  0.87551266  0.61861417  1
  O  O419  1  0.11703430  0.13269369  0.39549572  1
  O  O420  1  0.12428015  0.13241721  0.88248397  1
  O  O421  1  0.13179342  0.61876692  0.38903087  1
  O  O422  1  0.13073494  0.63287831  0.87869462  1
  O  O423  1  0.61613864  0.13791954  0.38268332  1
  O  O424  1  0.62946098  0.12485808  0.88292012  1
  O  O425  1  0.63383399  0.63485546  0.38497081  1
  O  O426  1  0.64102877  0.62048419  0.86774049  1
