# generated using pymatgen
data_V85Zn86O256
_symmetry_space_group_name_H-M   'P 1'
_cell_length_a   16.92550365
_cell_length_b   16.93876801
_cell_length_c   16.93270546
_cell_angle_alpha   89.99942035
_cell_angle_beta   89.95786029
_cell_angle_gamma   89.98979724
_symmetry_Int_Tables_number   1
_chemical_formula_structural   V85Zn86O256
_chemical_formula_sum   'V85 Zn86 O256'
_cell_volume   4854.55750955
_cell_formula_units_Z   1
loop_
 _symmetry_equiv_pos_site_id
 _symmetry_equiv_pos_as_xyz
  1  'x, y, z'
loop_
 _atom_site_type_symbol
 _atom_site_label
 _atom_site_symmetry_multiplicity
 _atom_site_fract_x
 _atom_site_fract_y
 _atom_site_fract_z
 _atom_site_occupancy
  V  V0  1  0.38337904  0.50638385  0.38131819  1
  V  V1  1  0.37557540  0.75078740  0.12569362  1
  V  V2  1  0.62492940  0.12269009  0.49979858  1
  V  V3  1  0.25626385  0.13177374  0.38045045  1
  V  V4  1  0.62697907  0.74903971  0.86762288  1
  V  V5  1  0.36477812  0.62649226  0.25344486  1
  V  V6  1  0.36598403  0.12475732  0.76080536  1
  V  V7  1  0.87511021  0.75000108  0.12555325  1
  V  V8  1  0.49587694  0.23422621  0.24705539  1
  V  V9  1  0.24988989  0.75151342  0.00185663  1
  V  V10  1  0.11894627  0.37628799  0.25659872  1
  V  V11  1  -0.00111720  0.37824679  0.87279773  1
  V  V12  1  0.50187863  0.74636743  0.25234878  1
  V  V13  1  0.44420034  0.79642731  0.69352950  1
  V  V14  1  0.75423471  0.87725299  0.63448043  1
  V  V15  1  0.37728300  0.23652611  0.12679306  1
  V  V16  1  0.12796134  -0.01903629  0.62827278  1
  V  V17  1  0.61792301  0.00090347  0.12901922  1
  V  V18  1  0.00383665  0.12432120  0.62767552  1
  V  V19  1  0.74784124  0.24756198  0.49964305  1
  V  V20  1  0.49678568  0.24965216  0.75164410  1
  V  V21  1  0.87946332  0.37605883  0.49272941  1
  V  V22  1  0.12095927  0.76379500  0.86975470  1
  V  V23  1  0.25856097  0.01002392  0.24777440  1
  V  V24  1  0.38997890  0.37287877  0.49180787  1
  V  V25  1  0.61831838  0.12472829  0.00280567  1
  V  V26  1  0.74748467  0.24874982  -0.00083308  1
  V  V27  1  0.11980166  0.12939015  0.01245755  1
  V  V28  1  0.00323853  0.74907114  0.25416193  1
  V  V29  1  0.50649877  0.60475591  0.62436119  1
  V  V30  1  0.49542831  0.37394916  0.87750755  1
  V  V31  1  0.00178791  0.87490924  0.37478473  1
  V  V32  1  0.37444121  0.87865847  -0.00012765  1
  V  V33  1  0.36597380  0.24866496  0.62042584  1
  V  V34  1  0.24546246  0.88396862  0.12590308  1
  V  V35  1  -0.00245387  0.25060793  0.75105910  1
  V  V36  1  0.00198955  0.62475704  0.12793744  1
  V  V37  1  0.74653652  0.74883932  0.49862281  1
  V  V38  1  0.74771775  0.11928805  0.86932775  1
  V  V39  1  0.87927095  0.73704915  0.62377712  1
  V  V40  1  0.75047434  0.49701526  0.24888628  1
  V  V41  1  0.87219512  0.24826957  0.62511029  1
  V  V42  1  0.49791376  0.49912870  0.00086534  1
  V  V43  1  0.74854215  0.87944300  0.12585941  1
  V  V44  1  0.61307813  0.37567267  0.25039946  1
  V  V45  1  0.00037089  0.49925184  0.00066766  1
  V  V46  1  0.37356376  0.49845166  0.87860634  1
  V  V47  1  0.87428725  0.37347844  0.00002555  1
  V  V48  1  0.62894194  0.87446979  0.25333166  1
  V  V49  1  0.24916456  0.62493385  0.87263295  1
  V  V50  1  0.24796613  0.37649857  0.61311040  1
  V  V51  1  0.74322129  0.50782633  0.75696762  1
  V  V52  1  0.00114765  0.24196875  0.25308130  1
  V  V53  1  0.88351834  0.00267905  0.87051979  1
  V  V54  1  0.63019322  0.62449694  -0.00337743  1
  V  V55  1  0.12310948  0.25278729  0.38612688  1
  V  V56  1  0.61711214  0.25224051  0.37340706  1
  V  V57  1  0.49764399  0.87319897  0.87824419  1
  V  V58  1  0.88022263  0.24169486  0.12503161  1
  V  V59  1  0.75404156  0.74858306  -0.01205728  1
  V  V60  1  0.25220300  0.25484819  -0.00150605  1
  V  V61  1  0.24473738  -0.01228930  0.75614822  1
  V  V62  1  0.49300079  -0.00694214  0.50080975  1
  V  V63  1  0.25914820  0.37622265  0.12589272  1
  V  V64  1  0.12693279  0.49862740  0.12807769  1
  V  V65  1  0.00148544  -0.00041241  0.50011806  1
  V  V66  1  0.87092547  0.00007404  0.36940724  1
  V  V67  1  0.74790280  0.37346973  0.12472755  1
  V  V68  1  0.49401743  0.00087580  0.00092952  1
  V  V69  1  0.74900946  0.12138558  0.36435104  1
  V  V70  1  0.49735084  0.12672100  0.62554330  1
  V  V71  1  0.26858832  0.77572051  0.50582922  1
  V  V72  1  0.38029715  0.62394707  0.74328743  1
  V  V73  1  0.00341272  0.00428126  0.01694914  1
  V  V74  1  0.87407114  0.87256561  0.49835598  1
  V  V75  1  0.88045634  0.87894489  -0.00018565  1
  V  V76  1  0.75167302  0.62242838  0.37275982  1
  V  V77  1  0.12354986  0.37928001  0.74421411  1
  V  V78  1  0.14423280  0.62205729  0.49896924  1
  V  V79  1  0.62246996  0.60678244  0.50132061  1
  V  V80  1  0.12543483  0.88687010  0.24908852  1
  V  V81  1  0.63198465  0.00126070  0.63198885  1
  V  V82  1  0.74319830  0.38142843  0.62593336  1
  V  V83  1  0.12686664  0.62515459  -0.00100466  1
  V  V84  1  0.24439742  0.50216284  0.74256020  1
  Zn  Zn85  1  0.49684051  0.86855681  0.38232225  1
  Zn  Zn86  1  0.61861503  0.37960861  0.74603443  1
  Zn  Zn87  1  0.37567949  0.00366192  0.37396492  1
  Zn  Zn88  1  0.12920019  0.12677005  0.50355410  1
  Zn  Zn89  1  0.49967256  0.62357898  0.12449037  1
  Zn  Zn90  1  0.87743434  0.11772867  0.24301399  1
  Zn  Zn91  1  0.88515232  0.49212160  0.36932992  1
  Zn  Zn92  1  0.12512252  0.24839780  0.87439623  1
  Zn  Zn93  1  0.86698146  0.50552139  0.87873858  1
  Zn  Zn94  1  0.24371978  0.12241611  0.87682075  1
  Zn  Zn95  1  0.62307548  0.50191418  0.12460040  1
  Zn  Zn96  1  0.01346177  0.50170593  0.49719445  1
  Zn  Zn97  1  0.24942682  0.50230084  0.25533903  1
  Zn  Zn98  1  0.01654134  0.60744355  0.62622285  1
  Zn  Zn99  1  0.63114410  0.87754478  0.75409319  1
  Zn  Zn100  1  0.86978177  0.12064273  0.74664914  1
  Zn  Zn101  1  0.62384000  0.74737007  0.37549949  1
  Zn  Zn102  1  0.87755079  0.62121113  0.25108483  1
  Zn  Zn103  1  0.14389185  0.74686374  0.37437944  1
  Zn  Zn104  1  0.01339775  0.75299001  0.74398435  1
  Zn  Zn105  1  0.62354384  0.24926700  0.87485304  1
  Zn  Zn106  1  0.88038068  0.62262105  0.76171120  1
  Zn  Zn107  1  0.18877944  0.19145278  0.19164873  1
  Zn  Zn108  1  0.18485994  0.18942547  0.68887738  1
  Zn  Zn109  1  0.18606036  0.69324012  0.18854197  1
  Zn  Zn110  1  0.19447843  0.69572856  0.67941495  1
  Zn  Zn111  1  0.68509266  0.18691778  0.18522903  1
  Zn  Zn112  1  0.68526630  0.18909276  0.68947546  1
  Zn  Zn113  1  0.68843184  0.68743599  0.18264428  1
  Zn  Zn114  1  0.68609553  0.68712474  0.68340863  1
  Zn  Zn115  1  0.31054953  0.31265925  0.31145325  1
  Zn  Zn116  1  0.31087983  0.31474783  0.81190064  1
  Zn  Zn117  1  0.31751569  0.81947913  0.32095447  1
  Zn  Zn118  1  0.30811771  0.81412630  0.81915718  1
  Zn  Zn119  1  0.80777901  0.30680153  0.30986294  1
  Zn  Zn120  1  0.81090718  0.31378493  0.81199015  1
  Zn  Zn121  1  0.81270119  0.81015247  0.31159891  1
  Zn  Zn122  1  0.85286810  0.82987009  0.79620989  1
  Zn  Zn123  1  0.19440746  0.44311123  0.43243555  1
  Zn  Zn124  1  0.18610996  0.43560329  0.93589337  1
  Zn  Zn125  1  0.18941880  0.93879104  0.43598080  1
  Zn  Zn126  1  0.18338988  0.94279468  0.94101863  1
  Zn  Zn127  1  0.69055619  0.43266948  0.43292548  1
  Zn  Zn128  1  0.68116304  0.43417759  0.93448892  1
  Zn  Zn129  1  0.68538978  0.93730841  0.43962398  1
  Zn  Zn130  1  0.68896852  0.93772844  0.93801369  1
  Zn  Zn131  1  0.30734684  0.06418615  0.06098891  1
  Zn  Zn132  1  0.30777896  0.05890763  0.56537634  1
  Zn  Zn133  1  0.31317165  0.56321199  0.06472833  1
  Zn  Zn134  1  0.31568562  0.56328796  0.56054029  1
  Zn  Zn135  1  0.80638470  0.06151753  0.05963106  1
  Zn  Zn136  1  0.81417355  0.06174506  0.55815743  1
  Zn  Zn137  1  0.81334239  0.56365174  0.06202653  1
  Zn  Zn138  1  0.80898976  0.55733179  0.56002001  1
  Zn  Zn139  1  0.43693358  0.43918164  0.19012091  1
  Zn  Zn140  1  0.43144510  0.43531412  0.68817254  1
  Zn  Zn141  1  0.43523001  0.93247791  0.19956748  1
  Zn  Zn142  1  0.43752407  0.95724280  0.69283667  1
  Zn  Zn143  1  0.93842793  0.43235049  0.18816807  1
  Zn  Zn144  1  0.93074183  0.44267174  0.68215978  1
  Zn  Zn145  1  0.93723727  0.93664561  0.18853069  1
  Zn  Zn146  1  0.94665458  0.93067776  0.68771165  1
  Zn  Zn147  1  0.06579728  0.06652546  0.31443488  1
  Zn  Zn148  1  0.06433273  0.06341994  0.81610745  1
  Zn  Zn149  1  0.06506786  0.56310600  0.32384117  1
  Zn  Zn150  1  0.05965959  0.56786415  0.80992862  1
  Zn  Zn151  1  0.56402478  0.06012066  0.31286495  1
  Zn  Zn152  1  0.55887866  0.06131713  0.81552698  1
  Zn  Zn153  1  0.55997461  0.56113608  0.31516449  1
  Zn  Zn154  1  0.56481987  0.56369009  0.81169433  1
  Zn  Zn155  1  0.43699518  0.18751067  0.43849593  1
  Zn  Zn156  1  0.43343408  0.18851996  0.94235730  1
  Zn  Zn157  1  0.43577503  0.68766957  0.44356804  1
  Zn  Zn158  1  0.43952280  0.68752562  0.93513197  1
  Zn  Zn159  1  0.93913984  0.18740327  0.43731885  1
  Zn  Zn160  1  0.93921980  0.18635352  0.93807183  1
  Zn  Zn161  1  0.94328526  0.67839824  0.43961106  1
  Zn  Zn162  1  0.93970830  0.68576859  0.93560773  1
  Zn  Zn163  1  0.06343970  0.31287663  0.06652543  1
  Zn  Zn164  1  0.05953707  0.31663430  0.56603014  1
  Zn  Zn165  1  0.06319883  0.81444555  0.06176038  1
  Zn  Zn166  1  0.06684006  0.80224634  0.55454615  1
  Zn  Zn167  1  0.55832793  0.31394425  0.06322265  1
  Zn  Zn168  1  0.56114988  0.31018019  0.56370127  1
  Zn  Zn169  1  0.56400427  0.81045200  0.06240476  1
  Zn  Zn170  1  0.57000944  0.81290302  0.56129708  1
  O  O171  1  0.12894759  0.13140921  0.11183383  1
  O  O172  1  0.11300073  0.12455545  0.62328383  1
  O  O173  1  0.12270159  0.61958461  0.12029899  1
  O  O174  1  0.12965088  0.63386713  0.60786027  1
  O  O175  1  0.63015879  0.11317729  0.11550079  1
  O  O176  1  0.62139867  0.11937056  0.62038468  1
  O  O177  1  0.62172801  0.62433400  0.11061238  1
  O  O178  1  0.61425246  0.62358257  0.61801963  1
  O  O179  1  0.37467642  0.37261950  0.38879104  1
  O  O180  1  0.38432991  0.38516776  0.87019164  1
  O  O181  1  0.39470094  0.89617317  0.34034531  1
  O  O182  1  0.38416623  0.86888309  0.88708323  1
  O  O183  1  0.86355030  0.36868356  0.38994231  1
  O  O184  1  0.88191834  0.37774155  0.88258951  1
  O  O185  1  0.87899628  0.88072320  0.37894960  1
  O  O186  1  0.86604570  0.89222042  0.89320920  1
  O  O187  1  0.25073590  0.01203773  0.36575166  1
  O  O188  1  0.24118044  0.00265219  0.86101597  1
  O  O189  1  0.27549028  0.49052128  0.36727172  1
  O  O190  1  0.25698519  0.50412073  0.86875704  1
  O  O191  1  0.75835441  0.00891152  0.38305508  1
  O  O192  1  0.76344803  0.01056776  0.88665307  1
  O  O193  1  0.75218297  0.50362654  0.36167789  1
  O  O194  1  0.74826533  0.49213092  0.86081982  1
  O  O195  1  0.24375666  0.49351795  0.12752958  1
  O  O196  1  0.26053671  0.49146210  0.63607625  1
  O  O197  1  0.24830694  0.99271809  0.13004573  1
  O  O198  1  0.23375136  1.00140685  0.63434613  1
  O  O199  1  0.74830765  0.49429180  0.13445342  1
  O  O200  1  0.75033283  0.48512313  0.63158719  1
  O  O201  1  0.73854800  0.98657376  0.11855657  1
  O  O202  1  0.74351092  0.99081535  0.61732773  1
  O  O203  1  0.01338547  0.36516034  0.24573935  1
  O  O204  1  0.00458330  0.37378135  0.75487536  1
  O  O205  1  0.00715510  0.86959047  0.25275704  1
  O  O206  1  -0.03711999  0.85296936  0.76325491  1
  O  O207  1  0.51092681  0.36568053  0.24278235  1
  O  O208  1  0.49709961  0.36582491  0.75517420  1
  O  O209  1  0.51607759  0.85991934  0.24240068  1
  O  O210  1  0.49739857  0.86850614  0.75560787  1
  O  O211  1  0.50582313  0.13492324  0.24703411  1
  O  O212  1  0.48834133  0.12834350  0.74606699  1
  O  O213  1  0.49629659  0.63508188  0.24704881  1
  O  O214  1  0.49497096  0.62147084  0.73771682  1
  O  O215  1  0.99828298  0.13683551  0.25097668  1
  O  O216  1  0.99738729  0.13125924  0.74391406  1
  O  O217  1  1.00256108  0.63386456  0.24575428  1
  O  O218  1  0.99798961  0.63300233  0.74073556  1
  O  O219  1  0.36568307  0.24941674  0.01350239  1
  O  O220  1  0.37816825  0.26102151  0.50818211  1
  O  O221  1  0.36946283  0.75443152  0.00643006  1
  O  O222  1  0.36967178  0.75903542  0.49819565  1
  O  O223  1  0.87043124  0.25429258  0.00667472  1
  O  O224  1  0.86788214  0.25463072  0.50592245  1
  O  O225  1  0.87309965  0.76078834  0.00460899  1
  O  O226  1  0.86472672  0.75124918  0.50471410  1
  O  O227  1  0.11921334  0.25252735  0.48961527  1
  O  O228  1  0.12929487  0.24268730  1.00033914  1
  O  O229  1  0.14183685  0.74675855  0.49367013  1
  O  O230  1  0.13218794  0.74500067  0.99543333  1
  O  O231  1  0.62606888  0.24369554  0.49127776  1
  O  O232  1  0.62626672  0.24073598  1.00027234  1
  O  O233  1  0.63680804  0.74195679  0.49824691  1
  O  O234  1  0.63429801  0.74448647  0.99339833  1
  O  O235  1  0.48448116  0.25328612  0.12858088  1
  O  O236  1  0.48900489  0.24536216  0.63273131  1
  O  O237  1  0.49070816  0.74855009  0.12936543  1
  O  O238  1  0.50684817  0.74423853  0.63201528  1
  O  O239  1  0.98903827  0.25452094  0.13370747  1
  O  O240  1  0.99247962  0.24269918  0.62987581  1
  O  O241  1  0.99717085  0.74713660  0.13489916  1
  O  O242  1  0.98382462  0.75193436  0.62143346  1
  O  O243  1  0.00924807  0.24735555  0.36695559  1
  O  O244  1  -0.00238351  0.26262458  0.86988590  1
  O  O245  1  -0.00538495  0.75598035  0.36279469  1
  O  O246  1  0.02017697  0.74687611  0.88085450  1
  O  O247  1  0.50970362  0.24321365  0.36597289  1
  O  O248  1  0.49417734  0.25753322  0.86959366  1
  O  O249  1  0.50341060  0.74962443  0.36675943  1
  O  O250  1  0.51233569  0.76261160  0.88302655  1
  O  O251  1  0.24743217  0.11905212  0.48560848  1
  O  O252  1  0.23926694  0.13472095  0.99840916  1
  O  O253  1  0.24790429  0.63038547  0.50008840  1
  O  O254  1  0.24573067  0.63043098  0.99529158  1
  O  O255  1  0.74373738  0.13077434  0.49299922  1
  O  O256  1  0.73828274  0.13022226  0.99232289  1
  O  O257  1  0.74285579  0.62822097  0.49318684  1
  O  O258  1  0.74274477  0.63541244  1.00493045  1
  O  O259  1  0.24014540  0.36285073  0.00971066  1
  O  O260  1  0.25779350  0.37975342  0.51155972  1
  O  O261  1  0.25391610  0.87523052  0.00793679  1
  O  O262  1  0.25682483  0.87720845  0.50177625  1
  O  O263  1  0.75210582  0.36888101  0.00397085  1
  O  O264  1  0.75199581  0.36635046  0.50976210  1
  O  O265  1  0.75670632  0.86871035  0.00850228  1
  O  O266  1  0.75431606  0.86535692  0.50384808  1
  O  O267  1  0.12745461  0.49365959  0.24648021  1
  O  O268  1  0.13625831  0.49456999  0.75536215  1
  O  O269  1  0.12979346  0.99074280  0.25198941  1
  O  O270  1  0.13200606  1.00238035  0.73985176  1
  O  O271  1  0.63026921  0.49162490  0.24858769  1
  O  O272  1  0.63667391  0.49615731  0.75145646  1
  O  O273  1  0.61975725  0.98885954  0.24121466  1
  O  O274  1  0.61812008  0.99885939  0.73624398  1
  O  O275  1  0.36069065  0.01102795  0.24033274  1
  O  O276  1  0.35557299  0.01262710  0.74455742  1
  O  O277  1  0.37463488  0.51207462  0.25400529  1
  O  O278  1  0.36831513  0.50670847  0.75966830  1
  O  O279  1  0.87769251  -0.00034242  0.26404853  1
  O  O280  1  0.88033580  0.00158028  0.76734031  1
  O  O281  1  0.86584356  0.49844190  0.24995037  1
  O  O282  1  0.85876109  0.49959093  0.75203262  1
  O  O283  1  0.13599228  0.36595535  0.36671338  1
  O  O284  1  0.11753359  0.37322747  0.86304079  1
  O  O285  1  0.11678712  0.87538221  0.36674181  1
  O  O286  1  0.12923750  0.86212458  0.88029469  1
  O  O287  1  0.63065043  0.36200887  0.36438027  1
  O  O288  1  0.60861067  0.36984854  0.87009427  1
  O  O289  1  0.62226922  0.87280384  0.36610422  1
  O  O290  1  0.62046322  0.86882226  0.87297286  1
  O  O291  1  0.37039565  0.13845511  0.12494783  1
  O  O292  1  0.37508577  0.13326126  0.63089425  1
  O  O293  1  0.37620748  0.63324557  0.13396113  1
  O  O294  1  0.38922626  0.61856512  0.63470285  1
  O  O295  1  0.86371510  0.13742581  0.12563203  1
  O  O296  1  0.88384485  0.12840665  0.62570339  1
  O  O297  1  0.88404588  0.63173594  0.12690929  1
  O  O298  1  0.87410773  0.63439953  0.61457189  1
  O  O299  1  0.25920678  0.25648578  0.12184389  1
  O  O300  1  0.25951575  0.25918747  0.63063338  1
  O  O301  1  0.25696691  0.75936574  0.12083043  1
  O  O302  1  0.25587600  0.75535131  0.60676896  1
  O  O303  1  0.75454725  0.25568271  0.11885261  1
  O  O304  1  0.75497277  0.25320237  0.62099376  1
  O  O305  1  0.75622284  0.75992784  0.11695065  1
  O  O306  1  0.75468767  0.75661188  0.61474542  1
  O  O307  1  0.24200574  0.23762103  0.36995319  1
  O  O308  1  0.24900557  0.25190973  0.88574596  1
  O  O309  1  0.25670728  0.75984992  0.39079832  1
  O  O310  1  0.24246929  0.74331232  0.88307266  1
  O  O311  1  0.73887006  0.24047265  0.37924121  1
  O  O312  1  0.74761866  0.24334894  0.88286182  1
  O  O313  1  0.74876048  0.74046662  0.38100094  1
  O  O314  1  0.74601911  0.75896917  0.88702321  1
  O  O315  1  0.00927273  0.11918545  0.00301170  1
  O  O316  1  0.00051803  0.11645385  0.50987027  1
  O  O317  1  0.00841330  0.61918266  0.00888314  1
  O  O318  1  0.01714699  0.62720426  0.50555830  1
  O  O319  1  0.50947243  0.11660793  -0.00686789  1
  O  O320  1  0.50604894  0.11993604  0.50797107  1
  O  O321  1  0.50586568  0.61397635  -0.00117629  1
  O  O322  1  0.50770409  0.62579418  0.51485139  1
  O  O323  1  0.48828953  0.37426990  0.50345636  1
  O  O324  1  0.50288150  0.38884609  0.99195007  1
  O  O325  1  0.50802589  0.88947062  0.50033512  1
  O  O326  1  0.49595748  0.88126341  0.99595797  1
  O  O327  1  0.98076891  0.36909418  0.50172050  1
  O  O328  1  0.99703961  0.37887149  0.99244840  1
  O  O329  1  0.99460874  0.87778382  0.49311252  1
  O  O330  1  0.99356890  0.89064691  1.00734364  1
  O  O331  1  0.48282039  0.49077585  0.36405323  1
  O  O332  1  0.49279283  0.49440696  0.87841740  1
  O  O333  1  0.50282803  1.00605676  0.39395060  1
  O  O334  1  0.50504943  0.98464112  0.88488243  1
  O  O335  1  0.99646982  0.49893684  0.38357270  1
  O  O336  1  1.00150322  0.48888189  0.87976209  1
  O  O337  1  0.99459057  0.99543489  0.38003796  1
  O  O338  1  0.98689525  1.00733846  0.88821612  1
  O  O339  1  -0.00496031  0.00511174  0.11597800  1
  O  O340  1  0.00847473  0.00512646  0.62468251  1
  O  O341  1  0.00782588  0.50313636  0.12168924  1
  O  O342  1  -0.00350926  0.49519365  0.61132990  1
  O  O343  1  0.51088150  -0.00937608  0.11768677  1
  O  O344  1  0.50780487  0.00746592  0.61667991  1
  O  O345  1  0.50027337  0.50119229  0.11452039  1
  O  O346  1  0.50215359  0.50592449  0.62804961  1
  O  O347  1  0.23850800  0.37317015  0.24042919  1
  O  O348  1  0.24260264  0.38284925  0.74319112  1
  O  O349  1  0.24326356  0.88581012  0.24361971  1
  O  O350  1  0.25412376  0.88925625  0.75220641  1
  O  O351  1  0.74143266  0.37957679  0.24406056  1
  O  O352  1  0.74614698  0.37807509  0.73858982  1
  O  O353  1  0.73828913  0.86747583  0.24171304  1
  O  O354  1  0.75692547  0.87419006  0.73686320  1
  O  O355  1  0.23948246  0.11876254  0.26358460  1
  O  O356  1  0.25265569  0.12157163  0.75302995  1
  O  O357  1  0.26170750  0.62847270  0.24841975  1
  O  O358  1  0.25839608  0.61880330  0.75064100  1
  O  O359  1  0.75168535  0.12837140  0.26152652  1
  O  O360  1  0.74994606  0.12937122  0.76473040  1
  O  O361  1  0.74949173  0.61614078  0.25515912  1
  O  O362  1  0.74816887  0.60854848  0.74188556  1
  O  O363  1  0.36126389  0.12460562  0.37709070  1
  O  O364  1  0.37058820  0.12940882  0.86365725  1
  O  O365  1  0.38321805  0.61394811  0.36946652  1
  O  O366  1  0.37155682  0.62047263  0.86370263  1
  O  O367  1  0.86655336  0.11731987  0.37467395  1
  O  O368  1  0.86792044  0.11606278  0.87693497  1
  O  O369  1  0.86153624  0.62222228  0.37404652  1
  O  O370  1  0.87600353  0.61925295  0.87669087  1
  O  O371  1  0.13221201  0.38174486  0.13257418  1
  O  O372  1  0.13282683  0.37161678  0.63584796  1
  O  O373  1  0.13692581  0.86941029  0.13328835  1
  O  O374  1  0.11442676  0.88336407  0.62846101  1
  O  O375  1  0.63180170  0.37584912  0.13178392  1
  O  O376  1  0.63910575  0.36484656  0.62674829  1
  O  O377  1  0.63234449  0.87945379  0.12894779  1
  O  O378  1  0.63597918  0.88206588  0.62944537  1
  O  O379  1  0.11725216  0.25638532  0.25788254  1
  O  O380  1  0.11544648  0.26025112  0.75152923  1
  O  O381  1  0.11888896  0.76113065  0.25475406  1
  O  O382  1  0.13109077  0.74774874  0.76495890  1
  O  O383  1  0.61756964  0.25472621  0.25389896  1
  O  O384  1  0.60615521  0.24683482  0.75215957  1
  O  O385  1  0.61920453  0.75317793  0.25009920  1
  O  O386  1  0.63446620  0.75165226  0.76441757  1
  O  O387  1  0.38210736  0.25472104  0.23749744  1
  O  O388  1  0.38010100  0.24514070  0.74289305  1
  O  O389  1  0.38293090  0.74418915  0.24553879  1
  O  O390  1  0.37563161  0.74168049  0.75275353  1
  O  O391  1  0.88273312  0.24930581  0.24270345  1
  O  O392  1  0.87953938  0.24849045  0.74130005  1
  O  O393  1  0.88394651  0.74896377  0.24218303  1
  O  O394  1  0.85760980  0.73598234  0.72706971  1
  O  O395  1  0.37713020  0.48953642  0.48938016  1
  O  O396  1  0.38093191  0.50783816  0.98636504  1
  O  O397  1  0.39046590  1.00350504  0.50387504  1
  O  O398  1  0.38731991  0.99876318  1.00654948  1
  O  O399  1  0.86448539  0.48095705  0.49498461  1
  O  O400  1  0.88236239  0.49045939  1.00299972  1
  O  O401  1  0.88199479  0.99282790  0.49052931  1
  O  O402  1  0.88567018  0.99856735  0.99883825  1
  O  O403  1  0.11116490  0.01135036  0.00050964  1
  O  O404  1  0.11956387  -0.00041047  0.51457804  1
  O  O405  1  0.12043439  0.50439151  0.00662784  1
  O  O406  1  0.13504072  0.51504209  0.49641642  1
  O  O407  1  0.61506663  0.00488079  0.00638773  1
  O  O408  1  0.61837353  0.00541546  0.51100522  1
  O  O409  1  0.61817121  0.50805666  -0.00125506  1
  O  O410  1  0.63101969  0.50746002  0.49587330  1
  O  O411  1  0.36170504  0.37353813  0.12828800  1
  O  O412  1  0.36872108  0.36806255  0.61660745  1
  O  O413  1  0.36606374  0.86970282  0.12193627  1
  O  O414  1  0.39471929  0.86204798  0.63947541  1
  O  O415  1  0.86755149  0.36514577  0.11913429  1
  O  O416  1  0.86103782  0.36601262  0.61617840  1
  O  O417  1  0.86774584  0.87330980  0.11802416  1
  O  O418  1  0.86904865  0.86782227  0.61429157  1
  O  O419  1  0.13238151  0.13454046  0.38135753  1
  O  O420  1  0.12377949  0.13046462  0.88848198  1
  O  O421  1  0.12796645  0.63243056  0.38936972  1
  O  O422  1  0.13313998  0.62632422  0.88322258  1
  O  O423  1  0.63203414  0.12917303  0.37944346  1
  O  O424  1  0.63060111  0.12404474  0.88283227  1
  O  O425  1  0.63478223  0.62343101  0.38151255  1
  O  O426  1  0.62020305  0.63465106  0.88637302  1
