# generated using pymatgen
data_V85Zn86O256
_symmetry_space_group_name_H-M   'P 1'
_cell_length_a   16.95281797
_cell_length_b   16.94985853
_cell_length_c   16.93163512
_cell_angle_alpha   90.02031689
_cell_angle_beta   90.06285084
_cell_angle_gamma   89.92702792
_symmetry_Int_Tables_number   1
_chemical_formula_structural   V85Zn86O256
_chemical_formula_sum   'V85 Zn86 O256'
_cell_volume   4865.26204771
_cell_formula_units_Z   1
loop_
 _symmetry_equiv_pos_site_id
 _symmetry_equiv_pos_as_xyz
  1  'x, y, z'
loop_
 _atom_site_type_symbol
 _atom_site_label
 _atom_site_symmetry_multiplicity
 _atom_site_fract_x
 _atom_site_fract_y
 _atom_site_fract_z
 _atom_site_occupancy
  V  V0  1  0.87129599  0.37566266  0.49848143  1
  V  V1  1  0.37642876  0.38126078  -0.00567201  1
  V  V2  1  0.25271455  0.12753380  0.87528846  1
  V  V3  1  0.75129175  0.75358104  0.00615826  1
  V  V4  1  0.86968050  0.00444964  0.37375784  1
  V  V5  1  0.11679680  0.00231104  0.62549546  1
  V  V6  1  0.74230794  0.00267788  0.74743189  1
  V  V7  1  0.24941535  0.74448944  0.49317162  1
  V  V8  1  0.87818880  0.12614744  0.74302390  1
  V  V9  1  0.50004656  0.00660915  0.00444166  1
  V  V10  1  -0.00085269  0.74890387  0.74865841  1
  V  V11  1  0.87363722  0.74923420  0.62515102  1
  V  V12  1  0.25256191  0.25133114  0.00424119  1
  V  V13  1  -0.00010799  0.63062095  0.13256724  1
  V  V14  1  0.62590231  0.50220287  0.13806223  1
  V  V15  1  -0.00139377  0.24989364  0.24976095  1
  V  V16  1  0.12774506  0.62115458  0.49657451  1
  V  V17  1  0.73322749  0.37198380  0.62358339  1
  V  V18  1  -0.00455821  0.49912703  0.49940738  1
  V  V19  1  0.37737794  0.75047080  0.13551735  1
  V  V20  1  0.75125627  -0.01428876  0.24681844  1
  V  V21  1  0.62430570  0.61341986  0.50559136  1
  V  V22  1  0.87421637  0.49708411  0.87271042  1
  V  V23  1  0.49999392  0.61575445  0.62448832  1
  V  V24  1  0.74806464  0.24168244  0.48534489  1
  V  V25  1  0.49870339  0.62723880  0.13652071  1
  V  V26  1  -0.00100979  0.50004813  -0.00058226  1
  V  V27  1  0.44029890  0.43983869  0.45236660  1
  V  V28  1  0.12679772  0.49977773  0.12739141  1
  V  V29  1  0.25143863  0.87250760  0.62391056  1
  V  V30  1  0.25500082  0.50701112  0.26297875  1
  V  V31  1  0.12100960  0.12779713  0.50075874  1
  V  V32  1  -0.00248041  0.00429082  0.49884842  1
  V  V33  1  0.39537423  0.25014568  0.13063696  1
  V  V34  1  0.12538803  0.12718228  -0.00031970  1
  V  V35  1  0.87405731  0.62305831  0.74774947  1
  V  V36  1  0.61481414  0.36727037  0.25671777  1
  V  V37  1  0.12530281  0.62576838  -0.00039271  1
  V  V38  1  0.25968790  0.61857750  0.87252021  1
  V  V39  1  0.87467991  0.75349436  0.13608037  1
  V  V40  1  0.86194595  0.12801418  0.24997944  1
  V  V41  1  0.00765324  0.37435361  0.87122525  1
  V  V42  1  0.25368246  0.36563174  0.63034502  1
  V  V43  1  -0.00115432  0.12690885  0.12629393  1
  V  V44  1  0.12112810  0.87212831  0.25109986  1
  V  V45  1  0.49950925  0.75327020  0.74724112  1
  V  V46  1  0.00541907  0.24991751  0.74349549  1
  V  V47  1  0.49691091  0.38324353  0.86349817  1
  V  V48  1  0.63034132  0.00084535  0.12304739  1
  V  V49  1  0.26077038  0.49301461  0.74891858  1
  V  V50  1  0.73952409  0.49434104  0.74285650  1
  V  V51  1  0.37385511  0.87930835  0.48523288  1
  V  V52  1  0.12619122  0.74836114  0.87332516  1
  V  V53  1  0.37628557  0.87508417  0.00106264  1
  V  V54  1  0.87346427  0.87454012  0.00464731  1
  V  V55  1  0.74805812  0.74912417  0.49588639  1
  V  V56  1  0.24906436  0.00039166  0.75006618  1
  V  V57  1  -0.00030111  0.00235442  -0.00052117  1
  V  V58  1  0.51410815  0.11137098  0.62491336  1
  V  V59  1  0.75137031  0.37875231  0.12999549  1
  V  V60  1  -0.00592088  0.37843639  0.37285735  1
  V  V61  1  0.87335026  0.61182659  0.25355619  1
  V  V62  1  0.74219879  0.87851601  0.62400748  1
  V  V63  1  0.61638452  0.75332909  0.37076982  1
  V  V64  1  0.37617712  0.00318835  0.87644136  1
  V  V65  1  0.62272305  0.62268384  0.00233100  1
  V  V66  1  0.39167610  0.12345524  0.25138015  1
  V  V67  1  0.26209941  0.24898556  0.50179017  1
  V  V68  1  0.75116637  0.61347950  0.37043229  1
  V  V69  1  0.12326215  0.48875120  0.63340755  1
  V  V70  1  0.25304246  0.12116638  0.37150572  1
  V  V71  1  -0.00019863  0.87421947  0.87540447  1
  V  V72  1  0.75037845  0.62340753  0.87454221  1
  V  V73  1  0.87512769  0.87505996  0.49798827  1
  V  V74  1  0.37523873  0.12801884  0.73732237  1
  V  V75  1  0.50368071  -0.00772518  0.48743386  1
  V  V76  1  0.62276179  0.13162725  0.00245458  1
  V  V77  1  0.12979852  0.37447297  0.25193725  1
  V  V78  1  0.87332384  0.00260504  0.87437963  1
  V  V79  1  0.62555683  0.75331225  0.87484165  1
  V  V80  1  0.25205650  0.74979710  -0.00061280  1
  V  V81  1  0.12429759  0.87322617  0.74846242  1
  V  V82  1  0.60676758  0.86963832  0.24520284  1
  V  V83  1  0.50052619  0.25583468  0.73583428  1
  V  V84  1  0.62381482  0.25700168  0.86698718  1
  Zn  Zn85  1  -0.00347647  0.86842626  0.36894603  1
  Zn  Zn86  1  0.25200686  0.00207083  0.24924829  1
  Zn  Zn87  1  0.11765958  0.74182740  0.36865791  1
  Zn  Zn88  1  0.49428884  0.50410734  -0.00598722  1
  Zn  Zn89  1  0.25440006  0.37572066  0.12675399  1
  Zn  Zn90  1  0.87480608  0.24736789  0.62209897  1
  Zn  Zn91  1  0.37505644  0.74986433  0.62650577  1
  Zn  Zn92  1  0.63525842  0.11007946  0.49271675  1
  Zn  Zn93  1  0.37848383  0.62117015  0.74959050  1
  Zn  Zn94  1  0.12853844  0.00094052  0.12746709  1
  Zn  Zn95  1  0.12909455  0.25541329  0.87193325  1
  Zn  Zn96  1  0.00125412  0.62270677  0.62475717  1
  Zn  Zn97  1  0.50105530  0.87777440  0.87398993  1
  Zn  Zn98  1  0.74910623  0.25479352  -0.00274152  1
  Zn  Zn99  1  0.74994067  0.13259096  0.87351808  1
  Zn  Zn100  1  0.87094654  0.25037792  0.12030880  1
  Zn  Zn101  1  0.87195537  0.37336443  -0.00066328  1
  Zn  Zn102  1  0.12429597  0.24809271  0.37566927  1
  Zn  Zn103  1  0.37669249  0.62760275  0.26574611  1
  Zn  Zn104  1  0.62113523  0.88094363  0.74623513  1
  Zn  Zn105  1  0.60849982  0.22957103  0.36628342  1
  Zn  Zn106  1  0.24941337  0.87931248  0.12714781  1
  Zn  Zn107  1  0.18958905  0.18919399  0.18707179  1
  Zn  Zn108  1  0.18294138  0.18446762  0.68648891  1
  Zn  Zn109  1  0.18963639  0.69007839  0.18789319  1
  Zn  Zn110  1  0.18881081  0.68043165  0.68129649  1
  Zn  Zn111  1  0.68384758  0.18962892  0.18433656  1
  Zn  Zn112  1  0.68744765  0.19000781  0.68409020  1
  Zn  Zn113  1  0.68922745  0.68985660  0.18961221  1
  Zn  Zn114  1  0.68692409  0.68847009  0.68789957  1
  Zn  Zn115  1  0.43910798  0.31331647  0.31999376  1
  Zn  Zn116  1  0.31613712  0.31155696  0.80874970  1
  Zn  Zn117  1  0.30348555  0.81225906  0.31232030  1
  Zn  Zn118  1  0.31446148  0.81213310  0.81341636  1
  Zn  Zn119  1  0.81095168  0.31904294  0.30839094  1
  Zn  Zn120  1  0.81325907  0.31375829  0.80875137  1
  Zn  Zn121  1  0.81147331  0.81007157  0.31484824  1
  Zn  Zn122  1  0.81031618  0.81461576  0.81313180  1
  Zn  Zn123  1  0.18513108  0.42906921  0.44115911  1
  Zn  Zn124  1  0.18952932  0.43857402  0.93759001  1
  Zn  Zn125  1  0.18654243  0.93814006  0.43383342  1
  Zn  Zn126  1  0.18828730  0.93898107  0.93940522  1
  Zn  Zn127  1  0.68416335  0.43538747  0.43760426  1
  Zn  Zn128  1  0.68500953  0.43666607  0.93764051  1
  Zn  Zn129  1  0.68603662  0.93651485  0.43059756  1
  Zn  Zn130  1  0.68949604  0.93785916  0.93829621  1
  Zn  Zn131  1  0.31452394  0.06707703  0.06990673  1
  Zn  Zn132  1  0.31019157  0.05848568  0.56033417  1
  Zn  Zn133  1  0.31196022  0.56395752  0.06681385  1
  Zn  Zn134  1  0.31099780  0.56582780  0.43973404  1
  Zn  Zn135  1  0.80832362  0.06628851  0.06205386  1
  Zn  Zn136  1  0.81329253  0.06250015  0.56516386  1
  Zn  Zn137  1  0.81097236  0.56179135  0.06429401  1
  Zn  Zn138  1  0.80994675  0.55952487  0.56146560  1
  Zn  Zn139  1  0.43719876  0.44176369  0.18207476  1
  Zn  Zn140  1  0.45219317  0.42045682  0.64441567  1
  Zn  Zn141  1  0.43609523  0.94390517  0.18381267  1
  Zn  Zn142  1  0.43621050  0.93818702  0.68763816  1
  Zn  Zn143  1  0.93882249  0.43938368  0.18655545  1
  Zn  Zn144  1  0.93314882  0.43220276  0.68492205  1
  Zn  Zn145  1  0.94086620  0.93913238  0.18728204  1
  Zn  Zn146  1  0.93392225  0.93688513  0.68615918  1
  Zn  Zn147  1  0.06180289  0.05831233  0.31273332  1
  Zn  Zn148  1  0.06241273  0.06682563  0.81325992  1
  Zn  Zn149  1  0.05962084  0.56155027  0.31386828  1
  Zn  Zn150  1  0.06400051  0.56333732  0.81149862  1
  Zn  Zn151  1  0.56569301  0.05541056  0.31505695  1
  Zn  Zn152  1  0.56158130  0.06843797  0.81733250  1
  Zn  Zn153  1  0.55901724  0.55966111  0.32150401  1
  Zn  Zn154  1  0.56224708  0.56470514  0.80918808  1
  Zn  Zn155  1  0.43810105  0.18002552  0.44080058  1
  Zn  Zn156  1  0.43966970  0.19358731  0.93350848  1
  Zn  Zn157  1  0.43980483  0.69044910  0.44353945  1
  Zn  Zn158  1  0.43985176  0.68901811  0.93847769  1
  Zn  Zn159  1  0.93494281  0.18848600  0.43431768  1
  Zn  Zn160  1  0.93504712  0.19108892  0.93522122  1
  Zn  Zn161  1  0.93766434  0.68461870  0.43531705  1
  Zn  Zn162  1  0.93702114  0.68619919  0.93958018  1
  Zn  Zn163  1  0.06161013  0.31312095  0.06060821  1
  Zn  Zn164  1  0.05986888  0.31268095  0.56321556  1
  Zn  Zn165  1  0.06230694  0.81322121  0.06585529  1
  Zn  Zn166  1  0.06055426  0.81143715  0.55573475  1
  Zn  Zn167  1  0.56534469  0.32098579  0.05607209  1
  Zn  Zn168  1  0.55474518  0.29882226  0.54349837  1
  Zn  Zn169  1  0.56004327  0.81336311  0.06539835  1
  Zn  Zn170  1  0.56259370  0.81118456  0.55921750  1
  O  O171  1  0.11655321  0.12688649  0.11672445  1
  O  O172  1  0.12661744  0.11107327  0.61698652  1
  O  O173  1  0.11752389  0.62137822  0.12180205  1
  O  O174  1  0.12274012  0.60876015  0.61572065  1
  O  O175  1  0.62662287  0.11547369  0.11589754  1
  O  O176  1  0.61630225  0.12089026  0.61779649  1
  O  O177  1  0.61988834  0.62104015  0.12166766  1
  O  O178  1  0.61793221  0.63472652  0.61571111  1
  O  O179  1  0.38247017  0.38445793  0.38941777  1
  O  O180  1  0.38457978  0.36901583  0.88214539  1
  O  O181  1  0.36966078  0.87370026  0.38706177  1
  O  O182  1  0.37519450  0.88422637  0.88388009  1
  O  O183  1  0.88025726  0.37329749  0.38508771  1
  O  O184  1  0.88133232  0.38690357  0.87392584  1
  O  O185  1  0.87468273  0.88232838  0.38145864  1
  O  O186  1  0.88083135  0.88153384  0.88127388  1
  O  O187  1  0.24971295  0.01728071  0.37913186  1
  O  O188  1  0.25457457  0.00697915  0.86903442  1
  O  O189  1  0.24376417  0.49777147  0.36652299  1
  O  O190  1  0.24082698  0.50824255  0.86282154  1
  O  O191  1  0.76208377  -0.00410920  0.36467068  1
  O  O192  1  0.76210143  -0.00087549  0.86854954  1
  O  O193  1  0.74791919  0.51526398  0.37963453  1
  O  O194  1  0.75760752  0.50278595  0.86905779  1
  O  O195  1  0.23661174  0.49928626  0.12961937  1
  O  O196  1  0.23486133  0.48158157  0.63277218  1
  O  O197  1  0.24625061  0.99837575  0.12544337  1
  O  O198  1  0.23936365  0.99239343  0.63098327  1
  O  O199  1  0.73920556  0.49143392  0.12210994  1
  O  O200  1  0.75293070  0.48435594  0.62929481  1
  O  O201  1  0.73844813  0.99959346  0.12891919  1
  O  O202  1  0.75556914  0.99120370  0.63512578  1
  O  O203  1  0.00611470  0.37334339  0.25564195  1
  O  O204  1  -0.00757317  0.36087595  0.75736030  1
  O  O205  1  0.01457704  0.87824106  0.24955968  1
  O  O206  1  0.00420051  0.86928084  0.75534343  1
  O  O207  1  0.51048773  0.37708999  0.24613722  1
  O  O208  1  0.49078445  0.36319233  0.74623672  1
  O  O209  1  0.50865019  0.87862546  0.24742487  1
  O  O210  1  0.50309494  0.87023519  0.75407518  1
  O  O211  1  0.49039046  0.12123717  0.25345176  1
  O  O212  1  0.49566461  0.12586526  0.73827060  1
  O  O213  1  0.49786295  0.61848471  0.24036709  1
  O  O214  1  0.50272196  0.63605361  0.74329741  1
  O  O215  1  0.99365674  0.12834909  0.24164026  1
  O  O216  1  0.99192127  0.13913320  0.75784362  1
  O  O217  1  0.99133504  0.62258585  0.24226767  1
  O  O218  1  0.99227006  0.63129325  0.74769595  1
  O  O219  1  0.37078764  0.25654696  0.00799113  1
  O  O220  1  0.35909528  0.23814563  0.50867394  1
  O  O221  1  0.37117340  0.75920635  0.00329465  1
  O  O222  1  0.36771427  0.76518771  0.50609302  1
  O  O223  1  0.86881307  0.25447673  0.00163433  1
  O  O224  1  0.86495825  0.25533239  0.50002896  1
  O  O225  1  0.86774169  0.75218124  0.00729272  1
  O  O226  1  0.86347791  0.75240314  0.50540947  1
  O  O227  1  0.11880043  0.23436161  0.50280286  1
  O  O228  1  0.13406446  0.24541819  0.99772949  1
  O  O229  1  0.13310649  0.73731875  0.50757423  1
  O  O230  1  0.13143883  0.74552760  0.99487869  1
  O  O231  1  0.64111934  0.24502518  0.49383031  1
  O  O232  1  0.62422577  0.24525626  0.99122617  1
  O  O233  1  0.63682716  0.74891983  0.49256768  1
  O  O234  1  0.63126544  0.74225192  0.99773293  1
  O  O235  1  0.49257445  0.25173149  0.11635390  1
  O  O236  1  0.50385832  0.23093726  0.62921592  1
  O  O237  1  0.48948484  0.73987533  0.11952439  1
  O  O238  1  0.50338291  0.75111148  0.63873031  1
  O  O239  1  0.99722211  0.24066773  0.12892970  1
  O  O240  1  0.99627355  0.25306758  0.63974061  1
  O  O241  1  0.99034605  0.73693700  0.11715734  1
  O  O242  1  0.99049140  0.75013615  0.62992901  1
  O  O243  1  0.00025593  0.26064250  0.36782855  1
  O  O244  1  0.00121081  0.25993493  0.86760603  1
  O  O245  1  0.00652750  0.75745146  0.39071735  1
  O  O246  1  0.00500658  0.75377489  0.86976807  1
  O  O247  1  0.50293319  0.25943658  0.39777979  1
  O  O248  1  0.50560387  0.26005138  0.86203188  1
  O  O249  1  0.51798699  0.75034075  0.38282476  1
  O  O250  1  0.50863593  0.75093908  0.86631727  1
  O  O251  1  0.24075621  0.13081140  0.50063152  1
  O  O252  1  0.24658061  0.13320221  0.99668720  1
  O  O253  1  0.24109758  0.63316857  0.50512114  1
  O  O254  1  0.24491874  0.62789007  0.99227933  1
  O  O255  1  0.75351337  0.13844639  0.50446581  1
  O  O256  1  0.73624879  0.12790172  0.99510364  1
  O  O257  1  0.74687431  0.63246423  0.49248159  1
  O  O258  1  0.74431874  0.63318884  0.99436464  1
  O  O259  1  0.25717521  0.36796860  0.00028597  1
  O  O260  1  0.24095038  0.35589844  0.51089145  1
  O  O261  1  0.26162012  0.87028908  -0.00046014  1
  O  O262  1  0.25684121  0.87315666  0.50619586  1
  O  O263  1  0.74846013  0.37717681  0.01368514  1
  O  O264  1  0.75376078  0.36766104  0.50488963  1
  O  O265  1  0.75654864  0.86132110  -0.00470102  1
  O  O266  1  0.75452563  0.86963057  0.50478144  1
  O  O267  1  0.12919901  0.49658217  0.24447819  1
  O  O268  1  0.12742043  0.50414112  0.73592376  1
  O  O269  1  0.12744922  0.99035832  0.24790479  1
  O  O270  1  0.12680565  0.99531267  0.74352681  1
  O  O271  1  0.61985550  0.49394743  0.24087186  1
  O  O272  1  0.64155988  0.50304861  0.75509044  1
  O  O273  1  0.63087011  0.98848401  0.24201310  1
  O  O274  1  0.63920901  1.00028577  0.76125093  1
  O  O275  1  0.37265867  0.01981307  0.24091045  1
  O  O276  1  0.36842680  0.00654000  0.75721763  1
  O  O277  1  0.35649325  0.50015530  0.24359208  1
  O  O278  1  0.36047951  0.49989604  0.74224235  1
  O  O279  1  0.86850748  0.00497464  0.25350181  1
  O  O280  1  0.87034391  0.00590228  0.75724939  1
  O  O281  1  0.87493733  0.51234092  0.24751866  1
  O  O282  1  0.86905833  0.50436899  0.75525900  1
  O  O283  1  0.11566198  0.37041881  0.36754298  1
  O  O284  1  0.11126861  0.37673898  0.87772014  1
  O  O285  1  0.12189557  0.87619623  0.36285712  1
  O  O286  1  0.11997396  0.86899642  0.86945434  1
  O  O287  1  0.63150156  0.37587439  0.35624548  1
  O  O288  1  0.61490915  0.36495157  0.87687688  1
  O  O289  1  0.63170804  0.86766386  0.35511168  1
  O  O290  1  0.62548228  0.86206315  0.87729198  1
  O  O291  1  0.37426974  0.14224970  0.13627710  1
  O  O292  1  0.38076798  0.11524107  0.63498094  1
  O  O293  1  0.38327109  0.63287150  0.12644624  1
  O  O294  1  0.39635864  0.63269576  0.62882177  1
  O  O295  1  0.88193564  0.12605339  0.13140968  1
  O  O296  1  0.87620420  0.12504194  0.63889331  1
  O  O297  1  0.88111110  0.62926410  0.13242405  1
  O  O298  1  0.87416372  0.63131518  0.63072229  1
  O  O299  1  0.25526912  0.25355972  0.11345720  1
  O  O300  1  0.23739765  0.25760879  0.61780740  1
  O  O301  1  0.25936175  0.74982668  0.11413678  1
  O  O302  1  0.24972673  0.75776042  0.61765096  1
  O  O303  1  0.74839430  0.26532413  0.12238217  1
  O  O304  1  0.75259569  0.26043181  0.61733693  1
  O  O305  1  0.76015628  0.74334626  0.11528395  1
  O  O306  1  0.75641867  0.75621762  0.61866035  1
  O  O307  1  0.24265852  0.23772913  0.39625317  1
  O  O308  1  0.25113009  0.24551653  0.88545353  1
  O  O309  1  0.23975959  0.75547826  0.39056875  1
  O  O310  1  0.24496395  0.74214586  0.87940094  1
  O  O311  1  0.75223209  0.25302293  0.38520650  1
  O  O312  1  0.73929144  0.25398907  0.87304847  1
  O  O313  1  0.74379866  0.74303377  0.38229987  1
  O  O314  1  0.74463927  0.74293962  0.88117641  1
  O  O315  1  0.00446953  0.12297536  0.00492972  1
  O  O316  1  0.00344337  0.11268042  0.49518673  1
  O  O317  1  0.00603298  0.61867768  0.00678763  1
  O  O318  1  0.00315852  0.61258323  0.50438795  1
  O  O319  1  0.51109191  0.11895365  -0.00686036  1
  O  O320  1  0.49622967  0.10564266  0.51171680  1
  O  O321  1  0.50832619  0.62380261  0.00600676  1
  O  O322  1  0.51134907  0.63410697  0.51632834  1
  O  O323  1  0.48631289  0.38610386  0.53286663  1
  O  O324  1  0.49290112  0.37983372  0.98641469  1
  O  O325  1  0.48556800  0.88302625  0.50808262  1
  O  O326  1  0.48956373  0.88154253  0.99748722  1
  O  O327  1  0.99175670  0.37757400  0.49250225  1
  O  O328  1  0.99605947  0.38272156  0.99200831  1
  O  O329  1  0.99139980  0.88887562  0.50271847  1
  O  O330  1  0.99531896  0.88161117  0.99369159  1
  O  O331  1  0.50464849  0.49528447  0.39494612  1
  O  O332  1  0.50405979  0.48729750  0.87093417  1
  O  O333  1  0.49522771  0.99637554  0.38924848  1
  O  O334  1  0.49598297  0.99948485  0.88607937  1
  O  O335  1  1.00354344  0.48633200  0.38390967  1
  O  O336  1  0.99333313  0.49489962  0.87634576  1
  O  O337  1  0.98745179  0.99563676  0.38187477  1
  O  O338  1  0.98973695  0.99631337  0.87758096  1
  O  O339  1  0.00063402  0.01380686  0.11829793  1
  O  O340  1  0.00881952  -0.00535263  0.61864637  1
  O  O341  1  0.00930956  0.50910609  0.12130887  1
  O  O342  1  0.00789924  0.49558552  0.61964657  1
  O  O343  1  0.51144973  -0.00274649  0.11093332  1
  O  O344  1  0.50156826  0.00784881  0.62366925  1
  O  O345  1  0.50872188  0.50906751  0.11816114  1
  O  O346  1  0.50774905  0.51857371  0.64012498  1
  O  O347  1  0.23412711  0.38888586  0.24642415  1
  O  O348  1  0.24585007  0.37545667  0.74152942  1
  O  O349  1  0.23922224  0.88166724  0.24830282  1
  O  O350  1  0.24242049  0.87888625  0.74483615  1
  O  O351  1  0.73836519  0.37586070  0.23649390  1
  O  O352  1  0.75440576  0.38000214  0.73244231  1
  O  O353  1  0.75146653  0.88425008  0.24604752  1
  O  O354  1  0.75024558  0.88394391  0.74174306  1
  O  O355  1  0.25380322  0.12775721  0.25925716  1
  O  O356  1  0.25728831  0.12137697  0.75304279  1
  O  O357  1  0.24822851  0.60960283  0.24782915  1
  O  O358  1  0.25174593  0.61595522  0.75614944  1
  O  O359  1  0.75978138  0.11568493  0.23940442  1
  O  O360  1  0.75729691  0.11872932  0.75049084  1
  O  O361  1  0.75464924  0.62723440  0.26319526  1
  O  O362  1  0.75638058  0.61882180  0.75492071  1
  O  O363  1  0.36823185  0.13394675  0.35862759  1
  O  O364  1  0.37111345  0.12033367  0.86863896  1
  O  O365  1  0.37180255  0.63520957  0.37721508  1
  O  O366  1  0.36308175  0.62702440  0.87476222  1
  O  O367  1  0.87926832  0.11632514  0.36186147  1
  O  O368  1  0.87226592  0.11672112  0.86670914  1
  O  O369  1  0.86074852  0.62912936  0.36813425  1
  O  O370  1  0.87179898  0.61486218  0.86961967  1
  O  O371  1  0.12188963  0.38485940  0.13209541  1
  O  O372  1  0.12696507  0.38397941  0.62303879  1
  O  O373  1  0.12608952  0.87674620  0.13477697  1
  O  O374  1  0.13323435  0.88103736  0.62746644  1
  O  O375  1  0.62977535  0.38378510  0.13168797  1
  O  O376  1  0.63600820  0.36785178  0.61705338  1
  O  O377  1  0.62280727  0.88014885  0.13638727  1
  O  O378  1  0.63919763  0.86941087  0.62619270  1
  O  O379  1  0.11821772  0.25979912  0.24930927  1
  O  O380  1  0.10972332  0.24355647  0.75390171  1
  O  O381  1  0.13121869  0.76434899  0.25137310  1
  O  O382  1  0.11985453  0.75321836  0.75245426  1
  O  O383  1  0.62349244  0.26248805  0.25068047  1
  O  O384  1  0.61315692  0.24368267  0.75542884  1
  O  O385  1  0.62623470  0.76246780  0.25263544  1
  O  O386  1  0.62114447  0.75343381  0.76065250  1
  O  O387  1  0.38395719  0.24655181  0.23723985  1
  O  O388  1  0.38629046  0.23656220  0.75282313  1
  O  O389  1  0.36649464  0.74918088  0.23825852  1
  O  O390  1  0.38552535  0.74790116  0.75014791  1
  O  O391  1  0.87888675  0.24297286  0.24679232  1
  O  O392  1  0.88308851  0.24130439  0.74967988  1
  O  O393  1  0.86905224  0.74239472  0.23884863  1
  O  O394  1  0.87788446  0.74450912  0.74586301  1
  O  O395  1  0.37666868  0.49911270  0.50438029  1
  O  O396  1  0.37300581  0.48513461  1.00683745  1
  O  O397  1  0.38153419  0.98519098  0.50556966  1
  O  O398  1  0.38277415  0.99729635  0.99900307  1
  O  O399  1  0.88733499  0.49246511  0.50476471  1
  O  O400  1  0.88097236  0.50146491  0.99022602  1
  O  O401  1  0.87885472  0.99876760  0.49259385  1
  O  O402  1  0.87826170  0.99710411  0.99313655  1
  O  O403  1  0.11579994  0.00810644  -0.00082503  1
  O  O404  1  0.11648484  0.00558189  0.50530430  1
  O  O405  1  0.12042088  0.50577218  0.00834776  1
  O  O406  1  0.11589901  0.50041894  0.50903746  1
  O  O407  1  0.62064586  0.00545000  0.00430731  1
  O  O408  1  0.60932820  -0.00956842  0.49806452  1
  O  O409  1  0.62561025  0.51437038  0.00487994  1
  O  O410  1  0.63356792  0.51462251  0.50247518  1
  O  O411  1  0.37548651  0.36366571  0.11838281  1
  O  O412  1  0.35183428  0.36838106  0.62892500  1
  O  O413  1  0.37526600  0.86808729  0.11762758  1
  O  O414  1  0.35923955  0.87531477  0.62668544  1
  O  O415  1  0.86218130  0.37797151  0.12592579  1
  O  O416  1  0.87010221  0.37043358  0.60949754  1
  O  O417  1  0.88379072  0.86457605  0.11795031  1
  O  O418  1  0.86554813  0.86854783  0.61869714  1
  O  O419  1  0.12908798  0.12530813  0.38378361  1
  O  O420  1  0.13373093  0.12720958  0.88343497  1
  O  O421  1  0.11944052  0.62152675  0.39122154  1
  O  O422  1  0.13149294  0.63117541  0.88015474  1
  O  O423  1  0.62903626  0.11894245  0.37913606  1
  O  O424  1  0.62587394  0.13948300  0.88138590  1
  O  O425  1  0.63477428  0.63199020  0.38022102  1
  O  O426  1  0.62857181  0.63470779  0.88337001  1
