# generated using pymatgen
data_V85Zn86O256
_symmetry_space_group_name_H-M   'P 1'
_cell_length_a   16.94099788
_cell_length_b   16.96084065
_cell_length_c   16.94731971
_cell_angle_alpha   90.02672128
_cell_angle_beta   89.94382974
_cell_angle_gamma   89.99176944
_symmetry_Int_Tables_number   1
_chemical_formula_structural   V85Zn86O256
_chemical_formula_sum   'V85 Zn86 O256'
_cell_volume   4869.53087775
_cell_formula_units_Z   1
loop_
 _symmetry_equiv_pos_site_id
 _symmetry_equiv_pos_as_xyz
  1  'x, y, z'
loop_
 _atom_site_type_symbol
 _atom_site_label
 _atom_site_symmetry_multiplicity
 _atom_site_fract_x
 _atom_site_fract_y
 _atom_site_fract_z
 _atom_site_occupancy
  V  V0  1  0.12666266  0.37072438  0.75890122  1
  V  V1  1  0.00555828  0.00050827  0.00218191  1
  V  V2  1  0.74694251  0.62458314  0.37546173  1
  V  V3  1  0.25077890  0.87406081  0.61925606  1
  V  V4  1  0.00750386  0.87456877  0.37284067  1
  V  V5  1  0.37806554  0.12508573  0.73260525  1
  V  V6  1  0.50412612  0.75085864  0.26889030  1
  V  V7  1  0.37577395  0.75363692  0.62465033  1
  V  V8  1  0.86430468  0.25083905  0.10979934  1
  V  V9  1  0.12945430  0.74784924  0.36863268  1
  V  V10  1  0.74479509  0.49707038  0.24540649  1
  V  V11  1  0.49358334  0.37350987  0.38064288  1
  V  V12  1  0.62220823  0.37424460  0.76424903  1
  V  V13  1  0.62990370  0.62632143  0.49915755  1
  V  V14  1  0.61785234  0.13037434  0.51024259  1
  V  V15  1  0.00397098  0.74311229  0.24606712  1
  V  V16  1  0.37879903  0.74604578  0.12423965  1
  V  V17  1  0.87810484  0.24262507  0.62838871  1
  V  V18  1  0.13006605  0.13030969  -0.00243090  1
  V  V19  1  0.49900341  -0.00360204  0.49887471  1
  V  V20  1  0.25057887  0.62427815  0.87802126  1
  V  V21  1  0.00147445  0.74889907  0.73575210  1
  V  V22  1  0.87696615  0.00750865  0.87164588  1
  V  V23  1  0.25219855  0.00092085  0.74584243  1
  V  V24  1  0.87602643  0.37597127  0.50351797  1
  V  V25  1  0.12910035  -0.00164348  0.13635733  1
  V  V26  1  0.49872865  0.87650839  0.87001437  1
  V  V27  1  0.62515914  0.62613446  0.00738706  1
  V  V28  1  0.50051933  0.62505660  0.62684100  1
  V  V29  1  0.00550023  0.24379365  0.75790134  1
  V  V30  1  0.38341639  0.49666638  0.87703098  1
  V  V31  1  0.49484350  0.49458896  0.50274978  1
  V  V32  1  0.00101399  0.87407270  0.87298710  1
  V  V33  1  0.38289615  0.37207891  -0.00179165  1
  V  V34  1  0.50464072  0.24755286  0.75516062  1
  V  V35  1  0.36852518  0.50254895  0.37862525  1
  V  V36  1  0.12263127  0.37391959  0.25018446  1
  V  V37  1  0.11026836  0.62078520  0.00138963  1
  V  V38  1  -0.01199756  0.38757548  0.88205852  1
  V  V39  1  0.87464214  0.50061376  0.37535741  1
  V  V40  1  0.75477416  0.50083305  0.75187666  1
  V  V41  1  0.63253175  0.87602231  0.74369309  1
  V  V42  1  0.68905513  0.80258976  0.43193061  1
  V  V43  1  0.75083594  0.24899415  0.50384729  1
  V  V44  1  0.62845041  0.12439363  -0.01111817  1
  V  V45  1  0.25155317  0.74203775  0.49511440  1
  V  V46  1  0.88068120  0.62415408  0.74550233  1
  V  V47  1  0.24527966  0.87435098  0.13770628  1
  V  V48  1  0.10800741  0.50076865  0.12087835  1
  V  V49  1  0.62628776  0.75402653  0.87439820  1
  V  V50  1  0.87246219  0.87955489  0.00717690  1
  V  V51  1  0.00181913  0.12495465  0.62013662  1
  V  V52  1  0.12221779  -0.00019796  0.62117802  1
  V  V53  1  0.62490813  0.24754578  0.37834650  1
  V  V54  1  0.25035245  0.37524391  0.12299244  1
  V  V55  1  0.87335132  0.12879355  0.24978362  1
  V  V56  1  0.75685306  0.00316847  0.74511981  1
  V  V57  1  0.12449208  0.62261763  0.49617645  1
  V  V58  1  0.24802215  0.75066838  -0.00087342  1
  V  V59  1  0.37842143  0.24552316  0.13066798  1
  V  V60  1  0.87125179  -0.00401678  0.37484929  1
  V  V61  1  0.25144597  0.49919405  0.75220548  1
  V  V62  1  0.63041007  0.00189822  0.62243822  1
  V  V63  1  0.24684645  0.13573945  0.87189725  1
  V  V64  1  0.85957477  0.75444081  0.61857730  1
  V  V65  1  0.37693490  0.62543156  0.75151593  1
  V  V66  1  0.49945350  0.00016679  0.00003183  1
  V  V67  1  0.88251685  0.74161642  0.12039046  1
  V  V68  1  0.75104129  -0.00739667  0.24129719  1
  V  V69  1  0.63090937  0.86544422  0.23576614  1
  V  V70  1  0.50161720  0.12342587  0.13374053  1
  V  V71  1  -0.00247463  0.50476992  0.50627213  1
  V  V72  1  0.75469600  0.62954505  0.87335886  1
  V  V73  1  0.62392785  0.37665267  0.24889784  1
  V  V74  1  0.37289031  0.00358959  0.87531197  1
  V  V75  1  0.62479467  0.49928465  0.62708139  1
  V  V76  1  0.12131030  0.24671934  0.37886365  1
  V  V77  1  0.24889308  0.50693409  0.25158699  1
  V  V78  1  0.75104117  0.37560134  0.62732380  1
  V  V79  1  0.12090504  0.50398368  0.62848518  1
  V  V80  1  0.25529520  0.25365094  0.49567370  1
  V  V81  1  0.25788005  0.37771784  0.62257945  1
  V  V82  1  0.12632765  0.87265377  0.74995877  1
  V  V83  1  0.74971443  0.75725180  0.00650753  1
  V  V84  1  0.50353829  0.50069196  0.00981679  1
  Zn  Zn85  1  0.87779177  0.61852610  0.24103155  1
  Zn  Zn86  1  0.37148200  0.87500834  -0.00111528  1
  Zn  Zn87  1  0.49636405  0.24431392  0.25618213  1
  Zn  Zn88  1  0.38018553  0.25342920  0.62071382  1
  Zn  Zn89  1  0.75124445  0.12612754  0.37555205  1
  Zn  Zn90  1  0.39768042  0.86515849  0.46778714  1
  Zn  Zn91  1  0.50178484  0.75071616  0.74986250  1
  Zn  Zn92  1  -0.00481919  0.25142261  0.24909337  1
  Zn  Zn93  1  0.50595921  0.62571328  0.13171071  1
  Zn  Zn94  1  -0.00028599  0.37548960  0.37654485  1
  Zn  Zn95  1  -0.00768811  -0.00331080  0.50112166  1
  Zn  Zn96  1  0.68510548  0.28681154  0.92968436  1
  Zn  Zn97  1  0.75498735  0.12918494  0.87140035  1
  Zn  Zn98  1  0.24887195  0.25095574  -0.00225654  1
  Zn  Zn99  1  0.28245588  0.09314591  0.34520577  1
  Zn  Zn100  1  0.77199212  0.39341232  0.07951366  1
  Zn  Zn101  1  0.00111490  0.12837743  0.12463777  1
  Zn  Zn102  1  0.62955116  -0.00127000  0.12270061  1
  Zn  Zn103  1  0.14671006  0.09372502  0.47397877  1
  Zn  Zn104  1  0.12380775  0.74718285  0.87403377  1
  Zn  Zn105  1  0.37706390  0.62411972  0.25259584  1
  Zn  Zn106  1  0.86690191  0.86863157  0.49751268  1
  Zn  Zn107  1  0.18555853  0.18919029  0.18792406  1
  Zn  Zn108  1  0.18900779  0.18737317  0.68036687  1
  Zn  Zn109  1  0.18517920  0.68377792  0.18248865  1
  Zn  Zn110  1  0.18720870  0.68424549  0.68621330  1
  Zn  Zn111  1  0.68560311  0.18497925  0.18699330  1
  Zn  Zn112  1  0.68898774  0.18797126  0.69546945  1
  Zn  Zn113  1  0.69399529  0.68813475  0.18843198  1
  Zn  Zn114  1  0.68709201  0.68844473  0.68760860  1
  Zn  Zn115  1  0.31139952  0.31454386  0.31322597  1
  Zn  Zn116  1  0.31949200  0.31250397  0.80996059  1
  Zn  Zn117  1  0.31533996  0.80462656  0.30982344  1
  Zn  Zn118  1  0.31260751  0.81205788  0.81082304  1
  Zn  Zn119  1  0.81001101  0.31346007  0.31385292  1
  Zn  Zn120  1  0.81987818  0.31198480  0.80832120  1
  Zn  Zn121  1  0.82067661  0.81363096  0.30350438  1
  Zn  Zn122  1  0.81596817  0.81642706  0.81272239  1
  Zn  Zn123  1  0.18653087  0.43374121  0.43769606  1
  Zn  Zn124  1  0.18814993  0.43775766  0.93992420  1
  Zn  Zn125  1  0.22352918  0.91895413  0.40872908  1
  Zn  Zn126  1  0.18878782  0.94038563  0.93886886  1
  Zn  Zn127  1  0.68533245  0.43683224  0.43737711  1
  Zn  Zn128  1  0.70445250  0.45333759  0.94881266  1
  Zn  Zn129  1  0.63818159  0.98101723  0.38574157  1
  Zn  Zn130  1  0.68879284  0.94146508  0.93373178  1
  Zn  Zn131  1  0.31805534  0.05785276  0.17613679  1
  Zn  Zn132  1  0.30258381  0.05529911  0.53278531  1
  Zn  Zn133  1  0.31005126  0.56172348  0.06403540  1
  Zn  Zn134  1  0.31226429  0.56242217  0.56384323  1
  Zn  Zn135  1  0.81227638  0.06705987  0.06211427  1
  Zn  Zn136  1  0.80928276  0.06199296  0.56082119  1
  Zn  Zn137  1  0.81934785  0.56236298  0.05461495  1
  Zn  Zn138  1  0.81380697  0.56799219  0.56667231  1
  Zn  Zn139  1  0.43827714  0.43474938  0.18992124  1
  Zn  Zn140  1  0.44189034  0.43393387  0.69274527  1
  Zn  Zn141  1  0.44454055  0.92528864  0.18376452  1
  Zn  Zn142  1  0.44204552  0.93991083  0.68165161  1
  Zn  Zn143  1  0.93352374  0.43149503  0.18734560  1
  Zn  Zn144  1  0.93991139  0.43465558  0.69270492  1
  Zn  Zn145  1  0.94274922  0.93314804  0.18993190  1
  Zn  Zn146  1  0.93469717  0.93351348  0.68490717  1
  Zn  Zn147  1  0.05775301  0.06251811  0.31000164  1
  Zn  Zn148  1  0.06438119  0.06280299  0.80892626  1
  Zn  Zn149  1  0.06165998  0.56237048  0.31292298  1
  Zn  Zn150  1  0.06205897  0.56316003  0.81475572  1
  Zn  Zn151  1  0.45264315  0.05251914  0.31572003  1
  Zn  Zn152  1  0.56045693  0.06285278  0.80547569  1
  Zn  Zn153  1  0.56114006  0.56251288  0.31577190  1
  Zn  Zn154  1  0.56563808  0.56275624  0.81720056  1
  Zn  Zn155  1  0.43816386  0.18849611  0.44598706  1
  Zn  Zn156  1  0.43726911  0.18565723  0.93775355  1
  Zn  Zn157  1  0.43667462  0.67882820  0.44013382  1
  Zn  Zn158  1  0.43822097  0.68781852  0.93902383  1
  Zn  Zn159  1  0.94062339  0.18505407  0.43836289  1
  Zn  Zn160  1  0.94197816  0.18962253  0.93820742  1
  Zn  Zn161  1  0.93936255  0.68561542  0.43755964  1
  Zn  Zn162  1  0.93604799  0.69083918  0.93073111  1
  Zn  Zn163  1  0.05615296  0.31054824  0.06359985  1
  Zn  Zn164  1  0.06595100  0.31718566  0.56463217  1
  Zn  Zn165  1  0.06456038  0.81199651  0.06169488  1
  Zn  Zn166  1  0.06351639  0.81509022  0.55560195  1
  Zn  Zn167  1  0.57301557  0.31616359  0.05824670  1
  Zn  Zn168  1  0.56059488  0.31332775  0.57163003  1
  Zn  Zn169  1  0.55940371  0.81290883  0.06113838  1
  Zn  Zn170  1  0.56306946  0.81552029  0.56685992  1
  O  O171  1  0.12347211  0.11493512  0.11563275  1
  O  O172  1  0.11866041  0.11254698  0.62591293  1
  O  O173  1  0.12656106  0.61315867  0.11370763  1
  O  O174  1  0.12937594  0.61173764  0.61555722  1
  O  O175  1  0.61761985  0.12106872  0.11310613  1
  O  O176  1  0.63239865  0.11653582  0.62039293  1
  O  O177  1  0.62823914  0.63156749  0.11069765  1
  O  O178  1  0.61997930  0.62124713  0.61953997  1
  O  O179  1  0.38715037  0.38310637  0.37327387  1
  O  O180  1  0.36980215  0.38514351  0.88515555  1
  O  O181  1  0.33186482  0.88523129  0.38279511  1
  O  O182  1  0.38397792  0.88157043  0.87084382  1
  O  O183  1  0.87331879  0.38711129  0.38388628  1
  O  O184  1  0.88888309  0.37678768  0.86924617  1
  O  O185  1  0.88219648  0.88054395  0.37537972  1
  O  O186  1  0.88488130  0.88218738  0.88515700  1
  O  O187  1  0.23897461  0.02922696  0.42951294  1
  O  O188  1  0.25833940  0.00342335  0.86578901  1
  O  O189  1  0.25779337  0.49048355  0.36659881  1
  O  O190  1  0.26038389  0.50624107  0.87184076  1
  O  O191  1  0.75431421  0.00348609  0.36087906  1
  O  O192  1  0.76209776  0.00189538  0.86712145  1
  O  O193  1  0.75589716  0.50678518  0.37249674  1
  O  O194  1  0.74179786  0.51671605  0.85695305  1
  O  O195  1  0.24705241  0.48805668  0.13217536  1
  O  O196  1  0.24402409  0.49603177  0.63187298  1
  O  O197  1  0.24500868  0.98136264  0.12088389  1
  O  O198  1  0.24311039  0.99038292  0.62287742  1
  O  O199  1  0.75082235  0.50136149  0.14484696  1
  O  O200  1  0.74474534  0.49939168  0.63470283  1
  O  O201  1  0.75100589  1.00239994  0.13681997  1
  O  O202  1  0.74291669  0.99719069  0.63046530  1
  O  O203  1  0.01229557  0.37604736  0.25258788  1
  O  O204  1  0.00989331  0.36653426  0.75685016  1
  O  O205  1  -0.00347386  0.85958561  0.26338004  1
  O  O206  1  0.00533999  0.86864711  0.75555093  1
  O  O207  1  0.50802205  0.37475118  0.26463456  1
  O  O208  1  0.51103567  0.36701027  0.75333116  1
  O  O209  1  0.51942326  0.86317371  0.24772536  1
  O  O210  1  0.50853731  0.87517725  0.75595734  1
  O  O211  1  0.51026726  0.12462719  0.23617702  1
  O  O212  1  0.49226286  0.13472630  0.74806476  1
  O  O213  1  0.50231022  0.63459126  0.24958744  1
  O  O214  1  0.49566508  0.62636720  0.74473967  1
  O  O215  1  0.98418971  0.12443892  0.24583169  1
  O  O216  1  1.00735439  0.13557207  0.73866302  1
  O  O217  1  0.99446149  0.63751040  0.25665107  1
  O  O218  1  0.99125588  0.63625188  0.75789207  1
  O  O219  1  0.37555767  0.25817629  0.00840135  1
  O  O220  1  0.36066396  0.25397723  0.50319035  1
  O  O221  1  0.36710788  0.75119369  0.00616429  1
  O  O222  1  0.36911772  0.75036471  0.50515280  1
  O  O223  1  0.87175156  0.24421913  0.00992716  1
  O  O224  1  0.87216803  0.25541695  0.50845193  1
  O  O225  1  0.87080533  0.75843958  0.00229353  1
  O  O226  1  0.87773747  0.74458241  0.51548435  1
  O  O227  1  0.13196588  0.26029773  0.48841945  1
  O  O228  1  0.12586526  0.23374994  1.00658258  1
  O  O229  1  0.13060056  0.73934126  0.49468599  1
  O  O230  1  0.13176680  0.74082132  0.99729174  1
  O  O231  1  0.62913401  0.24758115  0.50153763  1
  O  O232  1  0.60457007  0.22533061  0.99015344  1
  O  O233  1  0.62599598  0.74516789  0.49677371  1
  O  O234  1  0.63272043  0.74933065  0.99411649  1
  O  O235  1  0.49474184  0.24121427  0.12550535  1
  O  O236  1  0.49333793  0.25734480  0.64208522  1
  O  O237  1  0.49080814  0.74849762  0.12774777  1
  O  O238  1  0.49146325  0.74485551  0.62534351  1
  O  O239  1  0.98579779  0.24747034  0.12894347  1
  O  O240  1  0.99733350  0.24348986  0.62747434  1
  O  O241  1  0.99566702  0.75340396  0.13261165  1
  O  O242  1  0.99986374  0.75347480  0.63402841  1
  O  O243  1  0.00640784  0.25625804  0.37384252  1
  O  O244  1  -0.00162074  0.25335168  0.86059161  1
  O  O245  1  0.00886743  0.75316975  0.37016204  1
  O  O246  1  0.00020225  0.76354447  0.86550818  1
  O  O247  1  0.50595970  0.25879135  0.37873468  1
  O  O248  1  0.48790404  0.24869357  0.85547590  1
  O  O249  1  0.49122377  0.75063330  0.36833063  1
  O  O250  1  0.50445144  0.76180098  0.87463985  1
  O  O251  1  0.23967511  0.15326241  0.51958552  1
  O  O252  1  0.24236688  0.12713794  0.98505715  1
  O  O253  1  0.24262652  0.63500232  0.50594689  1
  O  O254  1  0.24649473  0.63462763  0.99574304  1
  O  O255  1  0.74116635  0.13440838  0.49941892  1
  O  O256  1  0.73307770  0.11886418  0.99562227  1
  O  O257  1  0.73721031  0.62032312  0.49598476  1
  O  O258  1  0.74416345  0.63690911  0.98929388  1
  O  O259  1  0.25955300  0.37326766  0.00725921  1
  O  O260  1  0.24569435  0.36716871  0.51103389  1
  O  O261  1  0.25008106  0.86060067  -0.00087410  1
  O  O262  1  0.24020937  0.85678662  0.51504138  1
  O  O263  1  0.68321939  0.35878307  0.01580643  1
  O  O264  1  0.75491107  0.37025696  0.50804444  1
  O  O265  1  0.76045363  0.86950945  -0.00721416  1
  O  O266  1  0.74522221  0.86229367  0.48623071  1
  O  O267  1  0.12984946  0.49453547  0.24377339  1
  O  O268  1  0.13093768  0.49679305  0.74383195  1
  O  O269  1  0.11602141  0.99789907  0.23532469  1
  O  O270  1  0.13225633  0.99198514  0.74120985  1
  O  O271  1  0.63044051  0.48627504  0.26339056  1
  O  O272  1  0.62918050  0.49463515  0.74471328  1
  O  O273  1  0.63534556  0.97914199  0.25297623  1
  O  O274  1  0.63152666  0.99419629  0.74148852  1
  O  O275  1  0.38587943  -0.00282866  0.24380012  1
  O  O276  1  0.37317618  0.00570669  0.75356805  1
  O  O277  1  0.36647781  0.49874726  0.25779402  1
  O  O278  1  0.37290403  0.50488825  0.75898933  1
  O  O279  1  0.87082144  0.00167623  0.25709108  1
  O  O280  1  0.86857499  -0.00952477  0.75893039  1
  O  O281  1  0.86771117  0.49903030  0.25996759  1
  O  O282  1  0.86745529  0.51170750  0.74155063  1
  O  O283  1  0.12343437  0.36809361  0.36540389  1
  O  O284  1  0.12709594  0.37921691  0.86130745  1
  O  O285  1  0.12264516  0.85939730  0.37878450  1
  O  O286  1  0.11824361  0.87440267  0.86866494  1
  O  O287  1  0.61453374  0.36591172  0.37597053  1
  O  O288  1  0.63569833  0.38201949  0.86364453  1
  O  O289  1  0.63660350  0.86257620  0.36781704  1
  O  O290  1  0.61659015  0.87371824  0.86653045  1
  O  O291  1  0.38690220  0.13508463  0.11906712  1
  O  O292  1  0.36566868  0.12177661  0.63262858  1
  O  O293  1  0.37367445  0.63677216  0.12736255  1
  O  O294  1  0.38000320  0.63414682  0.62954123  1
  O  O295  1  0.87652632  0.13373881  0.13136961  1
  O  O296  1  0.88425284  0.13324008  0.61887563  1
  O  O297  1  0.87403482  0.63610405  0.11872987  1
  O  O298  1  0.87324844  0.63869148  0.63710269  1
  O  O299  1  0.25633370  0.26223670  0.12355760  1
  O  O300  1  0.25043307  0.26487795  0.61941457  1
  O  O301  1  0.25305702  0.75590794  0.11735467  1
  O  O302  1  0.25821673  0.75262904  0.62112841  1
  O  O303  1  0.76336150  0.24543684  0.12713681  1
  O  O304  1  0.76009339  0.25347746  0.62468712  1
  O  O305  1  0.76024506  0.74876860  0.11123311  1
  O  O306  1  0.76079307  0.75142018  0.62631135  1
  O  O307  1  0.24396010  0.25593914  0.38791244  1
  O  O308  1  0.25447656  0.23868348  0.87273871  1
  O  O309  1  0.24095662  0.74317741  0.38299773  1
  O  O310  1  0.24980596  0.74282658  0.88127909  1
  O  O311  1  0.74255394  0.25181168  0.38721916  1
  O  O312  1  0.75073545  0.24100942  0.85650976  1
  O  O313  1  0.75476226  0.74215472  0.37424422  1
  O  O314  1  0.74701234  0.74812040  0.88194238  1
  O  O315  1  0.00843060  0.11236851  -0.00215260  1
  O  O316  1  0.00474881  0.12046841  0.51172382  1
  O  O317  1  0.01127649  0.62861288  -0.01120278  1
  O  O318  1  0.00737731  0.61250665  0.49978964  1
  O  O319  1  0.50373640  0.11110108  0.00147259  1
  O  O320  1  0.51283466  0.11906373  0.50603480  1
  O  O321  1  0.50878136  0.62134340  0.00241128  1
  O  O322  1  0.51124168  0.61633896  0.50545815  1
  O  O323  1  0.50567324  0.38766423  0.49755887  1
  O  O324  1  0.49071153  0.38454616  1.00435337  1
  O  O325  1  0.50472985  0.88776430  0.50029162  1
  O  O326  1  0.49861112  0.88441220  0.99013901  1
  O  O327  1  0.99431078  0.38779692  0.50089430  1
  O  O328  1  1.00805975  0.36901643  0.97941944  1
  O  O329  1  0.99422502  0.87320390  0.48487189  1
  O  O330  1  0.99808511  0.88394434  0.99188865  1
  O  O331  1  0.49385863  0.49374130  0.38540997  1
  O  O332  1  0.48751990  0.50785910  0.88482670  1
  O  O333  1  0.52092111  1.00196742  0.39526620  1
  O  O334  1  0.49418557  0.99235701  0.87551520  1
  O  O335  1  0.99026989  0.49909785  0.38334791  1
  O  O336  1  1.00098345  0.48716391  0.87047701  1
  O  O337  1  0.99168789  0.99045384  0.37428119  1
  O  O338  1  0.99768209  0.99066262  0.87804204  1
  O  O339  1  0.00799808  -0.00269709  0.11535827  1
  O  O340  1  0.00378493  0.00778843  0.62921345  1
  O  O341  1  0.00854636  0.49523523  0.12725846  1
  O  O342  1  0.00897284  0.49568858  0.61956215  1
  O  O343  1  0.50302158  0.00356305  0.11337383  1
  O  O344  1  0.51896220  -0.00433420  0.61460677  1
  O  O345  1  0.49358299  0.50596167  0.11412874  1
  O  O346  1  0.50309298  0.50456583  0.62019085  1
  O  O347  1  0.23949631  0.38156282  0.24330754  1
  O  O348  1  0.24517276  0.38065412  0.74516799  1
  O  O349  1  0.24399969  0.86369480  0.23506522  1
  O  O350  1  0.24719704  0.87896606  0.73850290  1
  O  O351  1  0.73399861  0.38208297  0.26078183  1
  O  O352  1  0.74719969  0.38518508  0.74471845  1
  O  O353  1  0.74223647  0.87623668  0.24770536  1
  O  O354  1  0.74091510  0.88584105  0.75869153  1
  O  O355  1  0.24644203  0.11493045  0.24333223  1
  O  O356  1  0.25526123  0.11858826  0.75257494  1
  O  O357  1  0.25054755  0.60965366  0.24503357  1
  O  O358  1  0.25618761  0.61860944  0.75678911  1
  O  O359  1  0.75854054  0.11624191  0.25162898  1
  O  O360  1  0.74879849  0.10741468  0.75077598  1
  O  O361  1  0.75249866  0.61729445  0.25965235  1
  O  O362  1  0.75660272  0.62206185  0.75377233  1
  O  O363  1  0.38590205  0.12385318  0.37372095  1
  O  O364  1  0.36668680  0.11696201  0.86624251  1
  O  O365  1  0.37746991  0.60765911  0.37218826  1
  O  O366  1  0.36894863  0.61986619  0.87167375  1
  O  O367  1  0.87422262  0.11550531  0.36888294  1
  O  O368  1  0.88043746  0.10997262  0.87893835  1
  O  O369  1  0.86440161  0.61433830  0.37883213  1
  O  O370  1  0.86225921  0.63407634  0.86265076  1
  O  O371  1  0.13115861  0.37937397  0.12928816  1
  O  O372  1  0.13341335  0.38746879  0.63435793  1
  O  O373  1  0.13859367  0.88080881  0.11710744  1
  O  O374  1  0.13083792  0.87734284  0.63190547  1
  O  O375  1  0.61231055  0.37303280  0.15142368  1
  O  O376  1  0.63376647  0.38268889  0.63331669  1
  O  O377  1  0.62762353  0.87528916  0.13261345  1
  O  O378  1  0.62636933  0.88036208  0.63744373  1
  O  O379  1  0.12253807  0.25891565  0.25750341  1
  O  O380  1  0.11663187  0.25947631  0.74074906  1
  O  O381  1  0.11997389  0.73934500  0.25978040  1
  O  O382  1  0.11880570  0.75319861  0.75115539  1
  O  O383  1  0.62443820  0.25788479  0.26252481  1
  O  O384  1  0.61358904  0.25795382  0.74811685  1
  O  O385  1  0.62176174  0.75709845  0.24677970  1
  O  O386  1  0.62479887  0.75889700  0.75551204  1
  O  O387  1  0.37819331  0.26083673  0.23540082  1
  O  O388  1  0.38063544  0.24103183  0.74331391  1
  O  O389  1  0.38608478  0.74652399  0.24293823  1
  O  O390  1  0.37695684  0.74322960  0.74153792  1
  O  O391  1  0.87336521  0.23994197  0.25336617  1
  O  O392  1  0.89107496  0.25426583  0.73451036  1
  O  O393  1  0.88290153  0.74486948  0.23630338  1
  O  O394  1  0.88167180  0.74792727  0.74007583  1
  O  O395  1  0.38428188  0.50487548  0.49483476  1
  O  O396  1  0.38115638  0.49469528  0.99532654  1
  O  O397  1  0.39761664  0.99710523  0.50869631  1
  O  O398  1  0.38312454  0.99525409  0.98181527  1
  O  O399  1  0.88078548  0.49886372  0.49843616  1
  O  O400  1  0.80792880  0.47022128  0.99917756  1
  O  O401  1  0.87152244  0.99599028  0.48635610  1
  O  O402  1  0.88336207  0.99525167  0.99598476  1
  O  O403  1  0.12015635  0.00609384  0.00616622  1
  O  O404  1  0.11223722  -0.00996935  0.51766412  1
  O  O405  1  0.13093511  0.50864192  0.01001294  1
  O  O406  1  0.11876801  0.50415027  0.50561458  1
  O  O407  1  0.61654707  0.00413584  0.00061901  1
  O  O408  1  0.62510626  0.01209574  0.50590375  1
  O  O409  1  0.61277817  0.51605698  -0.01075882  1
  O  O410  1  0.61836017  0.50742739  0.50691058  1
  O  O411  1  0.36910217  0.37144817  0.11714328  1
  O  O412  1  0.36082220  0.38069113  0.63117704  1
  O  O413  1  0.36344342  0.86187276  0.12116659  1
  O  O414  1  0.36892574  0.86383284  0.62599884  1
  O  O415  1  0.86914543  0.35727765  0.13014888  1
  O  O416  1  0.87067219  0.36827607  0.62118514  1
  O  O417  1  0.88296457  0.86621771  0.11113073  1
  O  O418  1  0.87716315  0.85951848  0.61882977  1
  O  O419  1  0.11581268  0.13952166  0.37287664  1
  O  O420  1  0.13623109  0.11630305  0.88129331  1
  O  O421  1  0.12170171  0.62898341  0.38890576  1
  O  O422  1  0.13555395  0.62419471  0.88180452  1
  O  O423  1  0.62763890  0.14192442  0.38789502  1
  O  O424  1  0.62614307  0.11176701  0.88575836  1
  O  O425  1  0.63755824  0.62187596  0.38324853  1
  O  O426  1  0.63420188  0.63694743  0.87887889  1
