# generated using pymatgen
data_V85Zn86O256
_symmetry_space_group_name_H-M   'P 1'
_cell_length_a   16.96036010
_cell_length_b   16.95094336
_cell_length_c   16.95855550
_cell_angle_alpha   89.97349631
_cell_angle_beta   89.99233453
_cell_angle_gamma   90.04647769
_symmetry_Int_Tables_number   1
_chemical_formula_structural   V85Zn86O256
_chemical_formula_sum   'V85 Zn86 O256'
_cell_volume   4875.48253935
_cell_formula_units_Z   1
loop_
 _symmetry_equiv_pos_site_id
 _symmetry_equiv_pos_as_xyz
  1  'x, y, z'
loop_
 _atom_site_type_symbol
 _atom_site_label
 _atom_site_symmetry_multiplicity
 _atom_site_fract_x
 _atom_site_fract_y
 _atom_site_fract_z
 _atom_site_occupancy
  V  V0  1  0.62500008  0.49920100  0.62351097  1
  V  V1  1  0.74474822  -0.00405342  0.24526058  1
  V  V2  1  0.62489241  0.74987070  0.87547528  1
  V  V3  1  0.62530713  0.62323952  0.00381992  1
  V  V4  1  0.35548088  0.86851981  -0.00107889  1
  V  V5  1  0.50026215  -0.00142604  0.49978195  1
  V  V6  1  0.49907188  0.10876922  0.12472090  1
  V  V7  1  0.50287495  0.87833255  0.88856544  1
  V  V8  1  0.13623561  0.00006506  0.12324770  1
  V  V9  1  0.24205225  0.37200886  0.13211449  1
  V  V10  1  0.17336547  0.31340754  0.81594910  1
  V  V11  1  0.74782222  0.24530286  0.49670821  1
  V  V12  1  0.12876840  0.00209985  0.62615186  1
  V  V13  1  0.01574360  0.25406426  0.25440779  1
  V  V14  1  0.62293903  0.87311103  0.74657061  1
  V  V15  1  0.49853402  0.62818605  0.62682805  1
  V  V16  1  0.88202827  0.63055822  0.23745578  1
  V  V17  1  0.37923764  0.13294910  0.25285872  1
  V  V18  1  0.12409756  0.13223612  -0.01597198  1
  V  V19  1  0.01600103  0.37347316  0.37633100  1
  V  V20  1  0.25575965  0.87443543  0.62748377  1
  V  V21  1  0.87432034  0.37370568  0.00018503  1
  V  V22  1  0.49772509  0.13790951  0.62651154  1
  V  V23  1  0.02662408  0.87055123  0.36183108  1
  V  V24  1  0.50385774  0.37426784  0.87503621  1
  V  V25  1  0.24790473  0.13356774  0.37098195  1
  V  V26  1  0.23617214  0.62559941  0.37910326  1
  V  V27  1  0.87349933  0.37415393  0.49192698  1
  V  V28  1  0.75956716  -0.00930358  0.74291013  1
  V  V29  1  0.75358307  0.74908909  0.00543755  1
  V  V30  1  0.75185277  0.49997624  0.74642160  1
  V  V31  1  0.74667775  0.24732249  -0.00185309  1
  V  V32  1  0.25756033  0.25004205  0.51282814  1
  V  V33  1  0.87505553  0.12583530  0.24937549  1
  V  V34  1  0.00284836  -0.00611219  0.49413527  1
  V  V35  1  0.74909594  0.12246463  0.87238649  1
  V  V36  1  0.75048136  0.62334571  0.87422848  1
  V  V37  1  -0.00095290  0.37256609  0.87242576  1
  V  V38  1  0.12767326  0.86507457  0.75285805  1
  V  V39  1  0.37440235  0.00148470  0.37479884  1
  V  V40  1  0.24927483  0.63157431  0.87908557  1
  V  V41  1  0.87497730  0.24977953  0.12631283  1
  V  V42  1  0.62459059  -0.00280346  0.62528792  1
  V  V43  1  0.37420939  0.37528734  0.00302717  1
  V  V44  1  0.62767730  0.62527591  0.49646160  1
  V  V45  1  0.36350223  0.74946746  0.12319640  1
  V  V46  1  0.87439578  -0.00230310  0.88208778  1
  V  V47  1  0.49872355  0.49910083  0.49842282  1
  V  V48  1  -0.00511397  0.87156532  0.87199818  1
  V  V49  1  0.87514628  0.49817475  0.87102666  1
  V  V50  1  0.49587863  0.87076781  0.36387786  1
  V  V51  1  0.12878510  0.75432351  0.89324119  1
  V  V52  1  0.00096726  0.12364891  0.62160769  1
  V  V53  1  0.87556424  -0.01601037  0.37194780  1
  V  V54  1  0.38014148  0.13202879  0.74932443  1
  V  V55  1  0.37349660  0.50427829  0.87355056  1
  V  V56  1  -0.00060733  0.50679062  0.00230340  1
  V  V57  1  0.11874702  0.50209117  0.13046009  1
  V  V58  1  0.93021214  0.81580955  0.05400556  1
  V  V59  1  0.37997970  0.62949827  0.25244742  1
  V  V60  1  0.61982483  0.74706256  0.36305198  1
  V  V61  1  0.74204824  0.37502880  0.13269084  1
  V  V62  1  0.00379206  0.12762502  0.12291253  1
  V  V63  1  0.37896143  0.00535001  0.88144812  1
  V  V64  1  0.61889350  0.24697141  0.86927577  1
  V  V65  1  0.12541369  0.13294342  0.49293800  1
  V  V66  1  0.62045501  0.37048226  0.74604037  1
  V  V67  1  0.24548745  0.75062647  0.49904063  1
  V  V68  1  0.24535789  0.24868517  -0.00046233  1
  V  V69  1  0.62082292  0.25262599  0.36025336  1
  V  V70  1  0.25204184  0.00529700  0.75896754  1
  V  V71  1  0.62583774  0.12536963  0.49786005  1
  V  V72  1  -0.00221024  0.25240641  0.75027444  1
  V  V73  1  0.38382159  0.25240141  0.12867471  1
  V  V74  1  0.75014565  0.12255539  0.37344436  1
  V  V75  1  0.74556656  0.76527123  0.50418585  1
  V  V76  1  0.87159478  0.24399512  0.62073124  1
  V  V77  1  -0.00271034  0.51630043  0.50493574  1
  V  V78  1  0.49990358  0.50175800  0.00215128  1
  V  V79  1  0.74995401  0.87187356  0.11958929  1
  V  V80  1  0.24171298  0.49323181  0.25790801  1
  V  V81  1  0.37581443  0.37226504  0.51446789  1
  V  V82  1  0.88403865  0.63730307  0.73745135  1
  V  V83  1  0.50097807  0.37256749  0.36137199  1
  V  V84  1  0.36961562  0.49840347  0.37807519  1
  Zn  Zn85  1  0.87610023  0.12305988  0.74968296  1
  Zn  Zn86  1  0.75456727  0.62597608  0.37207105  1
  Zn  Zn87  1  0.61216657  0.11800086  -0.00568120  1
  Zn  Zn88  1  0.12599023  0.62634505  0.00502147  1
  Zn  Zn89  1  0.00911445  0.74457408  0.24335134  1
  Zn  Zn90  1  0.74692546  0.50332918  0.25542633  1
  Zn  Zn91  1  0.74909278  0.37253023  0.62164570  1
  Zn  Zn92  1  -0.00134084  0.00024775  0.00234046  1
  Zn  Zn93  1  0.61689927  0.86935019  0.24302324  1
  Zn  Zn94  1  0.12832054  0.49807269  0.64110019  1
  Zn  Zn95  1  0.49961632  0.63005010  0.13114211  1
  Zn  Zn96  1  0.23752603  -0.01163473  0.25671399  1
  Zn  Zn97  1  0.11701662  0.63304978  0.51712437  1
  Zn  Zn98  1  0.88183323  0.82579774  0.57242297  1
  Zn  Zn99  1  0.61649264  -0.01091069  0.11245403  1
  Zn  Zn100  1  0.61754532  0.49162349  0.13247447  1
  Zn  Zn101  1  0.24123996  0.49556951  0.74866493  1
  Zn  Zn102  1  0.37633993  0.87281459  0.50160073  1
  Zn  Zn103  1  0.87274564  0.50475729  0.37065863  1
  Zn  Zn104  1  0.37344203  0.62806424  0.75105102  1
  Zn  Zn105  1  0.49790799  0.75062538  0.75131992  1
  Zn  Zn106  1  0.37581946  0.75045318  0.62765930  1
  Zn  Zn107  1  0.19130703  0.18155061  0.18403178  1
  Zn  Zn108  1  0.19152847  0.18114141  0.68596046  1
  Zn  Zn109  1  0.19211621  0.67746809  0.19687226  1
  Zn  Zn110  1  0.18666737  0.68100805  0.69001816  1
  Zn  Zn111  1  0.68424187  0.18389217  0.18399577  1
  Zn  Zn112  1  0.68769867  0.18090246  0.68687886  1
  Zn  Zn113  1  0.69076258  0.68184340  0.18666306  1
  Zn  Zn114  1  0.69017813  0.68772347  0.68411675  1
  Zn  Zn115  1  0.31103141  0.31381813  0.31807538  1
  Zn  Zn116  1  0.33412425  0.31099469  0.81305288  1
  Zn  Zn117  1  0.30309806  0.81052680  0.31310767  1
  Zn  Zn118  1  0.31429276  0.81083863  0.81340584  1
  Zn  Zn119  1  0.81389570  0.30870459  0.31144446  1
  Zn  Zn120  1  0.81006375  0.31178963  0.80937832  1
  Zn  Zn121  1  0.81163773  0.80199268  0.30730347  1
  Zn  Zn122  1  0.80991969  0.81267158  0.81340890  1
  Zn  Zn123  1  0.17024171  0.42211464  0.48793693  1
  Zn  Zn124  1  0.19056950  0.44554905  0.94343797  1
  Zn  Zn125  1  0.19100745  0.94121378  0.44038635  1
  Zn  Zn126  1  0.18358853  0.94570764  0.93830899  1
  Zn  Zn127  1  0.68751790  0.43574129  0.43216206  1
  Zn  Zn128  1  0.68748428  0.43599076  0.93871119  1
  Zn  Zn129  1  0.68079995  0.93692072  0.42884302  1
  Zn  Zn130  1  0.68829576  0.93706394  0.93776326  1
  Zn  Zn131  1  0.31419990  0.06715631  0.05720108  1
  Zn  Zn132  1  0.31382941  0.06390677  0.56429939  1
  Zn  Zn133  1  0.30804128  0.56307171  0.06576100  1
  Zn  Zn134  1  0.30589392  0.56182673  0.56738850  1
  Zn  Zn135  1  0.80842849  0.06256380  0.06207289  1
  Zn  Zn136  1  0.82835087  0.02727723  0.57377774  1
  Zn  Zn137  1  0.81464790  0.56008432  0.06476552  1
  Zn  Zn138  1  0.81264284  0.56397313  0.55962969  1
  Zn  Zn139  1  0.43135296  0.44220431  0.18811275  1
  Zn  Zn140  1  0.43901068  0.44133038  0.68892437  1
  Zn  Zn141  1  0.39679276  0.92106021  0.20170138  1
  Zn  Zn142  1  0.44018964  0.94079362  0.69232144  1
  Zn  Zn143  1  0.93425664  0.43808001  0.19186121  1
  Zn  Zn144  1  0.93643214  0.43418643  0.68250696  1
  Zn  Zn145  1  0.94143937  0.94241620  0.18979029  1
  Zn  Zn146  1  0.94654457  0.91799477  0.68125503  1
  Zn  Zn147  1  0.06310989  0.06293074  0.30870290  1
  Zn  Zn148  1  0.05842430  0.05890849  0.81067023  1
  Zn  Zn149  1  0.05646124  0.55905071  0.31569449  1
  Zn  Zn150  1  0.06647237  0.56689048  0.80473852  1
  Zn  Zn151  1  0.56038220  0.06330718  0.30707295  1
  Zn  Zn152  1  0.56074048  0.05923572  0.81120366  1
  Zn  Zn153  1  0.56445699  0.55556118  0.31154819  1
  Zn  Zn154  1  0.56323921  0.56166851  0.81252167  1
  Zn  Zn155  1  0.43941724  0.19011615  0.43902907  1
  Zn  Zn156  1  0.43619855  0.18699704  0.93962227  1
  Zn  Zn157  1  0.43273686  0.68820148  0.44083296  1
  Zn  Zn158  1  0.43811271  0.69117273  0.93977061  1
  Zn  Zn159  1  0.93788729  0.18588923  0.43234751  1
  Zn  Zn160  1  0.93556883  0.18699663  0.93595411  1
  Zn  Zn161  1  0.93270615  0.69617493  0.42594513  1
  Zn  Zn162  1  0.94128334  0.68313470  0.92172738  1
  Zn  Zn163  1  0.06222320  0.31494170  0.06205144  1
  Zn  Zn164  1  0.05994591  0.31246270  0.56523956  1
  Zn  Zn165  1  0.12476685  0.79001806  0.10616886  1
  Zn  Zn166  1  0.06618574  0.81378422  0.56464835  1
  Zn  Zn167  1  0.56288597  0.30818284  0.05896998  1
  Zn  Zn168  1  0.56262155  0.31411905  0.55481807  1
  Zn  Zn169  1  0.55686226  0.80581478  0.06765460  1
  Zn  Zn170  1  0.56418330  0.81229642  0.55937572  1
  O  O171  1  0.11755553  0.12315176  0.11398958  1
  O  O172  1  0.11990709  0.12031684  0.61697984  1
  O  O173  1  0.13214218  0.60495524  0.12252815  1
  O  O174  1  0.12114781  0.61609345  0.62950570  1
  O  O175  1  0.60678524  0.12307026  0.12540011  1
  O  O176  1  0.61480684  0.11902404  0.61902247  1
  O  O177  1  0.62173934  0.62439506  0.11210678  1
  O  O178  1  0.61670818  0.61975409  0.61798652  1
  O  O179  1  0.38071032  0.38462056  0.38111304  1
  O  O180  1  0.38513166  0.38303868  0.88328058  1
  O  O181  1  0.38104588  0.88551395  0.38188748  1
  O  O182  1  0.38227209  0.87966022  0.88509755  1
  O  O183  1  0.87472166  0.37212477  0.38554074  1
  O  O184  1  0.87970843  0.37867801  0.87809581  1
  O  O185  1  0.87357388  0.88348678  0.36912398  1
  O  O186  1  0.88453499  0.88275172  0.86657639  1
  O  O187  1  0.26005659  0.01186874  0.37665281  1
  O  O188  1  0.25817381  -0.00137764  0.86485705  1
  O  O189  1  0.25600490  0.50453210  0.37258773  1
  O  O190  1  0.26057482  0.50307207  0.87271368  1
  O  O191  1  0.75609860  0.00177394  0.36618608  1
  O  O192  1  0.75728799  0.00148858  0.86566961  1
  O  O193  1  0.75339892  0.50482837  0.37499532  1
  O  O194  1  0.75392666  0.50241809  0.86701235  1
  O  O195  1  0.24440416  0.48959759  0.13604991  1
  O  O196  1  0.24932107  0.49675694  0.63447224  1
  O  O197  1  0.23867267  1.01242917  0.12352229  1
  O  O198  1  0.24677915  0.99535691  0.63286905  1
  O  O199  1  0.74851595  0.47983342  0.11747343  1
  O  O200  1  0.74358707  0.49651133  0.63063132  1
  O  O201  1  0.75093293  0.99018042  0.13110229  1
  O  O202  1  0.73061311  1.01639457  0.63415445  1
  O  O203  1  -0.00335739  0.36803247  0.26639641  1
  O  O204  1  -0.00535715  0.36163017  0.75436476  1
  O  O205  1  0.00059723  0.87706555  0.26165538  1
  O  O206  1  0.01867881  0.89184720  0.76510062  1
  O  O207  1  0.49323731  0.38049283  0.26215680  1
  O  O208  1  0.51377520  0.38056604  0.75675595  1
  O  O209  1  0.49346855  0.88054490  0.26134301  1
  O  O210  1  0.51141719  0.87521762  0.75951956  1
  O  O211  1  0.49217161  0.12822106  0.23712921  1
  O  O212  1  0.49037334  0.11802068  0.73962775  1
  O  O213  1  0.48266750  0.61486765  0.25102591  1
  O  O214  1  0.50182580  0.62625151  0.74055658  1
  O  O215  1  0.99456705  0.13311200  0.24338558  1
  O  O216  1  0.99943511  0.13651887  0.74354577  1
  O  O217  1  0.98923517  0.62461001  0.25134651  1
  O  O218  1  0.98217703  0.62768290  0.75855387  1
  O  O219  1  0.36656189  0.25653339  0.00544598  1
  O  O220  1  0.36614440  0.25475122  0.50058410  1
  O  O221  1  0.37048625  0.76254661  -0.00072275  1
  O  O222  1  0.36263881  0.75334368  0.50732874  1
  O  O223  1  0.86669598  0.25410797  0.00528651  1
  O  O224  1  0.86839210  0.25144880  0.50291746  1
  O  O225  1  0.87221090  0.74834453  -0.00424862  1
  O  O226  1  0.85247238  0.75324292  0.49179538  1
  O  O227  1  0.13710949  0.23741649  0.50256581  1
  O  O228  1  0.13339915  0.24534345  1.00424209  1
  O  O229  1  0.13848136  0.74965686  0.50698775  1
  O  O230  1  0.12564743  0.74896298  0.99644588  1
  O  O231  1  0.63197080  0.24293518  0.49261579  1
  O  O232  1  0.63158870  0.24404951  0.98934351  1
  O  O233  1  0.62916221  0.74288095  0.49010565  1
  O  O234  1  0.63335762  0.74136089  0.99578474  1
  O  O235  1  0.48550228  0.25178454  0.12246967  1
  O  O236  1  0.50392539  0.23665910  0.61686081  1
  O  O237  1  0.47793740  0.74210114  0.11660684  1
  O  O238  1  0.50091942  0.74164699  0.62541793  1
  O  O239  1  0.99603148  0.24419201  0.13112414  1
  O  O240  1  0.99266047  0.24377680  0.62909874  1
  O  O241  1  0.99501498  0.76441550  0.10778477  1
  O  O242  1  0.97777907  0.81434561  0.62867642  1
  O  O243  1  -0.00100615  0.26146016  0.36749675  1
  O  O244  1  -0.00702179  0.26205107  0.86623317  1
  O  O245  1  0.00665500  0.76944500  0.37437850  1
  O  O246  1  0.01032056  0.76395365  0.87819273  1
  O  O247  1  0.50823883  0.25927376  0.37819851  1
  O  O248  1  0.51216387  0.25499791  0.87982553  1
  O  O249  1  0.50529329  0.76104116  0.38415265  1
  O  O250  1  0.50958946  0.75782206  0.87438474  1
  O  O251  1  0.24780315  0.13306388  0.49460176  1
  O  O252  1  0.24394900  0.14128307  0.99866311  1
  O  O253  1  0.24853893  0.63290437  0.49339498  1
  O  O254  1  0.24449264  0.61205453  0.98449881  1
  O  O255  1  0.74451349  0.12938722  0.49097901  1
  O  O256  1  0.75051344  0.13762229  0.99351718  1
  O  O257  1  0.73542026  0.62836006  0.49883613  1
  O  O258  1  0.74518752  0.62839157  0.99594113  1
  O  O259  1  0.25440477  0.36764976  0.00810347  1
  O  O260  1  0.26332676  0.35599764  0.48895591  1
  O  O261  1  0.25740497  0.87651573  -0.00485938  1
  O  O262  1  0.25147820  0.87094324  0.51022720  1
  O  O263  1  0.75417137  0.36255124  0.00291311  1
  O  O264  1  0.75501964  0.36281023  0.50045964  1
  O  O265  1  0.75072757  0.86563734  0.01058026  1
  O  O266  1  0.73729580  0.86491543  0.49689634  1
  O  O267  1  0.13386743  0.50009809  0.24696117  1
  O  O268  1  0.12486631  0.48760796  0.75781415  1
  O  O269  1  0.12611017  1.00900579  0.23012008  1
  O  O270  1  0.13649412  0.99920729  0.74667962  1
  O  O271  1  0.63303096  0.50476152  0.24247378  1
  O  O272  1  0.63251957  0.49277005  0.74484492  1
  O  O273  1  0.63702745  0.99625323  0.24651398  1
  O  O274  1  0.63051357  0.99243502  0.74273382  1
  O  O275  1  0.38354234  0.01794486  0.26708375  1
  O  O276  1  0.36981061  0.00444386  0.76171633  1
  O  O277  1  0.36203538  0.50375478  0.25914791  1
  O  O278  1  0.37904675  0.50142888  0.76612399  1
  O  O279  1  0.86536987  0.00572589  0.25457711  1
  O  O280  1  0.86872419  0.00255591  0.76078394  1
  O  O281  1  0.86923829  0.50901607  0.25029805  1
  O  O282  1  0.86657253  0.49955413  0.75205226  1
  O  O283  1  0.11318439  0.37756190  0.38652915  1
  O  O284  1  0.11743384  0.37264145  0.88048105  1
  O  O285  1  0.12592512  0.88335349  0.36441176  1
  O  O286  1  0.12022689  0.87144667  0.87339388  1
  O  O287  1  0.61317420  0.36423975  0.38008343  1
  O  O288  1  0.62271661  0.36729508  0.86758617  1
  O  O289  1  0.61350205  0.86669223  0.36614975  1
  O  O290  1  0.61968034  0.87001807  0.86909175  1
  O  O291  1  0.38143131  0.13146100  0.13215141  1
  O  O292  1  0.38516635  0.11583924  0.63857730  1
  O  O293  1  0.37241132  0.62712872  0.13590896  1
  O  O294  1  0.39027619  0.62296992  0.62447667  1
  O  O295  1  0.88189563  0.13020903  0.12872816  1
  O  O296  1  0.88173772  0.13055336  0.62229355  1
  O  O297  1  0.87503518  0.62146052  0.13689650  1
  O  O298  1  0.87165017  0.62104391  0.63876169  1
  O  O299  1  0.25785616  0.25521194  0.11819608  1
  O  O300  1  0.25219130  0.24506292  0.61153515  1
  O  O301  1  0.26053766  0.74142725  0.11952438  1
  O  O302  1  0.25227920  0.75992403  0.62301743  1
  O  O303  1  0.75170081  0.25475314  0.11646045  1
  O  O304  1  0.75728814  0.24602056  0.61738166  1
  O  O305  1  0.74910991  0.75374914  0.11234084  1
  O  O306  1  0.74132537  0.75168823  0.60512230  1
  O  O307  1  0.25445524  0.23678030  0.38381011  1
  O  O308  1  0.23988350  0.26172119  0.87718104  1
  O  O309  1  0.25522460  0.73870600  0.38560007  1
  O  O310  1  0.24177635  0.74411001  0.87617911  1
  O  O311  1  0.74300864  0.24321478  0.37843463  1
  O  O312  1  0.74125786  0.24568445  0.87943671  1
  O  O313  1  0.73527484  0.74834709  0.38112959  1
  O  O314  1  0.74487059  0.74550931  0.88691527  1
  O  O315  1  0.00658639  0.13045836  0.00759648  1
  O  O316  1  0.01040347  0.12026402  0.49854146  1
  O  O317  1  0.00009080  0.60901362  -0.00813440  1
  O  O318  1  -0.01045637  0.61847817  0.49568067  1
  O  O319  1  0.49453029  0.12857487  0.01941970  1
  O  O320  1  0.50438410  0.11472823  0.50459963  1
  O  O321  1  0.50918533  0.61668522  -0.00257076  1
  O  O322  1  0.50871957  0.62009382  0.50568359  1
  O  O323  1  0.49151387  0.38111295  0.49241778  1
  O  O324  1  0.49647489  0.38228582  0.99537021  1
  O  O325  1  0.50044943  0.88819393  0.49440582  1
  O  O326  1  0.49993493  0.87351267  0.98962615  1
  O  O327  1  0.98922610  0.37194672  0.48711534  1
  O  O328  1  0.99234597  0.37713663  0.99059359  1
  O  O329  1  1.01394021  0.89026977  0.48112053  1
  O  O330  1  0.98721123  0.87761522  0.99291136  1
  O  O331  1  0.49138131  0.49356009  0.38187794  1
  O  O332  1  0.49628910  0.49621637  0.88562253  1
  O  O333  1  0.49656777  0.99546646  0.38235861  1
  O  O334  1  0.49075781  0.99061367  0.87180245  1
  O  O335  1  0.99308865  0.48592621  0.38393672  1
  O  O336  1  0.99412338  0.48694465  0.88122298  1
  O  O337  1  0.99570521  0.99162717  0.37380447  1
  O  O338  1  0.99223365  0.99286352  0.88072187  1
  O  O339  1  0.00276692  0.01636000  0.12219197  1
  O  O340  1  0.00861679  0.00542546  0.61210611  1
  O  O341  1  0.00845358  0.48480402  0.11547529  1
  O  O342  1  -0.00537895  0.49473369  0.60481728  1
  O  O343  1  0.49498816  0.00914179  0.13058690  1
  O  O344  1  0.50861349  0.00511275  0.61789201  1
  O  O345  1  0.49722176  0.50201335  0.11235271  1
  O  O346  1  0.50721855  0.50656325  0.61850377  1
  O  O347  1  0.25312804  0.38091816  0.24462260  1
  O  O348  1  0.24262164  0.36514896  0.76299044  1
  O  O349  1  0.29038508  0.89149033  0.24076103  1
  O  O350  1  0.24636092  0.88470225  0.74663183  1
  O  O351  1  0.75460978  0.37089039  0.23391886  1
  O  O352  1  0.74093325  0.38440228  0.74707178  1
  O  O353  1  0.75105952  0.87778669  0.23574820  1
  O  O354  1  0.73745973  0.88514493  0.75585046  1
  O  O355  1  0.25922466  0.12117941  0.25734361  1
  O  O356  1  0.26579769  0.11656218  0.74538140  1
  O  O357  1  0.25902420  0.61283261  0.26186107  1
  O  O358  1  0.25417066  0.62209559  0.76703281  1
  O  O359  1  0.75413009  0.11516458  0.25070845  1
  O  O360  1  0.75108480  0.11211512  0.75629424  1
  O  O361  1  0.76442906  0.62690413  0.25052082  1
  O  O362  1  0.75021174  0.61267483  0.75382363  1
  O  O363  1  0.37202411  0.12343170  0.36975477  1
  O  O364  1  0.38484132  0.11689881  0.86363145  1
  O  O365  1  0.37046032  0.61378661  0.37178115  1
  O  O366  1  0.36993596  0.61902773  0.87783648  1
  O  O367  1  0.86857729  0.11917765  0.36442669  1
  O  O368  1  0.86762444  0.11841540  0.87142497  1
  O  O369  1  0.87297078  0.62445552  0.36252409  1
  O  O370  1  0.86568910  0.61568793  0.86564662  1
  O  O371  1  0.13726518  0.38103488  0.12250108  1
  O  O372  1  0.12910521  0.39233419  0.59118809  1
  O  O373  1  0.12071140  0.90384071  0.10633979  1
  O  O374  1  0.13961273  0.88309239  0.63547346  1
  O  O375  1  0.63885740  0.37040963  0.11832567  1
  O  O376  1  0.62541729  0.37877474  0.63085028  1
  O  O377  1  0.63267645  0.87187847  0.12675806  1
  O  O378  1  0.61849198  0.88449901  0.63410211  1
  O  O379  1  0.11439837  0.24461985  0.24403780  1
  O  O380  1  0.12056484  0.25078605  0.75045446  1
  O  O381  1  0.11880461  0.75694722  0.21434448  1
  O  O382  1  0.13263055  0.76361038  0.76052281  1
  O  O383  1  0.62875434  0.24664701  0.26150915  1
  O  O384  1  0.63266168  0.25892007  0.75671823  1
  O  O385  1  0.62345465  0.74606851  0.25942997  1
  O  O386  1  0.62786679  0.75755237  0.75645085  1
  O  O387  1  0.36780835  0.24112545  0.24304186  1
  O  O388  1  0.37972879  0.23180743  0.75082344  1
  O  O389  1  0.36757683  0.73654072  0.24271774  1
  O  O390  1  0.37998955  0.74730100  0.74622763  1
  O  O391  1  0.88175292  0.24296024  0.24301240  1
  O  O392  1  0.87990994  0.24731365  0.73877136  1
  O  O393  1  0.88639201  0.73802091  0.24882138  1
  O  O394  1  0.86213779  0.73536493  0.75031539  1
  O  O395  1  0.37780935  0.49319556  0.49360185  1
  O  O396  1  0.38110875  0.49521315  0.99328470  1
  O  O397  1  0.38358871  1.00320165  0.49067709  1
  O  O398  1  0.36839251  0.99147805  0.98763260  1
  O  O399  1  0.88040564  0.49014396  0.49746998  1
  O  O400  1  0.88011289  0.49266987  0.99315420  1
  O  O401  1  0.89259747  1.01139131  0.48108486  1
  O  O402  1  0.87371647  1.00601543  0.98604282  1
  O  O403  1  0.12221967  0.01705857  0.00464505  1
  O  O404  1  0.12252792  0.01181142  0.50467592  1
  O  O405  1  0.11430131  0.49787820  0.00992385  1
  O  O406  1  0.10196169  0.51575883  0.48944711  1
  O  O407  1  0.63375639  0.00787841  0.00228306  1
  O  O408  1  0.61922608  0.00486651  0.50473631  1
  O  O409  1  0.61711187  0.50553102  0.00201407  1
  O  O410  1  0.61950367  0.50599816  0.50423810  1
  O  O411  1  0.36478716  0.36971699  0.12191311  1
  O  O412  1  0.38293410  0.37707810  0.61380307  1
  O  O413  1  0.37949136  0.86681938  0.10272139  1
  O  O414  1  0.36512998  0.88074922  0.62569085  1
  O  O415  1  0.86586930  0.36718718  0.11878992  1
  O  O416  1  0.87369521  0.35963754  0.61220500  1
  O  O417  1  0.87327599  0.87555640  0.11916895  1
  O  O418  1  0.85057325  0.92285721  0.62265707  1
  O  O419  1  0.13523892  0.11840435  0.38162324  1
  O  O420  1  0.11639088  0.12620090  0.88473625  1
  O  O421  1  0.13540575  0.62401593  0.37348062  1
  O  O422  1  0.12994089  0.63871228  0.87772032  1
  O  O423  1  0.62902571  0.12924552  0.37808537  1
  O  O424  1  0.62865435  0.13201997  0.87180900  1
  O  O425  1  0.61973692  0.63203606  0.38294430  1
  O  O426  1  0.63118265  0.62790504  0.88443642  1
