# generated using pymatgen
data_V85Zn86O256
_symmetry_space_group_name_H-M   'P 1'
_cell_length_a   16.91228390
_cell_length_b   16.91867622
_cell_length_c   16.92012704
_cell_angle_alpha   90.04099888
_cell_angle_beta   89.96700631
_cell_angle_gamma   89.93645210
_symmetry_Int_Tables_number   1
_chemical_formula_structural   V85Zn86O256
_chemical_formula_sum   'V85 Zn86 O256'
_cell_volume   4841.40939398
_cell_formula_units_Z   1
loop_
 _symmetry_equiv_pos_site_id
 _symmetry_equiv_pos_as_xyz
  1  'x, y, z'
loop_
 _atom_site_type_symbol
 _atom_site_label
 _atom_site_symmetry_multiplicity
 _atom_site_fract_x
 _atom_site_fract_y
 _atom_site_fract_z
 _atom_site_occupancy
  V  V0  1  0.62369320  0.00645774  0.12952021  1
  V  V1  1  0.74928415  0.24659446  0.00292056  1
  V  V2  1  0.74712152  0.38210036  0.12236181  1
  V  V3  1  0.37174578  0.50452582  0.36940529  1
  V  V4  1  0.74650188  0.12048276  0.87970365  1
  V  V5  1  0.86646362  0.37627526  0.50591405  1
  V  V6  1  0.63152252  0.64948294  0.00304739  1
  V  V7  1  0.87890848  0.62483683  0.74798115  1
  V  V8  1  0.50484099  0.24574345  0.24328887  1
  V  V9  1  0.62817769  0.12453970  0.50172131  1
  V  V10  1  0.00029828  0.50321786  0.49822054  1
  V  V11  1  0.37951123  0.24890631  0.12326503  1
  V  V12  1  0.12466253  0.75417370  0.86711603  1
  V  V13  1  0.87334216  0.12175581  0.75069419  1
  V  V14  1  0.61811462  0.25532081  0.87786314  1
  V  V15  1  0.52284921  0.49582013  -0.00469066  1
  V  V16  1  0.25066780  0.24920604  -0.00008334  1
  V  V17  1  0.24766694  0.12313000  0.87053039  1
  V  V18  1  0.75192668  0.63426268  0.38216998  1
  V  V19  1  0.12323763  0.37577005  0.74890635  1
  V  V20  1  0.12219175  0.24959630  0.87416892  1
  V  V21  1  0.50313546  0.87127653  0.87708750  1
  V  V22  1  0.61383688  0.00171113  0.62766666  1
  V  V23  1  0.12541104  0.37096200  0.25712207  1
  V  V24  1  0.24708953  -0.00214473  0.74510064  1
  V  V25  1  -0.00064948  0.87875183  0.88915567  1
  V  V26  1  0.50301417  0.37518623  0.37198590  1
  V  V27  1  0.12603025  0.62495512  -0.00386192  1
  V  V28  1  0.12021982  0.12174981  -0.00038791  1
  V  V29  1  0.25053196  0.37418038  0.62415989  1
  V  V30  1  0.74784657  0.64219838  0.87382046  1
  V  V31  1  0.75332706  0.87391155  0.11655822  1
  V  V32  1  0.24412625  0.13251992  0.37339852  1
  V  V33  1  -0.00027049  0.62521642  0.12414514  1
  V  V34  1  0.61215699  0.75141075  0.38075247  1
  V  V35  1  0.87718729  0.37546879  0.00047172  1
  V  V36  1  0.25798717  0.50488134  0.74994183  1
  V  V37  1  0.87720746  -0.00384484  0.89106682  1
  V  V38  1  0.87276097  0.75395425  0.11219064  1
  V  V39  1  0.62814544  0.37741661  0.24782555  1
  V  V40  1  0.12093413  -0.00248844  0.62486657  1
  V  V41  1  0.12468427  0.49826556  0.12470613  1
  V  V42  1  0.24451809  0.87266425  0.62482184  1
  V  V43  1  0.64141746  0.49724938  0.63067282  1
  V  V44  1  0.13051393  0.62457568  0.49696659  1
  V  V45  1  0.87591313  0.74710625  0.61759130  1
  V  V46  1  0.49835575  0.00533517  0.00579966  1
  V  V47  1  0.63595450  0.24612202  0.37614384  1
  V  V48  1  -0.00302207  0.12894916  0.62438036  1
  V  V49  1  0.74836270  -0.00337926  0.75169009  1
  V  V50  1  0.62430869  0.86637632  0.75252828  1
  V  V51  1  0.87125813  0.87588087  0.49157894  1
  V  V52  1  0.86986145  0.50015745  0.87117946  1
  V  V53  1  0.24913357  -0.00146911  0.24722838  1
  V  V54  1  0.87327910  0.62622149  0.24740789  1
  V  V55  1  0.37344594  0.74406755  0.62838727  1
  V  V56  1  -0.00041308  0.76072535  0.74339775  1
  V  V57  1  0.37912146  0.87381810  0.49443001  1
  V  V58  1  0.38023484  0.24422497  0.61981602  1
  V  V59  1  0.87168490  0.12171259  0.26598484  1
  V  V60  1  0.12400097  -0.00496591  0.11926576  1
  V  V61  1  0.38404035  0.12172470  0.74394112  1
  V  V62  1  0.75435355  -0.00198823  0.26471626  1
  V  V63  1  -0.00137290  0.75160546  0.25127109  1
  V  V64  1  0.49923696  0.62061020  0.62690055  1
  V  V65  1  0.25917289  0.62715943  0.87204588  1
  V  V66  1  0.50042430  0.00048603  0.49075874  1
  V  V67  1  0.49880250  0.25951468  0.75231666  1
  V  V68  1  0.38006493  0.12395825  0.24639331  1
  V  V69  1  -0.00602865  0.00166038  0.49200772  1
  V  V70  1  0.74845899  0.86867197  0.62059613  1
  V  V71  1  0.49734606  0.74120926  0.75613843  1
  V  V72  1  0.37778804  0.37405182  0.49827100  1
  V  V73  1  0.12954040  0.87329593  0.24793068  1
  V  V74  1  0.61559937  0.86790337  0.25264284  1
  V  V75  1  0.25097950  0.37461453  0.12406910  1
  V  V76  1  0.00162774  0.24771430  0.25817279  1
  V  V77  1  0.74562476  0.50478481  0.24710244  1
  V  V78  1  0.36778053  0.87287891  0.00610182  1
  V  V79  1  0.13358376  0.74576219  0.37222710  1
  V  V80  1  0.49687631  0.62817192  0.12811912  1
  V  V81  1  -0.00425622  0.12025767  0.12404928  1
  V  V82  1  0.37884776  0.38026225  -0.00887924  1
  V  V83  1  0.37449281  -0.00142308  0.87302440  1
  V  V84  1  0.11965578  0.50698532  0.62667912  1
  Zn  Zn85  1  0.50412792  0.50275701  0.50006493  1
  Zn  Zn86  1  0.11864737  0.13298616  0.49494448  1
  Zn  Zn87  1  0.74647739  0.25145607  0.51109532  1
  Zn  Zn88  1  0.00205126  0.37250987  0.37904252  1
  Zn  Zn89  1  0.24364719  0.25193432  0.49478930  1
  Zn  Zn90  1  -0.00071372  0.49949049  -0.00181960  1
  Zn  Zn91  1  0.24672563  0.75489082  0.00278575  1
  Zn  Zn92  1  -0.00262676  0.25052441  0.75042431  1
  Zn  Zn93  1  0.37604131  -0.00244482  0.37270853  1
  Zn  Zn94  1  0.87548336  0.49870995  0.37352919  1
  Zn  Zn95  1  0.24890489  0.50495179  0.25197755  1
  Zn  Zn96  1  0.64397224  0.36913695  0.73766566  1
  Zn  Zn97  1  0.87401969  0.24752781  0.12904095  1
  Zn  Zn98  1  0.61812408  0.12543848  0.00581162  1
  Zn  Zn99  1  0.25222984  0.74614165  0.49708810  1
  Zn  Zn100  1  0.36837417  0.75496033  0.13469179  1
  Zn  Zn101  1  0.37002202  0.64021714  0.26035473  1
  Zn  Zn102  1  0.38447225  0.50240182  0.87273107  1
  Zn  Zn103  1  0.62935946  0.62931952  0.50553327  1
  Zn  Zn104  1  0.00078127  0.37851942  0.87520106  1
  Zn  Zn105  1  0.86220537  0.25748408  0.63349601  1
  Zn  Zn106  1  -0.00289664  0.87879399  0.37272022  1
  Zn  Zn107  1  0.18714106  0.18639628  0.18700013  1
  Zn  Zn108  1  0.18806850  0.18699129  0.68187835  1
  Zn  Zn109  1  0.19863109  0.68565363  0.18466447  1
  Zn  Zn110  1  0.18560217  0.68613462  0.68714017  1
  Zn  Zn111  1  0.69230456  0.18552796  0.18995994  1
  Zn  Zn112  1  0.68576516  0.18479295  0.68686945  1
  Zn  Zn113  1  0.68497421  0.69019503  0.18532651  1
  Zn  Zn114  1  0.68919201  0.68543261  0.68974365  1
  Zn  Zn115  1  0.31464230  0.31424041  0.30889703  1
  Zn  Zn116  1  0.31076068  0.31144100  0.81007938  1
  Zn  Zn117  1  0.31438029  0.81217870  0.30946233  1
  Zn  Zn118  1  0.31353220  0.81327094  0.81124710  1
  Zn  Zn119  1  0.81707239  0.31512123  0.31585696  1
  Zn  Zn120  1  0.81029721  0.30953933  0.81450140  1
  Zn  Zn121  1  0.80898636  0.81192160  0.30783490  1
  Zn  Zn122  1  0.81793686  0.81412557  0.81215637  1
  Zn  Zn123  1  0.18959530  0.43650483  0.43859842  1
  Zn  Zn124  1  0.19040599  0.43871805  0.93622921  1
  Zn  Zn125  1  0.18604608  0.93881634  0.43665573  1
  Zn  Zn126  1  0.18343384  0.93747494  0.93284249  1
  Zn  Zn127  1  0.68644507  0.44580503  0.43760675  1
  Zn  Zn128  1  0.69928912  0.42901679  0.90641734  1
  Zn  Zn129  1  0.68357798  0.93226922  0.43959812  1
  Zn  Zn130  1  0.68413595  0.93621840  0.93932621  1
  Zn  Zn131  1  0.31042011  0.06177388  0.06420441  1
  Zn  Zn132  1  0.31221364  0.06173889  0.55912619  1
  Zn  Zn133  1  0.31183943  0.56312839  0.06112422  1
  Zn  Zn134  1  0.31324974  0.56068013  0.55978177  1
  Zn  Zn135  1  0.81042386  0.06096133  0.07045496  1
  Zn  Zn136  1  0.80817931  0.05906337  0.56383202  1
  Zn  Zn137  1  0.80874890  0.56384562  0.05819306  1
  Zn  Zn138  1  0.81522204  0.56307011  0.56273261  1
  Zn  Zn139  1  0.44347517  0.44215337  0.17897471  1
  Zn  Zn140  1  0.43914532  0.43539005  0.68781553  1
  Zn  Zn141  1  0.43831139  0.93780705  0.18780113  1
  Zn  Zn142  1  0.43568962  0.93050165  0.68474357  1
  Zn  Zn143  1  0.93598653  0.43671984  0.18776642  1
  Zn  Zn144  1  0.93781247  0.44070705  0.68673000  1
  Zn  Zn145  1  0.93621395  0.93806908  0.18671965  1
  Zn  Zn146  1  0.93589906  0.93717487  0.68646972  1
  Zn  Zn147  1  0.06273620  0.06260198  0.31055229  1
  Zn  Zn148  1  0.06051495  0.05730184  0.80915522  1
  Zn  Zn149  1  0.06369151  0.56176412  0.31241480  1
  Zn  Zn150  1  0.05807950  0.56532793  0.81182653  1
  Zn  Zn151  1  0.56589999  0.06263922  0.31381733  1
  Zn  Zn152  1  0.56190254  0.06221892  0.81505189  1
  Zn  Zn153  1  0.56410504  0.56411109  0.31207677  1
  Zn  Zn154  1  0.57020476  0.56160252  0.81537410  1
  Zn  Zn155  1  0.44200172  0.18336454  0.43388582  1
  Zn  Zn156  1  0.43442372  0.18525272  0.93528111  1
  Zn  Zn157  1  0.43936363  0.68683344  0.44280827  1
  Zn  Zn158  1  0.44282963  0.68687710  0.94261905  1
  Zn  Zn159  1  0.93386659  0.19261210  0.44016560  1
  Zn  Zn160  1  0.93665398  0.18582066  0.93821757  1
  Zn  Zn161  1  0.94178475  0.68568359  0.43722303  1
  Zn  Zn162  1  0.94047314  0.68819008  0.93345875  1
  Zn  Zn163  1  0.06035287  0.30748580  0.06743360  1
  Zn  Zn164  1  0.05973114  0.31251464  0.56130816  1
  Zn  Zn165  1  0.06615808  0.80962592  0.06302468  1
  Zn  Zn166  1  0.05994854  0.81275108  0.55908608  1
  Zn  Zn167  1  0.56497027  0.31631579  0.06077587  1
  Zn  Zn168  1  0.56278717  0.31287277  0.56431970  1
  Zn  Zn169  1  0.55849977  0.81733641  0.06811634  1
  Zn  Zn170  1  0.55955540  0.81137511  0.56264843  1
  O  O171  1  0.11830454  0.11676679  0.12041071  1
  O  O172  1  0.11374810  0.11744414  0.62436874  1
  O  O173  1  0.12043753  0.61719207  0.11630761  1
  O  O174  1  0.12704225  0.61570125  0.61658115  1
  O  O175  1  0.62911512  0.11054520  0.12764864  1
  O  O176  1  0.62388686  0.11077003  0.62058184  1
  O  O177  1  0.62025782  0.63098091  0.10940536  1
  O  O178  1  0.61897153  0.61729650  0.62662467  1
  O  O179  1  0.38411895  0.37829144  0.37953987  1
  O  O180  1  0.37038397  0.37256765  0.88812937  1
  O  O181  1  0.36556041  0.87873217  0.39101767  1
  O  O182  1  0.38454577  0.88114317  0.87991019  1
  O  O183  1  0.88013897  0.37863356  0.38833811  1
  O  O184  1  0.87955429  0.38280322  0.88330771  1
  O  O185  1  0.87429645  0.86575593  0.38799732  1
  O  O186  1  0.88809923  0.88241476  0.87382366  1
  O  O187  1  0.25030135  0.00903403  0.36273811  1
  O  O188  1  0.25350148  0.00294972  0.86491510  1
  O  O189  1  0.26878870  0.49193930  0.37411295  1
  O  O190  1  0.24919334  0.50994981  0.86590496  1
  O  O191  1  0.74498451  -0.00468412  0.36319875  1
  O  O192  1  0.75644633  0.00012960  0.87175801  1
  O  O193  1  0.75106085  0.51450531  0.36592419  1
  O  O194  1  0.76757907  0.52085854  0.88703284  1
  O  O195  1  0.23814306  0.49332935  0.12210860  1
  O  O196  1  0.24396365  0.49451336  0.63156662  1
  O  O197  1  0.23967542  1.00632676  0.13839689  1
  O  O198  1  0.24125851  0.99424498  0.62506986  1
  O  O199  1  0.75403980  0.49291129  0.13209107  1
  O  O200  1  0.74020550  0.50408976  0.62813301  1
  O  O201  1  0.74286607  0.98898975  0.13352290  1
  O  O202  1  0.74006561  0.98780872  0.63350514  1
  O  O203  1  0.00657671  0.36546937  0.24872697  1
  O  O204  1  0.01234321  0.37345408  0.75047199  1
  O  O205  1  0.00739398  0.86865508  0.25103767  1
  O  O206  1  -0.00467895  0.86474662  0.75662665  1
  O  O207  1  0.50847207  0.37051720  0.25296298  1
  O  O208  1  0.49860325  0.36136898  0.75209969  1
  O  O209  1  0.51728206  0.88173963  0.24999114  1
  O  O210  1  0.50530029  0.86645398  0.75686777  1
  O  O211  1  0.49316486  0.13326537  0.25438396  1
  O  O212  1  0.48719151  0.12743857  0.75129841  1
  O  O213  1  0.50054103  0.61515778  0.23028189  1
  O  O214  1  0.50560359  0.63588978  0.74837369  1
  O  O215  1  0.99300465  0.12887018  0.24610185  1
  O  O216  1  0.99010074  0.12374029  0.74344069  1
  O  O217  1  0.99538411  0.63164302  0.24302165  1
  O  O218  1  0.98610361  0.64058447  0.75732341  1
  O  O219  1  0.37189440  0.25446313  0.00492664  1
  O  O220  1  0.37614004  0.25444317  0.50479882  1
  O  O221  1  0.37567778  0.76701322  -0.00359451  1
  O  O222  1  0.37307396  0.75625134  0.50702356  1
  O  O223  1  0.86606812  0.25575540  0.00096827  1
  O  O224  1  0.87155844  0.26480040  0.50375232  1
  O  O225  1  0.88258209  0.74742494  0.01348691  1
  O  O226  1  0.88315671  0.75582463  0.51124799  1
  O  O227  1  0.13074968  0.24561108  0.50773684  1
  O  O228  1  0.13036578  0.24478830  0.99295502  1
  O  O229  1  0.12215882  0.74128664  0.49065346  1
  O  O230  1  0.12468687  0.74278786  0.98673372  1
  O  O231  1  0.62207991  0.24259013  0.49356109  1
  O  O232  1  0.63020859  0.24331941  0.99840745  1
  O  O233  1  0.62445946  0.75165736  0.48589840  1
  O  O234  1  0.62325997  0.74742342  0.99815359  1
  O  O235  1  0.49926656  0.25448637  0.13670161  1
  O  O236  1  0.48768873  0.25185925  0.63312758  1
  O  O237  1  0.49610689  0.73318726  0.11496339  1
  O  O238  1  0.49373449  0.74066359  0.63277294  1
  O  O239  1  0.99762657  0.23627779  0.13578453  1
  O  O240  1  0.99332462  0.23764525  0.62894938  1
  O  O241  1  0.99591471  0.74673473  0.13451314  1
  O  O242  1  0.99122334  0.75529697  0.63236260  1
  O  O243  1  0.00004861  0.24988873  0.36269182  1
  O  O244  1  0.01218797  0.25034727  0.87333006  1
  O  O245  1  0.00632614  0.75005915  0.36154488  1
  O  O246  1  0.00447864  0.76198095  0.86846511  1
  O  O247  1  0.50554354  0.26013777  0.36350532  1
  O  O248  1  0.50656547  0.23738086  0.86438552  1
  O  O249  1  0.51356137  0.74458800  0.37429602  1
  O  O250  1  0.49544817  0.75835444  0.86791710  1
  O  O251  1  0.25304115  0.12409351  0.48158066  1
  O  O252  1  0.24361694  0.12990495  0.99199794  1
  O  O253  1  0.23622269  0.62494114  0.50146602  1
  O  O254  1  0.23808899  0.62446504  0.99057270  1
  O  O255  1  0.73386221  0.12387423  0.50427906  1
  O  O256  1  0.74850321  0.13117946  0.99916947  1
  O  O257  1  0.75033773  0.62320693  0.48551415  1
  O  O258  1  0.73778512  0.63061724  0.99575917  1
  O  O259  1  0.25647375  0.36837282  0.00473209  1
  O  O260  1  0.26278369  0.37290886  0.50361646  1
  O  O261  1  0.26545563  0.87833496  -0.01022930  1
  O  O262  1  0.25545889  0.87502824  0.51098224  1
  O  O263  1  0.75913880  0.36825482  0.00363162  1
  O  O264  1  0.76426673  0.38121113  0.49632711  1
  O  O265  1  0.74424803  0.87786105  0.01768442  1
  O  O266  1  0.75662588  0.87902418  0.51029300  1
  O  O267  1  0.12460207  0.49095614  0.24041090  1
  O  O268  1  0.12935869  0.49554085  0.74411607  1
  O  O269  1  0.12954503  0.99273725  0.24283416  1
  O  O270  1  0.13054409  1.00289791  0.73429096  1
  O  O271  1  0.63797542  0.49446600  0.25340665  1
  O  O272  1  0.61869836  0.49777436  0.73396389  1
  O  O273  1  0.63368776  0.99213667  0.24761338  1
  O  O274  1  0.62530091  0.98930386  0.74468213  1
  O  O275  1  0.36777719  0.00571067  0.24883950  1
  O  O276  1  0.37038933  0.00499272  0.75028425  1
  O  O277  1  0.37861290  0.49362002  0.26348299  1
  O  O278  1  0.36203626  0.49246858  0.75408888  1
  O  O279  1  0.86222187  0.00337600  0.25088977  1
  O  O280  1  0.86965194  0.00763704  0.75680045  1
  O  O281  1  0.86558999  0.50754590  0.25045555  1
  O  O282  1  0.88140202  0.51184489  0.75722217  1
  O  O283  1  0.12551913  0.37918568  0.36086668  1
  O  O284  1  0.12456414  0.36745188  0.86859050  1
  O  O285  1  0.11989287  0.86813834  0.36659693  1
  O  O286  1  0.11249467  0.86817903  0.87451169  1
  O  O287  1  0.61929183  0.37058414  0.37077410  1
  O  O288  1  0.61081802  0.35470232  0.88985405  1
  O  O289  1  0.63001440  0.86127683  0.36510780  1
  O  O290  1  0.61203080  0.88068157  0.86750969  1
  O  O291  1  0.36929418  0.13193181  0.13757659  1
  O  O292  1  0.36856405  0.13239987  0.63195175  1
  O  O293  1  0.38988854  0.62550480  0.11703740  1
  O  O294  1  0.37972430  0.63626083  0.62015582  1
  O  O295  1  0.88231164  0.12405182  0.13534293  1
  O  O296  1  0.87901020  0.12257713  0.63538872  1
  O  O297  1  0.87956533  0.63202791  0.12825663  1
  O  O298  1  0.86810129  0.63528532  0.63436870  1
  O  O299  1  0.25607603  0.25470791  0.11873460  1
  O  O300  1  0.26368588  0.25761003  0.62600666  1
  O  O301  1  0.25359537  0.75218557  0.11520475  1
  O  O302  1  0.25556078  0.75575389  0.62431481  1
  O  O303  1  0.75097579  0.25527591  0.11552673  1
  O  O304  1  0.74798498  0.25399687  0.62659099  1
  O  O305  1  0.75822908  0.76467433  0.13205252  1
  O  O306  1  0.75722096  0.76113303  0.63010869  1
  O  O307  1  0.25601465  0.23600744  0.37145546  1
  O  O308  1  0.23932015  0.24412352  0.87757186  1
  O  O309  1  0.23659852  0.75559694  0.37760787  1
  O  O310  1  0.24135426  0.74558735  0.87396027  1
  O  O311  1  0.73799472  0.25621383  0.37994966  1
  O  O312  1  0.74154273  0.24024950  0.88864880  1
  O  O313  1  0.74182408  0.73741891  0.36667695  1
  O  O314  1  0.75888063  0.74112774  0.87953873  1
  O  O315  1  0.00799488  0.12991579  0.01037341  1
  O  O316  1  -0.00497026  0.11922126  0.50790661  1
  O  O317  1  0.01156958  0.62541640  0.00441120  1
  O  O318  1  0.00954950  0.61151424  0.49746626  1
  O  O319  1  0.49624929  0.10972873  -0.00241436  1
  O  O320  1  0.51012711  0.11382323  0.49882917  1
  O  O321  1  0.51845479  0.61816360  0.00056868  1
  O  O322  1  0.50633729  0.62434238  0.51271257  1
  O  O323  1  0.49133970  0.37429609  0.49085976  1
  O  O324  1  0.49398068  0.38971046  1.00652355  1
  O  O325  1  0.49013054  0.88369865  0.50569158  1
  O  O326  1  0.49300485  0.88366188  0.99335458  1
  O  O327  1  0.99380903  0.38642798  0.49950768  1
  O  O328  1  0.98711124  0.37167185  1.00248640  1
  O  O329  1  0.99026259  0.88426720  0.49821506  1
  O  O330  1  1.00209004  0.87286566  0.98800861  1
  O  O331  1  0.49678802  0.48822036  0.37530067  1
  O  O332  1  0.50018840  0.50713253  0.89015691  1
  O  O333  1  0.49928111  0.99909600  0.38624380  1
  O  O334  1  0.49275978  0.99265099  0.88132773  1
  O  O335  1  0.99797208  0.49732330  0.38309377  1
  O  O336  1  0.98837911  0.50031755  0.87855522  1
  O  O337  1  1.00364989  1.00064932  0.38811304  1
  O  O338  1  0.99433701  0.98681659  0.87264663  1
  O  O339  1  0.00841824  0.01136789  0.13154941  1
  O  O340  1  0.00391696  0.00730157  0.61894443  1
  O  O341  1  0.01003796  0.50418189  0.12332465  1
  O  O342  1  0.01359475  0.49756056  0.61831710  1
  O  O343  1  0.51039968  -0.00532964  0.11779985  1
  O  O344  1  0.51028350  -0.00818870  0.61960858  1
  O  O345  1  0.50183371  0.51277712  0.10547607  1
  O  O346  1  0.49417618  0.51379493  0.62600544  1
  O  O347  1  0.24314199  0.37686266  0.24104071  1
  O  O348  1  0.23991369  0.38190830  0.74657825  1
  O  O349  1  0.23736796  0.88387104  0.25438703  1
  O  O350  1  0.25650388  0.88278057  0.73473903  1
  O  O351  1  0.74933694  0.38280047  0.24261746  1
  O  O352  1  0.73527810  0.38869018  0.79956411  1
  O  O353  1  0.74336949  0.88511512  0.24437935  1
  O  O354  1  0.74177054  0.87746343  0.74697484  1
  O  O355  1  0.25567096  0.12034255  0.25709844  1
  O  O356  1  0.25694547  0.11797996  0.75227102  1
  O  O357  1  0.25774911  0.61710610  0.24871801  1
  O  O358  1  0.24502239  0.61595083  0.75832780  1
  O  O359  1  0.75742351  0.10890583  0.24738087  1
  O  O360  1  0.75423137  0.11594858  0.75856014  1
  O  O361  1  0.75294464  0.62047883  0.25265272  1
  O  O362  1  0.75974018  0.63273446  0.76591741  1
  O  O363  1  0.36813279  0.12205800  0.36180791  1
  O  O364  1  0.36653247  0.11770649  0.86546664  1
  O  O365  1  0.38657440  0.60753836  0.37621415  1
  O  O366  1  0.36195333  0.62673310  0.88223563  1
  O  O367  1  0.87622193  0.12610605  0.36560173  1
  O  O368  1  0.86926558  0.11642428  0.87037330  1
  O  O369  1  0.86587291  0.62744713  0.36731254  1
  O  O370  1  0.86909594  0.62352908  0.86975101  1
  O  O371  1  0.12925477  0.38120205  0.12917803  1
  O  O372  1  0.13094899  0.38207542  0.63262140  1
  O  O373  1  0.11862431  0.88478262  0.13289802  1
  O  O374  1  0.13259020  0.88260858  0.61874173  1
  O  O375  1  0.64009999  0.37133959  0.13054763  1
  O  O376  1  0.62026794  0.39114164  0.62528898  1
  O  O377  1  0.63275396  0.87892539  0.13689862  1
  O  O378  1  0.63036024  0.87760078  0.63219847  1
  O  O379  1  0.11612655  0.25933609  0.24200044  1
  O  O380  1  0.12588641  0.25776931  0.75622460  1
  O  O381  1  0.11946991  0.75592480  0.25312973  1
  O  O382  1  0.11567301  0.74505231  0.75945773  1
  O  O383  1  0.62236309  0.25355515  0.25653785  1
  O  O384  1  0.61577435  0.25053848  0.75831621  1
  O  O385  1  0.62629099  0.76211395  0.25665052  1
  O  O386  1  0.61689575  0.76094651  0.74640304  1
  O  O387  1  0.38511471  0.24438109  0.24402972  1
  O  O388  1  0.38005686  0.24198428  0.74452675  1
  O  O389  1  0.38191690  0.75237649  0.24828298  1
  O  O390  1  0.38496713  0.75512258  0.74055234  1
  O  O391  1  0.88022315  0.24133463  0.24981730  1
  O  O392  1  0.87540780  0.23645945  0.75516580  1
  O  O393  1  0.88306673  0.74583558  0.24263862  1
  O  O394  1  0.88156919  0.74714601  0.73956514  1
  O  O395  1  0.37950282  0.49095551  0.48943835  1
  O  O396  1  0.37669441  0.49141104  0.99501852  1
  O  O397  1  0.38436462  0.99329491  0.50079451  1
  O  O398  1  0.37858768  0.99257881  0.99576604  1
  O  O399  1  0.88335641  0.49435358  0.50004240  1
  O  O400  1  0.87771182  0.49140061  0.99614747  1
  O  O401  1  0.88198516  0.98936598  0.50673350  1
  O  O402  1  0.87189739  1.00460336  0.99006476  1
  O  O403  1  0.13124421  0.00494772  0.01113119  1
  O  O404  1  0.11577353  0.00534241  0.50892283  1
  O  O405  1  0.12228152  0.50588015  0.00500954  1
  O  O406  1  0.12149009  0.50403216  0.50568511  1
  O  O407  1  0.61596727  -0.00006400  0.01054537  1
  O  O408  1  0.61822274  0.00260718  0.50685232  1
  O  O409  1  0.62203207  0.49256402  -0.00968675  1
  O  O410  1  0.62272351  0.50484467  0.51431604  1
  O  O411  1  0.37048139  0.36993404  0.11630854  1
  O  O412  1  0.37232810  0.36900795  0.61557489  1
  O  O413  1  0.37942563  0.87788025  0.10869941  1
  O  O414  1  0.36835021  0.86376238  0.61597295  1
  O  O415  1  0.86492295  0.37164636  0.11887333  1
  O  O416  1  0.88020461  0.37604267  0.61175379  1
  O  O417  1  0.86228434  0.87050638  0.12838059  1
  O  O418  1  0.86636359  0.86870088  0.61833059  1
  O  O419  1  0.14018630  0.12290173  0.37248790  1
  O  O420  1  0.12737886  0.12899991  0.87770665  1
  O  O421  1  0.12088748  0.63368045  0.38230448  1
  O  O422  1  0.12894678  0.63231150  0.88013613  1
  O  O423  1  0.62054917  0.13596264  0.38401180  1
  O  O424  1  0.63223303  0.12790827  0.87972577  1
  O  O425  1  0.63258844  0.63633005  0.37469370  1
  O  O426  1  0.64085717  0.62668691  0.88450724  1
