# generated using pymatgen
data_V85Zn86O256
_symmetry_space_group_name_H-M   'P 1'
_cell_length_a   16.93023585
_cell_length_b   16.93284338
_cell_length_c   16.91902227
_cell_angle_alpha   90.07543163
_cell_angle_beta   90.08674622
_cell_angle_gamma   89.97584249
_symmetry_Int_Tables_number   1
_chemical_formula_structural   V85Zn86O256
_chemical_formula_sum   'V85 Zn86 O256'
_cell_volume   4850.28490031
_cell_formula_units_Z   1
loop_
 _symmetry_equiv_pos_site_id
 _symmetry_equiv_pos_as_xyz
  1  'x, y, z'
loop_
 _atom_site_type_symbol
 _atom_site_label
 _atom_site_symmetry_multiplicity
 _atom_site_fract_x
 _atom_site_fract_y
 _atom_site_fract_z
 _atom_site_occupancy
  V  V0  1  0.12074012  0.49794304  0.61686026  1
  V  V1  1  0.50143565  0.12678172  0.13201288  1
  V  V2  1  0.88149540  0.62723399  0.25065023  1
  V  V3  1  0.50909054  0.49821665  0.00182449  1
  V  V4  1  0.37307869  0.87590978  0.00089691  1
  V  V5  1  0.62444770  0.87837865  0.25479631  1
  V  V6  1  0.62286903  0.62587375  0.50218779  1
  V  V7  1  0.11902357  0.37343190  0.24958620  1
  V  V8  1  -0.00199357  0.24900173  0.75223281  1
  V  V9  1  0.24776455  0.75408572  0.01015336  1
  V  V10  1  0.61636710  0.38031586  0.23465007  1
  V  V11  1  0.25487921  -0.00886191  0.24468363  1
  V  V12  1  0.25054961  0.24827261  -0.00130216  1
  V  V13  1  0.74852951  0.75038425  0.00614321  1
  V  V14  1  0.74629697  0.49828175  0.23850665  1
  V  V15  1  0.12885975  0.62763279  0.49816095  1
  V  V16  1  -0.00096063  0.75031589  0.74920326  1
  V  V17  1  0.24095327  0.23501211  0.48951229  1
  V  V18  1  0.88843693  0.74809912  0.12975577  1
  V  V19  1  0.37402602  0.85855045  0.50682210  1
  V  V20  1  0.87423604  0.00041866  0.37438528  1
  V  V21  1  0.86957074  0.75050603  0.62533466  1
  V  V22  1  0.00714311  0.00589081  0.49957576  1
  V  V23  1  0.24811240  0.49974367  0.24732497  1
  V  V24  1  0.12606885  0.74862147  0.37588541  1
  V  V25  1  0.12322695  0.74937483  0.87605370  1
  V  V26  1  0.74981013  0.00260793  0.25318534  1
  V  V27  1  0.74915514  0.25270420  -0.00662334  1
  V  V28  1  0.37834142  0.24995386  0.13090892  1
  V  V29  1  0.87340307  0.37639189  0.00463998  1
  V  V30  1  0.62503253  0.12999117  -0.00589247  1
  V  V31  1  0.87313003  0.25001077  0.62621312  1
  V  V32  1  0.88051164  0.50070046  0.87763149  1
  V  V33  1  -0.00284493  0.00137714  -0.00963812  1
  V  V34  1  0.49936111  0.75176067  0.25025767  1
  V  V35  1  0.00063505  0.86689805  0.36986023  1
  V  V36  1  0.87254937  0.11090112  0.75027373  1
  V  V37  1  0.37787523  0.37405988  0.49589070  1
  V  V38  1  0.12611723  0.12340549  -0.00207016  1
  V  V39  1  0.49542676  0.63352487  0.62756194  1
  V  V40  1  0.13244847  0.00682139  0.62201666  1
  V  V41  1  0.12710366  0.86750818  0.24053658  1
  V  V42  1  0.74967547  0.13544352  0.37015258  1
  V  V43  1  0.24506609  0.37777605  0.12420200  1
  V  V44  1  0.37752797  0.49833938  0.87680782  1
  V  V45  1  0.37497437  0.62622790  0.24956988  1
  V  V46  1  0.38446141  0.25044429  0.62943087  1
  V  V47  1  0.25222681  0.11937904  0.87085992  1
  V  V48  1  0.62523564  0.00233777  0.12787984  1
  V  V49  1  0.74694207  0.62534393  0.87690080  1
  V  V50  1  0.24996975  0.49847844  0.75015425  1
  V  V51  1  0.06078734  0.20199714  0.30871030  1
  V  V52  1  0.37489761  0.63329939  0.74962084  1
  V  V53  1  0.11693423  0.61736017  0.01438388  1
  V  V54  1  0.87119313  0.24999619  0.12930514  1
  V  V55  1  0.50167896  -0.00568231  -0.00630121  1
  V  V56  1  0.62038011  0.35955659  0.75349686  1
  V  V57  1  0.00523453  0.39095435  0.37919597  1
  V  V58  1  0.87405375  0.87880804  -0.00363150  1
  V  V59  1  0.74897970  0.25870848  0.49434240  1
  V  V60  1  0.38177291  0.49699743  0.37503823  1
  V  V61  1  0.87652662  0.87606879  0.50380246  1
  V  V62  1  0.24806666  0.62427442  0.87842150  1
  V  V63  1  0.62083984  0.50041453  0.62830391  1
  V  V64  1  0.50446727  0.62232097  0.12562653  1
  V  V65  1  0.61278079  0.12657668  0.49250129  1
  V  V66  1  0.37090837  0.12435849  0.25499201  1
  V  V67  1  0.63082385  0.88339148  0.74013818  1
  V  V68  1  0.25127359  0.86031128  0.62330601  1
  V  V69  1  0.00191772  0.12863470  0.12142223  1
  V  V70  1  0.60521828  0.26723452  0.36819491  1
  V  V71  1  0.25048725  0.37086164  0.62174013  1
  V  V72  1  0.50000678  0.88401878  0.38221706  1
  V  V73  1  0.74793403  0.37617034  0.62681300  1
  V  V74  1  0.62336783  0.75362846  0.37798719  1
  V  V75  1  0.36926536  0.00299243  0.38719044  1
  V  V76  1  0.74837230  0.75233446  0.50182444  1
  V  V77  1  0.12332079  0.37475081  0.75016336  1
  V  V78  1  0.24975408  0.62804721  0.37916472  1
  V  V79  1  0.50165348  0.36110968  0.87314273  1
  V  V80  1  -0.00273163  0.62164910  0.61781613  1
  V  V81  1  0.61662124  0.75992179  0.87682991  1
  V  V82  1  0.38879197  0.12532187  0.75206638  1
  V  V83  1  0.75116215  0.11137313  0.86990749  1
  V  V84  1  0.74742116  0.49927442  0.75304907  1
  Zn  Zn85  1  0.49346753  0.76231761  0.75412270  1
  Zn  Zn86  1  0.12926654  -0.00593657  0.12100542  1
  Zn  Zn87  1  0.00333018  0.49869973  0.03171294  1
  Zn  Zn88  1  0.74706756  0.62321146  0.37310391  1
  Zn  Zn89  1  0.37147943  0.75638192  0.12893013  1
  Zn  Zn90  1  0.38251645  -0.00868053  0.86842127  1
  Zn  Zn91  1  0.00258068  0.37776937  0.87944140  1
  Zn  Zn92  1  0.87328467  0.62408461  0.74948310  1
  Zn  Zn93  1  0.88508123  0.38456473  0.50323690  1
  Zn  Zn94  1  0.75135180  0.87595570  0.12953642  1
  Zn  Zn95  1  0.87884073  0.13027185  0.25113606  1
  Zn  Zn96  1  0.12797818  0.87579661  0.74924933  1
  Zn  Zn97  1  0.00672282  0.12734134  0.62158716  1
  Zn  Zn98  1  0.50072569  0.11924963  0.62188344  1
  Zn  Zn99  1  0.62657438  0.62251972  0.00533831  1
  Zn  Zn100  1  0.50239304  0.49661556  0.49659846  1
  Zn  Zn101  1  -0.00359384  0.87883036  0.87068915  1
  Zn  Zn102  1  0.25518363  -0.00250087  0.74632689  1
  Zn  Zn103  1  0.12570230  0.25025217  0.87243322  1
  Zn  Zn104  1  0.62845725  -0.00086880  0.62499342  1
  Zn  Zn105  1  0.37541406  0.37469185  0.00060100  1
  Zn  Zn106  1  0.87159496  0.50351848  0.38012509  1
  Zn  Zn107  1  0.19619577  0.18084553  0.18349749  1
  Zn  Zn108  1  0.19175326  0.18774582  0.68623018  1
  Zn  Zn109  1  0.18520252  0.68763033  0.19101663  1
  Zn  Zn110  1  0.18627641  0.68535949  0.68921623  1
  Zn  Zn111  1  0.68640434  0.19679153  0.18600067  1
  Zn  Zn112  1  0.68882472  0.18316938  0.68378422  1
  Zn  Zn113  1  0.68776356  0.68617764  0.18970359  1
  Zn  Zn114  1  0.68591259  0.69086008  0.69164500  1
  Zn  Zn115  1  0.31086467  0.31103716  0.31295128  1
  Zn  Zn116  1  0.31420636  0.31010832  0.81212173  1
  Zn  Zn117  1  0.31204940  0.81312481  0.31701594  1
  Zn  Zn118  1  0.31019011  0.81477637  0.81797269  1
  Zn  Zn119  1  0.81402991  0.32302766  0.31013005  1
  Zn  Zn120  1  0.81106321  0.31074528  0.81606339  1
  Zn  Zn121  1  0.81018922  0.81159156  0.31517463  1
  Zn  Zn122  1  0.81012210  0.81173047  0.81534800  1
  Zn  Zn123  1  0.18889594  0.43605788  0.43466597  1
  Zn  Zn124  1  0.18595091  0.43751841  0.93834157  1
  Zn  Zn125  1  0.19180456  0.93666492  0.43705011  1
  Zn  Zn126  1  0.18753071  0.93569858  0.93724040  1
  Zn  Zn127  1  0.69009099  0.44218850  0.43410941  1
  Zn  Zn128  1  0.68715871  0.43390528  0.93650878  1
  Zn  Zn129  1  0.69940962  0.95308800  0.46423202  1
  Zn  Zn130  1  0.68744015  0.93746664  0.93976029  1
  Zn  Zn131  1  0.31457494  0.05949738  0.06336797  1
  Zn  Zn132  1  0.31468353  0.06185172  0.56655679  1
  Zn  Zn133  1  0.31429097  0.56494885  0.06279736  1
  Zn  Zn134  1  0.31204950  0.56158624  0.56316327  1
  Zn  Zn135  1  0.81223811  0.06439892  0.06317382  1
  Zn  Zn136  1  0.80738636  0.06661655  0.56228056  1
  Zn  Zn137  1  0.81568751  0.56456148  0.06406890  1
  Zn  Zn138  1  0.81054358  0.56188268  0.55929641  1
  Zn  Zn139  1  0.43495746  0.43787152  0.18521982  1
  Zn  Zn140  1  0.43861165  0.43823183  0.69026764  1
  Zn  Zn141  1  0.43762242  0.93767046  0.18492425  1
  Zn  Zn142  1  0.44898570  0.94192426  0.68426295  1
  Zn  Zn143  1  0.92829682  0.43078507  0.19145082  1
  Zn  Zn144  1  0.93642657  0.43768982  0.68943635  1
  Zn  Zn145  1  0.93879750  0.93923255  0.18449344  1
  Zn  Zn146  1  0.94266015  0.93502627  0.68266434  1
  Zn  Zn147  1  0.06448360  0.04035326  0.31017228  1
  Zn  Zn148  1  0.06541337  0.06304049  0.80731836  1
  Zn  Zn149  1  0.04467898  0.54465373  0.23920747  1
  Zn  Zn150  1  0.06259426  0.56593290  0.80889949  1
  Zn  Zn151  1  0.56065461  0.06609409  0.31925086  1
  Zn  Zn152  1  0.56791499  0.06028929  0.81059868  1
  Zn  Zn153  1  0.56559193  0.56105832  0.31102304  1
  Zn  Zn154  1  0.56177650  0.56217990  0.81445414  1
  Zn  Zn155  1  0.42831266  0.19549516  0.43384465  1
  Zn  Zn156  1  0.43523111  0.18244760  0.94202971  1
  Zn  Zn157  1  0.44010358  0.68583867  0.43673081  1
  Zn  Zn158  1  0.43472165  0.68701573  0.94117935  1
  Zn  Zn159  1  0.93319669  0.18900124  0.44215577  1
  Zn  Zn160  1  0.93275050  0.18739963  0.93402829  1
  Zn  Zn161  1  0.93936408  0.68343182  0.43568271  1
  Zn  Zn162  1  0.93696464  0.68655258  0.94021590  1
  Zn  Zn163  1  0.06086684  0.31227820  0.06250343  1
  Zn  Zn164  1  0.06296828  0.31011261  0.55918308  1
  Zn  Zn165  1  0.06067390  0.81159510  0.05822054  1
  Zn  Zn166  1  0.06463064  0.81321628  0.56048597  1
  Zn  Zn167  1  0.56086390  0.31076829  0.06012416  1
  Zn  Zn168  1  0.56169104  0.31293757  0.56049815  1
  Zn  Zn169  1  0.56148348  0.81399078  0.06579550  1
  Zn  Zn170  1  0.55818939  0.81651131  0.56660940  1
  O  O171  1  0.11897131  0.12461529  0.11631454  1
  O  O172  1  0.12651835  0.11153525  0.62802917  1
  O  O173  1  0.12532948  0.62586566  0.11403335  1
  O  O174  1  0.12006385  0.61840976  0.61886362  1
  O  O175  1  0.61810460  0.12310243  0.12122541  1
  O  O176  1  0.62614836  0.13125899  0.60189640  1
  O  O177  1  0.60921085  0.62959118  0.12507619  1
  O  O178  1  0.61842999  0.61911866  0.62304733  1
  O  O179  1  0.36810243  0.38447720  0.38332826  1
  O  O180  1  0.38103669  0.38237966  0.87526233  1
  O  O181  1  0.37893864  0.87957395  0.38813037  1
  O  O182  1  0.37343236  0.87639011  0.89079654  1
  O  O183  1  0.89412695  0.37743824  0.37218284  1
  O  O184  1  0.87597499  0.38345356  0.88518816  1
  O  O185  1  0.88298438  0.87624708  0.38186478  1
  O  O186  1  0.87811323  0.86503099  0.89178855  1
  O  O187  1  0.25985065  -0.00521565  0.36275204  1
  O  O188  1  0.25168199  0.01037669  0.87360678  1
  O  O189  1  0.25757656  0.50961023  0.36890559  1
  O  O190  1  0.25687692  0.50379851  0.87088894  1
  O  O191  1  0.75566898  0.01266466  0.37189741  1
  O  O192  1  0.75146912  0.01250870  0.88037210  1
  O  O193  1  0.75084166  0.50543644  0.36309278  1
  O  O194  1  0.75788314  0.50702025  0.87405177  1
  O  O195  1  0.25811571  0.48935999  0.13295524  1
  O  O196  1  0.24423641  0.48838045  0.62992546  1
  O  O197  1  0.24955991  1.00158017  0.13827457  1
  O  O198  1  0.24480728  0.98996726  0.62432615  1
  O  O199  1  0.75159533  0.50556043  0.13866282  1
  O  O200  1  0.73828077  0.49730875  0.63164622  1
  O  O201  1  0.74363018  1.00240482  0.13612518  1
  O  O202  1  0.72765182  0.99234595  0.57165357  1
  O  O203  1  0.01397847  0.36841403  0.25638221  1
  O  O204  1  0.00539444  0.36668121  0.75173744  1
  O  O205  1  0.01057409  0.88351132  0.25996923  1
  O  O206  1  0.00236271  0.86237489  0.75028068  1
  O  O207  1  0.51637394  0.38513639  0.24562548  1
  O  O208  1  0.50801346  0.37814488  0.76035632  1
  O  O209  1  0.50419358  0.87059888  0.25854741  1
  O  O210  1  0.51846137  0.87384524  0.75061462  1
  O  O211  1  0.49164810  0.11902580  0.23822481  1
  O  O212  1  0.49203632  0.12601124  0.75182801  1
  O  O213  1  0.49505645  0.62967031  0.24534299  1
  O  O214  1  0.49044340  0.62403163  0.74529853  1
  O  O215  1  1.00524296  0.13220888  0.24584911  1
  O  O216  1  0.99148937  0.13229939  0.74573711  1
  O  O217  1  0.98101606  0.63547937  0.25702136  1
  O  O218  1  0.99854988  0.63555143  0.73759968  1
  O  O219  1  0.36330769  0.24893179  0.00860589  1
  O  O220  1  0.36553087  0.25815143  0.50863998  1
  O  O221  1  0.36417491  0.75555102  0.00105825  1
  O  O222  1  0.37467298  0.76001200  0.49822884  1
  O  O223  1  0.86971041  0.25768252  0.00434400  1
  O  O224  1  0.86635681  0.25713257  0.50822866  1
  O  O225  1  0.86867481  0.75287078  0.01241883  1
  O  O226  1  0.86972051  0.75289772  0.50601373  1
  O  O227  1  0.14180652  0.24936651  0.50641171  1
  O  O228  1  0.13662122  0.24425893  0.99836291  1
  O  O229  1  0.12326125  0.74222443  0.48827710  1
  O  O230  1  0.12857030  0.74112668  0.99485198  1
  O  O231  1  0.62927574  0.25280952  0.48431003  1
  O  O232  1  0.63222590  0.23710756  1.00441765  1
  O  O233  1  0.63108914  0.74896357  0.49908157  1
  O  O234  1  0.63102791  0.74928360  0.99318124  1
  O  O235  1  0.48645983  0.24228909  0.11903148  1
  O  O236  1  0.48717463  0.24893999  0.62203770  1
  O  O237  1  0.49752442  0.74400602  0.13473597  1
  O  O238  1  0.50240726  0.73656908  0.63145278  1
  O  O239  1  0.99026988  0.23655127  0.11652867  1
  O  O240  1  0.99103157  0.24899420  0.63123153  1
  O  O241  1  0.98673841  0.75094045  0.12449333  1
  O  O242  1  0.99211370  0.74417348  0.62891191  1
  O  O243  1  0.00028010  0.25497012  0.37228642  1
  O  O244  1  -0.00009527  0.25108856  0.86229503  1
  O  O245  1  0.00705190  0.76083667  0.38009607  1
  O  O246  1  0.00505018  0.74718839  0.86622922  1
  O  O247  1  0.50714940  0.25808813  0.37135626  1
  O  O248  1  0.49339592  0.26239846  0.88406127  1
  O  O249  1  0.50453813  0.75945973  0.37017824  1
  O  O250  1  0.51470454  0.74167957  0.87747996  1
  O  O251  1  0.25577648  0.13635264  0.50252435  1
  O  O252  1  0.24759457  0.12977783  0.99404261  1
  O  O253  1  0.23873390  0.62032115  0.49460367  1
  O  O254  1  0.24008382  0.62984077  0.99586824  1
  O  O255  1  0.74016682  0.14219553  0.48541590  1
  O  O256  1  0.74440865  0.12769004  0.98966693  1
  O  O257  1  0.74130550  0.63729975  0.49983082  1
  O  O258  1  0.74795180  0.63186202  0.99552120  1
  O  O259  1  0.25062643  0.36727668  0.00661204  1
  O  O260  1  0.25841088  0.37327119  0.50774156  1
  O  O261  1  0.25523455  0.86507593  -0.00076396  1
  O  O262  1  0.26227109  0.87436661  0.51046257  1
  O  O263  1  0.75821035  0.36543208  -0.00533102  1
  O  O264  1  0.74696973  0.36774298  0.50617006  1
  O  O265  1  0.75659284  0.86869789  0.00462012  1
  O  O266  1  0.76294419  0.85849523  0.48860159  1
  O  O267  1  0.14123405  0.48851392  0.25342995  1
  O  O268  1  0.13072255  0.49618678  0.74063635  1
  O  O269  1  0.13650297  0.98638428  0.24490248  1
  O  O270  1  0.12839601  0.99438103  0.73884549  1
  O  O271  1  0.63417698  0.49189997  0.25012109  1
  O  O272  1  0.62994737  0.49495884  0.74471506  1
  O  O273  1  0.62993398  0.99869240  0.25020692  1
  O  O274  1  0.63204503  0.98893283  0.74790388  1
  O  O275  1  0.37053959  0.00303676  0.25632321  1
  O  O276  1  0.37581813  0.00896028  0.75097018  1
  O  O277  1  0.36585358  0.50329494  0.25672298  1
  O  O278  1  0.37013161  0.50572660  0.76114543  1
  O  O279  1  0.86870017  0.00392313  0.25601949  1
  O  O280  1  0.87840892  0.01185980  0.73722957  1
  O  O281  1  0.86450931  0.51212732  0.25252569  1
  O  O282  1  0.86521441  0.50083579  0.75822625  1
  O  O283  1  0.11614223  0.37585377  0.36680878  1
  O  O284  1  0.12362548  0.37265539  0.86532236  1
  O  O285  1  0.12023686  0.86708805  0.36983560  1
  O  O286  1  0.12167694  0.86067388  0.87453341  1
  O  O287  1  0.62456904  0.36937526  0.36897004  1
  O  O288  1  0.61476514  0.37721280  0.86549998  1
  O  O289  1  0.61537804  0.87175816  0.37711489  1
  O  O290  1  0.62555026  0.86192097  0.87750474  1
  O  O291  1  0.38203280  0.13036894  0.13136575  1
  O  O292  1  0.37774717  0.13322703  0.63363674  1
  O  O293  1  0.38350218  0.62924926  0.13318339  1
  O  O294  1  0.38255366  0.61567339  0.63702793  1
  O  O295  1  0.88397137  0.13106798  0.12823289  1
  O  O296  1  0.86997021  0.13677050  0.62946863  1
  O  O297  1  0.87093921  0.63927341  0.13498338  1
  O  O298  1  0.88241463  0.63194216  0.62527479  1
  O  O299  1  0.25899415  0.25425477  0.11767777  1
  O  O300  1  0.25729054  0.26061656  0.62034974  1
  O  O301  1  0.25020491  0.74436226  0.11376013  1
  O  O302  1  0.24651147  0.76098708  0.62603926  1
  O  O303  1  0.76049640  0.23753510  0.10730377  1
  O  O304  1  0.75449489  0.25566717  0.61600667  1
  O  O305  1  0.74950182  0.75195860  0.11450642  1
  O  O306  1  0.76230876  0.74475859  0.61973292  1
  O  O307  1  0.25385762  0.25037969  0.39020347  1
  O  O308  1  0.25130775  0.23971823  0.88304033  1
  O  O309  1  0.24462191  0.73532091  0.37267048  1
  O  O310  1  0.24064530  0.74338829  0.88384331  1
  O  O311  1  0.75097160  0.25105982  0.37937072  1
  O  O312  1  0.75514756  0.23855508  0.88791655  1
  O  O313  1  0.73880371  0.74703245  0.38236364  1
  O  O314  1  0.74288962  0.74291370  0.88754111  1
  O  O315  1  0.00327124  0.12013415  0.00307401  1
  O  O316  1  -0.00740215  0.11025699  0.50224280  1
  O  O317  1  0.01347199  0.62176984  -0.00093091  1
  O  O318  1  0.01097962  0.62808559  0.51073198  1
  O  O319  1  0.50815760  0.12003463  0.00983673  1
  O  O320  1  0.51102621  0.14277504  0.49639827  1
  O  O321  1  0.49975097  0.61695356  0.00802212  1
  O  O322  1  0.50432146  0.62214063  0.51013781  1
  O  O323  1  0.48313453  0.37850389  0.50627732  1
  O  O324  1  0.49682767  0.38217802  0.99409031  1
  O  O325  1  0.48650820  0.87143542  0.49484842  1
  O  O326  1  0.49477104  0.88564676  1.00412502  1
  O  O327  1  1.00494821  0.37609521  0.48405479  1
  O  O328  1  0.99275673  0.38079677  0.99830509  1
  O  O329  1  0.99397896  0.88158068  0.49283096  1
  O  O330  1  0.99320254  0.88437207  0.99892913  1
  O  O331  1  0.48544884  0.50725934  0.37590654  1
  O  O332  1  0.49248927  0.49489013  0.88229477  1
  O  O333  1  0.48749211  0.98746599  0.36739660  1
  O  O334  1  0.50215410  1.00799982  0.89049938  1
  O  O335  1  1.00240144  0.48953705  0.36114216  1
  O  O336  1  0.98515036  0.50318344  0.86803971  1
  O  O337  1  0.99341125  0.98899468  0.38209435  1
  O  O338  1  1.00351256  1.00048055  0.88605924  1
  O  O339  1  0.00242389  0.01364289  0.11730157  1
  O  O340  1  0.01233751  -0.00152981  0.61492081  1
  O  O341  1  0.00264293  0.49882187  0.14423061  1
  O  O342  1  0.00875570  0.50923247  0.63197052  1
  O  O343  1  0.50656922  0.00902517  0.11805628  1
  O  O344  1  0.51448831  0.00644661  0.62008859  1
  O  O345  1  0.49048699  0.50861953  0.11292603  1
  O  O346  1  0.51081576  0.50688803  0.62700307  1
  O  O347  1  0.24346336  0.37964374  0.24395588  1
  O  O348  1  0.24390829  0.37797112  0.74272702  1
  O  O349  1  0.24136766  0.87808690  0.25288681  1
  O  O350  1  0.25210758  0.87480245  0.73651569  1
  O  O351  1  0.74255989  0.39146230  0.25049717  1
  O  O352  1  0.74268879  0.37961178  0.74693367  1
  O  O353  1  0.74247844  0.88431491  0.25308790  1
  O  O354  1  0.72992238  0.86619439  0.75893932  1
  O  O355  1  0.26460531  0.11418200  0.24807666  1
  O  O356  1  0.25896236  0.12368979  0.75812700  1
  O  O357  1  0.25385648  0.61687052  0.25610329  1
  O  O358  1  0.25587289  0.61830933  0.75573359  1
  O  O359  1  0.74743185  0.12460122  0.25994066  1
  O  O360  1  0.75505179  0.12773651  0.76136752  1
  O  O361  1  0.75345750  0.61647530  0.25165186  1
  O  O362  1  0.75071620  0.61930576  0.75972129  1
  O  O363  1  0.38324840  0.11506205  0.36642871  1
  O  O364  1  0.36915443  0.12225042  0.86849026  1
  O  O365  1  0.36792445  0.61982532  0.37067143  1
  O  O366  1  0.36889316  0.61718115  0.87058850  1
  O  O367  1  0.86604766  0.12371844  0.37170046  1
  O  O368  1  0.86296600  0.12519218  0.86461439  1
  O  O369  1  0.86930003  0.62993833  0.36253798  1
  O  O370  1  0.86375742  0.61998131  0.87604196  1
  O  O371  1  0.13765763  0.36605833  0.13250900  1
  O  O372  1  0.12978928  0.38112575  0.62896233  1
  O  O373  1  0.11990098  0.87052892  0.13703591  1
  O  O374  1  0.13917415  0.87903556  0.62277720  1
  O  O375  1  0.62574564  0.36837300  0.13567388  1
  O  O376  1  0.62734894  0.38247424  0.63103307  1
  O  O377  1  0.62605666  0.88477514  0.13498017  1
  O  O378  1  0.63027930  0.86989190  0.63695261  1
  O  O379  1  0.13095008  0.25389252  0.25071578  1
  O  O380  1  0.11573521  0.25497363  0.74718051  1
  O  O381  1  0.12770159  0.75439328  0.26395023  1
  O  O382  1  0.11705274  0.74963551  0.75790381  1
  O  O383  1  0.63059323  0.26761901  0.25986343  1
  O  O384  1  0.62823828  0.26092725  0.74336995  1
  O  O385  1  0.62002297  0.75763129  0.25807891  1
  O  O386  1  0.62235970  0.75243759  0.76611516  1
  O  O387  1  0.36912438  0.23962256  0.24216211  1
  O  O388  1  0.36962280  0.24085817  0.73990883  1
  O  O389  1  0.38155639  0.74481885  0.25199160  1
  O  O390  1  0.37596623  0.73699889  0.75997486  1
  O  O391  1  0.86709566  0.25165047  0.23360265  1
  O  O392  1  0.88017161  0.24540496  0.74321202  1
  O  O393  1  0.86442796  0.74356110  0.23702205  1
  O  O394  1  0.88032635  0.74896862  0.74257136  1
  O  O395  1  0.37411770  0.49309494  0.49176826  1
  O  O396  1  0.37943780  0.49941007  0.98809536  1
  O  O397  1  0.37077003  0.99416917  0.48961814  1
  O  O398  1  0.38445587  0.99404124  0.99921801  1
  O  O399  1  0.87172130  0.49711001  0.49480405  1
  O  O400  1  0.87902955  0.49435636  0.99624690  1
  O  O401  1  0.88159841  0.99104245  0.49369183  1
  O  O402  1  0.88314827  0.98990454  1.00801146  1
  O  O403  1  0.11754138  0.00487438  0.00208732  1
  O  O404  1  0.11783147  -0.00602494  0.50530884  1
  O  O405  1  0.12261582  0.51376191  -0.00265742  1
  O  O406  1  0.12977567  0.50546459  0.51170340  1
  O  O407  1  0.62064013  0.00911177  0.00734926  1
  O  O408  1  0.61101182  0.02976336  0.46465323  1
  O  O409  1  0.61296814  0.50147186  -0.00435446  1
  O  O410  1  0.62355839  0.50558491  0.50939390  1
  O  O411  1  0.36487741  0.36571951  0.12501755  1
  O  O412  1  0.36749357  0.37060100  0.62250023  1
  O  O413  1  0.37930369  0.87274724  0.11021981  1
  O  O414  1  0.36769968  0.87691719  0.61395603  1
  O  O415  1  0.87476539  0.36533788  0.11328379  1
  O  O416  1  0.86777495  0.36578043  0.62635259  1
  O  O417  1  0.87328387  0.86370076  0.11967193  1
  O  O418  1  0.88063327  0.86607791  0.61145254  1
  O  O419  1  0.11067674  0.13538646  0.36199443  1
  O  O420  1  0.13393244  0.12774165  0.87932291  1
  O  O421  1  0.13196172  0.63082162  0.38375155  1
  O  O422  1  0.12876542  0.63363007  0.87952874  1
  O  O423  1  0.62876910  0.14842014  0.37314246  1
  O  O424  1  0.63750065  0.12303784  0.88205636  1
  O  O425  1  0.61992461  0.63492193  0.38534406  1
  O  O426  1  0.63585456  0.63088052  0.87789709  1
