# generated using pymatgen
data_V85Zn86O256
_symmetry_space_group_name_H-M   'P 1'
_cell_length_a   16.92432106
_cell_length_b   16.91839204
_cell_length_c   16.91877279
_cell_angle_alpha   90.02920555
_cell_angle_beta   90.02538839
_cell_angle_gamma   89.97348840
_symmetry_Int_Tables_number   1
_chemical_formula_structural   V85Zn86O256
_chemical_formula_sum   'V85 Zn86 O256'
_cell_volume   4844.38948191
_cell_formula_units_Z   1
loop_
 _symmetry_equiv_pos_site_id
 _symmetry_equiv_pos_as_xyz
  1  'x, y, z'
loop_
 _atom_site_type_symbol
 _atom_site_label
 _atom_site_symmetry_multiplicity
 _atom_site_fract_x
 _atom_site_fract_y
 _atom_site_fract_z
 _atom_site_occupancy
  V  V0  1  -0.01140673  0.25118752  0.74909060  1
  V  V1  1  -0.05991505  0.32641948  0.43627874  1
  V  V2  1  0.87376828  0.00230989  0.87448608  1
  V  V3  1  0.49271216  0.50330851  0.50226147  1
  V  V4  1  0.76005969  0.36809435  0.62225057  1
  V  V5  1  0.50252342  0.00799408  0.49619568  1
  V  V6  1  0.37686360  0.87509981  -0.00186047  1
  V  V7  1  0.49891301  0.61678007  0.11676986  1
  V  V8  1  0.61929322  0.62413762  0.50622187  1
  V  V9  1  0.50583502  0.87473294  0.87198287  1
  V  V10  1  0.50461786  0.13159088  0.62543274  1
  V  V11  1  0.12488368  0.00121703  0.62086648  1
  V  V12  1  0.37141173  0.62692554  0.75046787  1
  V  V13  1  -0.00028382  0.87087843  0.87433269  1
  V  V14  1  0.24975901  0.25194023  0.00125540  1
  V  V15  1  0.12068708  0.50892779  0.62695979  1
  V  V16  1  0.12639973  0.87344084  0.25184027  1
  V  V17  1  0.62871015  0.49410780  0.11804674  1
  V  V18  1  0.63172569  -0.00386547  0.12154951  1
  V  V19  1  0.37574440  0.25033779  0.12629191  1
  V  V20  1  0.86061828  0.25415399  0.12193749  1
  V  V21  1  0.62507685  0.74863468  0.37547870  1
  V  V22  1  0.87294666  0.86995408  0.01246068  1
  V  V23  1  0.37823412  0.50654147  0.87877995  1
  V  V24  1  0.13783168  0.74806450  0.37859154  1
  V  V25  1  0.12422183  0.37529570  0.75257240  1
  V  V26  1  0.24880949  0.50445312  0.75520629  1
  V  V27  1  0.87731179  0.12179737  0.25146860  1
  V  V28  1  0.86372454  0.75261047  0.62616748  1
  V  V29  1  0.13984926  0.62979403  0.49890744  1
  V  V30  1  0.24797216  0.74234313  -0.00784659  1
  V  V31  1  0.37971386  0.38033584  0.00050029  1
  V  V32  1  0.75010640  0.62152901  0.37872725  1
  V  V33  1  0.37885856  0.00034404  0.87350095  1
  V  V34  1  0.87451900  0.61070966  0.74674070  1
  V  V35  1  0.62626920  0.24808516  0.87950913  1
  V  V36  1  0.25152838  0.12418227  0.87478447  1
  V  V37  1  0.62439412  0.36869116  0.74553237  1
  V  V38  1  0.75667439  -0.00422007  0.25041613  1
  V  V39  1  0.25083763  0.87355703  0.12390185  1
  V  V40  1  0.37216578  0.62157835  0.26173177  1
  V  V41  1  0.62501579  0.49938457  0.63043636  1
  V  V42  1  0.12347866  0.37735879  0.25685917  1
  V  V43  1  0.37408934  0.11597713  0.25332304  1
  V  V44  1  0.85927169  0.37549565  -0.00161375  1
  V  V45  1  0.12497195  0.12584036  0.00013705  1
  V  V46  1  0.36715978  0.36988898  0.49611836  1
  V  V47  1  0.75002136  -0.00445299  0.74664307  1
  V  V48  1  0.37559985  0.74703165  0.12421712  1
  V  V49  1  0.12476766  0.87352567  0.74826731  1
  V  V50  1  -0.00478758  0.49600237  -0.00659050  1
  V  V51  1  0.12772884  0.00156266  0.12634345  1
  V  V52  1  -0.00595502  0.12740228  0.62551099  1
  V  V53  1  0.25159723  0.12592387  0.38479722  1
  V  V54  1  0.49577749  0.37152735  0.86555713  1
  V  V55  1  0.25110933  0.50456486  0.26384711  1
  V  V56  1  0.75393250  0.60924609  0.87101554  1
  V  V57  1  0.87418242  0.62653111  0.25024118  1
  V  V58  1  0.12472149  0.49990143  0.12535226  1
  V  V59  1  0.12214548  0.25136074  0.87566628  1
  V  V60  1  0.50229078  0.12396962  0.12333851  1
  V  V61  1  0.49737851  0.38172037  0.37380359  1
  V  V62  1  0.50234354  0.74340959  0.74446340  1
  V  V63  1  0.25116412  0.86919542  0.61883829  1
  V  V64  1  0.49797667  0.88226685  0.37151255  1
  V  V65  1  -0.00095965  0.25766848  0.24689248  1
  V  V66  1  0.62396372  0.24793943  0.38470486  1
  V  V67  1  -0.00141235  0.88156810  0.37696549  1
  V  V68  1  0.37386275  0.87812585  0.49459042  1
  V  V69  1  0.63069410  0.37564164  0.24973870  1
  V  V70  1  0.63163339  0.74767982  0.87379198  1
  V  V71  1  -0.00431088  0.74733740  0.74196474  1
  V  V72  1  -0.00519231  0.62679710  0.12260517  1
  V  V73  1  0.75358169  0.74899045  0.01047872  1
  V  V74  1  0.50056452  0.74774411  0.24773976  1
  V  V75  1  0.63278233  0.87149207  0.24420545  1
  V  V76  1  0.74782115  0.12203676  0.38055352  1
  V  V77  1  0.00119147  -0.00127351  -0.00088285  1
  V  V78  1  0.62852376  -0.00181961  0.61986219  1
  V  V79  1  0.38054516  0.13526535  0.74990910  1
  V  V80  1  0.37738938  0.74483598  0.61809840  1
  V  V81  1  0.25296994  -0.00089411  0.74933641  1
  V  V82  1  0.86712040  0.88137621  0.49966488  1
  V  V83  1  -0.00126502  0.74881128  0.24957403  1
  V  V84  1  -0.00910129  0.51847159  0.49991712  1
  Zn  Zn85  1  0.00140402  -0.00124207  0.49893612  1
  Zn  Zn86  1  0.25438802  -0.00254414  0.25595871  1
  Zn  Zn87  1  0.75848182  0.24931453  0.50330032  1
  Zn  Zn88  1  0.24803395  0.37073299  0.62230961  1
  Zn  Zn89  1  0.87662465  0.49720853  0.37686949  1
  Zn  Zn90  1  0.74528490  0.75359734  0.50475954  1
  Zn  Zn91  1  0.36973605  0.24870175  0.62106445  1
  Zn  Zn92  1  0.63787540  0.13841513  0.01024956  1
  Zn  Zn93  1  0.50630379  0.00172022  -0.00334631  1
  Zn  Zn94  1  0.13217099  0.25605002  0.38185395  1
  Zn  Zn95  1  0.75354576  0.49754239  0.24680040  1
  Zn  Zn96  1  0.00096836  0.12764924  0.12585445  1
  Zn  Zn97  1  0.86877125  0.12919354  0.74640100  1
  Zn  Zn98  1  0.63361882  0.87017990  0.74177251  1
  Zn  Zn99  1  0.50158234  0.25110061  0.25053364  1
  Zn  Zn100  1  0.25095676  0.37748445  0.12745233  1
  Zn  Zn101  1  0.75158894  0.12859610  0.87862650  1
  Zn  Zn102  1  0.12968406  0.74215724  0.86809869  1
  Zn  Zn103  1  0.12506472  0.62036551  -0.00645241  1
  Zn  Zn104  1  0.62250630  0.62003868  -0.00424419  1
  Zn  Zn105  1  0.13079407  0.14160215  0.50777565  1
  Zn  Zn106  1  -0.00976753  0.37744911  0.87445761  1
  Zn  Zn107  1  0.18947353  0.18926587  0.19261885  1
  Zn  Zn108  1  0.18808679  0.18999783  0.68665783  1
  Zn  Zn109  1  0.18610278  0.68536511  0.18540422  1
  Zn  Zn110  1  0.18869043  0.68815660  0.68582484  1
  Zn  Zn111  1  0.68625087  0.18565556  0.19525222  1
  Zn  Zn112  1  0.68640558  0.18716583  0.69073754  1
  Zn  Zn113  1  0.68617377  0.67982466  0.18768913  1
  Zn  Zn114  1  0.69003697  0.68265983  0.68842073  1
  Zn  Zn115  1  0.31246366  0.31252339  0.31273348  1
  Zn  Zn116  1  0.30906569  0.31437068  0.81105729  1
  Zn  Zn117  1  0.31514629  0.81179286  0.31086109  1
  Zn  Zn118  1  0.31532709  0.81356867  0.81003954  1
  Zn  Zn119  1  0.80587861  0.30711541  0.30786855  1
  Zn  Zn120  1  0.80547308  0.32033030  0.81135316  1
  Zn  Zn121  1  0.81379994  0.80867697  0.31585070  1
  Zn  Zn122  1  0.81336471  0.81415307  0.81562915  1
  Zn  Zn123  1  0.18208744  0.44203567  0.43858194  1
  Zn  Zn124  1  0.18958218  0.43967709  0.93699852  1
  Zn  Zn125  1  0.19115192  0.94115569  0.43563884  1
  Zn  Zn126  1  0.18764754  0.93366935  0.93646901  1
  Zn  Zn127  1  0.68704475  0.43690105  0.44159788  1
  Zn  Zn128  1  0.68195448  0.43370103  0.93778815  1
  Zn  Zn129  1  0.68503794  0.93980498  0.43373611  1
  Zn  Zn130  1  0.69293494  0.93537846  0.93744769  1
  Zn  Zn131  1  0.31425527  0.06195206  0.06157815  1
  Zn  Zn132  1  0.31698039  0.05931654  0.56307602  1
  Zn  Zn133  1  0.31234303  0.56159380  0.06766162  1
  Zn  Zn134  1  0.31215735  0.55855577  0.56636070  1
  Zn  Zn135  1  0.81243413  0.06469086  0.06287484  1
  Zn  Zn136  1  0.81274471  0.06050339  0.56279815  1
  Zn  Zn137  1  0.81142902  0.56277177  0.06064026  1
  Zn  Zn138  1  0.80494577  0.56164117  0.56865526  1
  Zn  Zn139  1  0.43874725  0.43982426  0.19004148  1
  Zn  Zn140  1  0.43813640  0.43863987  0.68288124  1
  Zn  Zn141  1  0.44236989  0.93683208  0.18391481  1
  Zn  Zn142  1  0.44065627  0.93807840  0.68497055  1
  Zn  Zn143  1  0.93532890  0.43842560  0.18511024  1
  Zn  Zn144  1  0.94193980  0.43630910  0.68036929  1
  Zn  Zn145  1  0.94143278  0.93842213  0.18837975  1
  Zn  Zn146  1  0.93484085  0.93698079  0.68511673  1
  Zn  Zn147  1  0.06884805  0.06600663  0.31357967  1
  Zn  Zn148  1  0.06181887  0.06268673  0.80943690  1
  Zn  Zn149  1  0.06251538  0.56240575  0.31875538  1
  Zn  Zn150  1  0.05935391  0.56720227  0.81555888  1
  Zn  Zn151  1  0.56572349  0.06254984  0.30828511  1
  Zn  Zn152  1  0.56590578  0.06343481  0.80768242  1
  Zn  Zn153  1  0.56199985  0.56070281  0.31049093  1
  Zn  Zn154  1  0.56005827  0.55987253  0.81076356  1
  Zn  Zn155  1  0.43660671  0.19010592  0.43359918  1
  Zn  Zn156  1  0.44328731  0.18976176  0.93898730  1
  Zn  Zn157  1  0.43965927  0.69137079  0.43768110  1
  Zn  Zn158  1  0.43815478  0.68829260  0.93487776  1
  Zn  Zn159  1  0.94042533  0.16524729  0.43503189  1
  Zn  Zn160  1  0.93661335  0.18954359  0.93994298  1
  Zn  Zn161  1  0.93795311  0.69338380  0.43686654  1
  Zn  Zn162  1  0.93488591  0.68556762  0.93373613  1
  Zn  Zn163  1  0.05885502  0.31581119  0.06575835  1
  Zn  Zn164  1  0.06665930  0.31433379  0.56935442  1
  Zn  Zn165  1  0.06271401  0.81078808  0.06366765  1
  Zn  Zn166  1  0.05901684  0.80903297  0.56235908  1
  Zn  Zn167  1  0.55851055  0.31679869  0.05985007  1
  Zn  Zn168  1  0.55907983  0.31404060  0.56088743  1
  Zn  Zn169  1  0.56552180  0.80854071  0.06003990  1
  Zn  Zn170  1  0.56076515  0.81608848  0.56130759  1
  O  O171  1  0.12700325  0.11752617  0.11985392  1
  O  O172  1  0.11870948  0.11588795  0.62770133  1
  O  O173  1  0.11264774  0.61811853  0.12048497  1
  O  O174  1  0.12801900  0.61854595  0.61547223  1
  O  O175  1  0.61917774  0.11695736  0.12789277  1
  O  O176  1  0.61502309  0.11385496  0.63088778  1
  O  O177  1  0.61553751  0.61274709  0.12377719  1
  O  O178  1  0.62949256  0.61552649  0.61717330  1
  O  O179  1  0.38305792  0.37382373  0.38368622  1
  O  O180  1  0.37909319  0.38059148  0.87959378  1
  O  O181  1  0.38587363  0.87072569  0.38078110  1
  O  O182  1  0.38474718  0.87969297  0.87789423  1
  O  O183  1  0.87294198  0.37712861  0.37624307  1
  O  O184  1  0.87249134  0.36812846  0.89332617  1
  O  O185  1  0.88540888  0.86534852  0.38878136  1
  O  O186  1  0.88343716  0.88485036  0.88138894  1
  O  O187  1  0.24838808  0.01635176  0.37080747  1
  O  O188  1  0.25665548  0.00366237  0.87050868  1
  O  O189  1  0.24341441  0.50462063  0.36283029  1
  O  O190  1  0.26046791  0.49729123  0.86284026  1
  O  O191  1  0.74302657  0.00759918  0.36039857  1
  O  O192  1  0.75986500  -0.00066590  0.86793097  1
  O  O193  1  0.75092570  0.51114875  0.37597835  1
  O  O194  1  0.74557250  0.51096571  0.87741467  1
  O  O195  1  0.23479333  0.50036558  0.12892384  1
  O  O196  1  0.24153855  0.49743254  0.63803969  1
  O  O197  1  0.24039668  0.99299174  0.12194411  1
  O  O198  1  0.24572024  0.99069793  0.63030394  1
  O  O199  1  0.73258425  0.50768209  0.12769804  1
  O  O200  1  0.73351723  0.48637900  0.61963598  1
  O  O201  1  0.74392263  1.00249741  0.13853693  1
  O  O202  1  0.74086350  1.00555850  0.63180086  1
  O  O203  1  0.00515003  0.36593129  0.24664585  1
  O  O204  1  0.00492607  0.36947900  0.75262138  1
  O  O205  1  0.00485508  0.86703806  0.25592573  1
  O  O206  1  0.00331070  0.86883859  0.75564728  1
  O  O207  1  0.50728937  0.37535474  0.25865397  1
  O  O208  1  0.50191079  0.37724504  0.75910352  1
  O  O209  1  0.50685325  0.87000187  0.25514267  1
  O  O210  1  0.49935714  0.86426211  0.75992713  1
  O  O211  1  0.49345812  0.12662697  0.23977736  1
  O  O212  1  0.49075253  0.11806942  0.73873333  1
  O  O213  1  0.49386154  0.62948101  0.24160802  1
  O  O214  1  0.48998316  0.63638807  0.75288090  1
  O  O215  1  0.99464632  0.13693542  0.25304787  1
  O  O216  1  0.99857108  0.13402536  0.74413443  1
  O  O217  1  0.99538636  0.63030570  0.24675033  1
  O  O218  1  0.98278216  0.63385823  0.75608209  1
  O  O219  1  0.37139725  0.25502990  0.00952067  1
  O  O220  1  0.37637276  0.26661791  0.49793839  1
  O  O221  1  0.36638528  0.75468690  0.00303006  1
  O  O222  1  0.38396892  0.76279273  0.50853143  1
  O  O223  1  0.87850830  0.25948187  0.01383855  1
  O  O224  1  0.88529731  0.25836844  0.48924778  1
  O  O225  1  0.86646212  0.75784504  -0.00674285  1
  O  O226  1  0.87276835  0.75637066  0.50997142  1
  O  O227  1  0.12049504  0.25452257  0.49438398  1
  O  O228  1  0.12840060  0.24722767  0.99609231  1
  O  O229  1  0.12233057  0.73746506  0.49610564  1
  O  O230  1  0.14000453  0.75216613  0.99981477  1
  O  O231  1  0.62457608  0.25176282  0.48694966  1
  O  O232  1  0.62115101  0.25520834  0.98522799  1
  O  O233  1  0.62337390  0.74325020  0.49568954  1
  O  O234  1  0.63371451  0.74541996  0.99000075  1
  O  O235  1  0.49363422  0.24278704  0.12562110  1
  O  O236  1  0.49516312  0.23478520  0.61636668  1
  O  O237  1  0.49619012  0.74284498  0.12994163  1
  O  O238  1  0.49107808  0.75697669  0.63436646  1
  O  O239  1  0.99329468  0.24713997  0.13438122  1
  O  O240  1  1.00550627  0.24119931  0.63833743  1
  O  O241  1  1.00719597  0.74153118  0.13919856  1
  O  O242  1  0.98835904  0.75338530  0.63689805  1
  O  O243  1  -0.00666550  0.25937082  0.37228828  1
  O  O244  1  0.00780609  0.25136913  0.86893699  1
  O  O245  1  0.00946195  0.75737909  0.36508889  1
  O  O246  1  -0.00375090  0.76074668  0.86486096  1
  O  O247  1  0.50659254  0.26043858  0.37245562  1
  O  O248  1  0.50803363  0.26102430  0.87574797  1
  O  O249  1  0.50721196  0.76009949  0.36757707  1
  O  O250  1  0.51223326  0.75360533  0.86852789  1
  O  O251  1  0.25357149  0.12149304  0.48917941  1
  O  O252  1  0.24566851  0.13081850  0.99397648  1
  O  O253  1  0.23871255  0.62172502  0.50179526  1
  O  O254  1  0.25058087  0.64031296  1.00654087  1
  O  O255  1  0.76082885  0.12733389  0.48467645  1
  O  O256  1  0.74729768  0.11960965  0.99211249  1
  O  O257  1  0.73760240  0.62669871  0.49487182  1
  O  O258  1  0.75180985  0.63032181  0.98538707  1
  O  O259  1  0.26047572  0.36889067  0.00105928  1
  O  O260  1  0.26502572  0.38893730  0.49884156  1
  O  O261  1  0.25651215  0.86764942  0.00590180  1
  O  O262  1  0.25993740  0.87975346  0.50729470  1
  O  O263  1  0.76019217  0.37815413  0.00255644  1
  O  O264  1  0.74510472  0.37005793  0.51541006  1
  O  O265  1  0.76122407  0.86318821  -0.00317611  1
  O  O266  1  0.76326375  0.87343292  0.49038077  1
  O  O267  1  0.12750551  0.49704145  0.24481505  1
  O  O268  1  0.12824077  0.49916109  0.74596337  1
  O  O269  1  0.12686555  0.99319470  0.24074743  1
  O  O270  1  0.13142207  0.99335212  0.74132310  1
  O  O271  1  0.62620525  0.49275509  0.24078393  1
  O  O272  1  0.61645912  0.48810223  0.74075899  1
  O  O273  1  0.63198376  0.99035363  0.24007298  1
  O  O274  1  0.63350183  0.99586925  0.74253407  1
  O  O275  1  0.37565714  0.01242769  0.24053809  1
  O  O276  1  0.37148920  0.00480893  0.75572703  1
  O  O277  1  0.36368297  0.50893464  0.24415700  1
  O  O278  1  0.36851850  0.50832693  0.75259546  1
  O  O279  1  0.86966773  0.00830947  0.24373492  1
  O  O280  1  0.86960720  0.00086666  0.75732222  1
  O  O281  1  0.87529221  0.51121615  0.25386031  1
  O  O282  1  0.88105072  0.51221100  0.74506430  1
  O  O283  1  0.12652797  0.37744184  0.36128226  1
  O  O284  1  0.12229299  0.37283484  0.86550407  1
  O  O285  1  0.12042474  0.86864384  0.37134327  1
  O  O286  1  0.11695183  0.87020637  0.86716332  1
  O  O287  1  0.61886695  0.36930350  0.36909385  1
  O  O288  1  0.61552692  0.37030389  0.86799497  1
  O  O289  1  0.61858594  0.86924580  0.36405073  1
  O  O290  1  0.62038769  0.86617315  0.87147110  1
  O  O291  1  0.38202823  0.13159345  0.12803150  1
  O  O292  1  0.38207713  0.12413912  0.63430648  1
  O  O293  1  0.38304092  0.62932618  0.13030921  1
  O  O294  1  0.37085132  0.63836715  0.63012843  1
  O  O295  1  0.87826894  0.13515866  0.13402243  1
  O  O296  1  0.88945078  0.12033216  0.62653211  1
  O  O297  1  0.88672471  0.62003595  0.13324728  1
  O  O298  1  0.86499728  0.63319820  0.64034271  1
  O  O299  1  0.25826244  0.25221987  0.11963201  1
  O  O300  1  0.25591197  0.25738992  0.63250410  1
  O  O301  1  0.25486812  0.75601727  0.11682973  1
  O  O302  1  0.25942268  0.76270721  0.62924172  1
  O  O303  1  0.76210484  0.24633294  0.13005606  1
  O  O304  1  0.74578115  0.26074913  0.62232913  1
  O  O305  1  0.74533739  0.73918963  0.10967293  1
  O  O306  1  0.75876572  0.75264290  0.62586981  1
  O  O307  1  0.24993053  0.23235216  0.36581031  1
  O  O308  1  0.24283504  0.24452946  0.88048585  1
  O  O309  1  0.23724503  0.75509114  0.37231278  1
  O  O310  1  0.25168731  0.75746324  0.88892069  1
  O  O311  1  0.74198075  0.24166736  0.37776791  1
  O  O312  1  0.73036347  0.25166786  0.86925804  1
  O  O313  1  0.74216929  0.73804966  0.37789301  1
  O  O314  1  0.74027692  0.74454392  0.87680878  1
  O  O315  1  0.00792569  0.11747635  0.00167577  1
  O  O316  1  0.00750768  0.11695211  0.50984212  1
  O  O317  1  -0.00487601  0.61810184  0.00788972  1
  O  O318  1  0.00707052  0.62054780  0.50102717  1
  O  O319  1  0.50631810  0.12323520  0.01280560  1
  O  O320  1  0.49099584  0.11299693  0.50338635  1
  O  O321  1  0.50124640  0.63124600  0.01240878  1
  O  O322  1  0.51053237  0.61855792  0.49377515  1
  O  O323  1  0.49138233  0.38310167  0.49249587  1
  O  O324  1  0.48501221  0.37378818  0.98876904  1
  O  O325  1  0.49556292  0.88376922  0.48912937  1
  O  O326  1  0.49648993  0.87195879  0.98677119  1
  O  O327  1  0.99524166  0.38429949  0.50066103  1
  O  O328  1  0.99136782  0.38225356  0.99972956  1
  O  O329  1  0.99312104  0.87498275  0.49234767  1
  O  O330  1  0.99706939  0.87680268  0.99145831  1
  O  O331  1  0.50661743  0.48867896  0.38367748  1
  O  O332  1  0.48536570  0.49222797  0.87162320  1
  O  O333  1  0.50738527  0.99058301  0.37881357  1
  O  O334  1  0.50008829  0.99050123  0.87505543  1
  O  O335  1  0.99823134  0.50229920  0.39452752  1
  O  O336  1  0.99914766  0.49896684  0.89006508  1
  O  O337  1  1.00763747  0.98565647  0.37386473  1
  O  O338  1  0.99679813  0.98877969  0.87699935  1
  O  O339  1  0.01363090  0.00222816  0.11998272  1
  O  O340  1  0.00997411  0.00649014  0.62811727  1
  O  O341  1  0.00843259  0.50638265  0.11976461  1
  O  O342  1  0.00920091  0.49947171  0.61168318  1
  O  O343  1  0.51094590  0.00707815  0.12241963  1
  O  O344  1  0.50556290  0.00720633  0.61520905  1
  O  O345  1  0.50978559  0.50840645  0.12888067  1
  O  O346  1  0.51162395  0.49724536  0.61422349  1
  O  O347  1  0.24364663  0.38446967  0.24780577  1
  O  O348  1  0.24034038  0.38581318  0.75128552  1
  O  O349  1  0.24676821  0.87711950  0.24107659  1
  O  O350  1  0.24608109  0.87972155  0.74250771  1
  O  O351  1  0.73578906  0.37910276  0.25310674  1
  O  O352  1  0.73752833  0.37433205  0.73627656  1
  O  O353  1  0.74356890  0.87990379  0.25594449  1
  O  O354  1  0.75113584  0.88898848  0.75351582  1
  O  O355  1  0.25947519  0.12056856  0.25387274  1
  O  O356  1  0.25776301  0.11754056  0.75717023  1
  O  O357  1  0.25969787  0.61768670  0.24290191  1
  O  O358  1  0.26221961  0.62109546  0.74737004  1
  O  O359  1  0.75849280  0.11690637  0.25660176  1
  O  O360  1  0.75173088  0.11456155  0.75766130  1
  O  O361  1  0.75831900  0.62361787  0.25863112  1
  O  O362  1  0.75986718  0.62476869  0.76163807  1
  O  O363  1  0.36713452  0.12861589  0.36409441  1
  O  O364  1  0.37427520  0.11961917  0.87038085  1
  O  O365  1  0.38013406  0.63171429  0.36089307  1
  O  O366  1  0.37804685  0.61822384  0.86592218  1
  O  O367  1  0.86610331  0.12711487  0.35902459  1
  O  O368  1  0.88059467  0.11086463  0.87475959  1
  O  O369  1  0.86664261  0.62552585  0.37042119  1
  O  O370  1  0.86203112  0.62642487  0.86286679  1
  O  O371  1  0.12536155  0.38311796  0.13667766  1
  O  O372  1  0.12463394  0.38871169  0.63875293  1
  O  O373  1  0.13020485  0.88113190  0.13061110  1
  O  O374  1  0.13222525  0.87836880  0.62796067  1
  O  O375  1  0.61601016  0.38701543  0.13186763  1
  O  O376  1  0.62337581  0.37861261  0.63181064  1
  O  O377  1  0.62008549  0.87904233  0.13662503  1
  O  O378  1  0.61842354  0.89105991  0.62635353  1
  O  O379  1  0.11607564  0.25847111  0.25342961  1
  O  O380  1  0.11848478  0.25981950  0.75719072  1
  O  O381  1  0.12041586  0.75386215  0.25703279  1
  O  O382  1  0.11531536  0.75508339  0.74710537  1
  O  O383  1  0.62247434  0.25971010  0.25699200  1
  O  O384  1  0.62075353  0.26147506  0.75876901  1
  O  O385  1  0.62198453  0.75467233  0.25318200  1
  O  O386  1  0.61895419  0.74968278  0.75356717  1
  O  O387  1  0.37625147  0.24391127  0.23682555  1
  O  O388  1  0.37472559  0.23756328  0.75428913  1
  O  O389  1  0.38025980  0.74383540  0.24159361  1
  O  O390  1  0.38133912  0.74392880  0.74411076  1
  O  O391  1  0.88008368  0.24646294  0.24019974  1
  O  O392  1  0.88524710  0.25028091  0.75956320  1
  O  O393  1  0.88443694  0.73741123  0.25460771  1
  O  O394  1  0.87858125  0.74899928  0.74343723  1
  O  O395  1  0.38754165  0.49631990  0.50460624  1
  O  O396  1  0.36645287  0.49317404  0.99130871  1
  O  O397  1  0.38613622  0.98579047  0.50442131  1
  O  O398  1  0.37973998  0.99310519  0.99263531  1
  O  O399  1  0.88727385  0.51164706  0.50276463  1
  O  O400  1  0.88101729  0.48377026  1.01219424  1
  O  O401  1  0.87897968  0.98498782  0.50184719  1
  O  O402  1  0.88314247  0.99206884  0.99483587  1
  O  O403  1  0.12102301  0.00293096  0.00557522  1
  O  O404  1  0.12613605  -0.00121414  0.51451251  1
  O  O405  1  0.11712257  0.49758400  0.00860098  1
  O  O406  1  0.11826950  0.51222280  0.50695248  1
  O  O407  1  0.62723186  -0.00668710  0.01398229  1
  O  O408  1  0.61549406  -0.00212707  0.50552165  1
  O  O409  1  0.62320880  0.49954924  0.01314774  1
  O  O410  1  0.61514092  0.50671266  0.50575881  1
  O  O411  1  0.37625228  0.36881663  0.11815018  1
  O  O412  1  0.37577268  0.37434768  0.60953003  1
  O  O413  1  0.37212534  0.86856608  0.11846643  1
  O  O414  1  0.36930180  0.86813139  0.61877605  1
  O  O415  1  0.87520912  0.36167680  0.11944563  1
  O  O416  1  0.85859142  0.37730854  0.62930145  1
  O  O417  1  0.88461228  0.87544135  0.11147960  1
  O  O418  1  0.87847751  0.86789398  0.60962635  1
  O  O419  1  0.13835446  0.12931277  0.37913393  1
  O  O420  1  0.13064324  0.12949869  0.88011363  1
  O  O421  1  0.12309428  0.63306994  0.38953558  1
  O  O422  1  0.12317548  0.63027297  0.88072422  1
  O  O423  1  0.63449717  0.13536142  0.36506566  1
  O  O424  1  0.61799671  0.14086851  0.87580824  1
  O  O425  1  0.63001184  0.62922782  0.38043031  1
  O  O426  1  0.63480213  0.62877282  0.87315056  1
