# generated using pymatgen
data_V85Zn86O256
_symmetry_space_group_name_H-M   'P 1'
_cell_length_a   16.92543878
_cell_length_b   16.92028627
_cell_length_c   16.91362911
_cell_angle_alpha   89.94894976
_cell_angle_beta   90.06635108
_cell_angle_gamma   89.92830946
_symmetry_Int_Tables_number   1
_chemical_formula_structural   V85Zn86O256
_chemical_formula_sum   'V85 Zn86 O256'
_cell_volume   4843.77143161
_cell_formula_units_Z   1
loop_
 _symmetry_equiv_pos_site_id
 _symmetry_equiv_pos_as_xyz
  1  'x, y, z'
loop_
 _atom_site_type_symbol
 _atom_site_label
 _atom_site_symmetry_multiplicity
 _atom_site_fract_x
 _atom_site_fract_y
 _atom_site_fract_z
 _atom_site_occupancy
  V  V0  1  0.74936741  0.87758517  0.63116012  1
  V  V1  1  0.12475595  0.12793177  0.50172737  1
  V  V2  1  0.62270569  0.62250829  0.51521448  1
  V  V3  1  0.00386933  0.49480518  -0.00245726  1
  V  V4  1  0.00066071  0.75070946  0.25401603  1
  V  V5  1  0.51746655  0.86585844  0.86996959  1
  V  V6  1  0.00358601  0.00014535  -0.00632092  1
  V  V7  1  0.62512524  -0.00167563  0.62615599  1
  V  V8  1  0.25591027  0.49739398  0.75716949  1
  V  V9  1  0.12543994  0.63221529  -0.00233689  1
  V  V10  1  0.50922346  0.74574771  0.73605606  1
  V  V11  1  0.75114363  0.75164373  0.50259085  1
  V  V12  1  0.50044528  0.25100694  0.25096172  1
  V  V13  1  0.00013856  0.37891201  0.38525687  1
  V  V14  1  0.37588734  0.37947161  -0.00676487  1
  V  V15  1  0.49863749  0.50215291  -0.00874257  1
  V  V16  1  0.68923476  0.43778337  0.68563358  1
  V  V17  1  0.24798154  0.25056094  -0.00732276  1
  V  V18  1  0.75236643  0.37542090  0.12245173  1
  V  V19  1  0.12229821  0.38022934  0.24625843  1
  V  V20  1  0.11996858  0.00314065  0.62447806  1
  V  V21  1  0.88675374  0.24535161  0.62366772  1
  V  V22  1  0.50016386  0.87571060  0.37520816  1
  V  V23  1  0.87293648  0.24452479  0.12893816  1
  V  V24  1  0.50836700  0.37783770  0.86760142  1
  V  V25  1  0.74804176  0.62365862  0.37546574  1
  V  V26  1  0.50016392  0.74986345  0.24904603  1
  V  V27  1  0.76710480  0.00124608  0.25641742  1
  V  V28  1  0.75093686  0.63060059  0.87077249  1
  V  V29  1  0.24946257  0.12505713  0.87764961  1
  V  V30  1  0.87386099  0.88230447  -0.00512877  1
  V  V31  1  0.24591487  0.50259761  0.24378337  1
  V  V32  1  0.00560492  0.12507908  0.12961903  1
  V  V33  1  0.37065048  0.50092651  0.37450808  1
  V  V34  1  -0.00218120  0.00445533  0.49386634  1
  V  V35  1  0.88247542  0.75328348  0.63125293  1
  V  V36  1  0.76968895  0.12843518  0.37259555  1
  V  V37  1  0.62762003  0.63269400  -0.00560014  1
  V  V38  1  0.13549308  0.74747835  0.37601896  1
  V  V39  1  0.37157769  -0.00107820  0.37827675  1
  V  V40  1  0.37274844  0.12630204  0.24835560  1
  V  V41  1  0.11292800  0.49345452  0.62570414  1
  V  V42  1  0.87409880  0.49194307  0.87136989  1
  V  V43  1  0.11993484  0.86365340  0.74617337  1
  V  V44  1  0.24319192  0.37354187  0.62605489  1
  V  V45  1  0.50282406  0.37142235  0.37426574  1
  V  V46  1  0.25918551  0.62770453  0.87904189  1
  V  V47  1  0.87639974  0.87960441  0.49431087  1
  V  V48  1  0.87891720  0.62661088  0.75226332  1
  V  V49  1  0.37460440  0.25258604  0.62763153  1
  V  V50  1  0.37665621  -0.00332627  0.87423983  1
  V  V51  1  -0.00501510  0.87057892  0.86834427  1
  V  V52  1  0.49901079  0.12534982  0.62515434  1
  V  V53  1  0.62432362  0.12755478  0.48693434  1
  V  V54  1  0.37050686  0.62595371  0.25380067  1
  V  V55  1  0.24658098  0.87223798  0.11880118  1
  V  V56  1  0.87937057  0.12020731  0.75584056  1
  V  V57  1  0.74645779  0.25583251  0.50435090  1
  V  V58  1  0.37217118  0.25128754  0.12198627  1
  V  V59  1  0.50234752  0.12441617  0.12046713  1
  V  V60  1  0.74748775  0.00961622  0.75835744  1
  V  V61  1  0.50473030  0.50126369  0.50979159  1
  V  V62  1  0.37412367  0.37572720  0.50008571  1
  V  V63  1  0.37067327  0.74999597  0.12224831  1
  V  V64  1  0.00140001  0.62597376  0.62439820  1
  V  V65  1  0.87989090  0.50173756  0.38380174  1
  V  V66  1  0.37305857  0.86829835  -0.00521998  1
  V  V67  1  0.24768720  -0.00188904  0.74964021  1
  V  V68  1  0.24635727  0.00105405  0.24711512  1
  V  V69  1  0.49873570  0.00013175  0.50117879  1
  V  V70  1  0.62571949  0.50033361  0.12380599  1
  V  V71  1  0.11579030  0.36745893  0.76864493  1
  V  V72  1  0.25485101  0.86527936  0.62237013  1
  V  V73  1  0.50025932  0.62481442  0.12365373  1
  V  V74  1  0.07558853  0.18204933  -0.05934622  1
  V  V75  1  0.62625760  0.37106753  0.25214174  1
  V  V76  1  -0.00419618  0.24879868  0.25458119  1
  V  V77  1  0.00544573  0.61972583  0.12457964  1
  V  V78  1  0.50904685  0.25684353  0.74775065  1
  V  V79  1  0.62502232  0.88085180  0.24854368  1
  V  V80  1  0.87306752  0.75123306  0.12135703  1
  V  V81  1  0.62542296  0.74891404  0.37478605  1
  V  V82  1  0.63405925  0.12659466  -0.00870840  1
  V  V83  1  0.87447378  0.62445460  0.25021028  1
  V  V84  1  0.12821935  0.61814797  0.49813012  1
  Zn  Zn85  1  0.37485903  0.12667097  0.75126934  1
  Zn  Zn86  1  0.63883460  0.25141701  0.86527178  1
  Zn  Zn87  1  0.87762354  0.37372407  -0.00224629  1
  Zn  Zn88  1  0.24782952  0.12760618  0.37509225  1
  Zn  Zn89  1  0.24411657  0.37932723  0.12037011  1
  Zn  Zn90  1  0.50218651  0.00017742  -0.00331904  1
  Zn  Zn91  1  0.87228538  0.38375707  0.51329860  1
  Zn  Zn92  1  0.74991482  0.87901213  0.12424368  1
  Zn  Zn93  1  0.75059111  0.25061068  -0.00535501  1
  Zn  Zn94  1  0.24910303  0.24926374  0.49807177  1
  Zn  Zn95  1  0.75063583  0.49946261  0.25027343  1
  Zn  Zn96  1  0.62821586  0.00338981  0.12591509  1
  Zn  Zn97  1  0.25858274  0.73752056  0.50089402  1
  Zn  Zn98  1  0.12398097  0.87564064  0.24962001  1
  Zn  Zn99  1  -0.00117886  0.87848246  0.37206697  1
  Zn  Zn100  1  0.12460306  0.74941075  0.87390473  1
  Zn  Zn101  1  0.12845495  0.25192966  0.37541727  1
  Zn  Zn102  1  0.74556406  0.75730407  -0.00603095  1
  Zn  Zn103  1  0.00248903  0.24456200  0.75993402  1
  Zn  Zn104  1  0.12735389  0.00432783  0.11902159  1
  Zn  Zn105  1  0.38067157  0.86408769  0.50779704  1
  Zn  Zn106  1  0.37782641  0.63937696  0.73170880  1
  Zn  Zn107  1  0.18411839  0.19178590  0.18650963  1
  Zn  Zn108  1  0.18489236  0.18792273  0.69074780  1
  Zn  Zn109  1  0.18686165  0.68711078  0.18636151  1
  Zn  Zn110  1  0.18798028  0.68221162  0.69064307  1
  Zn  Zn111  1  0.68795413  0.18690217  0.19059058  1
  Zn  Zn112  1  0.68790105  0.18635819  0.68007752  1
  Zn  Zn113  1  0.68803345  0.68929324  0.18559429  1
  Zn  Zn114  1  0.68952837  0.68993478  0.69519939  1
  Zn  Zn115  1  0.30957087  0.31477727  0.31215482  1
  Zn  Zn116  1  0.31504724  0.31922150  0.81063941  1
  Zn  Zn117  1  0.31185523  0.81501812  0.31119714  1
  Zn  Zn118  1  0.31360540  0.80686809  0.80755088  1
  Zn  Zn119  1  0.81356712  0.31330813  0.31574650  1
  Zn  Zn120  1  0.80853202  0.31055527  0.80561964  1
  Zn  Zn121  1  0.81252838  0.81220044  0.31191609  1
  Zn  Zn122  1  0.81015920  0.81439767  0.81124350  1
  Zn  Zn123  1  0.18683802  0.43953522  0.43658970  1
  Zn  Zn124  1  0.18561370  0.44335057  0.94027363  1
  Zn  Zn125  1  0.18472064  0.93493795  0.43790343  1
  Zn  Zn126  1  0.18397326  0.93593151  0.93548200  1
  Zn  Zn127  1  0.68723931  0.43876439  0.43901960  1
  Zn  Zn128  1  0.68968730  0.44131831  0.93295860  1
  Zn  Zn129  1  0.68973266  0.94076266  0.43723011  1
  Zn  Zn130  1  0.68868121  0.94419197  0.94109480  1
  Zn  Zn131  1  0.31208039  0.06202866  0.05787066  1
  Zn  Zn132  1  0.30900487  0.06063056  0.56454000  1
  Zn  Zn133  1  0.31206329  0.56340713  0.06103966  1
  Zn  Zn134  1  0.31011274  0.55803849  0.56772698  1
  Zn  Zn135  1  0.81571283  0.06127926  0.06818174  1
  Zn  Zn136  1  0.81387411  0.06574419  0.56358283  1
  Zn  Zn137  1  0.81419632  0.56250941  0.05897405  1
  Zn  Zn138  1  0.81003929  0.56485480  0.56595644  1
  Zn  Zn139  1  0.43648394  0.43843938  0.18315111  1
  Zn  Zn140  1  0.42887033  0.45868284  0.68497339  1
  Zn  Zn141  1  0.43455273  0.93897204  0.18605960  1
  Zn  Zn142  1  0.43838758  0.93225497  0.69355047  1
  Zn  Zn143  1  0.93593630  0.43861500  0.19056191  1
  Zn  Zn144  1  0.93298348  0.43124687  0.69233327  1
  Zn  Zn145  1  0.94042420  0.93668718  0.18262500  1
  Zn  Zn146  1  0.93686746  0.94153326  0.68437933  1
  Zn  Zn147  1  0.06236338  0.06536698  0.31477662  1
  Zn  Zn148  1  0.05632946  0.05172919  0.80726973  1
  Zn  Zn149  1  0.06268213  0.56343631  0.31509137  1
  Zn  Zn150  1  0.06254988  0.56067108  0.81261310  1
  Zn  Zn151  1  0.56048907  0.06273053  0.31096765  1
  Zn  Zn152  1  0.56034885  0.06230474  0.81013640  1
  Zn  Zn153  1  0.56103273  0.55866894  0.31455005  1
  Zn  Zn154  1  0.56672590  0.56493088  0.80654664  1
  Zn  Zn155  1  0.43471980  0.18845787  0.43794765  1
  Zn  Zn156  1  0.44003459  0.18976953  0.93387400  1
  Zn  Zn157  1  0.43844112  0.68523737  0.44099388  1
  Zn  Zn158  1  0.43818769  0.68957501  0.93218517  1
  Zn  Zn159  1  0.94180551  0.18986761  0.44240161  1
  Zn  Zn160  1  0.90868926  0.18427071  0.93627337  1
  Zn  Zn161  1  0.94058443  0.68706641  0.44249601  1
  Zn  Zn162  1  0.93818818  0.69003019  0.93761288  1
  Zn  Zn163  1  0.05972342  0.31705235  0.06949552  1
  Zn  Zn164  1  0.05957990  0.30970432  0.56396633  1
  Zn  Zn165  1  0.05996618  0.81310721  0.06346550  1
  Zn  Zn166  1  0.06423518  0.81142004  0.55926350  1
  Zn  Zn167  1  0.56377293  0.31162186  0.06026040  1
  Zn  Zn168  1  0.56546862  0.31736580  0.56381103  1
  Zn  Zn169  1  0.55963598  0.81597617  0.06156820  1
  Zn  Zn170  1  0.56501899  0.81291407  0.56349048  1
  O  O171  1  0.11127640  0.12722128  0.12346131  1
  O  O172  1  0.13138185  0.11332059  0.61968417  1
  O  O173  1  0.11200589  0.62820976  0.11939835  1
  O  O174  1  0.11778426  0.61518046  0.62477588  1
  O  O175  1  0.61626319  0.12554372  0.11987228  1
  O  O176  1  0.61926986  0.11558829  0.61227653  1
  O  O177  1  0.61944758  0.61923187  0.12109038  1
  O  O178  1  0.63243557  0.63044786  0.61353253  1
  O  O179  1  0.38123657  0.38134744  0.37917385  1
  O  O180  1  0.38730482  0.36604866  0.88982822  1
  O  O181  1  0.38018859  0.88736178  0.37258763  1
  O  O182  1  0.37335243  0.88007020  0.88107483  1
  O  O183  1  0.88256157  0.38581354  0.37509505  1
  O  O184  1  0.87421310  0.38960009  0.87594861  1
  O  O185  1  0.87537072  0.86833059  0.39065967  1
  O  O186  1  0.87948292  0.87198922  0.88514936  1
  O  O187  1  0.25636718  -0.00105583  0.36697553  1
  O  O188  1  0.25486491  0.00579940  0.87104278  1
  O  O189  1  0.26453272  0.49468650  0.36526899  1
  O  O190  1  0.23688144  0.51611871  0.86782614  1
  O  O191  1  0.74803026  0.01235534  0.36575974  1
  O  O192  1  0.74562526  -0.00331844  0.85629621  1
  O  O193  1  0.75500533  0.51176651  0.37334025  1
  O  O194  1  0.76816325  0.51271748  0.88388537  1
  O  O195  1  0.25718920  0.49708717  0.13869585  1
  O  O196  1  0.23535732  0.48611446  0.63626973  1
  O  O197  1  0.24952020  0.99518642  0.13011365  1
  O  O198  1  0.24077535  0.99127914  0.63144154  1
  O  O199  1  0.74593533  0.49375157  0.12794641  1
  O  O200  1  0.74379161  0.49331944  0.61794525  1
  O  O201  1  0.74938332  1.00218871  0.14406085  1
  O  O202  1  0.74195713  0.99586383  0.62699096  1
  O  O203  1  0.00565232  0.37132748  0.25775452  1
  O  O204  1  0.01185098  0.36937091  0.75323997  1
  O  O205  1  0.00170169  0.86550472  0.25092680  1
  O  O206  1  0.00626763  0.88264271  0.75609143  1
  O  O207  1  0.50495957  0.37156373  0.25356157  1
  O  O208  1  0.49149383  0.37026553  0.75884904  1
  O  O209  1  0.50613180  0.87183366  0.25401947  1
  O  O210  1  0.50114977  0.86650450  0.76311898  1
  O  O211  1  0.49336258  0.13131156  0.24278607  1
  O  O212  1  0.49560778  0.13409540  0.74215680  1
  O  O213  1  0.49417029  0.62921947  0.24338723  1
  O  O214  1  0.49798609  0.64162778  0.75857675  1
  O  O215  1  1.00311051  0.13509228  0.24320442  1
  O  O216  1  0.98498842  0.12197707  0.75058219  1
  O  O217  1  0.99496739  0.62976204  0.24259418  1
  O  O218  1  0.99094474  0.62353703  0.73928415  1
  O  O219  1  0.36809322  0.25479710  0.00514383  1
  O  O220  1  0.37408841  0.25665070  0.51204514  1
  O  O221  1  0.37790307  0.76132623  0.00445476  1
  O  O222  1  0.36964831  0.75235138  0.49344890  1
  O  O223  1  0.87126682  0.25671778  0.01303697  1
  O  O224  1  0.86807363  0.24870978  0.51035951  1
  O  O225  1  0.87474834  0.75880327  0.00827955  1
  O  O226  1  0.86951256  0.75534952  0.51055553  1
  O  O227  1  0.12641705  0.24074686  0.50091186  1
  O  O228  1  0.13002169  0.25247390  1.00005976  1
  O  O229  1  0.12977236  0.74079129  0.49194981  1
  O  O230  1  0.11968719  0.73639765  1.00087446  1
  O  O231  1  0.63782228  0.24228244  0.50292687  1
  O  O232  1  0.62688915  0.23607123  1.00115457  1
  O  O233  1  0.63120613  0.74425831  0.49306122  1
  O  O234  1  0.62585421  0.73662461  1.00903896  1
  O  O235  1  0.49194137  0.24179392  0.12791442  1
  O  O236  1  0.49257887  0.24833708  0.62879856  1
  O  O237  1  0.49185166  0.74628539  0.13108205  1
  O  O238  1  0.50124626  0.75431233  0.63537825  1
  O  O239  1  0.99310071  0.24563796  0.13272504  1
  O  O240  1  0.98911504  0.24306167  0.62616217  1
  O  O241  1  0.99109814  0.74433417  0.13488268  1
  O  O242  1  0.99223818  0.74240031  0.62119002  1
  O  O243  1  0.00048753  0.25912442  0.36905357  1
  O  O244  1  0.00483060  0.23407166  0.88448954  1
  O  O245  1  0.00390243  0.74781348  0.36379824  1
  O  O246  1  0.00257754  0.76552605  0.87864006  1
  O  O247  1  0.49147270  0.26267130  0.36748859  1
  O  O248  1  0.50351270  0.25804847  0.86377671  1
  O  O249  1  0.50622541  0.75573350  0.36707955  1
  O  O250  1  0.50316770  0.76412402  0.87611827  1
  O  O251  1  0.23819538  0.12427613  0.49921571  1
  O  O252  1  0.24947230  0.13182218  0.98734716  1
  O  O253  1  0.23545616  0.62150266  0.51029406  1
  O  O254  1  0.24095812  0.61865754  0.98893678  1
  O  O255  1  0.74453435  0.12907881  0.48759335  1
  O  O256  1  0.73696242  0.12338906  1.00698788  1
  O  O257  1  0.74371124  0.63196275  0.49228747  1
  O  O258  1  0.74310549  0.62903558  0.99404447  1
  O  O259  1  0.25681138  0.37103156  -0.00074796  1
  O  O260  1  0.25484166  0.37579745  0.50950637  1
  O  O261  1  0.25681004  0.88026071  0.01013823  1
  O  O262  1  0.24889260  0.87498009  0.51560139  1
  O  O263  1  0.74943844  0.37746544  0.01410524  1
  O  O264  1  0.75420138  0.35812489  0.48681316  1
  O  O265  1  0.75770846  0.87680503  0.00332691  1
  O  O266  1  0.75662613  0.87348203  0.50858079  1
  O  O267  1  0.13529563  0.49578763  0.25668073  1
  O  O268  1  0.12743082  0.48666231  0.74553794  1
  O  O269  1  0.13723975  1.00046333  0.24867952  1
  O  O270  1  0.12941884  0.99060210  0.74118153  1
  O  O271  1  0.62449564  0.48907379  0.24213769  1
  O  O272  1  0.62709103  0.49608364  0.74284833  1
  O  O273  1  0.62779451  0.98961384  0.25122355  1
  O  O274  1  0.63597803  1.00808049  0.73906722  1
  O  O275  1  0.36503226  0.00590641  0.25500619  1
  O  O276  1  0.36762987  -0.00026267  0.76101029  1
  O  O277  1  0.37128831  0.50645338  0.25418439  1
  O  O278  1  0.35044615  0.46704304  0.77106651  1
  O  O279  1  0.86560889  -0.00706065  0.25324192  1
  O  O280  1  0.86210425  0.01278418  0.73694354  1
  O  O281  1  0.87236785  0.50860688  0.26092359  1
  O  O282  1  0.88447149  0.50820758  0.76534316  1
  O  O283  1  0.11655147  0.37637579  0.36704902  1
  O  O284  1  0.12606550  0.37548051  0.86689541  1
  O  O285  1  0.12134004  0.86311822  0.37225275  1
  O  O286  1  0.11849251  0.87197893  0.86357209  1
  O  O287  1  0.61593405  0.38005166  0.36429001  1
  O  O288  1  0.61234163  0.37177092  0.88340532  1
  O  O289  1  0.62127946  0.87022876  0.36915952  1
  O  O290  1  0.61495858  0.87784698  0.88111426  1
  O  O291  1  0.37958437  0.13504648  0.12507951  1
  O  O292  1  0.37974022  0.13412781  0.62513687  1
  O  O293  1  0.38063389  0.63053524  0.13139463  1
  O  O294  1  0.38329802  0.56448325  0.64976277  1
  O  O295  1  0.88679194  0.13712776  0.12193780  1
  O  O296  1  0.86904214  0.13822845  0.63345596  1
  O  O297  1  0.88276445  0.63247436  0.12806723  1
  O  O298  1  0.88128551  0.63191422  0.62996818  1
  O  O299  1  0.25552411  0.25154101  0.11207273  1
  O  O300  1  0.25591831  0.25941849  0.62622651  1
  O  O301  1  0.25838362  0.75966110  0.13014123  1
  O  O302  1  0.24581627  0.76218132  0.62619976  1
  O  O303  1  0.75794662  0.25629321  0.12731604  1
  O  O304  1  0.75763274  0.24376584  0.60765670  1
  O  O305  1  0.76392776  0.75326822  0.12593446  1
  O  O306  1  0.75648902  0.76019364  0.62213057  1
  O  O307  1  0.24869675  0.24724685  0.37878864  1
  O  O308  1  0.25608686  0.24374704  0.88475485  1
  O  O309  1  0.23841783  0.75049814  0.37201894  1
  O  O310  1  0.24476653  0.73272746  0.86822718  1
  O  O311  1  0.75641539  0.23570916  0.38320173  1
  O  O312  1  0.75137725  0.25218118  0.88036874  1
  O  O313  1  0.74692210  0.74128595  0.38008636  1
  O  O314  1  0.75579647  0.73693594  0.87684212  1
  O  O315  1  0.00164706  0.12228425  -0.00038280  1
  O  O316  1  0.01191556  0.11768651  0.49943703  1
  O  O317  1  0.00410267  0.61954144  0.00710625  1
  O  O318  1  0.01050366  0.62695893  0.51498568  1
  O  O319  1  0.50685603  0.12451400  0.00619787  1
  O  O320  1  0.50582875  0.12130426  0.50407085  1
  O  O321  1  0.50546778  0.61953671  0.00163185  1
  O  O322  1  0.51043744  0.61393501  0.49603496  1
  O  O323  1  0.49609045  0.37652873  0.48947024  1
  O  O324  1  0.49501984  0.38292586  0.99581864  1
  O  O325  1  0.50026068  0.88253724  0.49285337  1
  O  O326  1  0.49168537  0.87857948  0.98930151  1
  O  O327  1  0.99554113  0.37130170  0.48849798  1
  O  O328  1  0.99964195  0.39125162  1.00469203  1
  O  O329  1  0.99243433  0.88171408  0.49872055  1
  O  O330  1  0.99328672  0.88207327  0.99462729  1
  O  O331  1  0.48982976  0.48799034  0.37650856  1
  O  O332  1  0.50413573  0.49520740  0.88463428  1
  O  O333  1  0.49174286  0.99552225  0.37893791  1
  O  O334  1  0.49165935  0.98874842  0.87163225  1
  O  O335  1  0.99084882  0.49278014  0.37179968  1
  O  O336  1  0.98924851  0.50764818  0.88916013  1
  O  O337  1  1.00473929  0.99698584  0.38853648  1
  O  O338  1  0.99989321  0.98650292  0.88294584  1
  O  O339  1  0.00208015  0.01006717  0.11818505  1
  O  O340  1  0.01369432  -0.00612913  0.61408799  1
  O  O341  1  -0.00946626  0.50990734  0.11283355  1
  O  O342  1  0.00735660  0.50399607  0.63051440  1
  O  O343  1  0.49737366  0.01473448  0.12453902  1
  O  O344  1  0.50553763  0.00262930  0.62284529  1
  O  O345  1  0.50520994  0.50531661  0.11451652  1
  O  O346  1  0.51084338  0.47883923  0.60634058  1
  O  O347  1  0.24112201  0.38323803  0.24725673  1
  O  O348  1  0.23379634  0.37329766  0.74466456  1
  O  O349  1  0.25116945  0.88438394  0.23707890  1
  O  O350  1  0.24134351  0.87760038  0.74137820  1
  O  O351  1  0.74222417  0.37487502  0.24271400  1
  O  O352  1  0.75502984  0.39027618  0.74799938  1
  O  O353  1  0.74396521  0.88648664  0.25306807  1
  O  O354  1  0.75746174  0.88824541  0.73674733  1
  O  O355  1  0.25568817  0.11933483  0.24779210  1
  O  O356  1  0.25149479  0.12047840  0.76197447  1
  O  O357  1  0.26053447  0.61846015  0.24601406  1
  O  O358  1  0.25540993  0.61516128  0.75775786  1
  O  O359  1  0.74801312  0.11718535  0.26450888  1
  O  O360  1  0.75533230  0.11471322  0.74374880  1
  O  O361  1  0.75564139  0.62609878  0.25847320  1
  O  O362  1  0.76646665  0.62768051  0.75615966  1
  O  O363  1  0.37401143  0.11366773  0.36927939  1
  O  O364  1  0.36833878  0.11586976  0.87499066  1
  O  O365  1  0.38349751  0.61525049  0.36144283  1
  O  O366  1  0.36063706  0.62347561  0.87918829  1
  O  O367  1  0.86774753  0.12368334  0.37830602  1
  O  O368  1  0.86765574  0.11895268  0.85547110  1
  O  O369  1  0.86886295  0.62174134  0.37317959  1
  O  O370  1  0.87393604  0.62129601  0.86814816  1
  O  O371  1  0.12536535  0.37705366  0.14052561  1
  O  O372  1  0.12746954  0.37824535  0.62780213  1
  O  O373  1  0.13335065  0.87700124  0.12702052  1
  O  O374  1  0.13241694  0.88039587  0.62895301  1
  O  O375  1  0.63119007  0.38002334  0.12997310  1
  O  O376  1  0.63716595  0.36735865  0.63201981  1
  O  O377  1  0.62701316  0.87914595  0.13359760  1
  O  O378  1  0.63494515  0.88958907  0.61716375  1
  O  O379  1  0.11385001  0.25982482  0.25185450  1
  O  O380  1  0.12059328  0.26165708  0.75062051  1
  O  O381  1  0.11669582  0.74778504  0.25742132  1
  O  O382  1  0.12309153  0.76088991  0.74645605  1
  O  O383  1  0.61679677  0.26267422  0.24425520  1
  O  O384  1  0.61273587  0.24284520  0.74709430  1
  O  O385  1  0.62226005  0.76195500  0.25341632  1
  O  O386  1  0.61143835  0.75198742  0.74924460  1
  O  O387  1  0.37779629  0.24665045  0.24010985  1
  O  O388  1  0.38156277  0.25190292  0.73865800  1
  O  O389  1  0.37956319  0.74260617  0.24651744  1
  O  O390  1  0.39317260  0.75027571  0.75268435  1
  O  O391  1  0.88760020  0.25629310  0.24458269  1
  O  O392  1  0.87900119  0.23842836  0.74203298  1
  O  O393  1  0.88178059  0.74526042  0.24450669  1
  O  O394  1  0.87352467  0.74549326  0.73816498  1
  O  O395  1  0.38198234  0.49472935  0.49013812  1
  O  O396  1  0.38513388  0.49085170  1.00580390  1
  O  O397  1  0.38014144  0.99820208  0.49243166  1
  O  O398  1  0.37650311  0.99123475  0.98857372  1
  O  O399  1  0.87054203  0.50076984  0.48869556  1
  O  O400  1  0.88559385  0.50010566  0.99047702  1
  O  O401  1  0.88486145  0.99238731  0.50853035  1
  O  O402  1  0.88589195  0.99242925  1.00620180  1
  O  O403  1  0.10997035  -0.00334686  0.00097124  1
  O  O404  1  0.11968534  0.00534117  0.50633395  1
  O  O405  1  0.11008636  0.51090732  -0.00153102  1
  O  O406  1  0.12609495  0.50490748  0.51141290  1
  O  O407  1  0.62170044  0.01264367  0.00549371  1
  O  O408  1  0.61860411  0.00792677  0.50382927  1
  O  O409  1  0.61885267  0.51000119  0.00573891  1
  O  O410  1  0.61610320  0.51190338  0.48883992  1
  O  O411  1  0.37561480  0.36317863  0.11536461  1
  O  O412  1  0.36450979  0.37086945  0.62064925  1
  O  O413  1  0.36976104  0.87094316  0.11599797  1
  O  O414  1  0.35816627  0.88293155  0.62612161  1
  O  O415  1  0.86709511  0.36771364  0.12684044  1
  O  O416  1  0.87797755  0.35546386  0.62658837  1
  O  O417  1  0.87530353  0.86785287  0.11464950  1
  O  O418  1  0.87014430  0.86915555  0.61759431  1
  O  O419  1  0.12752143  0.12846334  0.38571056  1
  O  O420  1  0.12970644  0.12047870  0.87362874  1
  O  O421  1  0.11931569  0.63204798  0.38743557  1
  O  O422  1  0.12801352  0.62908487  0.88154803  1
  O  O423  1  0.62523857  0.12370369  0.38460607  1
  O  O424  1  0.61900414  0.12618627  0.88893471  1
  O  O425  1  0.63286097  0.63106056  0.37443505  1
  O  O426  1  0.63792866  0.61818130  0.88353117  1
