# generated using pymatgen
data_V85Zn86O256
_symmetry_space_group_name_H-M   'P 1'
_cell_length_a   16.93862575
_cell_length_b   16.94497789
_cell_length_c   16.93839688
_cell_angle_alpha   89.97711731
_cell_angle_beta   90.09900333
_cell_angle_gamma   89.97730489
_symmetry_Int_Tables_number   1
_chemical_formula_structural   V85Zn86O256
_chemical_formula_sum   'V85 Zn86 O256'
_cell_volume   4861.72921614
_cell_formula_units_Z   1
loop_
 _symmetry_equiv_pos_site_id
 _symmetry_equiv_pos_as_xyz
  1  'x, y, z'
loop_
 _atom_site_type_symbol
 _atom_site_label
 _atom_site_symmetry_multiplicity
 _atom_site_fract_x
 _atom_site_fract_y
 _atom_site_fract_z
 _atom_site_occupancy
  V  V0  1  0.36797194  0.37900835  0.50011760  1
  V  V1  1  0.25535141  0.00492377  0.74817638  1
  V  V2  1  0.88311732  0.37049018  0.00528542  1
  V  V3  1  0.13399655  0.63063087  0.00067118  1
  V  V4  1  0.49823261  0.12385568  0.12689670  1
  V  V5  1  0.00336933  0.62756835  0.12229106  1
  V  V6  1  0.11695456  0.38145178  0.25723433  1
  V  V7  1  0.00204295  0.87221108  0.37547831  1
  V  V8  1  0.50422411  0.62116212  0.62608719  1
  V  V9  1  0.85687786  0.37362539  0.49851080  1
  V  V10  1  0.88125809  0.49586481  0.36938387  1
  V  V11  1  0.00343187  0.75263169  0.24943020  1
  V  V12  1  0.75232864  0.87746742  0.62520515  1
  V  V13  1  0.87458266  0.62382788  0.75157767  1
  V  V14  1  0.37128325  0.23767205  0.63055562  1
  V  V15  1  0.12803631  0.50554185  0.62794550  1
  V  V16  1  0.24961879  0.37781323  0.13563607  1
  V  V17  1  0.24464475  0.12570694  0.37017939  1
  V  V18  1  0.74656532  0.63300049  0.37370570  1
  V  V19  1  0.12889261  0.87287629  0.25257984  1
  V  V20  1  0.37925495  -0.01858023  0.87674521  1
  V  V21  1  0.12100083  0.12720475  0.50009248  1
  V  V22  1  0.75704161  0.24859870  0.01044592  1
  V  V23  1  0.87555583  0.12094691  0.75506201  1
  V  V24  1  0.24762377  0.24995368  0.00115070  1
  V  V25  1  0.49120425  0.86905789  0.38324651  1
  V  V26  1  -0.00411142  0.12735294  0.62628645  1
  V  V27  1  0.49723682  0.50384552  0.49489259  1
  V  V28  1  0.87942538  0.49204878  0.87419187  1
  V  V29  1  0.49763588  0.23901353  0.75363269  1
  V  V30  1  0.62591724  0.24926079  0.87818385  1
  V  V31  1  0.25436146  0.87647955  0.61942355  1
  V  V32  1  0.13107218  0.75366179  0.87874705  1
  V  V33  1  0.87871741  0.62681763  0.24874017  1
  V  V34  1  0.12313309  0.38233940  0.75648275  1
  V  V35  1  0.37205217  0.24716801  0.13224395  1
  V  V36  1  0.25008196  0.62005333  0.87130507  1
  V  V37  1  0.87386102  0.00389463  0.37729061  1
  V  V38  1  0.25072334  0.38052506  0.63452252  1
  V  V39  1  -0.00353139  0.25801230  0.75149713  1
  V  V40  1  0.87314063  0.75082109  0.10964705  1
  V  V41  1  0.62078718  0.87066896  0.75250795  1
  V  V42  1  0.73502527  0.13111756  0.38138248  1
  V  V43  1  -0.00047657  0.75206527  0.75420825  1
  V  V44  1  0.12391478  0.00060137  0.62757757  1
  V  V45  1  0.50232257  0.74161925  0.24965041  1
  V  V46  1  0.62300072  0.61432844  0.01135762  1
  V  V47  1  0.74842732  0.38181895  0.12679721  1
  V  V48  1  0.37921767  0.74730527  0.11233539  1
  V  V49  1  0.88062534  0.12924824  0.24027928  1
  V  V50  1  0.37083373  0.61536239  0.74820956  1
  V  V51  1  -0.00178727  0.88801215  0.88262991  1
  V  V52  1  0.11419561  0.25854621  0.37607395  1
  V  V53  1  0.00287294  0.49104341  0.49628961  1
  V  V54  1  0.62460057  0.12656165  0.00459152  1
  V  V55  1  0.75028097  -0.00256037  0.76256064  1
  V  V56  1  0.24446976  0.62845011  0.36622241  1
  V  V57  1  0.12369792  0.63524935  0.49677028  1
  V  V58  1  0.86570787  0.89175950  -0.00493908  1
  V  V59  1  0.26113456  0.12723281  0.87329072  1
  V  V60  1  0.75184053  0.62504047  0.88094885  1
  V  V61  1  0.13242761  0.50310382  0.13021362  1
  V  V62  1  0.49879998  0.74915639  0.75584144  1
  V  V63  1  0.62124875  -0.00366032  0.12786984  1
  V  V64  1  0.25800498  0.87192123  0.10886503  1
  V  V65  1  0.24462875  0.25219933  0.50338726  1
  V  V66  1  -0.00211091  0.00124607  0.50136556  1
  V  V67  1  0.62477701  0.86803163  0.25944125  1
  V  V68  1  0.11590563  -0.00233692  0.11704628  1
  V  V69  1  0.00614346  0.49641381  -0.00488897  1
  V  V70  1  0.50056451  0.37763682  0.87622706  1
  V  V71  1  0.74900341  -0.00019137  0.25224595  1
  V  V72  1  0.25108905  0.00011874  0.24709022  1
  V  V73  1  0.12127862  0.25141646  0.87524969  1
  V  V74  1  0.37537430  0.37671470  0.00204497  1
  V  V75  1  0.55401353  0.16503945  0.56951261  1
  V  V76  1  0.62811661  0.74703109  0.88480283  1
  V  V77  1  0.50725935  0.36813141  0.37738608  1
  V  V78  1  0.87387452  0.74990331  0.62449525  1
  V  V79  1  0.11339918  0.12062849  0.00018923  1
  V  V80  1  0.63130390  0.37906477  0.74744196  1
  V  V81  1  0.37586721  0.61986831  0.24648193  1
  V  V82  1  0.61847230  -0.00228442  0.62017319  1
  V  V83  1  0.37599280  0.75208215  0.61732260  1
  V  V84  1  0.75182356  0.12086415  0.87915075  1
  Zn  Zn85  1  0.62273840  0.37552208  0.24536269  1
  Zn  Zn86  1  0.72795900  0.24934719  0.50354544  1
  Zn  Zn87  1  0.50985641  0.24023499  0.26251056  1
  Zn  Zn88  1  0.62022321  0.63066979  0.48703816  1
  Zn  Zn89  1  0.00045518  0.62715366  0.62234662  1
  Zn  Zn90  1  0.36681074  0.49818750  0.36900653  1
  Zn  Zn91  1  0.86489358  0.25825291  0.62641474  1
  Zn  Zn92  1  0.63889104  0.49819870  0.61265337  1
  Zn  Zn93  1  0.50268304  0.49840755  0.01359197  1
  Zn  Zn94  1  0.74730729  0.87004280  0.12261862  1
  Zn  Zn95  1  0.36833341  -0.00785559  0.38334289  1
  Zn  Zn96  1  0.24949617  0.75557284  0.49317135  1
  Zn  Zn97  1  0.48507740  -0.00729448  0.51004506  1
  Zn  Zn98  1  0.75589781  0.49549324  0.74431687  1
  Zn  Zn99  1  0.74784698  0.75258777  0.49353774  1
  Zn  Zn100  1  0.74589604  0.50396878  0.24608519  1
  Zn  Zn101  1  0.12461489  0.87727471  0.75169710  1
  Zn  Zn102  1  0.37135166  0.49738835  0.87317853  1
  Zn  Zn103  1  0.37129748  0.12211462  0.25050410  1
  Zn  Zn104  1  0.87442673  0.87471051  0.49907110  1
  Zn  Zn105  1  -0.00766534  0.25323308  0.23853158  1
  Zn  Zn106  1  0.48569032  -0.01986380  0.00468320  1
  Zn  Zn107  1  0.15637369  0.19720188  0.17737523  1
  Zn  Zn108  1  0.18619002  0.18815559  0.69018975  1
  Zn  Zn109  1  0.19238610  0.69331791  0.18594654  1
  Zn  Zn110  1  0.18804810  0.69065994  0.68843863  1
  Zn  Zn111  1  0.68766190  0.19077989  0.19493728  1
  Zn  Zn112  1  0.69300555  0.19265961  0.69114586  1
  Zn  Zn113  1  0.69345483  0.69131651  0.18900195  1
  Zn  Zn114  1  0.68967923  0.68352068  0.68820456  1
  Zn  Zn115  1  0.30591852  0.31060063  0.31385660  1
  Zn  Zn116  1  0.31205131  0.31268304  0.81228206  1
  Zn  Zn117  1  0.31384761  0.80525845  0.30749786  1
  Zn  Zn118  1  0.30996559  0.80956752  0.80403802  1
  Zn  Zn119  1  0.81156487  0.30855112  0.31638576  1
  Zn  Zn120  1  0.81283923  0.30976401  0.81992643  1
  Zn  Zn121  1  0.81837688  0.81401758  0.30785716  1
  Zn  Zn122  1  0.81085736  0.81174142  0.81716925  1
  Zn  Zn123  1  0.18844095  0.44534200  0.43866697  1
  Zn  Zn124  1  0.19019338  0.43826365  0.93926907  1
  Zn  Zn125  1  0.18583050  0.93871671  0.43793738  1
  Zn  Zn126  1  0.18900826  0.94002416  0.93453798  1
  Zn  Zn127  1  0.68426991  0.45160244  0.42399271  1
  Zn  Zn128  1  0.69331563  0.43669536  0.93598385  1
  Zn  Zn129  1  0.68406968  0.93755536  0.43972169  1
  Zn  Zn130  1  0.65968343  0.92367187  0.95113931  1
  Zn  Zn131  1  0.30840770  0.06120538  0.05780352  1
  Zn  Zn132  1  0.31201497  0.06153984  0.55743472  1
  Zn  Zn133  1  0.31426870  0.56365004  0.06115517  1
  Zn  Zn134  1  0.30887167  0.56729136  0.56016174  1
  Zn  Zn135  1  0.80879039  0.05954660  0.06652540  1
  Zn  Zn136  1  0.80824249  0.06584405  0.56654657  1
  Zn  Zn137  1  0.81492437  0.56296986  0.05899931  1
  Zn  Zn138  1  0.81435068  0.56179579  0.56032773  1
  Zn  Zn139  1  0.43579712  0.43455616  0.19092739  1
  Zn  Zn140  1  0.44120901  0.43563232  0.68705222  1
  Zn  Zn141  1  0.43626277  0.93215723  0.19278030  1
  Zn  Zn142  1  0.43599176  0.93667762  0.69199291  1
  Zn  Zn143  1  0.93923658  0.43931602  0.18218953  1
  Zn  Zn144  1  0.93843109  0.43845769  0.68059061  1
  Zn  Zn145  1  0.93444868  0.93809332  0.18550975  1
  Zn  Zn146  1  0.93593218  0.93819277  0.69298295  1
  Zn  Zn147  1  0.06316418  0.06013048  0.30991401  1
  Zn  Zn148  1  0.06654468  0.06676379  0.81247760  1
  Zn  Zn149  1  0.06338780  0.56453968  0.31402562  1
  Zn  Zn150  1  0.06213753  0.56559089  0.81326797  1
  Zn  Zn151  1  0.55617684  0.05464481  0.31463201  1
  Zn  Zn152  1  0.56363661  0.05742004  0.81433781  1
  Zn  Zn153  1  0.56800272  0.55315016  0.19490333  1
  Zn  Zn154  1  0.56125178  0.56091189  0.81718310  1
  Zn  Zn155  1  0.42396095  0.18866000  0.43746909  1
  Zn  Zn156  1  0.43917352  0.18799068  0.94383578  1
  Zn  Zn157  1  0.43560811  0.68774005  0.43220827  1
  Zn  Zn158  1  0.44211745  0.68314731  0.93548951  1
  Zn  Zn159  1  0.93340299  0.18991928  0.43253064  1
  Zn  Zn160  1  0.93792703  0.18670092  0.93517423  1
  Zn  Zn161  1  0.93706707  0.68721090  0.43803302  1
  Zn  Zn162  1  0.94292587  0.68621017  0.93549657  1
  Zn  Zn163  1  0.06093714  0.31137816  0.06669560  1
  Zn  Zn164  1  0.05970966  0.31492270  0.56852239  1
  Zn  Zn165  1  0.06188242  0.81632658  0.06011793  1
  Zn  Zn166  1  0.06160011  0.81592990  0.56568633  1
  Zn  Zn167  1  0.56241498  0.31162080  0.06856641  1
  Zn  Zn168  1  0.55612669  0.32767889  0.56833035  1
  Zn  Zn169  1  0.56091916  0.81083951  0.06381061  1
  Zn  Zn170  1  0.56684751  0.80551539  0.56351223  1
  O  O171  1  0.13924521  0.10312038  0.11303771  1
  O  O172  1  0.11700753  0.12106626  0.62103955  1
  O  O173  1  0.12649994  0.62201873  0.11852212  1
  O  O174  1  0.12427099  0.62012592  0.61964537  1
  O  O175  1  0.61601580  0.11881244  0.12714096  1
  O  O176  1  0.62008510  0.11484475  0.63480570  1
  O  O177  1  0.63246471  0.62438950  0.11458231  1
  O  O178  1  0.61006554  0.62022192  0.63180672  1
  O  O179  1  0.36562705  0.37562281  0.39053675  1
  O  O180  1  0.38025765  0.37392816  0.88442285  1
  O  O181  1  0.38752189  0.87061260  0.36947681  1
  O  O182  1  0.37129342  0.88252715  0.87138207  1
  O  O183  1  0.87218666  0.38393748  0.38398078  1
  O  O184  1  0.87342839  0.38610178  0.88536503  1
  O  O185  1  0.88244813  0.88795794  0.37453960  1
  O  O186  1  0.88437569  0.87160521  0.88686479  1
  O  O187  1  0.24436282  0.00720711  0.36514186  1
  O  O188  1  0.25836418  0.00680681  0.86822995  1
  O  O189  1  0.25249434  0.52123583  0.38124866  1
  O  O190  1  0.24998566  0.51486636  0.87669550  1
  O  O191  1  0.75537700  0.00324653  0.36900210  1
  O  O192  1  0.73871365  0.00105525  0.86536289  1
  O  O193  1  0.76650721  0.51202578  0.36959022  1
  O  O194  1  0.76310505  0.50496369  0.87081391  1
  O  O195  1  0.23980323  0.49323529  0.11826526  1
  O  O196  1  0.23686654  0.49517201  0.62162921  1
  O  O197  1  0.24858537  0.98616131  0.12875386  1
  O  O198  1  0.24525558  0.99671141  0.63222843  1
  O  O199  1  0.75977090  0.48567610  0.12488647  1
  O  O200  1  0.74918938  0.50851647  0.63207007  1
  O  O201  1  0.74348401  0.99702171  0.14085850  1
  O  O202  1  0.74229811  0.99350416  0.63519145  1
  O  O203  1  0.01342537  0.37345205  0.24366965  1
  O  O204  1  0.00727796  0.36572313  0.74508778  1
  O  O205  1  0.00625682  0.87143138  0.25428341  1
  O  O206  1  -0.00192508  0.86690048  0.76301867  1
  O  O207  1  0.49106908  0.37216344  0.27176245  1
  O  O208  1  0.50817762  0.36785223  0.75899133  1
  O  O209  1  0.50633173  0.86517952  0.25809841  1
  O  O210  1  0.50962913  0.86253344  0.74744793  1
  O  O211  1  0.49293074  0.12289482  0.24133542  1
  O  O212  1  0.50266217  0.14005919  0.76173837  1
  O  O213  1  0.49459783  0.63504479  0.24678910  1
  O  O214  1  0.49328787  0.62743457  0.74464008  1
  O  O215  1  0.98275439  0.11893869  0.25416487  1
  O  O216  1  0.99312905  0.13368028  0.74863260  1
  O  O217  1  0.99906892  0.63472277  0.24308142  1
  O  O218  1  0.99398988  0.63785307  0.75094985  1
  O  O219  1  0.36913458  0.25897774  0.01102945  1
  O  O220  1  0.36397580  0.25870671  0.51144264  1
  O  O221  1  0.38370314  0.74488712  0.01289386  1
  O  O222  1  0.37420163  0.74468656  0.51464090  1
  O  O223  1  0.87013190  0.25890844  -0.00717846  1
  O  O224  1  0.87819695  0.26924441  0.49473744  1
  O  O225  1  0.88304241  0.75522124  0.00655427  1
  O  O226  1  0.87413811  0.75425976  0.51144527  1
  O  O227  1  0.12576618  0.24861863  0.49612811  1
  O  O228  1  0.12984602  0.24600401  0.99030232  1
  O  O229  1  0.12150070  0.73820869  0.50586061  1
  O  O230  1  0.11991191  0.74207596  0.99188391  1
  O  O231  1  0.60835750  0.23811110  0.51712431  1
  O  O232  1  0.63294614  0.24364778  0.99871518  1
  O  O233  1  0.63632424  0.73933979  0.50963484  1
  O  O234  1  0.62310023  0.73576593  0.98901847  1
  O  O235  1  0.48808934  0.24103384  0.12672236  1
  O  O236  1  0.49369097  0.24022240  0.63019896  1
  O  O237  1  0.48616805  0.75742345  0.13220902  1
  O  O238  1  0.49389774  0.74173193  0.63476862  1
  O  O239  1  1.04782334  0.23301156  0.14237954  1
  O  O240  1  0.99536265  0.24439539  0.63516123  1
  O  O241  1  0.99517586  0.74684836  0.12919506  1
  O  O242  1  0.98961236  0.75386865  0.63533311  1
  O  O243  1  0.01271289  0.24640440  0.36747940  1
  O  O244  1  0.01337802  0.24743892  0.86640037  1
  O  O245  1  -0.00684129  0.76449671  0.36651315  1
  O  O246  1  0.00998584  0.75699538  0.87009998  1
  O  O247  1  0.48781058  0.26374002  0.37922247  1
  O  O248  1  0.50395488  0.25866396  0.87288423  1
  O  O249  1  0.49753154  0.75811844  0.36451112  1
  O  O250  1  0.51065740  0.74100352  0.86257427  1
  O  O251  1  0.23802484  0.13108373  0.49331994  1
  O  O252  1  0.24202139  0.13211495  0.99165466  1
  O  O253  1  0.24037455  0.63198367  0.49241736  1
  O  O254  1  0.23990111  0.62456989  0.99226589  1
  O  O255  1  0.74934191  0.12087054  0.48442197  1
  O  O256  1  0.74910268  0.13219096  0.99794939  1
  O  O257  1  0.75842809  0.62618085  0.48144510  1
  O  O258  1  0.74150237  0.61956246  0.98925538  1
  O  O259  1  0.25618213  0.36941053  0.00829890  1
  O  O260  1  0.25040595  0.37363050  0.51321562  1
  O  O261  1  0.24783298  0.87451463  0.01089589  1
  O  O262  1  0.23998395  0.87269106  0.51431048  1
  O  O263  1  0.76079315  0.36913459  0.00731557  1
  O  O264  1  0.75508053  0.37572465  0.49166991  1
  O  O265  1  0.76206953  0.87956394  -0.00014606  1
  O  O266  1  0.75184698  0.87633238  0.51372574  1
  O  O267  1  0.12199439  0.49674258  0.24062711  1
  O  O268  1  0.11687069  0.49300660  0.74273364  1
  O  O269  1  0.13299997  0.99313284  0.23829583  1
  O  O270  1  0.13578844  1.00073262  0.74561498  1
  O  O271  1  0.63406446  0.48736013  0.25833306  1
  O  O272  1  0.62533129  0.48409226  0.75815527  1
  O  O273  1  0.62998171  0.99413046  0.24381731  1
  O  O274  1  0.62967763  0.98915715  0.74563878  1
  O  O275  1  0.36015855  -0.00085247  0.25228283  1
  O  O276  1  0.36324899  -0.00132152  0.76080780  1
  O  O277  1  0.37503493  0.51586276  0.24813450  1
  O  O278  1  0.37959501  0.51111841  0.75069353  1
  O  O279  1  0.86659654  0.00396371  0.25633689  1
  O  O280  1  0.86392524  0.00887777  0.74899790  1
  O  O281  1  0.87947997  0.50767139  0.25404182  1
  O  O282  1  0.88225840  0.50380084  0.75888087  1
  O  O283  1  0.13090251  0.37319240  0.36867974  1
  O  O284  1  0.13260335  0.36904866  0.86374152  1
  O  O285  1  0.11714107  0.88150692  0.36109154  1
  O  O286  1  0.11552386  0.87027122  0.87617433  1
  O  O287  1  0.60794155  0.37226439  0.38519847  1
  O  O288  1  0.61829762  0.36850094  0.87281333  1
  O  O289  1  0.61653232  0.87982068  0.36445030  1
  O  O290  1  0.63974536  0.85927296  0.85792938  1
  O  O291  1  0.37842622  0.13057821  0.12370408  1
  O  O292  1  0.36217192  0.13865849  0.62697223  1
  O  O293  1  0.36453059  0.64001493  0.13023470  1
  O  O294  1  0.38263057  0.62935318  0.63128639  1
  O  O295  1  0.87004354  0.12054486  0.14169452  1
  O  O296  1  0.87988567  0.12605342  0.63814157  1
  O  O297  1  0.88255789  0.63249838  0.12689034  1
  O  O298  1  0.87914163  0.63437440  0.63193634  1
  O  O299  1  0.25135885  0.25851534  0.12085218  1
  O  O300  1  0.25231287  0.25973561  0.62376335  1
  O  O301  1  0.26221136  0.76418818  0.12686329  1
  O  O302  1  0.25807113  0.75944073  0.62581428  1
  O  O303  1  0.75179745  0.25598239  0.11370908  1
  O  O304  1  0.75359446  0.24192163  0.61384722  1
  O  O305  1  0.76804199  0.75454332  0.12991222  1
  O  O306  1  0.76267234  0.75779545  0.63153230  1
  O  O307  1  0.24107043  0.24346346  0.38506131  1
  O  O308  1  0.24085051  0.24477492  0.87694278  1
  O  O309  1  0.25329997  0.73636337  0.37731743  1
  O  O310  1  0.23631395  0.74395036  0.86788268  1
  O  O311  1  0.74719473  0.23579367  0.38243740  1
  O  O312  1  0.74380436  0.24326373  0.88722535  1
  O  O313  1  0.76412815  0.73806576  0.37338282  1
  O  O314  1  0.74163727  0.73764264  0.87157769  1
  O  O315  1  0.01389425  0.12655926  -0.00525108  1
  O  O316  1  0.00139867  0.12196255  0.50427261  1
  O  O317  1  0.01302660  0.61839373  0.00393919  1
  O  O318  1  0.00729884  0.61674893  0.49984876  1
  O  O319  1  0.50572278  0.12064102  0.01347173  1
  O  O320  1  0.49333476  0.11855804  0.50018218  1
  O  O321  1  0.51878326  0.61865653  -0.00455562  1
  O  O322  1  0.49687003  0.61853238  0.50597336  1
  O  O323  1  0.48629120  0.38059177  0.49618314  1
  O  O324  1  0.49191314  0.37168292  0.99449389  1
  O  O325  1  0.50565631  0.86885332  0.48558989  1
  O  O326  1  0.55131370  0.89118895  0.98870051  1
  O  O327  1  1.00428225  0.38910037  0.50028747  1
  O  O328  1  0.99732421  0.38313452  1.00510644  1
  O  O329  1  1.00018120  0.88190316  0.49095173  1
  O  O330  1  0.99179286  0.87573455  0.98769325  1
  O  O331  1  0.48599265  0.48367264  0.39018088  1
  O  O332  1  0.49618503  0.48587195  0.87978245  1
  O  O333  1  0.49298762  0.98199652  0.37596098  1
  O  O334  1  0.48055972  1.00302830  0.87280210  1
  O  O335  1  0.99036170  0.50427056  0.38109884  1
  O  O336  1  0.99657054  0.50472977  0.88775465  1
  O  O337  1  0.99365611  0.99266049  0.37883749  1
  O  O338  1  1.00442203  0.98581549  0.86812958  1
  O  O339  1  0.01759207  -0.00779524  0.12670415  1
  O  O340  1  0.00374820  0.00596135  0.62296689  1
  O  O341  1  0.01147459  0.50792915  0.11495389  1
  O  O342  1  0.01201131  0.50389714  0.61646893  1
  O  O343  1  0.50451097  0.00321869  0.12494486  1
  O  O344  1  0.50896772  -0.00451956  0.62789873  1
  O  O345  1  0.50228790  0.49346907  0.12593744  1
  O  O346  1  0.50071832  0.50498858  0.61332716  1
  O  O347  1  0.24551499  0.37858017  0.23951144  1
  O  O348  1  0.24208832  0.37440305  0.74084691  1
  O  O349  1  0.24259583  0.87916734  0.24506443  1
  O  O350  1  0.24583202  0.88411377  0.73941400  1
  O  O351  1  0.76107470  0.37112036  0.23190436  1
  O  O352  1  0.73454929  0.37210560  0.75932248  1
  O  O353  1  0.74329788  0.88268423  0.25183317  1
  O  O354  1  0.74792135  0.88066276  0.74226084  1
  O  O355  1  0.24320581  0.11613840  0.25548216  1
  O  O356  1  0.24458258  0.11748202  0.76010351  1
  O  O357  1  0.25540154  0.63070809  0.25919527  1
  O  O358  1  0.25890328  0.62954160  0.75724891  1
  O  O359  1  0.75776670  0.11837302  0.26061391  1
  O  O360  1  0.75582262  0.11754894  0.75841017  1
  O  O361  1  0.76331273  0.62580374  0.25538858  1
  O  O362  1  0.75930241  0.62310664  0.76281034  1
  O  O363  1  0.35532415  0.12437146  0.37170979  1
  O  O364  1  0.36285011  0.12869660  0.88017113  1
  O  O365  1  0.36578823  0.62451980  0.36417920  1
  O  O366  1  0.36720142  0.62427422  0.86781751  1
  O  O367  1  0.86809839  0.11347604  0.37004240  1
  O  O368  1  0.86847510  0.12823221  0.86349730  1
  O  O369  1  0.87746016  0.61918899  0.36361310  1
  O  O370  1  0.87153904  0.61510562  0.87425081  1
  O  O371  1  0.13309595  0.38659652  0.13175938  1
  O  O372  1  0.13134937  0.38253252  0.63602587  1
  O  O373  1  0.13577909  0.88090504  0.12876290  1
  O  O374  1  0.12906748  0.88533704  0.62956680  1
  O  O375  1  0.64560821  0.37523540  0.11711164  1
  O  O376  1  0.62006378  0.38157168  0.64306940  1
  O  O377  1  0.62744514  0.88217699  0.13932556  1
  O  O378  1  0.63288280  0.87834104  0.63542626  1
  O  O379  1  0.13871811  0.26733907  0.26713224  1
  O  O380  1  0.11750641  0.25860961  0.75574468  1
  O  O381  1  0.11346423  0.75976477  0.24170902  1
  O  O382  1  0.11505948  0.75347969  0.75678268  1
  O  O383  1  0.61908074  0.26280591  0.24299899  1
  O  O384  1  0.61828931  0.25972626  0.75723298  1
  O  O385  1  0.61618380  0.75750939  0.24251567  1
  O  O386  1  0.61831033  0.75244714  0.75425605  1
  O  O387  1  0.37071571  0.24712468  0.23920457  1
  O  O388  1  0.38578812  0.26024021  0.74067823  1
  O  O389  1  0.38325032  0.74060843  0.23984269  1
  O  O390  1  0.38275680  0.73924573  0.74361133  1
  O  O391  1  0.87719921  0.23431433  0.25555975  1
  O  O392  1  0.88242429  0.24678917  0.75115082  1
  O  O393  1  0.88940677  0.74883288  0.23889091  1
  O  O394  1  0.88213310  0.74592405  0.74791727  1
  O  O395  1  0.37712161  0.49273868  0.50377374  1
  O  O396  1  0.37543239  0.48654174  0.99931914  1
  O  O397  1  0.37154881  0.99302509  0.49731870  1
  O  O398  1  0.37208575  0.99850920  0.98324571  1
  O  O399  1  0.88287615  0.49064651  0.49145856  1
  O  O400  1  0.88680577  0.49382985  0.99428393  1
  O  O401  1  0.88005725  0.99979274  0.49398868  1
  O  O402  1  0.87369123  0.99029112  1.00041161  1
  O  O403  1  0.12786499  0.00438233  0.00789438  1
  O  O404  1  0.11730492  0.00772282  0.50641675  1
  O  O405  1  0.12152829  0.50678909  0.00584803  1
  O  O406  1  0.11936992  0.51127560  0.50692471  1
  O  O407  1  0.64188139  0.01474166  0.02185582  1
  O  O408  1  0.62034900  -0.00411125  0.51706429  1
  O  O409  1  0.62735429  0.51178853  -0.00491010  1
  O  O410  1  0.61395301  0.50988136  0.49656698  1
  O  O411  1  0.36700535  0.36708282  0.12170262  1
  O  O412  1  0.36686691  0.37118696  0.61930991  1
  O  O413  1  0.36544782  0.86591485  0.12544231  1
  O  O414  1  0.36566573  0.86486202  0.63327375  1
  O  O415  1  0.87144224  0.37497624  0.11158859  1
  O  O416  1  0.87819444  0.37715369  0.60351138  1
  O  O417  1  0.87720683  0.87055900  0.10887020  1
  O  O418  1  0.86799273  0.87004370  0.62609561  1
  O  O419  1  0.12946234  0.13234344  0.37813828  1
  O  O420  1  0.13390817  0.13257020  0.88111638  1
  O  O421  1  0.13487731  0.62585449  0.38060967  1
  O  O422  1  0.13083227  0.63253951  0.88085481  1
  O  O423  1  0.63707122  0.11713680  0.36935591  1
  O  O424  1  0.63075085  0.12849340  0.88389392  1
  O  O425  1  0.64845213  0.62591919  0.36825638  1
  O  O426  1  0.63439512  0.62830647  0.87931870  1
