# generated using pymatgen
data_V85Zn86O256
_symmetry_space_group_name_H-M   'P 1'
_cell_length_a   16.99273494
_cell_length_b   16.99275621
_cell_length_c   16.99221607
_cell_angle_alpha   89.97729518
_cell_angle_beta   90.04992156
_cell_angle_gamma   90.05315740
_symmetry_Int_Tables_number   1
_chemical_formula_structural   V85Zn86O256
_chemical_formula_sum   'V85 Zn86 O256'
_cell_volume   4906.55584231
_cell_formula_units_Z   1
loop_
 _symmetry_equiv_pos_site_id
 _symmetry_equiv_pos_as_xyz
  1  'x, y, z'
loop_
 _atom_site_type_symbol
 _atom_site_label
 _atom_site_symmetry_multiplicity
 _atom_site_fract_x
 _atom_site_fract_y
 _atom_site_fract_z
 _atom_site_occupancy
  V  V0  1  0.75994394  0.49778756  0.74981381  1
  V  V1  1  0.62512710  0.25252270  0.37285337  1
  V  V2  1  0.00630795  0.62880556  0.62171981  1
  V  V3  1  0.12210436  0.86539634  0.24454544  1
  V  V4  1  0.50199742  0.87190086  0.38765078  1
  V  V5  1  0.23415861  0.73223938  0.50410647  1
  V  V6  1  0.24948493  0.75143066  0.00461450  1
  V  V7  1  0.75032029  0.00041491  0.74927923  1
  V  V8  1  0.37478542  0.50276984  0.84709418  1
  V  V9  1  0.76458979  0.25210408  0.00727775  1
  V  V10  1  -0.00127905  0.86671449  0.37012403  1
  V  V11  1  0.87002846  0.49974108  0.36794245  1
  V  V12  1  0.75308963  0.75305526  0.00112300  1
  V  V13  1  0.24965872  0.13552250  0.87836669  1
  V  V14  1  0.12673208  0.61903338  -0.00081418  1
  V  V15  1  0.12336626  0.75006988  0.87548458  1
  V  V16  1  0.87607650  0.24888786  0.62455721  1
  V  V17  1  0.50560486  0.76046325  0.24771533  1
  V  V18  1  -0.00157943  0.37555079  0.37546907  1
  V  V19  1  0.25026103  0.25709158  0.50351070  1
  V  V20  1  0.43203472  0.07240576  0.69662177  1
  V  V21  1  0.37124442  0.00581081  0.87927936  1
  V  V22  1  0.74755966  0.87922313  0.62076139  1
  V  V23  1  0.00049332  0.62239216  0.12279519  1
  V  V24  1  0.37217299  0.12206931  0.24801477  1
  V  V25  1  0.12635437  0.37593395  0.25187937  1
  V  V26  1  0.24162584  0.12044003  0.37765457  1
  V  V27  1  0.48989544  0.38860450  0.38328555  1
  V  V28  1  0.87214258  0.74921640  0.62491181  1
  V  V29  1  0.75282479  0.12620871  0.87621021  1
  V  V30  1  0.12353812  0.87873516  0.73777780  1
  V  V31  1  -0.00591526  0.12771820  0.12467014  1
  V  V32  1  0.74301458  0.62029669  0.37222915  1
  V  V33  1  0.62470838  0.75013355  0.87491362  1
  V  V34  1  0.01333100  0.12307170  0.62193203  1
  V  V35  1  0.75218954  0.37428596  0.62413718  1
  V  V36  1  0.12206612  0.49787359  0.12277680  1
  V  V37  1  0.74901195  0.12511965  0.37384940  1
  V  V38  1  0.00021473  0.87552198  0.87424345  1
  V  V39  1  0.50041952  0.12463107  0.12474508  1
  V  V40  1  0.01360741  0.00402721  0.50039494  1
  V  V41  1  0.62757207  0.38382411  0.24579252  1
  V  V42  1  0.62781238  0.75701840  0.36879330  1
  V  V43  1  0.74786371  -0.00864635  0.25126474  1
  V  V44  1  0.74927069  0.24807490  0.49919880  1
  V  V45  1  0.87620850  0.12387766  0.74735500  1
  V  V46  1  0.49915411  0.25138320  0.74455315  1
  V  V47  1  0.50041497  0.00126113  0.00191427  1
  V  V48  1  0.50132973  0.37695099  0.87254164  1
  V  V49  1  0.74451213  0.74547750  0.49808036  1
  V  V50  1  0.76190262  0.37942633  0.12531447  1
  V  V51  1  0.48641436  0.63321849  0.62297562  1
  V  V52  1  0.00297447  0.37200481  0.88885310  1
  V  V53  1  -0.00658732  0.24993753  0.24771812  1
  V  V54  1  0.88221102  0.75294336  0.12865657  1
  V  V55  1  0.35583637  0.87109160  0.49967893  1
  V  V56  1  0.87651552  0.00248502  0.37600586  1
  V  V57  1  0.75338818  0.62334127  0.87616378  1
  V  V58  1  0.24720306  0.36599152  0.11909063  1
  V  V59  1  0.49782852  0.25342485  0.24439979  1
  V  V60  1  0.62415683  0.62486946  -0.00274840  1
  V  V61  1  0.49725009  0.87413413  0.87875532  1
  V  V62  1  0.12974268  0.13772600  -0.00092866  1
  V  V63  1  0.62714320  0.25074332  0.87721210  1
  V  V64  1  0.23679559  0.00597530  0.74279555  1
  V  V65  1  0.87370478  0.62719014  0.24937446  1
  V  V66  1  0.87883090  0.49283146  0.89403506  1
  V  V67  1  0.12934223  -0.00337939  0.12466446  1
  V  V68  1  0.25173445  -0.01096904  0.24908645  1
  V  V69  1  0.00695864  0.25134808  0.75546551  1
  V  V70  1  0.00448788  0.50866937  0.49762016  1
  V  V71  1  0.43356234  0.05017316  0.42807303  1
  V  V72  1  0.62818393  0.51438339  0.61334658  1
  V  V73  1  0.62456006  0.87446104  0.74923336  1
  V  V74  1  0.50140939  0.62692368  0.12716514  1
  V  V75  1  0.37841107  0.25823265  0.62454375  1
  V  V76  1  0.49716521  0.50182620  -0.00332488  1
  V  V77  1  0.12332980  0.24769419  0.38301754  1
  V  V78  1  0.25474531  0.62210224  0.86392040  1
  V  V79  1  0.37084313  0.37107070  -0.00375761  1
  V  V80  1  0.62822067  0.37560672  0.74738208  1
  V  V81  1  0.37084678  0.75564707  0.13175232  1
  V  V82  1  0.00151593  -0.00033592  0.00012463  1
  V  V83  1  0.62527687  -0.00684377  0.12762834  1
  V  V84  1  0.87503202  0.37585413  0.50057316  1
  Zn  Zn85  1  0.87664182  0.62696573  0.75265417  1
  Zn  Zn86  1  0.87447192  0.87733589  0.49848901  1
  Zn  Zn87  1  0.87164246  0.12862296  0.24524600  1
  Zn  Zn88  1  0.36709880  0.24673438  0.11783559  1
  Zn  Zn89  1  0.87583380  0.87676046  0.00202212  1
  Zn  Zn90  1  0.87506330  -0.00040832  0.87664607  1
  Zn  Zn91  1  0.12410763  0.74242377  0.37310590  1
  Zn  Zn92  1  0.60592186  0.00257122  0.61718894  1
  Zn  Zn93  1  -0.00309203  0.75242792  0.74920470  1
  Zn  Zn94  1  0.62853231  0.50009785  0.12331394  1
  Zn  Zn95  1  0.38066321  0.61495064  0.26400566  1
  Zn  Zn96  1  0.61193461  0.12184477  0.50591144  1
  Zn  Zn97  1  0.12896468  0.38269990  0.75655112  1
  Zn  Zn98  1  0.26292707  0.49444297  0.25952957  1
  Zn  Zn99  1  0.36379543  0.87807446  0.00554811  1
  Zn  Zn100  1  0.48326029  0.73892599  0.75760274  1
  Zn  Zn101  1  0.12985841  0.49965764  0.63031381  1
  Zn  Zn102  1  0.74932295  0.87211530  0.12895955  1
  Zn  Zn103  1  0.35906052  0.75494084  0.63062756  1
  Zn  Zn104  1  0.62751474  0.12636685  0.00288697  1
  Zn  Zn105  1  0.24467747  0.60999605  0.37535318  1
  Zn  Zn106  1  0.24611302  0.38136252  0.63633633  1
  Zn  Zn107  1  0.18230610  0.18649993  0.19075216  1
  Zn  Zn108  1  0.19096601  0.19403644  0.69340100  1
  Zn  Zn109  1  0.19383333  0.68136549  0.19401846  1
  Zn  Zn110  1  0.18222544  0.69328270  0.68686812  1
  Zn  Zn111  1  0.68593126  0.18707609  0.18717046  1
  Zn  Zn112  1  0.68297252  0.18228816  0.68428773  1
  Zn  Zn113  1  0.68965147  0.68670307  0.18776030  1
  Zn  Zn114  1  0.69091892  0.68958482  0.69295098  1
  Zn  Zn115  1  0.31047106  0.31261841  0.31134120  1
  Zn  Zn116  1  0.31774913  0.31348816  0.80878845  1
  Zn  Zn117  1  0.36113613  0.74852830  0.37060987  1
  Zn  Zn118  1  0.30359455  0.81822028  0.81785934  1
  Zn  Zn119  1  0.81146841  0.31430818  0.30834795  1
  Zn  Zn120  1  0.81875732  0.31268468  0.81449505  1
  Zn  Zn121  1  0.81598218  0.81176346  0.31203450  1
  Zn  Zn122  1  0.81383205  0.81425663  0.81278536  1
  Zn  Zn123  1  0.18938657  0.44056727  0.44091164  1
  Zn  Zn124  1  0.19041221  0.44048712  0.93437337  1
  Zn  Zn125  1  0.18404017  0.93471093  0.42601806  1
  Zn  Zn126  1  0.18533078  0.93907416  0.93489735  1
  Zn  Zn127  1  0.68717485  0.43589979  0.43477525  1
  Zn  Zn128  1  0.69034864  0.43522738  0.93988282  1
  Zn  Zn129  1  0.68066038  0.94026660  0.44252505  1
  Zn  Zn130  1  0.68725309  0.93836607  0.93909614  1
  Zn  Zn131  1  0.31112145  0.06290020  0.06390933  1
  Zn  Zn132  1  0.30124353  0.06774595  0.56046365  1
  Zn  Zn133  1  0.33026281  0.54357756  0.09813839  1
  Zn  Zn134  1  0.30578758  0.56550950  0.57305136  1
  Zn  Zn135  1  0.81283968  0.06273503  0.06261572  1
  Zn  Zn136  1  0.81192253  0.06263374  0.55985679  1
  Zn  Zn137  1  0.80997166  0.56436749  0.06575785  1
  Zn  Zn138  1  0.81461493  0.56333948  0.55872381  1
  Zn  Zn139  1  0.44247825  0.43258711  0.18291882  1
  Zn  Zn140  1  0.42169472  0.46194757  0.63585905  1
  Zn  Zn141  1  0.43648428  0.93521356  0.19218690  1
  Zn  Zn142  1  0.41562654  0.90014260  0.70494639  1
  Zn  Zn143  1  0.94020814  0.44111029  0.18767172  1
  Zn  Zn144  1  0.96749350  0.45229851  0.70258257  1
  Zn  Zn145  1  0.93748267  0.93956468  0.18845026  1
  Zn  Zn146  1  0.93790411  0.93819419  0.68406172  1
  Zn  Zn147  1  0.06270289  0.06047258  0.30975686  1
  Zn  Zn148  1  0.06350945  0.06643035  0.81620064  1
  Zn  Zn149  1  0.06221151  0.56503616  0.30941254  1
  Zn  Zn150  1  0.05757427  0.56550727  0.81337110  1
  Zn  Zn151  1  0.56820478  0.06589941  0.30684890  1
  Zn  Zn152  1  0.57005724  0.05840149  0.81743545  1
  Zn  Zn153  1  0.56423190  0.56456740  0.31120078  1
  Zn  Zn154  1  0.56509027  0.56097899  0.80471989  1
  Zn  Zn155  1  0.43299628  0.21744382  0.43241050  1
  Zn  Zn156  1  0.43939788  0.18751006  0.93500791  1
  Zn  Zn157  1  0.43346554  0.56794822  0.45015262  1
  Zn  Zn158  1  0.43056256  0.68690769  0.93990593  1
  Zn  Zn159  1  0.93790851  0.18519164  0.43739104  1
  Zn  Zn160  1  0.93980494  0.18656836  0.93686941  1
  Zn  Zn161  1  0.93082777  0.68837364  0.43900179  1
  Zn  Zn162  1  0.93850285  0.68505084  0.94024559  1
  Zn  Zn163  1  0.05825720  0.31182240  0.06451164  1
  Zn  Zn164  1  0.06205201  0.31466542  0.56479823  1
  Zn  Zn165  1  0.06268925  0.81103106  0.06208919  1
  Zn  Zn166  1  0.05845914  0.81599175  0.55823832  1
  Zn  Zn167  1  0.56541152  0.31466345  0.06042096  1
  Zn  Zn168  1  0.56563892  0.31335372  0.56242696  1
  Zn  Zn169  1  0.56345977  0.81376353  0.06146957  1
  Zn  Zn170  1  0.56349493  0.80361287  0.56235155  1
  O  O171  1  0.11789613  0.11822536  0.11607887  1
  O  O172  1  0.11142881  0.13040650  0.63006210  1
  O  O173  1  0.11909765  0.61727795  0.12150981  1
  O  O174  1  0.10812945  0.62528455  0.62742542  1
  O  O175  1  0.61759271  0.11525626  0.12451740  1
  O  O176  1  0.62215569  0.11739238  0.62058888  1
  O  O177  1  0.61765996  0.62503053  0.11647711  1
  O  O178  1  0.64461833  0.61366165  0.62281910  1
  O  O179  1  0.39251854  0.36974476  0.36916485  1
  O  O180  1  0.38236495  0.38618230  0.87867018  1
  O  O181  1  0.38659907  0.86493299  0.39157027  1
  O  O182  1  0.38195824  0.88874146  0.87923423  1
  O  O183  1  0.87689663  0.38227288  0.37776729  1
  O  O184  1  0.87948406  0.38690500  0.87770862  1
  O  O185  1  0.88224998  0.88493622  0.37338838  1
  O  O186  1  0.88757110  0.87774971  0.87711461  1
  O  O187  1  0.24225359  0.01080058  0.36210531  1
  O  O188  1  0.25714006  0.00698196  0.87030639  1
  O  O189  1  0.25510883  0.49403046  0.37296842  1
  O  O190  1  0.26101165  0.51340251  0.87549470  1
  O  O191  1  0.75429011  0.00712838  0.36901604  1
  O  O192  1  0.75228476  0.00725554  0.86991870  1
  O  O193  1  0.75651434  0.50891763  0.37780064  1
  O  O194  1  0.76072598  0.50041276  0.87051951  1
  O  O195  1  0.23324446  0.48519507  0.12405404  1
  O  O196  1  0.24208480  0.49583575  0.62877650  1
  O  O197  1  0.23665246  1.00643234  0.13233349  1
  O  O198  1  0.25160937  1.01004168  0.64468131  1
  O  O199  1  0.74604337  0.48384514  0.11735758  1
  O  O200  1  0.74960642  0.49381766  0.63146204  1
  O  O201  1  0.74399856  1.00072813  0.13306491  1
  O  O202  1  0.75504727  0.98718144  0.62925567  1
  O  O203  1  0.00497646  0.36810326  0.25537107  1
  O  O204  1  -0.01098376  0.35986071  0.76472693  1
  O  O205  1  0.00915032  0.88446217  0.25972654  1
  O  O206  1  0.00448323  0.87755080  0.75818076  1
  O  O207  1  0.50826936  0.36973425  0.25317259  1
  O  O208  1  0.51304015  0.36423431  0.75709212  1
  O  O209  1  0.49708471  0.86445462  0.25989584  1
  O  O210  1  0.51224098  0.87902702  0.76694774  1
  O  O211  1  0.49356720  0.13327855  0.24483320  1
  O  O212  1  0.49802636  0.12765498  0.75444939  1
  O  O213  1  0.50252515  0.63273221  0.23965152  1
  O  O214  1  0.51541458  0.63180889  0.73367826  1
  O  O215  1  1.00127812  0.13224356  0.24079992  1
  O  O216  1  0.99240788  0.12795189  0.74496549  1
  O  O217  1  0.98621799  0.61894383  0.23490594  1
  O  O218  1  0.99264980  0.63302235  0.73864976  1
  O  O219  1  0.38622397  0.26755360  -0.00148225  1
  O  O220  1  0.36347360  0.24737013  0.51179007  1
  O  O221  1  0.36503381  0.75453153  0.00668803  1
  O  O222  1  0.35115665  0.76352145  0.50512953  1
  O  O223  1  0.86237719  0.24738873  -0.00059601  1
  O  O224  1  0.86929337  0.25510782  0.50264676  1
  O  O225  1  0.86735315  0.75013134  0.00754059  1
  O  O226  1  0.86173981  0.75653074  0.50553863  1
  O  O227  1  0.12545757  0.25028804  0.48724428  1
  O  O228  1  0.12284521  0.23543111  1.00464059  1
  O  O229  1  0.13299571  0.75679792  0.49696310  1
  O  O230  1  0.12892771  0.74085721  0.99587303  1
  O  O231  1  0.63032343  0.24598535  0.48945515  1
  O  O232  1  0.62884670  0.24904901  0.98691111  1
  O  O233  1  0.63859165  0.75229379  0.48958950  1
  O  O234  1  0.63290116  0.74591612  0.99413215  1
  O  O235  1  0.50234809  0.24739304  0.13444442  1
  O  O236  1  0.49508445  0.25346364  0.63229317  1
  O  O237  1  0.50045799  0.74633204  0.13083565  1
  O  O238  1  0.50068280  0.74150251  0.63275510  1
  O  O239  1  1.00545004  0.24048633  0.13585231  1
  O  O240  1  0.99175924  0.24132859  0.63188558  1
  O  O241  1  0.98814715  0.74206358  0.12061967  1
  O  O242  1  0.98815674  0.74549498  0.62034623  1
  O  O243  1  0.00629354  0.25383783  0.37042170  1
  O  O244  1  -0.00733618  0.26199372  0.87015840  1
  O  O245  1  -0.00479389  0.76469230  0.38052829  1
  O  O246  1  0.00484252  0.75804754  0.87583693  1
  O  O247  1  0.50905677  0.25899813  0.36046108  1
  O  O248  1  0.50966221  0.25372802  0.86761806  1
  O  O249  1  0.51173407  0.75851750  0.36556669  1
  O  O250  1  0.50241720  0.75756481  0.87518674  1
  O  O251  1  0.25057385  0.13354290  0.48333288  1
  O  O252  1  0.23626370  0.12041531  0.99614375  1
  O  O253  1  0.24225329  0.63133941  0.50194882  1
  O  O254  1  0.23949324  0.63694340  0.99008765  1
  O  O255  1  0.75249925  0.13105779  0.48504744  1
  O  O256  1  0.74964804  0.13651523  0.99641639  1
  O  O257  1  0.75862955  0.63492630  0.48506110  1
  O  O258  1  0.74464994  0.63465086  0.99643479  1
  O  O259  1  0.25940421  0.37914595  0.00440972  1
  O  O260  1  0.24101579  0.35831526  0.50535658  1
  O  O261  1  0.24522764  0.85823140  -0.00755313  1
  O  O262  1  0.25672409  0.88720673  0.49861677  1
  O  O263  1  0.74636703  0.36171258  0.01237199  1
  O  O264  1  0.75592112  0.36705807  0.50231130  1
  O  O265  1  0.75299376  0.86328391  0.00024516  1
  O  O266  1  0.75078451  0.86977680  0.50769515  1
  O  O267  1  0.11945246  0.48417321  0.24180239  1
  O  O268  1  0.08011958  0.48894325  0.73656638  1
  O  O269  1  0.12982001  0.99567943  0.23994530  1
  O  O270  1  0.13067992  0.99669480  0.75326766  1
  O  O271  1  0.62338993  0.48676849  0.24792603  1
  O  O272  1  0.64321741  0.49259275  0.74634152  1
  O  O273  1  0.63618443  1.00376190  0.24097425  1
  O  O274  1  0.63332080  0.98875343  0.74912237  1
  O  O275  1  0.36282689  0.00770509  0.24139907  1
  O  O276  1  0.36968698  0.00514649  0.75598238  1
  O  O277  1  0.36938833  0.51093354  0.20995288  1
  O  O278  1  0.38559703  0.49432591  0.74994451  1
  O  O279  1  0.86850185  0.00512850  0.26010118  1
  O  O280  1  0.87057893  0.01057502  0.74982382  1
  O  O281  1  0.87737789  0.50565427  0.26191193  1
  O  O282  1  0.86629525  0.49943574  0.75336173  1
  O  O283  1  0.11779688  0.36785010  0.36775712  1
  O  O284  1  0.10627149  0.38487821  0.87731011  1
  O  O285  1  0.11466379  0.87004048  0.36267788  1
  O  O286  1  0.11232190  0.87219829  0.87073181  1
  O  O287  1  0.62175673  0.36745998  0.36549644  1
  O  O288  1  0.62314226  0.36838866  0.86913261  1
  O  O289  1  0.62182167  0.86369904  0.37535909  1
  O  O290  1  0.61924313  0.86985044  0.87109250  1
  O  O291  1  0.38136430  0.12976316  0.12779312  1
  O  O292  1  0.37893134  0.12838593  0.62936101  1
  O  O293  1  0.39476185  0.64006922  0.11342203  1
  O  O294  1  0.38328839  0.63779307  0.63273179  1
  O  O295  1  0.88994923  0.12077353  0.12623994  1
  O  O296  1  0.87904805  0.12946352  0.63134014  1
  O  O297  1  0.88008175  0.62940539  0.12967536  1
  O  O298  1  0.87341512  0.64000619  0.62446228  1
  O  O299  1  0.24577588  0.26184508  0.12819781  1
  O  O300  1  0.26009583  0.24210091  0.61752557  1
  O  O301  1  0.26129780  0.74253927  0.11783700  1
  O  O302  1  0.24343189  0.75115470  0.61151033  1
  O  O303  1  0.74576580  0.25499073  0.11229661  1
  O  O304  1  0.75532420  0.25399524  0.61921702  1
  O  O305  1  0.75906305  0.75069725  0.11725274  1
  O  O306  1  0.75193962  0.75973313  0.61820337  1
  O  O307  1  0.24230173  0.24526400  0.38039089  1
  O  O308  1  0.26514496  0.23311632  0.87544483  1
  O  O309  1  0.24536023  0.75053427  0.39665415  1
  O  O310  1  0.24428726  0.74073105  0.88102875  1
  O  O311  1  0.74316125  0.24500364  0.37593061  1
  O  O312  1  0.74588304  0.24829981  0.88511359  1
  O  O313  1  0.74601740  0.74598758  0.37902601  1
  O  O314  1  0.74808452  0.74501706  0.88316315  1
  O  O315  1  0.00930559  0.11976740  0.00458466  1
  O  O316  1  -0.00349489  0.11294885  0.50647363  1
  O  O317  1  0.00938243  0.62849269  0.01337098  1
  O  O318  1  -0.00856191  0.61862227  0.50581782  1
  O  O319  1  0.50186425  0.11860014  0.00727518  1
  O  O320  1  0.48815187  0.11998718  0.47691351  1
  O  O321  1  0.50560760  0.61969505  0.00143841  1
  O  O322  1  0.50696398  0.62933274  0.52489729  1
  O  O323  1  0.50525161  0.36825537  0.48001629  1
  O  O324  1  0.49805208  0.38435367  0.99166882  1
  O  O325  1  0.50197730  0.86931254  0.48928165  1
  O  O326  1  0.50155141  0.88159071  0.98918134  1
  O  O327  1  0.98991776  0.37925593  0.49256051  1
  O  O328  1  0.99606399  0.36753864  0.98793271  1
  O  O329  1  0.99622510  0.88942307  0.49072532  1
  O  O330  1  1.00024781  0.88371071  0.99309803  1
  O  O331  1  0.49956175  0.49409244  0.37579771  1
  O  O332  1  0.49263910  0.49855728  0.87725884  1
  O  O333  1  0.49613865  0.99355634  0.36762560  1
  O  O334  1  0.49368164  0.99567651  0.88207714  1
  O  O335  1  0.99082187  0.49523583  0.37976403  1
  O  O336  1  0.98427625  0.48913605  0.87656229  1
  O  O337  1  0.99307853  0.99895117  0.38281022  1
  O  O338  1  0.99991015  0.99450240  0.88429172  1
  O  O339  1  0.00813577  0.00768735  0.11904034  1
  O  O340  1  -0.00652500  0.00681980  0.60774522  1
  O  O341  1  0.01203317  0.50476168  0.12374664  1
  O  O342  1  -0.01762421  0.51710082  0.60948197  1
  O  O343  1  0.50676578  0.00235556  0.12237905  1
  O  O344  1  0.48555521  0.00436972  0.64811923  1
  O  O345  1  0.50707601  0.50916829  0.11300687  1
  O  O346  1  0.52457192  0.51714913  0.63597474  1
  O  O347  1  0.24069260  0.37388394  0.24127966  1
  O  O348  1  0.23935364  0.36101457  0.75082894  1
  O  O349  1  0.23783600  0.88929086  0.25249199  1
  O  O350  1  0.23612858  0.89505224  0.75956422  1
  O  O351  1  0.74101513  0.36530925  0.23354579  1
  O  O352  1  0.74857243  0.37884398  0.74504682  1
  O  O353  1  0.75434127  0.88834806  0.24980663  1
  O  O354  1  0.74440709  0.88049066  0.74359097  1
  O  O355  1  0.25567282  0.12391826  0.25911474  1
  O  O356  1  0.23924980  0.11422836  0.76437536  1
  O  O357  1  0.26057071  0.61531086  0.25169052  1
  O  O358  1  0.24032987  0.63173821  0.76638787  1
  O  O359  1  0.75102857  0.12087473  0.26009216  1
  O  O360  1  0.75772649  0.12085979  0.75542788  1
  O  O361  1  0.76316445  0.62596309  0.25567290  1
  O  O362  1  0.75475596  0.61597704  0.75992867  1
  O  O363  1  0.37308260  0.11811202  0.37168972  1
  O  O364  1  0.36905581  0.11234627  0.88317978  1
  O  O365  1  0.37385429  0.63339415  0.37829049  1
  O  O366  1  0.36354741  0.61829510  0.87281842  1
  O  O367  1  0.86703811  0.11899760  0.37113314  1
  O  O368  1  0.87037955  0.12326799  0.86610383  1
  O  O369  1  0.86830864  0.61991073  0.36592656  1
  O  O370  1  0.87144597  0.61166714  0.87677866  1
  O  O371  1  0.12725918  0.37858412  0.12932626  1
  O  O372  1  0.12241865  0.37508610  0.63397243  1
  O  O373  1  0.11631123  0.88642508  0.13093710  1
  O  O374  1  0.11339422  0.87568470  0.63920765  1
  O  O375  1  0.63171397  0.37605912  0.13177950  1
  O  O376  1  0.63349919  0.38157572  0.63055663  1
  O  O377  1  0.62870424  0.88882934  0.12046363  1
  O  O378  1  0.62967505  0.87800087  0.63327283  1
  O  O379  1  0.11595667  0.25980458  0.25771873  1
  O  O380  1  0.10770813  0.24670932  0.75353256  1
  O  O381  1  0.12902737  0.76366066  0.24298653  1
  O  O382  1  0.12102669  0.76227032  0.75884123  1
  O  O383  1  0.61794722  0.25682212  0.25509572  1
  O  O384  1  0.62204930  0.25346825  0.75972374  1
  O  O385  1  0.61947289  0.74856878  0.25598346  1
  O  O386  1  0.63047359  0.76376367  0.75821995  1
  O  O387  1  0.38339976  0.24327529  0.24726025  1
  O  O388  1  0.39299762  0.24715092  0.74544081  1
  O  O389  1  0.39002053  0.74340542  0.24314101  1
  O  O390  1  0.37970462  0.78997332  0.73963541  1
  O  O391  1  0.88958220  0.24774991  0.25652023  1
  O  O392  1  0.87849795  0.23730380  0.74579277  1
  O  O393  1  0.87224457  0.74120202  0.24021543  1
  O  O394  1  0.87417370  0.75013203  0.73949269  1
  O  O395  1  0.39411644  0.50663527  0.53493715  1
  O  O396  1  0.38802020  0.49184985  1.00145691  1
  O  O397  1  0.37386559  0.99933642  0.49326983  1
  O  O398  1  0.37988116  0.99636020  0.99636935  1
  O  O399  1  0.87844158  0.49392984  0.48680377  1
  O  O400  1  0.87067236  0.50039076  0.99174246  1
  O  O401  1  0.87648701  0.99939088  0.48557088  1
  O  O402  1  0.88893121  0.99996814  1.00009803  1
  O  O403  1  0.11618234  0.00443407  0.00677372  1
  O  O404  1  0.11138691  0.00018612  0.49280082  1
  O  O405  1  0.12896957  0.51240394  0.00583692  1
  O  O406  1  0.10524220  0.49229275  0.50319972  1
  O  O407  1  0.61943266  0.00419621  0.00741716  1
  O  O408  1  0.61823231  0.00689264  0.50295125  1
  O  O409  1  0.61455060  0.50595973  -0.00502361  1
  O  O410  1  0.63368154  0.49637443  0.51565983  1
  O  O411  1  0.36505653  0.36990184  0.11454730  1
  O  O412  1  0.37056281  0.35957941  0.63236189  1
  O  O413  1  0.38233414  0.85962652  0.12257967  1
  O  O414  1  0.38306436  0.87956047  0.59816913  1
  O  O415  1  0.86063422  0.37773711  0.13218361  1
  O  O416  1  0.86908180  0.36745158  0.61598076  1
  O  O417  1  0.87397897  0.86686401  0.12378078  1
  O  O418  1  0.86623326  0.86582125  0.62369649  1
  O  O419  1  0.13179721  0.13597456  0.36499791  1
  O  O420  1  0.13167703  0.12255277  0.89160555  1
  O  O421  1  0.12889492  0.63053954  0.36506612  1
  O  O422  1  0.12844273  0.62672291  0.88223605  1
  O  O423  1  0.63123532  0.13827776  0.37320657  1
  O  O424  1  0.63514461  0.13393796  0.87632423  1
  O  O425  1  0.63830668  0.63499507  0.36677012  1
  O  O426  1  0.63292167  0.63103447  0.87837701  1
