# generated using pymatgen
data_V85Zn86O256
_symmetry_space_group_name_H-M   'P 1'
_cell_length_a   16.93405468
_cell_length_b   16.94463834
_cell_length_c   16.94258406
_cell_angle_alpha   90.06328579
_cell_angle_beta   89.95992592
_cell_angle_gamma   89.99216070
_symmetry_Int_Tables_number   1
_chemical_formula_structural   V85Zn86O256
_chemical_formula_sum   'V85 Zn86 O256'
_cell_volume   4861.52513138
_cell_formula_units_Z   1
loop_
 _symmetry_equiv_pos_site_id
 _symmetry_equiv_pos_as_xyz
  1  'x, y, z'
loop_
 _atom_site_type_symbol
 _atom_site_label
 _atom_site_symmetry_multiplicity
 _atom_site_fract_x
 _atom_site_fract_y
 _atom_site_fract_z
 _atom_site_occupancy
  V  V0  1  0.50255126  0.24529115  0.74299868  1
  V  V1  1  0.49134243  0.62651744  0.12948601  1
  V  V2  1  0.12916424  0.22485080  0.37807606  1
  V  V3  1  0.75054507  -0.00060238  0.75335909  1
  V  V4  1  0.61600837  0.00442628  0.62642692  1
  V  V5  1  0.63454764  0.00020879  0.13313608  1
  V  V6  1  0.01460880  0.37566063  0.86767041  1
  V  V7  1  0.74869464  0.49966598  0.74940127  1
  V  V8  1  0.61384549  0.12167955  0.50153133  1
  V  V9  1  0.50460664  0.87327070  0.86304731  1
  V  V10  1  0.75132027  0.24960108  0.49591171  1
  V  V11  1  0.62474193  0.25001383  0.37206564  1
  V  V12  1  0.87369361  -0.00532752  0.37278201  1
  V  V13  1  0.74473401  0.74813434  0.49607269  1
  V  V14  1  0.76327855  0.12399051  0.87588349  1
  V  V15  1  0.00230882  -0.00371335  -0.01410538  1
  V  V16  1  0.25079414  0.62335657  0.35753663  1
  V  V17  1  0.37193840  0.00391703  0.37490495  1
  V  V18  1  0.25492115  0.61888770  0.87206266  1
  V  V19  1  0.23752516  0.38965034  0.13890847  1
  V  V20  1  0.01009093  0.12073603  0.11805959  1
  V  V21  1  0.49208792  0.37413715  0.87419341  1
  V  V22  1  0.87253349  0.11776244  0.24848980  1
  V  V23  1  0.00195025  0.49445285  0.50872367  1
  V  V24  1  0.00644172  0.24353476  0.25525506  1
  V  V25  1  0.87402386  0.49862557  0.87502059  1
  V  V26  1  0.36824371  0.50211481  0.36250973  1
  V  V27  1  0.36440996  0.37149199  -0.00078028  1
  V  V28  1  0.74624829  0.87842589  0.62925030  1
  V  V29  1  0.87415001  0.75081580  0.62830744  1
  V  V30  1  0.02325758  0.40948165  0.33865553  1
  V  V31  1  0.25300698  0.00095624  0.75529149  1
  V  V32  1  0.62547368  0.24971763  0.87496410  1
  V  V33  1  0.62300244  0.49910440  0.12593873  1
  V  V34  1  0.00211283  0.62864865  0.63174589  1
  V  V35  1  0.35946065  0.24922667  0.12340245  1
  V  V36  1  0.12812963  0.00468856  0.62178149  1
  V  V37  1  0.75133946  0.49975147  0.24911485  1
  V  V38  1  0.13006169  0.62355257  0.00297397  1
  V  V39  1  0.49805922  0.74570364  0.26107062  1
  V  V40  1  0.01032474  0.25699616  0.74608636  1
  V  V41  1  0.49788292  0.12447535  0.12502037  1
  V  V42  1  0.62219882  0.62717755  0.00037115  1
  V  V43  1  0.38045505  0.87768625  0.50082774  1
  V  V44  1  0.24892728  0.37204253  0.62698791  1
  V  V45  1  0.75071452  0.37593708  0.62041550  1
  V  V46  1  0.11847713  0.87506194  0.75689897  1
  V  V47  1  0.75302035  0.37482915  0.12566524  1
  V  V48  1  0.74850423  0.75292625  0.00447728  1
  V  V49  1  0.50284652  -0.00303482  0.00411724  1
  V  V50  1  0.87415207  0.62666134  0.24675798  1
  V  V51  1  0.63184491  0.87300000  0.25488814  1
  V  V52  1  0.49566117  0.37785289  0.37616635  1
  V  V53  1  0.87653979  0.12628679  0.74731827  1
  V  V54  1  0.00680149  0.50020816  0.00138121  1
  V  V55  1  0.87905816  0.37448022  0.00079210  1
  V  V56  1  0.00581641  -0.00032869  0.49440855  1
  V  V57  1  0.12845760  0.49706074  0.63919295  1
  V  V58  1  0.50630583  0.87932629  0.37902075  1
  V  V59  1  0.12647077  0.62695033  0.50406403  1
  V  V60  1  0.00216881  0.12639376  0.61885610  1
  V  V61  1  0.88106195  0.87536261  0.49943248  1
  V  V62  1  0.75495103  0.24934014  -0.00060601  1
  V  V63  1  0.38973614  0.74422715  0.63206917  1
  V  V64  1  0.87769465  0.87759715  -0.01152762  1
  V  V65  1  0.38420535  0.12123986  0.73671637  1
  V  V66  1  0.25086912  0.87246785  0.62592292  1
  V  V67  1  0.38942862  0.61994731  0.75199362  1
  V  V68  1  0.87898399  0.24968152  0.12774646  1
  V  V69  1  0.49294958  0.49881371  -0.00291988  1
  V  V70  1  0.49652723  0.25002384  0.24743519  1
  V  V71  1  0.00367826  0.63084716  0.12282329  1
  V  V72  1  0.25378394  0.75320417  -0.00204115  1
  V  V73  1  0.11604220  0.87452405  0.25517220  1
  V  V74  1  0.74770348  0.62456274  0.87653852  1
  V  V75  1  0.62688806  0.12362771  0.00019265  1
  V  V76  1  0.87445853  0.50256837  0.37921587  1
  V  V77  1  0.62248520  0.75396734  0.86330016  1
  V  V78  1  0.24548608  0.23616773  0.50513098  1
  V  V79  1  0.74861324  0.11913255  0.37129062  1
  V  V80  1  0.62517719  0.37508885  0.75025530  1
  V  V81  1  0.37740134  0.00710535  0.87817279  1
  V  V82  1  0.25285695  0.74520359  0.50204526  1
  V  V83  1  0.61667232  0.50801298  0.61781010  1
  V  V84  1  0.25236681  0.87721915  0.12943378  1
  Zn  Zn85  1  -0.00706164  0.76008925  0.75894962  1
  Zn  Zn86  1  0.38090562  0.24882949  0.61864107  1
  Zn  Zn87  1  0.12061279  0.75375245  0.87880046  1
  Zn  Zn88  1  0.74357484  0.62966351  0.37227543  1
  Zn  Zn89  1  0.25639119  0.49486261  0.75478495  1
  Zn  Zn90  1  0.11978848  0.75599936  0.38115593  1
  Zn  Zn91  1  0.62559878  0.37373544  0.24942289  1
  Zn  Zn92  1  0.87948708  0.37269206  0.49294306  1
  Zn  Zn93  1  0.87511955  0.62743362  0.75388595  1
  Zn  Zn94  1  0.60655683  0.63984928  0.49255437  1
  Zn  Zn95  1  0.87595406  0.75465502  0.12524348  1
  Zn  Zn96  1  0.37808349  0.87467499  0.00190101  1
  Zn  Zn97  1  0.37505338  0.74993888  0.13056080  1
  Zn  Zn98  1  0.36901006  0.12602711  0.25433858  1
  Zn  Zn99  1  0.12569555  -0.00145141  0.12073023  1
  Zn  Zn100  1  0.17232417  0.18478877  -0.06806050  1
  Zn  Zn101  1  0.75443173  0.88064997  0.12935475  1
  Zn  Zn102  1  -0.00568097  0.75485587  0.26429953  1
  Zn  Zn103  1  0.87606202  0.25180175  0.62069503  1
  Zn  Zn104  1  0.48974045  0.51102727  0.50008514  1
  Zn  Zn105  1  0.24424774  0.00504442  0.25577949  1
  Zn  Zn106  1  0.36836955  0.37679474  0.49720082  1
  Zn  Zn107  1  0.18921586  0.18588488  0.19082923  1
  Zn  Zn108  1  0.17354119  0.17075460  0.73252560  1
  Zn  Zn109  1  0.18278743  0.69627133  0.18299495  1
  Zn  Zn110  1  0.19282821  0.68864070  0.69052659  1
  Zn  Zn111  1  0.68807784  0.18672630  0.18834451  1
  Zn  Zn112  1  0.68783022  0.18647656  0.68510615  1
  Zn  Zn113  1  0.68195919  0.68819154  0.18945982  1
  Zn  Zn114  1  0.68839108  0.68533933  0.68587273  1
  Zn  Zn115  1  0.30621683  0.31105586  0.31310957  1
  Zn  Zn116  1  0.30790634  0.30663226  0.80669942  1
  Zn  Zn117  1  0.31255939  0.81307301  0.31390345  1
  Zn  Zn118  1  0.31490222  0.81288859  0.81441805  1
  Zn  Zn119  1  0.82121453  0.31497116  0.31296297  1
  Zn  Zn120  1  0.81820780  0.31125126  0.81040482  1
  Zn  Zn121  1  0.81429588  0.81340634  0.31405233  1
  Zn  Zn122  1  0.80707885  0.81299720  0.81350435  1
  Zn  Zn123  1  0.18933775  0.44000497  0.44266639  1
  Zn  Zn124  1  0.19037623  0.43762647  0.93707281  1
  Zn  Zn125  1  0.19057575  0.93545292  0.43848658  1
  Zn  Zn126  1  0.19071201  0.94310173  0.93916671  1
  Zn  Zn127  1  0.68460410  0.43897291  0.43499794  1
  Zn  Zn128  1  0.68539697  0.43604344  0.94026489  1
  Zn  Zn129  1  0.68897364  0.93720856  0.44172876  1
  Zn  Zn130  1  0.68876063  0.93756154  0.93714409  1
  Zn  Zn131  1  0.30712345  0.06416747  0.06380080  1
  Zn  Zn132  1  0.31644936  0.06002913  0.56281756  1
  Zn  Zn133  1  0.31107939  0.55938511  0.06543383  1
  Zn  Zn134  1  0.31780429  0.56083602  0.56259202  1
  Zn  Zn135  1  0.81953846  0.06062202  0.06024832  1
  Zn  Zn136  1  0.81121152  0.06300620  0.56098504  1
  Zn  Zn137  1  0.81408517  0.56401257  0.06209563  1
  Zn  Zn138  1  0.81218801  0.56430529  0.56487645  1
  Zn  Zn139  1  0.43288756  0.43444796  0.18698824  1
  Zn  Zn140  1  0.43412707  0.43318025  0.68569852  1
  Zn  Zn141  1  0.43968252  0.93359836  0.19111026  1
  Zn  Zn142  1  0.43842053  0.93302663  0.68728088  1
  Zn  Zn143  1  0.95198519  0.44323969  0.18768975  1
  Zn  Zn144  1  0.93395536  0.43855778  0.68674717  1
  Zn  Zn145  1  0.93671119  0.93691215  0.18088972  1
  Zn  Zn146  1  0.93571589  0.94292078  0.68686606  1
  Zn  Zn147  1  0.06087262  0.05662833  0.30924777  1
  Zn  Zn148  1  0.05887460  0.06067417  0.81212652  1
  Zn  Zn149  1  0.06123303  0.57913854  0.31575134  1
  Zn  Zn150  1  0.06343028  0.56957787  0.81758885  1
  Zn  Zn151  1  0.55771625  0.06020636  0.31324386  1
  Zn  Zn152  1  0.56621376  0.06312559  0.81369770  1
  Zn  Zn153  1  0.56287022  0.56326619  0.31645665  1
  Zn  Zn154  1  0.56309087  0.55984709  0.81331264  1
  Zn  Zn155  1  0.43402915  0.19108053  0.43776402  1
  Zn  Zn156  1  0.33581020  0.18757116  0.93618718  1
  Zn  Zn157  1  0.43275178  0.68560303  0.43697727  1
  Zn  Zn158  1  0.43741778  0.68908236  0.93600996  1
  Zn  Zn159  1  0.93892856  0.18457256  0.43664045  1
  Zn  Zn160  1  0.97607589  0.19995332  0.94782242  1
  Zn  Zn161  1  0.93572985  0.68424709  0.44217057  1
  Zn  Zn162  1  0.93799288  0.69131860  0.93644771  1
  Zn  Zn163  1  0.07243015  0.30781696  0.05975766  1
  Zn  Zn164  1  0.07013399  0.31106712  0.56278524  1
  Zn  Zn165  1  0.06483965  0.81476956  0.06222568  1
  Zn  Zn166  1  0.06354661  0.81471116  0.56640351  1
  Zn  Zn167  1  0.56065851  0.31189545  0.06141645  1
  Zn  Zn168  1  0.56540765  0.31604960  0.55874559  1
  Zn  Zn169  1  0.56430061  0.81333912  0.06586152  1
  Zn  Zn170  1  0.56386536  0.81894724  0.56682407  1
  O  O171  1  0.11241309  0.12252932  0.12765108  1
  O  O172  1  0.11753197  0.11066757  0.63576383  1
  O  O173  1  0.11941021  0.62791747  0.11264794  1
  O  O174  1  0.11909931  0.62223784  0.62343944  1
  O  O175  1  0.61923788  0.11876676  0.12260994  1
  O  O176  1  0.63082467  0.11379628  0.61562361  1
  O  O177  1  0.61507592  0.61712825  0.11974914  1
  O  O178  1  0.62938995  0.61014769  0.62158215  1
  O  O179  1  0.37810109  0.38160336  0.37389323  1
  O  O180  1  0.38736549  0.37045026  0.88210678  1
  O  O181  1  0.38297617  0.87906370  0.38377665  1
  O  O182  1  0.38989179  0.88284414  0.87675367  1
  O  O183  1  0.89725768  0.39121489  0.37051368  1
  O  O184  1  0.87630345  0.38688384  0.88059048  1
  O  O185  1  0.87196682  0.88609824  0.38312623  1
  O  O186  1  0.87204517  0.87027473  0.88920232  1
  O  O187  1  0.26783421  -0.00736855  0.37619051  1
  O  O188  1  0.26498670  -0.00879739  0.86584535  1
  O  O189  1  0.25167623  0.51457913  0.37642703  1
  O  O190  1  0.25215550  0.51386501  0.87509592  1
  O  O191  1  0.76015717  0.00848930  0.38110907  1
  O  O192  1  0.74348070  0.01016986  0.86386193  1
  O  O193  1  0.76072995  0.49450120  0.36717166  1
  O  O194  1  0.75445962  0.50301774  0.87215924  1
  O  O195  1  0.24992220  0.48955897  0.12933534  1
  O  O196  1  0.24274638  0.49340999  0.62553770  1
  O  O197  1  0.24762856  0.98633179  0.12396519  1
  O  O198  1  0.24467997  0.99261031  0.62871344  1
  O  O199  1  0.74320736  0.49593546  0.12827248  1
  O  O200  1  0.74293370  0.49372077  0.62809104  1
  O  O201  1  0.73776069  1.00391865  0.12290110  1
  O  O202  1  0.74721093  0.99490936  0.63202094  1
  O  O203  1  -0.01287353  0.34811198  0.24869300  1
  O  O204  1  -0.00846542  0.36973349  0.75624056  1
  O  O205  1  0.01149030  0.87310995  0.24473907  1
  O  O206  1  0.01461751  0.87990071  0.74394045  1
  O  O207  1  0.50066033  0.36694641  0.25802054  1
  O  O208  1  0.50498226  0.37217421  0.75821410  1
  O  O209  1  0.50922805  0.86575821  0.25909566  1
  O  O210  1  0.50383029  0.87767998  0.76447953  1
  O  O211  1  0.49479257  0.13302034  0.24447745  1
  O  O212  1  0.49824344  0.13404079  0.75281838  1
  O  O213  1  0.50654654  0.63797015  0.24467511  1
  O  O214  1  0.48875698  0.62549082  0.75523278  1
  O  O215  1  0.99285945  0.12758618  0.24256877  1
  O  O216  1  0.99178666  0.13257089  0.73815480  1
  O  O217  1  0.99206553  0.63086947  0.23824323  1
  O  O218  1  0.99726496  0.62631843  0.74042668  1
  O  O219  1  0.38638438  0.26162581  0.01380658  1
  O  O220  1  0.35918666  0.25189625  0.49840755  1
  O  O221  1  0.36451423  0.75119752  0.00213828  1
  O  O222  1  0.36967728  0.75664068  0.51143374  1
  O  O223  1  0.87682178  0.25759277  0.00647239  1
  O  O224  1  0.86443286  0.25255774  0.49634824  1
  O  O225  1  0.86617473  0.75833139  0.00119054  1
  O  O226  1  0.86965367  0.75693911  0.51182128  1
  O  O227  1  0.13253084  0.24661332  0.48885082  1
  O  O228  1  0.08234060  0.22557181  0.98921040  1
  O  O229  1  0.13475721  0.74631713  0.50422842  1
  O  O230  1  0.13776694  0.74445130  1.00042705  1
  O  O231  1  0.63548923  0.24456655  0.49288758  1
  O  O232  1  0.63254048  0.24371134  0.99603288  1
  O  O233  1  0.64157150  0.75366761  0.50973495  1
  O  O234  1  0.63076522  0.74552185  0.99466890  1
  O  O235  1  0.49703700  0.24741841  0.13584665  1
  O  O236  1  0.50363868  0.26030311  0.63848177  1
  O  O237  1  0.49943702  0.74154679  0.13268076  1
  O  O238  1  0.48800773  0.75675194  0.62767666  1
  O  O239  1  0.99466162  0.23928976  0.13418488  1
  O  O240  1  0.99666973  0.24251750  0.62379309  1
  O  O241  1  0.99777788  0.73837735  0.12057848  1
  O  O242  1  0.99186541  0.74505679  0.62986783  1
  O  O243  1  0.01460104  0.24199455  0.37109266  1
  O  O244  1  -0.01245739  0.26673977  0.85701718  1
  O  O245  1  0.00691070  0.73696919  0.37670288  1
  O  O246  1  0.00739994  0.74404946  0.86893883  1
  O  O247  1  0.50138768  0.25474693  0.36368175  1
  O  O248  1  0.51288907  0.26109636  0.86166131  1
  O  O249  1  0.49690725  0.75730467  0.36574411  1
  O  O250  1  0.50738050  0.76540620  0.88186253  1
  O  O251  1  0.25083472  0.13710222  0.50688545  1
  O  O252  1  0.25579012  0.12453336  0.98795466  1
  O  O253  1  0.24753239  0.63594097  0.50287599  1
  O  O254  1  0.24708914  0.63035239  0.99643699  1
  O  O255  1  0.74605418  0.13255106  0.48866694  1
  O  O256  1  0.74990670  0.12925492  0.99279096  1
  O  O257  1  0.75422227  0.64348036  0.50398832  1
  O  O258  1  0.74373672  0.63141777  0.99526847  1
  O  O259  1  0.26253707  0.38366541  0.00761164  1
  O  O260  1  0.24691536  0.36660163  0.50995232  1
  O  O261  1  0.25171211  0.86826027  0.00641360  1
  O  O262  1  0.25797558  0.86310305  0.50470581  1
  O  O263  1  0.75800381  0.36935328  0.00610432  1
  O  O264  1  0.75158529  0.36742090  0.50321077  1
  O  O265  1  0.75824881  0.86896115  0.00121048  1
  O  O266  1  0.76123160  0.86758873  0.50814597  1
  O  O267  1  0.05367805  0.47695959  0.26172860  1
  O  O268  1  0.12921337  0.50784002  0.74147751  1
  O  O269  1  0.12505040  0.98752414  0.24562272  1
  O  O270  1  0.13437225  0.98992403  0.74354603  1
  O  O271  1  0.62902743  0.49785164  0.23784428  1
  O  O272  1  0.62960386  0.49458906  0.74013610  1
  O  O273  1  0.61815964  0.98996709  0.24250662  1
  O  O274  1  0.63709619  1.00996804  0.73622537  1
  O  O275  1  0.37693519  -0.00391977  0.26663229  1
  O  O276  1  0.37328554  0.00236706  0.75408596  1
  O  O277  1  0.37828071  0.50024421  0.26245771  1
  O  O278  1  0.37614780  0.51624010  0.74323532  1
  O  O279  1  0.88069221  0.00875055  0.25779796  1
  O  O280  1  0.86666496  0.01560173  0.74558676  1
  O  O281  1  0.87427718  0.51128270  0.25538115  1
  O  O282  1  0.86697345  0.50224577  0.75896969  1
  O  O283  1  0.10900648  0.37701337  0.38129448  1
  O  O284  1  0.11374650  0.38091200  0.87396004  1
  O  O285  1  0.13026233  0.87506955  0.35981712  1
  O  O286  1  0.13193884  0.87696512  0.85900733  1
  O  O287  1  0.61629399  0.36796989  0.37127506  1
  O  O288  1  0.62167035  0.36883586  0.86993374  1
  O  O289  1  0.61845866  0.88151733  0.36984906  1
  O  O290  1  0.61432185  0.86860650  0.87940767  1
  O  O291  1  0.38363770  0.13415588  0.12349045  1
  O  O292  1  0.38357254  0.12379778  0.63246871  1
  O  O293  1  0.38857963  0.62491968  0.12228228  1
  O  O294  1  0.37262040  0.63698701  0.63695996  1
  O  O295  1  0.87870423  0.12876976  0.13438106  1
  O  O296  1  0.88275007  0.12633312  0.62895062  1
  O  O297  1  0.88176037  0.62787598  0.13157647  1
  O  O298  1  0.88205283  0.63466575  0.62814256  1
  O  O299  1  0.25742728  0.25727233  0.12579043  1
  O  O300  1  0.24673318  0.25529036  0.61248149  1
  O  O301  1  0.25412578  0.75989474  0.11818802  1
  O  O302  1  0.25857100  0.75565834  0.61930865  1
  O  O303  1  0.75823902  0.25379601  0.11990287  1
  O  O304  1  0.74953666  0.25756512  0.61338486  1
  O  O305  1  0.74707291  0.74843704  0.11187031  1
  O  O306  1  0.75620902  0.75884420  0.62157989  1
  O  O307  1  0.23475386  0.25254259  0.38558575  1
  O  O308  1  0.25762074  0.25560720  0.88850927  1
  O  O309  1  0.24958437  0.73955870  0.38374985  1
  O  O310  1  0.24865776  0.74270027  0.88249646  1
  O  O311  1  0.74718255  0.24614562  0.37890081  1
  O  O312  1  0.74663117  0.24522995  0.88051048  1
  O  O313  1  0.75656023  0.75131839  0.39335730  1
  O  O314  1  0.74241711  0.74561709  0.88547311  1
  O  O315  1  -0.02072442  0.10302585  0.00909781  1
  O  O316  1  -0.00379099  0.11569475  0.51142942  1
  O  O317  1  0.00891013  0.61994496  0.00276123  1
  O  O318  1  0.00234535  0.61691175  0.51666225  1
  O  O319  1  0.51166159  0.10972004  0.00759407  1
  O  O320  1  0.51526891  0.13395240  0.49595072  1
  O  O321  1  0.50307285  0.61749506  0.00542569  1
  O  O322  1  0.49573757  0.62507751  0.50429401  1
  O  O323  1  0.49736978  0.37235120  0.48411805  1
  O  O324  1  0.49482281  0.38097641  0.99397178  1
  O  O325  1  0.49269253  0.86756333  0.49124513  1
  O  O326  1  0.50237294  0.88654004  0.99806600  1
  O  O327  1  0.99757420  0.38967138  0.51179647  1
  O  O328  1  0.99644788  0.38431863  0.99129672  1
  O  O329  1  0.98799984  0.88302658  0.50792741  1
  O  O330  1  0.98849411  0.88376497  1.00303275  1
  O  O331  1  0.49065064  0.49164726  0.37463672  1
  O  O332  1  0.50976326  0.48790201  0.88661012  1
  O  O333  1  0.49087966  0.98623398  0.37485322  1
  O  O334  1  0.50116453  0.99065883  0.88259128  1
  O  O335  1  0.99374303  0.50914875  0.39384243  1
  O  O336  1  0.99208128  0.49717481  0.88048873  1
  O  O337  1  0.99138497  1.00594460  0.38803139  1
  O  O338  1  0.99699781  1.00177453  0.88657086  1
  O  O339  1  0.00150360  0.00663853  0.11605055  1
  O  O340  1  0.00656011  0.00626345  0.61595106  1
  O  O341  1  -0.00658909  0.51409100  0.10724309  1
  O  O342  1  0.00638705  0.50816268  0.62592516  1
  O  O343  1  0.50732644  0.00287354  0.12075501  1
  O  O344  1  0.51741280  -0.00652577  0.62924183  1
  O  O345  1  0.50626644  0.50391976  0.12086537  1
  O  O346  1  0.51475506  0.49043467  0.62278001  1
  O  O347  1  0.24802137  0.37434309  0.23782110  1
  O  O348  1  0.25737532  0.37742650  0.73359371  1
  O  O349  1  0.24251596  0.87588788  0.24350523  1
  O  O350  1  0.24760078  0.88345811  0.74415109  1
  O  O351  1  0.75260999  0.38067488  0.24286612  1
  O  O352  1  0.74567352  0.37904068  0.74178523  1
  O  O353  1  0.73683142  0.86809241  0.24967698  1
  O  O354  1  0.75589712  0.88786422  0.74259489  1
  O  O355  1  0.25722997  0.11703417  0.24423516  1
  O  O356  1  0.26750710  0.10666802  0.74045879  1
  O  O357  1  0.24101760  0.63043803  0.25969469  1
  O  O358  1  0.25898241  0.62422112  0.75892220  1
  O  O359  1  0.75683991  0.12819266  0.26291646  1
  O  O360  1  0.75669808  0.12186015  0.75536456  1
  O  O361  1  0.75684482  0.61898008  0.24843925  1
  O  O362  1  0.75167063  0.61756101  0.75815705  1
  O  O363  1  0.38352249  0.10640495  0.37854364  1
  O  O364  1  0.38604081  0.10969024  0.86177163  1
  O  O365  1  0.35751324  0.62039164  0.37400324  1
  O  O366  1  0.37062875  0.63328419  0.86011600  1
  O  O367  1  0.86855011  0.11558119  0.36950817  1
  O  O368  1  0.86499616  0.13223544  0.86638341  1
  O  O369  1  0.86874696  0.61543901  0.36873385  1
  O  O370  1  0.86763959  0.61302040  0.87817663  1
  O  O371  1  0.13858830  0.37359791  0.11942002  1
  O  O372  1  0.13304830  0.38806382  0.62136735  1
  O  O373  1  0.13331371  0.87409111  0.13567963  1
  O  O374  1  0.13164965  0.88512883  0.63234999  1
  O  O375  1  0.63224852  0.38247595  0.12461208  1
  O  O376  1  0.63619135  0.38203025  0.62834989  1
  O  O377  1  0.62863060  0.88408259  0.13424070  1
  O  O378  1  0.63853099  0.88882440  0.62105061  1
  O  O379  1  0.11893410  0.24345387  0.26646842  1
  O  O380  1  0.10853958  0.26410340  0.73241814  1
  O  O381  1  0.12091252  0.76326844  0.25284945  1
  O  O382  1  0.12748490  0.76852588  0.74585400  1
  O  O383  1  0.61653075  0.25040529  0.25521394  1
  O  O384  1  0.62322897  0.25562812  0.75361497  1
  O  O385  1  0.61145630  0.75986621  0.24677016  1
  O  O386  1  0.63248734  0.74736710  0.76401986  1
  O  O387  1  0.38074828  0.24996095  0.24207385  1
  O  O388  1  0.38546663  0.23767471  0.74593363  1
  O  O389  1  0.39327664  0.75590837  0.24923410  1
  O  O390  1  0.37227151  0.74413435  0.73752598  1
  O  O391  1  0.88086030  0.23424673  0.25022961  1
  O  O392  1  0.87725536  0.23929898  0.74157047  1
  O  O393  1  0.87383086  0.73908931  0.24844844  1
  O  O394  1  0.87252574  0.75063383  0.73980165  1
  O  O395  1  0.37314684  0.49620051  0.48654678  1
  O  O396  1  0.38786237  0.49131129  1.00500361  1
  O  O397  1  0.37279276  0.98543600  0.49394015  1
  O  O398  1  0.38656858  0.99874928  0.99299300  1
  O  O399  1  0.88015258  0.49992472  0.49439375  1
  O  O400  1  0.88091073  0.49465578  0.99300156  1
  O  O401  1  0.88083194  0.99296586  0.49429917  1
  O  O402  1  0.87965831  0.98393349  0.99986589  1
  O  O403  1  0.10745321  -0.00696150  0.00015669  1
  O  O404  1  0.11697112  -0.00806820  0.50785218  1
  O  O405  1  0.11649140  0.50947849  -0.00591974  1
  O  O406  1  0.11737710  0.50899142  0.51086779  1
  O  O407  1  0.62220216  0.00384094  0.00885579  1
  O  O408  1  0.63228717  0.00916987  0.51401226  1
  O  O409  1  0.61785221  0.50394421  0.01075030  1
  O  O410  1  0.62329229  0.49641414  0.51337792  1
  O  O411  1  0.36718921  0.36775670  0.11846305  1
  O  O412  1  0.36626944  0.37013407  0.61820802  1
  O  O413  1  0.36804979  0.87308157  0.12335605  1
  O  O414  1  0.37136948  0.86689507  0.61995274  1
  O  O415  1  0.87410299  0.37122487  0.12096050  1
  O  O416  1  0.86068594  0.37576185  0.62074204  1
  O  O417  1  0.86974884  0.87174877  0.11528281  1
  O  O418  1  0.86734566  0.87138892  0.61979991  1
  O  O419  1  0.12708263  0.12648403  0.37679944  1
  O  O420  1  0.13302983  0.13687443  0.83550982  1
  O  O421  1  0.13828782  0.62594385  0.38548290  1
  O  O422  1  0.13599407  0.62840545  0.88633560  1
  O  O423  1  0.63175507  0.12793471  0.37873009  1
  O  O424  1  0.63564215  0.13219251  0.88096735  1
  O  O425  1  0.63362452  0.61421248  0.38456105  1
  O  O426  1  0.62785752  0.63120712  0.88185573  1
