# generated using pymatgen
data_V85Zn86O256
_symmetry_space_group_name_H-M   'P 1'
_cell_length_a   16.93727524
_cell_length_b   16.93982421
_cell_length_c   16.92257638
_cell_angle_alpha   89.98801302
_cell_angle_beta   89.95854304
_cell_angle_gamma   90.01926923
_symmetry_Int_Tables_number   1
_chemical_formula_structural   V85Zn86O256
_chemical_formula_sum   'V85 Zn86 O256'
_cell_volume   4855.33029933
_cell_formula_units_Z   1
loop_
 _symmetry_equiv_pos_site_id
 _symmetry_equiv_pos_as_xyz
  1  'x, y, z'
loop_
 _atom_site_type_symbol
 _atom_site_label
 _atom_site_symmetry_multiplicity
 _atom_site_fract_x
 _atom_site_fract_y
 _atom_site_fract_z
 _atom_site_occupancy
  V  V0  1  0.12196524  0.38011526  0.24827558  1
  V  V1  1  -0.00009285  0.51796387  0.50556241  1
  V  V2  1  0.62565968  0.24724800  0.87280212  1
  V  V3  1  0.75176632  0.49961535  0.24961085  1
  V  V4  1  0.75524788  0.86370042  0.12276816  1
  V  V5  1  0.25105123  0.49646629  0.74057490  1
  V  V6  1  0.25113829  0.63095600  0.87764861  1
  V  V7  1  0.37544626  0.62817583  0.74430272  1
  V  V8  1  0.49985088  0.24832866  0.24945428  1
  V  V9  1  0.88218959  0.62357322  0.74648126  1
  V  V10  1  0.62397157  0.37344867  0.24843729  1
  V  V11  1  0.50110179  0.50011572  0.00013531  1
  V  V12  1  0.24565103  0.87165807  0.11423604  1
  V  V13  1  0.37660106  0.49838799  0.87469051  1
  V  V14  1  0.62632746  -0.00633449  0.12887904  1
  V  V15  1  -0.00015863  0.62071758  0.11764363  1
  V  V16  1  0.12119236  0.86863802  0.24974564  1
  V  V17  1  0.25045610  0.25002394  -0.00004859  1
  V  V18  1  0.49671595  0.49923842  0.49728263  1
  V  V19  1  0.75041103  0.12196174  0.38057048  1
  V  V20  1  0.75814442  0.24714740  -0.00036633  1
  V  V21  1  0.74611213  -0.00660192  0.25278396  1
  V  V22  1  0.12767974  0.37161378  0.73882666  1
  V  V23  1  0.37785989  0.13706060  0.74870612  1
  V  V24  1  0.87230577  0.01518655  0.87516322  1
  V  V25  1  0.62447833  0.76120056  0.37124031  1
  V  V26  1  0.87991232  0.49964832  0.88510781  1
  V  V27  1  0.37485647  0.24964753  0.12464643  1
  V  V28  1  0.75878393  0.36845860  0.12549121  1
  V  V29  1  0.62358053  0.24717600  0.37605448  1
  V  V30  1  0.00243641  0.86806066  0.37246680  1
  V  V31  1  0.62980182  0.63252831  0.00085746  1
  V  V32  1  0.12605699  0.12259082  0.50291673  1
  V  V33  1  0.62731456  0.50132073  0.62411921  1
  V  V34  1  0.75254089  0.63039749  0.87936166  1
  V  V35  1  0.36838653  0.50536379  0.37493967  1
  V  V36  1  0.37620467  0.37631053  0.00138729  1
  V  V37  1  0.62532677  0.49824640  0.12479494  1
  V  V38  1  0.74463567  0.87395222  0.63882451  1
  V  V39  1  0.12215200  0.51699433  0.62313565  1
  V  V40  1  0.00734985  0.74850279  0.74962492  1
  V  V41  1  0.87648188  0.85627950  -0.00026144  1
  V  V42  1  0.37193267  -0.00207173  0.87350518  1
  V  V43  1  0.24695372  -0.00109776  0.24863587  1
  V  V44  1  0.50841556  0.75580470  0.75045036  1
  V  V45  1  0.87656746  -0.00225449  0.37995670  1
  V  V46  1  0.00225028  0.37903437  0.88059075  1
  V  V47  1  0.36936856  0.74973877  0.11794683  1
  V  V48  1  0.49769891  0.13982480  0.62428524  1
  V  V49  1  0.87445753  0.49565152  0.37868340  1
  V  V50  1  0.87298561  0.12590917  0.24342878  1
  V  V51  1  0.12858846  0.87717187  0.73823252  1
  V  V52  1  0.37195917  0.76976146  0.62065637  1
  V  V53  1  0.50101309  0.12273854  0.12396736  1
  V  V54  1  0.24812622  -0.00366645  0.73604357  1
  V  V55  1  0.62253008  0.37365969  0.75172799  1
  V  V56  1  0.12291983  0.12353131  0.00437596  1
  V  V57  1  0.62573865  0.62492625  0.49746026  1
  V  V58  1  0.88080062  0.63753299  0.24323513  1
  V  V59  1  0.75395447  0.49880454  0.75056451  1
  V  V60  1  0.87873489  0.25773439  0.62069423  1
  V  V61  1  0.88449025  0.74938639  0.62414619  1
  V  V62  1  0.75117684  0.62584870  0.37292906  1
  V  V63  1  0.49748567  0.62504847  0.12871631  1
  V  V64  1  0.62040658  -0.00456195  0.63335260  1
  V  V65  1  0.12980566  0.73532944  0.37672255  1
  V  V66  1  -0.00673664  0.25248214  0.24187941  1
  V  V67  1  0.75014665  0.75232182  0.50130951  1
  V  V68  1  0.25438806  0.74935541  0.49534834  1
  V  V69  1  -0.00278703  0.37195349  0.38889428  1
  V  V70  1  0.49938224  -0.00279434  -0.00190949  1
  V  V71  1  -0.00733678  0.24588732  0.75219043  1
  V  V72  1  0.50107010  0.76084720  0.24801750  1
  V  V73  1  0.37246012  0.12635660  0.25071111  1
  V  V74  1  0.12447218  0.60292710  0.00019777  1
  V  V75  1  0.24431889  0.50906361  0.25122910  1
  V  V76  1  0.63307507  0.12233379  -0.00579308  1
  V  V77  1  0.24492658  0.38097157  0.12850091  1
  V  V78  1  0.37372209  -0.00775644  0.38216725  1
  V  V79  1  0.12496601  0.24825826  0.37486653  1
  V  V80  1  -0.00219497  0.11941011  0.62940474  1
  V  V81  1  0.12917603  0.24973727  0.87488708  1
  V  V82  1  0.12864061  0.75432641  0.88636863  1
  V  V83  1  0.00575326  -0.00296844  0.50360177  1
  V  V84  1  0.75616237  0.25663141  0.49838472  1
  Zn  Zn85  1  -0.00336027  -0.00138773  0.00381224  1
  Zn  Zn86  1  0.88205486  0.37354260  0.00724200  1
  Zn  Zn87  1  0.49971612  0.62842667  0.62349580  1
  Zn  Zn88  1  0.00062590  0.87830968  0.87592988  1
  Zn  Zn89  1  0.63353241  0.75854448  0.87433931  1
  Zn  Zn90  1  0.74827673  0.01854255  0.76373003  1
  Zn  Zn91  1  0.87570941  0.87625237  0.50324899  1
  Zn  Zn92  1  0.62191170  0.12325455  0.50251101  1
  Zn  Zn93  1  0.49532637  0.87347294  0.38006614  1
  Zn  Zn94  1  0.25017990  0.12400495  0.37973323  1
  Zn  Zn95  1  0.49852692  0.36930746  0.87257877  1
  Zn  Zn96  1  0.50822322  0.87854539  0.87042705  1
  Zn  Zn97  1  0.49528979  -0.00796460  0.50834955  1
  Zn  Zn98  1  0.36560295  0.37449171  0.52388164  1
  Zn  Zn99  1  0.49755041  0.37385476  0.37768231  1
  Zn  Zn100  1  0.25364541  0.25273275  0.52449598  1
  Zn  Zn101  1  0.36486305  0.63096580  0.25391575  1
  Zn  Zn102  1  0.75833320  0.37951785  0.61829910  1
  Zn  Zn103  1  -0.00516028  0.12543589  0.12415883  1
  Zn  Zn104  1  0.37185356  0.86990812  -0.00483989  1
  Zn  Zn105  1  0.11996586  -0.00119342  0.12477681  1
  Zn  Zn106  1  0.24978413  0.12381521  0.87439577  1
  Zn  Zn107  1  0.18691591  0.19218377  0.18990690  1
  Zn  Zn108  1  0.18065306  0.17645545  0.69111118  1
  Zn  Zn109  1  0.17544077  0.69045515  0.17909954  1
  Zn  Zn110  1  0.19309671  0.69169095  0.68601805  1
  Zn  Zn111  1  0.68978914  0.18252676  0.18645460  1
  Zn  Zn112  1  0.68620816  0.18972101  0.68761782  1
  Zn  Zn113  1  0.68489964  0.68576869  0.19094906  1
  Zn  Zn114  1  0.69183661  0.68426593  0.68740786  1
  Zn  Zn115  1  0.30731858  0.31878127  0.38022239  1
  Zn  Zn116  1  0.30865893  0.31291388  0.69592866  1
  Zn  Zn117  1  0.30670310  0.81013169  0.30702398  1
  Zn  Zn118  1  0.31481415  0.81488004  0.81054669  1
  Zn  Zn119  1  0.81255399  0.31262808  0.31367718  1
  Zn  Zn120  1  0.81173187  0.31123816  0.81515545  1
  Zn  Zn121  1  0.81102440  0.81552946  0.31310589  1
  Zn  Zn122  1  0.81784325  0.81287121  0.81378718  1
  Zn  Zn123  1  0.18305000  0.44346502  0.43833659  1
  Zn  Zn124  1  0.19551304  0.43251914  0.92682303  1
  Zn  Zn125  1  0.19027998  0.93213121  0.44060227  1
  Zn  Zn126  1  0.18500597  0.93980985  0.93361440  1
  Zn  Zn127  1  0.68513053  0.43515887  0.43511937  1
  Zn  Zn128  1  0.69062948  0.43737962  0.93848048  1
  Zn  Zn129  1  0.68366708  0.93788001  0.44793549  1
  Zn  Zn130  1  0.69278336  0.93427650  0.93725008  1
  Zn  Zn131  1  0.30928695  0.06075236  0.06213809  1
  Zn  Zn132  1  0.31311011  0.06753587  0.56385619  1
  Zn  Zn133  1  0.30937572  0.56441649  0.06300007  1
  Zn  Zn134  1  0.30894993  0.56700901  0.55895794  1
  Zn  Zn135  1  0.81271991  0.05509282  0.05953823  1
  Zn  Zn136  1  0.79518196  0.08321189  0.59579247  1
  Zn  Zn137  1  0.81309343  0.56360983  0.06525610  1
  Zn  Zn138  1  0.81660989  0.56431432  0.56207842  1
  Zn  Zn139  1  0.43177666  0.43785786  0.19369216  1
  Zn  Zn140  1  0.44422630  0.44346605  0.68866481  1
  Zn  Zn141  1  0.43259002  0.93659392  0.18658907  1
  Zn  Zn142  1  0.43830762  0.94082924  0.69093729  1
  Zn  Zn143  1  0.93984926  0.44330007  0.18962100  1
  Zn  Zn144  1  0.94320081  0.43627680  0.68927540  1
  Zn  Zn145  1  0.93669632  0.93817227  0.18659174  1
  Zn  Zn146  1  0.93500128  0.93554063  0.69136000  1
  Zn  Zn147  1  0.06030764  0.06133051  0.31234622  1
  Zn  Zn148  1  0.06054121  0.05970462  0.81681239  1
  Zn  Zn149  1  0.05554393  0.55898638  0.30970570  1
  Zn  Zn150  1  0.06507281  0.56290399  0.81183329  1
  Zn  Zn151  1  0.56080200  0.06009142  0.31378373  1
  Zn  Zn152  1  0.56114678  0.06437983  0.81053790  1
  Zn  Zn153  1  0.56125081  0.56627251  0.31260057  1
  Zn  Zn154  1  0.56353101  0.56676938  0.81246955  1
  Zn  Zn155  1  0.43485442  0.18458757  0.43973429  1
  Zn  Zn156  1  0.44041142  0.18600347  0.93393294  1
  Zn  Zn157  1  0.43664849  0.68724320  0.43776314  1
  Zn  Zn158  1  0.44062229  0.68662276  0.93655381  1
  Zn  Zn159  1  0.93727993  0.18466910  0.43808334  1
  Zn  Zn160  1  0.94048871  0.18874355  0.93813734  1
  Zn  Zn161  1  0.93633333  0.68971662  0.43185648  1
  Zn  Zn162  1  0.94475893  0.68536625  0.93519843  1
  Zn  Zn163  1  0.06307021  0.31290025  0.06337545  1
  Zn  Zn164  1  0.06979749  0.31033014  0.56459759  1
  Zn  Zn165  1  0.05625883  0.80554291  0.06703672  1
  Zn  Zn166  1  0.06797406  0.80970879  0.55671265  1
  Zn  Zn167  1  0.56570098  0.31086982  0.05992579  1
  Zn  Zn168  1  0.56449107  0.31757481  0.56100812  1
  Zn  Zn169  1  0.56377214  0.81508042  0.06170576  1
  Zn  Zn170  1  0.55946636  0.81521622  0.56141520  1
  O  O171  1  0.12678102  0.12799905  0.11357218  1
  O  O172  1  0.11196640  0.12509618  0.61134591  1
  O  O173  1  0.12444027  0.61791257  0.10503217  1
  O  O174  1  0.12221460  0.61584897  0.63581984  1
  O  O175  1  0.62073914  0.11358619  0.11872410  1
  O  O176  1  0.60849074  0.12065714  0.62580253  1
  O  O177  1  0.61957861  0.61831499  0.11975125  1
  O  O178  1  0.62863723  0.61432852  0.61783379  1
  O  O179  1  0.38474229  0.39776586  0.35940862  1
  O  O180  1  0.37856936  0.39207106  0.88262063  1
  O  O181  1  0.37116098  0.88974964  0.36451887  1
  O  O182  1  0.38121144  0.88306152  0.87720928  1
  O  O183  1  0.88164380  0.38790723  0.37018279  1
  O  O184  1  0.88388139  0.38337094  0.87473246  1
  O  O185  1  0.88385743  0.87971834  0.37663480  1
  O  O186  1  0.87660950  0.87193450  0.89153944  1
  O  O187  1  0.25697646  0.00102998  0.36693021  1
  O  O188  1  0.26247367  0.00259941  0.87263924  1
  O  O189  1  0.25467817  0.50129858  0.36399614  1
  O  O190  1  0.25808636  0.51024097  0.86468488  1
  O  O191  1  0.75544692  -0.00098121  0.37216557  1
  O  O192  1  0.76434638  0.00145973  0.87784704  1
  O  O193  1  0.75701076  0.50425462  0.37230299  1
  O  O194  1  0.75905517  0.50710567  0.86796623  1
  O  O195  1  0.25551551  0.48651381  0.13043602  1
  O  O196  1  0.24124620  0.50539900  0.63409391  1
  O  O197  1  0.24665275  0.99089396  0.13276923  1
  O  O198  1  0.25219312  1.00152303  0.63745019  1
  O  O199  1  0.74424172  0.49245572  0.13045540  1
  O  O200  1  0.74732065  0.49906732  0.63103324  1
  O  O201  1  0.74362129  0.99356006  0.13425717  1
  O  O202  1  0.74431554  0.97887580  0.61748203  1
  O  O203  1  0.00287358  0.37000779  0.25801674  1
  O  O204  1  0.00860785  0.36681724  0.75954678  1
  O  O205  1  0.01184656  0.88059147  0.25700816  1
  O  O206  1  0.00711398  0.86385571  0.75220376  1
  O  O207  1  0.50820187  0.36549551  0.24555943  1
  O  O208  1  0.51916949  0.38641163  0.75550312  1
  O  O209  1  0.49753845  0.86376057  0.25084779  1
  O  O210  1  0.49794168  0.85947705  0.74964909  1
  O  O211  1  0.49272553  0.12758549  0.24310945  1
  O  O212  1  0.48590426  0.12427994  0.74125384  1
  O  O213  1  0.50032013  0.63193587  0.23693478  1
  O  O214  1  0.49104315  0.63334978  0.74833166  1
  O  O215  1  0.99046673  0.13386028  0.25126715  1
  O  O216  1  1.00927960  0.13255290  0.74107419  1
  O  O217  1  0.98413243  0.62237952  0.24684934  1
  O  O218  1  0.99430182  0.63662463  0.75426412  1
  O  O219  1  0.37073383  0.25462034  0.00289009  1
  O  O220  1  0.36219375  0.26234789  0.47423911  1
  O  O221  1  0.38201763  0.75054151  0.01302459  1
  O  O222  1  0.37110146  0.74777365  0.51250919  1
  O  O223  1  0.86215443  0.25168621  -0.00416989  1
  O  O224  1  0.86884538  0.25028718  0.50510176  1
  O  O225  1  0.87774376  0.75683318  -0.00042576  1
  O  O226  1  0.86852498  0.74877811  0.50761028  1
  O  O227  1  0.12426718  0.24117000  0.49000141  1
  O  O228  1  0.13007765  0.24568356  0.99422596  1
  O  O229  1  0.13005977  0.74782934  0.48297708  1
  O  O230  1  0.12238790  0.74501652  0.98755524  1
  O  O231  1  0.62918983  0.24997267  0.48781663  1
  O  O232  1  0.63393818  0.24063727  0.99532321  1
  O  O233  1  0.63208451  0.74319680  0.49473472  1
  O  O234  1  0.61936901  0.73503778  1.00011319  1
  O  O235  1  0.49607656  0.24291849  0.12845504  1
  O  O236  1  0.50426004  0.23891238  0.62162062  1
  O  O237  1  0.49563261  0.74476660  0.13060783  1
  O  O238  1  0.49020618  0.74797945  0.63292111  1
  O  O239  1  0.99757836  0.25038436  0.13822040  1
  O  O240  1  0.99842024  0.24553479  0.63315738  1
  O  O241  1  1.01591005  0.72307731  0.13276629  1
  O  O242  1  0.98993691  0.75421171  0.62825326  1
  O  O243  1  0.00500111  0.25567568  0.36868924  1
  O  O244  1  0.00808365  0.25565810  0.86904794  1
  O  O245  1  0.00986839  0.76131229  0.37870029  1
  O  O246  1  0.01135552  0.75180644  0.86597678  1
  O  O247  1  0.50874107  0.24818355  0.36815805  1
  O  O248  1  0.51832774  0.25327798  0.88299929  1
  O  O249  1  0.50692001  0.74924893  0.36629193  1
  O  O250  1  0.49958736  0.74854562  0.85932125  1
  O  O251  1  0.24026799  0.12939144  0.49968821  1
  O  O252  1  0.24428183  0.13339054  0.99815953  1
  O  O253  1  0.24530749  0.64645813  0.51067038  1
  O  O254  1  0.23781371  0.61928603  0.98990940  1
  O  O255  1  0.74701293  0.13706191  0.49814399  1
  O  O256  1  0.73991038  0.13143427  1.00910907  1
  O  O257  1  0.74821775  0.63505714  0.49467972  1
  O  O258  1  0.74259617  0.61898404  0.99227730  1
  O  O259  1  0.25604321  0.37013734  0.00585601  1
  O  O260  1  0.25434065  0.36678843  0.47833228  1
  O  O261  1  0.24970933  0.87991372  0.01101779  1
  O  O262  1  0.24060476  0.85291936  0.50286790  1
  O  O263  1  0.75187960  0.36669033  0.00945850  1
  O  O264  1  0.74637363  0.36200732  0.49816882  1
  O  O265  1  0.76275904  0.87515134  0.01421540  1
  O  O266  1  0.75240449  0.86118241  0.50561893  1
  O  O267  1  0.12775408  0.48780803  0.25677787  1
  O  O268  1  0.13176380  0.49413809  0.74409864  1
  O  O269  1  0.13482971  0.99444316  0.25056485  1
  O  O270  1  0.13995985  0.99395458  0.75698220  1
  O  O271  1  0.63113949  0.49536673  0.24567482  1
  O  O272  1  0.63525539  0.49997371  0.74290107  1
  O  O273  1  0.63427127  1.00399536  0.24225828  1
  O  O274  1  0.63015236  1.00477569  0.73912631  1
  O  O275  1  0.36519140  0.00783491  0.25251920  1
  O  O276  1  0.36527759  0.00471443  0.75601069  1
  O  O277  1  0.36242180  0.50822968  0.25349947  1
  O  O278  1  0.37055122  0.50925582  0.75744002  1
  O  O279  1  0.86879074  0.00529123  0.26194551  1
  O  O280  1  0.87294711  -0.01161486  0.77213036  1
  O  O281  1  0.86802853  0.50721880  0.25978890  1
  O  O282  1  0.87175722  0.50654091  0.75417243  1
  O  O283  1  0.11414055  0.36742721  0.36749731  1
  O  O284  1  0.11952493  0.36869219  0.86632784  1
  O  O285  1  0.11937448  0.86890928  0.36706433  1
  O  O286  1  0.12429859  0.86718794  0.86742404  1
  O  O287  1  0.62123849  0.36580121  0.36599470  1
  O  O288  1  0.62633729  0.36981292  0.86859528  1
  O  O289  1  0.62766033  0.86337302  0.37650808  1
  O  O290  1  0.62068301  0.86966618  0.88494501  1
  O  O291  1  0.37992708  0.12844633  0.12997751  1
  O  O292  1  0.38413717  0.12445367  0.63693803  1
  O  O293  1  0.38192969  0.63170820  0.12577381  1
  O  O294  1  0.37643584  0.62504795  0.63764791  1
  O  O295  1  0.86993620  0.11928856  0.14041183  1
  O  O296  1  0.89422668  0.14137456  0.61537342  1
  O  O297  1  0.88131752  0.62442226  0.13452626  1
  O  O298  1  0.86947095  0.63409907  0.63896607  1
  O  O299  1  0.25621683  0.26073404  0.12205140  1
  O  O300  1  0.23249010  0.25703171  0.63478631  1
  O  O301  1  0.25756126  0.75834021  0.12945662  1
  O  O302  1  0.26772757  0.75195700  0.62340709  1
  O  O303  1  0.74329059  0.25894047  0.11720552  1
  O  O304  1  0.76077269  0.25604234  0.61552577  1
  O  O305  1  0.74333113  0.76598278  0.13290169  1
  O  O306  1  0.75617615  0.75660412  0.62056186  1
  O  O307  1  0.22860124  0.24082617  0.35543677  1
  O  O308  1  0.23444795  0.24848878  0.88063443  1
  O  O309  1  0.24113608  0.74716276  0.37985172  1
  O  O310  1  0.24542376  0.73864223  0.86811643  1
  O  O311  1  0.74333733  0.24415491  0.37927257  1
  O  O312  1  0.73915022  0.25456018  0.88602128  1
  O  O313  1  0.74437789  0.74674820  0.38166139  1
  O  O314  1  0.75155801  0.73384905  0.86660768  1
  O  O315  1  0.00888258  0.12750264  0.00552563  1
  O  O316  1  0.00621803  0.11566426  0.50405629  1
  O  O317  1  0.01279682  0.62081762  0.00259803  1
  O  O318  1  -0.00176876  0.61607776  0.49748613  1
  O  O319  1  0.50866276  0.11486940  0.00491423  1
  O  O320  1  0.49618978  0.11993054  0.51425917  1
  O  O321  1  0.50625194  0.61931055  0.01058886  1
  O  O322  1  0.50666695  0.61578809  0.50169205  1
  O  O323  1  0.49788531  0.38896302  0.49935372  1
  O  O324  1  0.49465981  0.38360469  1.00094757  1
  O  O325  1  0.50095780  0.87908495  0.49332120  1
  O  O326  1  0.49612481  0.88955062  1.00393695  1
  O  O327  1  1.00413049  0.37664591  0.49015525  1
  O  O328  1  0.99930896  0.36878615  0.98627041  1
  O  O329  1  0.99938364  0.88141195  0.49320901  1
  O  O330  1  0.98646772  0.87297730  1.00396344  1
  O  O331  1  0.49701443  0.50103705  0.38360337  1
  O  O332  1  0.49255289  0.50474277  0.88252422  1
  O  O333  1  0.48365734  0.99817023  0.37190365  1
  O  O334  1  0.49104569  1.00126364  0.88136487  1
  O  O335  1  0.99379779  0.49374553  0.38653842  1
  O  O336  1  0.99186798  0.49093224  0.86635220  1
  O  O337  1  0.99413678  0.98966736  0.37964997  1
  O  O338  1  0.98940294  0.99629152  0.88094937  1
  O  O339  1  0.00259335  0.00636767  0.12385660  1
  O  O340  1  -0.00926957  0.00571867  0.61573924  1
  O  O341  1  0.00253355  0.51758820  0.13269495  1
  O  O342  1  0.00271407  0.50050597  0.61211695  1
  O  O343  1  0.50672362  0.00227621  0.12058983  1
  O  O344  1  0.50617784  0.00667947  0.62804028  1
  O  O345  1  0.50316619  0.50728720  0.12245876  1
  O  O346  1  0.51189990  0.50643184  0.61764678  1
  O  O347  1  0.23734963  0.38398240  0.24269204  1
  O  O348  1  0.23933257  0.38754414  0.75865965  1
  O  O349  1  0.24023383  0.88237880  0.24148093  1
  O  O350  1  0.24519988  0.88848385  0.75307519  1
  O  O351  1  0.74375722  0.37817516  0.24434807  1
  O  O352  1  0.74533555  0.38841704  0.75065344  1
  O  O353  1  0.75675718  0.88644657  0.23997153  1
  O  O354  1  0.75097473  0.87162264  0.73928606  1
  O  O355  1  0.25614660  0.11563309  0.24698187  1
  O  O356  1  0.25811017  0.11252947  0.75254634  1
  O  O357  1  0.24202545  0.61130596  0.23671518  1
  O  O358  1  0.25757020  0.61915280  0.75710747  1
  O  O359  1  0.75515033  0.11445254  0.25880445  1
  O  O360  1  0.76312067  0.11283630  0.70408535  1
  O  O361  1  0.75904750  0.61905839  0.25260646  1
  O  O362  1  0.75825950  0.61452474  0.75641480  1
  O  O363  1  0.37188590  0.11386168  0.36452258  1
  O  O364  1  0.37619178  0.11777139  0.86369090  1
  O  O365  1  0.38044909  0.61244700  0.37030526  1
  O  O366  1  0.36878817  0.61996629  0.86903208  1
  O  O367  1  0.86904085  0.11569242  0.36954299  1
  O  O368  1  0.87823537  0.11453025  0.87580866  1
  O  O369  1  0.87065666  0.61697165  0.36624668  1
  O  O370  1  0.87260769  0.61857161  0.86734992  1
  O  O371  1  0.13244784  0.37017830  0.13464054  1
  O  O372  1  0.11620914  0.38751898  0.63697023  1
  O  O373  1  0.12935639  0.87228985  0.13208824  1
  O  O374  1  0.12193067  0.86922150  0.63895168  1
  O  O375  1  0.63344541  0.37963007  0.12968616  1
  O  O376  1  0.63019994  0.38654775  0.63139227  1
  O  O377  1  0.63754148  0.88674635  0.11778344  1
  O  O378  1  0.63613734  0.87809646  0.62541973  1
  O  O379  1  0.11221000  0.25774559  0.25449897  1
  O  O380  1  0.11587557  0.25519462  0.75828132  1
  O  O381  1  0.13274881  0.75948870  0.26246168  1
  O  O382  1  0.12232110  0.75503339  0.75614517  1
  O  O383  1  0.62289031  0.25060646  0.25897974  1
  O  O384  1  0.63423764  0.26151036  0.75848243  1
  O  O385  1  0.61488946  0.74503000  0.26006187  1
  O  O386  1  0.61069879  0.73991453  0.74843919  1
  O  O387  1  0.37958142  0.23522066  0.24498322  1
  O  O388  1  0.36842560  0.23437712  0.76021512  1
  O  O389  1  0.38158603  0.74751851  0.23999368  1
  O  O390  1  0.38131978  0.74603968  0.73943717  1
  O  O391  1  0.88124001  0.23885192  0.25921294  1
  O  O392  1  0.88768088  0.25416339  0.74557976  1
  O  O393  1  0.87051658  0.73519113  0.25597042  1
  O  O394  1  0.88541755  0.74365649  0.74487590  1
  O  O395  1  0.38036522  0.50022515  0.49379399  1
  O  O396  1  0.38023849  0.49884916  0.99431554  1
  O  O397  1  0.37030906  1.00433441  0.48452867  1
  O  O398  1  0.38314706  1.00224169  0.99220385  1
  O  O399  1  0.88698580  0.50406302  0.49291132  1
  O  O400  1  0.87159260  0.49754254  0.98791188  1
  O  O401  1  0.88474440  0.99940633  0.48723305  1
  O  O402  1  0.87650713  0.99197583  0.98925077  1
  O  O403  1  0.12256863  0.01018614  0.00097278  1
  O  O404  1  0.11367456  0.00591960  0.49229704  1
  O  O405  1  0.12674487  0.50520810  -0.01161779  1
  O  O406  1  0.11023322  0.50003533  0.50785426  1
  O  O407  1  0.62060975  0.00720076  0.00611699  1
  O  O408  1  0.62250227  0.00487294  0.51623423  1
  O  O409  1  0.61993698  0.50706049  0.00549192  1
  O  O410  1  0.62037848  0.50362085  0.50511139  1
  O  O411  1  0.36868109  0.36847269  0.12115867  1
  O  O412  1  0.37424016  0.37912680  0.63507451  1
  O  O413  1  0.36404868  0.86756716  0.12289409  1
  O  O414  1  0.37603382  0.86757300  0.62580975  1
  O  O415  1  0.86309431  0.38130656  0.12665001  1
  O  O416  1  0.87859872  0.36307160  0.62825871  1
  O  O417  1  0.86420608  0.87684409  0.11688058  1
  O  O418  1  0.86427871  0.86557398  0.62433910  1
  O  O419  1  0.12114352  0.13057525  0.38492481  1
  O  O420  1  0.12468262  0.13256460  0.88620715  1
  O  O421  1  0.11714123  0.63825801  0.36647728  1
  O  O422  1  0.13221063  0.62963633  0.88214780  1
  O  O423  1  0.63095247  0.13023805  0.37763022  1
  O  O424  1  0.62358073  0.13068493  0.88380270  1
  O  O425  1  0.63361214  0.63196732  0.37931493  1
  O  O426  1  0.63541001  0.62506385  0.88381059  1
