# generated using pymatgen
data_V85Zn86O256
_symmetry_space_group_name_H-M   'P 1'
_cell_length_a   16.93160116
_cell_length_b   16.92753666
_cell_length_c   16.92913570
_cell_angle_alpha   89.96361165
_cell_angle_beta   90.05581714
_cell_angle_gamma   90.02099113
_symmetry_Int_Tables_number   1
_chemical_formula_structural   V85Zn86O256
_chemical_formula_sum   'V85 Zn86 O256'
_cell_volume   4852.06104677
_cell_formula_units_Z   1
loop_
 _symmetry_equiv_pos_site_id
 _symmetry_equiv_pos_as_xyz
  1  'x, y, z'
loop_
 _atom_site_type_symbol
 _atom_site_label
 _atom_site_symmetry_multiplicity
 _atom_site_fract_x
 _atom_site_fract_y
 _atom_site_fract_z
 _atom_site_occupancy
  V  V0  1  0.25839488  0.37182206  0.12520313  1
  V  V1  1  0.75365534  0.62463625  0.87505020  1
  V  V2  1  0.62677530  0.62482240  0.50009393  1
  V  V3  1  0.24737511  0.49764807  0.24889688  1
  V  V4  1  0.00981715  0.49905530  0.49740026  1
  V  V5  1  0.37281672  0.13551795  0.74694323  1
  V  V6  1  0.87675361  0.61860852  0.25220649  1
  V  V7  1  0.62783852  0.75144972  0.87248207  1
  V  V8  1  0.37473289  0.49828712  0.37680886  1
  V  V9  1  -0.00064990  0.62269318  0.11327800  1
  V  V10  1  0.75217077  0.12431211  0.36625623  1
  V  V11  1  0.12467704  0.74905865  0.37694672  1
  V  V12  1  0.49903883  0.75403865  0.74724851  1
  V  V13  1  0.87618008  0.24947501  0.62579877  1
  V  V14  1  0.36583060  -0.00001774  0.37895629  1
  V  V15  1  0.75000000  0.10703818  0.87260629  1
  V  V16  1  0.87462867  0.88204281  -0.00117457  1
  V  V17  1  0.62744777  0.75688892  0.37572214  1
  V  V18  1  0.62753887  0.49957467  0.62839205  1
  V  V19  1  0.38417533  0.36914934  -0.00857998  1
  V  V20  1  0.75481867  0.24870375  -0.00959604  1
  V  V21  1  0.24606578  0.12481802  0.87407653  1
  V  V22  1  0.49868170  0.74795564  0.24837164  1
  V  V23  1  0.49959149  0.49936993  0.50195335  1
  V  V24  1  0.23082335  0.37387793  0.62862754  1
  V  V25  1  -0.00225751  0.87419799  0.37385209  1
  V  V26  1  0.52121038  0.00479331  0.00828778  1
  V  V27  1  0.50164491  0.62683768  0.62483932  1
  V  V28  1  0.75404746  0.61867841  0.37450962  1
  V  V29  1  0.87820814  0.24973766  0.13694069  1
  V  V30  1  0.62586980  0.37457018  0.25110240  1
  V  V31  1  0.25762053  0.87697370  0.61782977  1
  V  V32  1  0.11643119  0.12481802  0.00051485  1
  V  V33  1  0.87283358  0.00257241  0.36799856  1
  V  V34  1  0.75197533  0.37422204  0.63041307  1
  V  V35  1  0.00107940  0.38154385  0.89293260  1
  V  V36  1  0.62457799  0.12365290  0.50099873  1
  V  V37  1  0.13480559  0.75915291  0.87451729  1
  V  V38  1  0.88076610  0.50020082  0.89413410  1
  V  V39  1  0.75134416  0.75008227  0.50197616  1
  V  V40  1  0.37513961  0.62663078  0.24815745  1
  V  V41  1  0.62366306  0.62196086  -0.00180830  1
  V  V42  1  -0.00175677  0.74827244  0.24979990  1
  V  V43  1  -0.00277520  0.87892125  0.86923873  1
  V  V44  1  -0.00180493  0.37171107  0.36631443  1
  V  V45  1  0.49488629  0.88105599  0.87470078  1
  V  V46  1  0.62563215  0.87478463  0.22717034  1
  V  V47  1  0.24707644  -0.00572805  0.75170340  1
  V  V48  1  0.24858338  0.62403694  0.37792468  1
  V  V49  1  -0.00234628  0.00197090  0.49922514  1
  V  V50  1  0.87518771  0.38438447  0.49602833  1
  V  V51  1  0.25111977  0.24818760  0.00552868  1
  V  V52  1  0.49127033  0.13440766  0.62490546  1
  V  V53  1  0.75432840  0.37239773  0.11858616  1
  V  V54  1  0.24844988  0.00153680  0.24723195  1
  V  V55  1  0.49836607  0.37297481  0.37856654  1
  V  V56  1  0.62489553  0.49859600  0.12531246  1
  V  V57  1  0.01016955  0.62007569  0.62563150  1
  V  V58  1  0.49062130  0.24828920  0.24470416  1
  V  V59  1  0.62406306  0.24854743  0.37491746  1
  V  V60  1  0.37431465  0.62290735  0.74854309  1
  V  V61  1  0.23701888  0.49989744  0.74674769  1
  V  V62  1  0.62536091  0.00485576  0.63532392  1
  V  V63  1  0.87927802  0.62038730  0.75128706  1
  V  V64  1  0.12385986  0.25582263  0.86948595  1
  V  V65  1  0.25334281  0.86976726  0.11466443  1
  V  V66  1  0.61045031  0.36707549  0.75662800  1
  V  V67  1  -0.00591501  0.12404796  0.14168038  1
  V  V68  1  0.62903862  0.88104712  0.74984925  1
  V  V69  1  0.00102481  0.26236694  0.74915071  1
  V  V70  1  0.12294647  -0.00574581  0.62881205  1
  V  V71  1  0.37190319  -0.00008901  0.88607970  1
  V  V72  1  0.37555844  0.36953056  0.51443911  1
  V  V73  1  0.13946881  0.63127933  0.00136204  1
  V  V74  1  0.74489699  -0.00269892  0.23714768  1
  V  V75  1  0.49785066  -0.00747434  0.49783740  1
  V  V76  1  0.75217210  0.24862664  0.49922281  1
  V  V77  1  0.74679276  0.75658782  0.00442013  1
  V  V78  1  0.75214085  0.88183311  0.62966015  1
  V  V79  1  0.25190552  0.24729900  0.49817959  1
  V  V80  1  0.12171166  0.49611683  0.11682850  1
  V  V81  1  0.87904898  0.74978286  0.62608584  1
  V  V82  1  0.12816333  0.12497164  0.49531321  1
  V  V83  1  0.87615841  0.11563147  0.75587563  1
  V  V84  1  0.87217575  0.75578419  0.12545827  1
  Zn  Zn85  1  0.35690165  0.74275088  0.09748602  1
  Zn  Zn86  1  0.87409957  0.87614316  0.49995092  1
  Zn  Zn87  1  0.37832642  0.75702088  0.61741192  1
  Zn  Zn88  1  -0.00738954  0.00493337  -0.00339780  1
  Zn  Zn89  1  0.75361387  0.49561915  0.25361781  1
  Zn  Zn90  1  0.49901177  0.12146290  0.12322424  1
  Zn  Zn91  1  0.00133925  0.12595193  0.62830371  1
  Zn  Zn92  1  0.37984012  0.49356782  0.86954532  1
  Zn  Zn93  1  0.12268667  0.24401240  0.36641159  1
  Zn  Zn94  1  0.36788176  0.12796826  0.24795990  1
  Zn  Zn95  1  0.12092234  0.36828924  0.24499023  1
  Zn  Zn96  1  0.12508970  0.87336231  0.24619800  1
  Zn  Zn97  1  0.12121415  -0.00323104  0.12420006  1
  Zn  Zn98  1  0.25300263  0.62617288  0.87641983  1
  Zn  Zn99  1  0.25922739  0.75834887  0.49292110  1
  Zn  Zn100  1  0.61138313  0.25132906  0.88485795  1
  Zn  Zn101  1  0.75152473  0.49743785  0.75503838  1
  Zn  Zn102  1  0.49546426  0.87553727  0.37455958  1
  Zn  Zn103  1  0.49523771  0.61948894  0.12127939  1
  Zn  Zn104  1  0.00706084  0.75219822  0.74886817  1
  Zn  Zn105  1  0.13028623  0.62306779  0.50495769  1
  Zn  Zn106  1  0.50681057  0.48767768  -0.01099882  1
  Zn  Zn107  1  0.18291013  0.18680013  0.18894066  1
  Zn  Zn108  1  0.18687471  0.18571107  0.68341150  1
  Zn  Zn109  1  0.18598619  0.68793878  0.18965339  1
  Zn  Zn110  1  0.18932781  0.69317707  0.69109556  1
  Zn  Zn111  1  0.68138411  0.18619259  0.18120416  1
  Zn  Zn112  1  0.68932663  0.18586942  0.69306956  1
  Zn  Zn113  1  0.68728737  0.68761999  0.18732450  1
  Zn  Zn114  1  0.69085335  0.68867174  0.68959598  1
  Zn  Zn115  1  0.30907141  0.31419669  0.31801157  1
  Zn  Zn116  1  0.30721970  0.31374992  0.81101338  1
  Zn  Zn117  1  0.31258761  0.81762552  0.30915541  1
  Zn  Zn118  1  0.31245205  0.81508765  0.80757170  1
  Zn  Zn119  1  0.81403989  0.31379728  0.31170429  1
  Zn  Zn120  1  0.82086123  0.31648968  0.81295830  1
  Zn  Zn121  1  0.80963401  0.81468316  0.31009530  1
  Zn  Zn122  1  0.81612630  0.81290034  0.81169098  1
  Zn  Zn123  1  0.18557342  0.43321047  0.43772935  1
  Zn  Zn124  1  0.19026369  0.43889182  0.93600337  1
  Zn  Zn125  1  0.18470570  0.93817423  0.43572651  1
  Zn  Zn126  1  0.18480993  0.93903211  0.94105814  1
  Zn  Zn127  1  0.68803220  0.43703827  0.43977545  1
  Zn  Zn128  1  0.69119087  0.43407624  0.93573241  1
  Zn  Zn129  1  0.68783047  0.93969878  0.44117304  1
  Zn  Zn130  1  0.68611028  0.93653159  0.93911018  1
  Zn  Zn131  1  0.31602039  0.06615265  0.07020020  1
  Zn  Zn132  1  0.31224009  0.06135099  0.56049092  1
  Zn  Zn133  1  0.31537848  0.55393800  0.06156440  1
  Zn  Zn134  1  0.31238057  0.56073546  0.56602349  1
  Zn  Zn135  1  0.81073244  0.06894115  0.05987159  1
  Zn  Zn136  1  0.81392046  0.06430699  0.56277804  1
  Zn  Zn137  1  0.80768916  0.56714771  0.06717591  1
  Zn  Zn138  1  0.81605677  0.56190764  0.56446869  1
  Zn  Zn139  1  0.43834037  0.43561524  0.18559701  1
  Zn  Zn140  1  0.43629863  0.43939114  0.68995246  1
  Zn  Zn141  1  0.43185355  0.93416116  0.18683704  1
  Zn  Zn142  1  0.43664698  0.94859896  0.69150258  1
  Zn  Zn143  1  0.93616142  0.43895442  0.18068876  1
  Zn  Zn144  1  0.94122040  0.43978354  0.68779007  1
  Zn  Zn145  1  0.93564791  0.93852740  0.18714366  1
  Zn  Zn146  1  0.93932952  0.93678833  0.68762452  1
  Zn  Zn147  1  0.06605482  0.06050728  0.31310675  1
  Zn  Zn148  1  0.05969787  0.06430393  0.81157004  1
  Zn  Zn149  1  0.06091589  0.55624355  0.31136793  1
  Zn  Zn150  1  0.06334089  0.56646867  0.81908146  1
  Zn  Zn151  1  0.56457768  0.06127281  0.30590313  1
  Zn  Zn152  1  0.54210248  0.09850524  0.83278107  1
  Zn  Zn153  1  0.56441742  0.56217971  0.31398385  1
  Zn  Zn154  1  0.56180716  0.55795691  0.81288795  1
  Zn  Zn155  1  0.43294922  0.18233823  0.43488271  1
  Zn  Zn156  1  0.43335725  0.18608292  0.94106023  1
  Zn  Zn157  1  0.43691996  0.69073131  0.43733767  1
  Zn  Zn158  1  0.43965184  0.68382347  0.93212908  1
  Zn  Zn159  1  0.93675246  0.18782653  0.43556809  1
  Zn  Zn160  1  0.93277367  0.19384271  0.93901827  1
  Zn  Zn161  1  0.93784306  0.68432517  0.43945179  1
  Zn  Zn162  1  0.94123153  0.69460771  0.93738243  1
  Zn  Zn163  1  0.06356228  0.30684416  0.06633031  1
  Zn  Zn164  1  0.06055563  0.31015542  0.55755225  1
  Zn  Zn165  1  0.06395480  0.81337147  0.05978723  1
  Zn  Zn166  1  0.06617523  0.81398681  0.56089327  1
  Zn  Zn167  1  0.56912574  0.30433493  0.06435243  1
  Zn  Zn168  1  0.56535848  0.31171888  0.56537363  1
  Zn  Zn169  1  0.52972550  0.79867093  0.04811344  1
  Zn  Zn170  1  0.56520754  0.81555291  0.56248747  1
  O  O171  1  0.10728177  0.12690557  0.11767035  1
  O  O172  1  0.12198148  0.11351509  0.61517100  1
  O  O173  1  0.11932126  0.62073278  0.11883486  1
  O  O174  1  0.11369179  0.63420944  0.62415117  1
  O  O175  1  0.60856472  0.11721603  0.14015050  1
  O  O176  1  0.61843505  0.12057902  0.62251026  1
  O  O177  1  0.62856979  0.61419835  0.11710747  1
  O  O178  1  0.62228250  0.62021703  0.62158998  1
  O  O179  1  0.37944051  0.38238079  0.38639067  1
  O  O180  1  0.37113013  0.37072635  0.88823371  1
  O  O181  1  0.37893837  0.89182879  0.36939945  1
  O  O182  1  0.38569580  0.88566498  0.86349515  1
  O  O183  1  0.88328325  0.37212847  0.38390589  1
  O  O184  1  0.89047121  0.38681400  0.87450772  1
  O  O185  1  0.87936951  0.88075787  0.37835001  1
  O  O186  1  0.88818857  0.86779408  0.88319111  1
  O  O187  1  0.25764083  -0.00466063  0.36607210  1
  O  O188  1  0.25070966  0.00317821  0.86804700  1
  O  O189  1  0.25318453  0.50437105  0.36962393  1
  O  O190  1  0.25529724  0.50054690  0.85967360  1
  O  O191  1  0.75496085  0.00527269  0.37081973  1
  O  O192  1  0.75262037  0.00818853  0.87573726  1
  O  O193  1  0.74500658  0.51415778  0.37507862  1
  O  O194  1  0.76257195  0.50574323  0.87590061  1
  O  O195  1  0.24342916  0.49116087  0.12967297  1
  O  O196  1  0.25098142  0.48918790  0.63580522  1
  O  O197  1  0.24780805  0.98977070  0.13301454  1
  O  O198  1  0.24375141  0.99316255  0.62963505  1
  O  O199  1  0.74193492  0.49102587  0.12625432  1
  O  O200  1  0.74570134  0.49135605  0.62598184  1
  O  O201  1  0.75752727  1.00585945  0.13885746  1
  O  O202  1  0.74093452  0.99255052  0.61905802  1
  O  O203  1  -0.00475547  0.38227963  0.26386827  1
  O  O204  1  -0.00149719  0.36568176  0.75564871  1
  O  O205  1  -0.00053161  0.86658141  0.25607492  1
  O  O206  1  -0.00552673  0.87159986  0.76436101  1
  O  O207  1  0.50348208  0.36771759  0.25784522  1
  O  O208  1  0.51196257  0.37330941  0.74418882  1
  O  O209  1  0.51068534  0.86660970  0.25150239  1
  O  O210  1  0.50664353  0.87313349  0.75365435  1
  O  O211  1  0.49854401  0.14380833  0.26082326  1
  O  O212  1  0.48654789  0.11308623  0.73075576  1
  O  O213  1  0.49036230  0.62734654  0.25193833  1
  O  O214  1  0.49664383  0.63509643  0.74432006  1
  O  O215  1  0.99913692  0.12154870  0.24014291  1
  O  O216  1  0.99001573  0.13723672  0.75186688  1
  O  O217  1  0.99321767  0.62964215  0.24402227  1
  O  O218  1  0.99495905  0.62644399  0.74360308  1
  O  O219  1  0.36399800  0.25784179  -0.00194441  1
  O  O220  1  0.36706552  0.25824577  0.49599474  1
  O  O221  1  0.42452061  0.75876483  0.01136159  1
  O  O222  1  0.37184008  0.74810392  0.50472886  1
  O  O223  1  0.86104673  0.24921558  0.01235597  1
  O  O224  1  0.87049152  0.25829385  0.50707305  1
  O  O225  1  0.86651207  0.75545190  0.00673696  1
  O  O226  1  0.87157742  0.75011108  0.51242945  1
  O  O227  1  0.13078839  0.24028920  0.49998524  1
  O  O228  1  0.12921159  0.24157739  0.99150867  1
  O  O229  1  0.12962589  0.74670205  0.48754117  1
  O  O230  1  0.12239787  0.74210213  0.98781289  1
  O  O231  1  0.63224597  0.24503434  0.49446617  1
  O  O232  1  0.64604999  0.25190041  0.99967459  1
  O  O233  1  0.62995258  0.74369159  0.49488494  1
  O  O234  1  0.62879294  0.74325901  0.99320683  1
  O  O235  1  0.50080713  0.25601662  0.14344335  1
  O  O236  1  0.50244500  0.23292078  0.61970660  1
  O  O237  1  0.51188845  0.73746298  0.14532115  1
  O  O238  1  0.50375052  0.74883727  0.63481794  1
  O  O239  1  0.98667495  0.24099841  0.12296995  1
  O  O240  1  0.99550939  0.24953488  0.63250112  1
  O  O241  1  0.99379340  0.74230125  0.13007863  1
  O  O242  1  0.99412081  0.74583294  0.62591000  1
  O  O243  1  0.00064732  0.26698525  0.38261737  1
  O  O244  1  0.00343999  0.26323413  0.87123479  1
  O  O245  1  0.00540535  0.75269197  0.37205025  1
  O  O246  1  0.00989346  0.76136067  0.87348798  1
  O  O247  1  0.50550711  0.25676832  0.37402652  1
  O  O248  1  0.51050077  0.20663017  0.86518461  1
  O  O249  1  0.51035267  0.74907964  0.36576363  1
  O  O250  1  0.50634154  0.76059299  0.86078163  1
  O  O251  1  0.24188478  0.13533821  0.50800863  1
  O  O252  1  0.24193875  0.13237878  0.99610987  1
  O  O253  1  0.25016792  0.62176609  0.48753300  1
  O  O254  1  0.24387434  0.62396992  1.00031994  1
  O  O255  1  0.74463560  0.13041332  0.49276261  1
  O  O256  1  0.75820546  0.13402256  0.98123066  1
  O  O257  1  0.74727476  0.62967867  0.49493930  1
  O  O258  1  0.74160333  0.63494693  0.99531010  1
  O  O259  1  0.25673240  0.36731485  0.00509935  1
  O  O260  1  0.25499231  0.37343407  0.51306394  1
  O  O261  1  0.24749135  0.87806668  0.01514196  1
  O  O262  1  0.24693294  0.87863224  0.51393379  1
  O  O263  1  0.75040926  0.36689788  0.01193850  1
  O  O264  1  0.75663033  0.37075432  0.50839121  1
  O  O265  1  0.75601807  0.86239915  -0.00660601  1
  O  O266  1  0.75068261  0.86842119  0.51235287  1
  O  O267  1  0.13117976  0.49654277  0.23720419  1
  O  O268  1  0.13844636  0.50791101  0.75185598  1
  O  O269  1  0.13489362  0.99621856  0.24876741  1
  O  O270  1  0.13236183  1.00778044  0.74020326  1
  O  O271  1  0.62716565  0.49334071  0.24309313  1
  O  O272  1  0.62975544  0.48884118  0.74351082  1
  O  O273  1  0.62932445  0.98161093  0.25255939  1
  O  O274  1  0.61989930  0.99776909  0.73773405  1
  O  O275  1  0.36413796  -0.00091173  0.25757551  1
  O  O276  1  0.36339411  0.00991109  0.75806108  1
  O  O277  1  0.37053975  0.50824379  0.25417907  1
  O  O278  1  0.36690880  0.50885476  0.74861549  1
  O  O279  1  0.86365553  -0.00831583  0.26236279  1
  O  O280  1  0.88224201  0.01712367  0.74643310  1
  O  O281  1  0.87198989  0.51498778  0.24257448  1
  O  O282  1  0.87615823  0.51177159  0.75512018  1
  O  O283  1  0.10885688  0.37564192  0.37381832  1
  O  O284  1  0.11397499  0.36851189  0.87984132  1
  O  O285  1  0.11679969  0.86578790  0.37313280  1
  O  O286  1  0.11592301  0.86508516  0.88230195  1
  O  O287  1  0.61990462  0.37045179  0.37172393  1
  O  O288  1  0.62815314  0.37167927  0.86117297  1
  O  O289  1  0.62512959  0.86250735  0.37823068  1
  O  O290  1  0.62136488  0.87178710  0.86522866  1
  O  O291  1  0.38552241  0.12319101  0.13490996  1
  O  O292  1  0.38372787  0.12157624  0.62908108  1
  O  O293  1  0.37443005  0.62643031  0.13274902  1
  O  O294  1  0.38321533  0.62656116  0.63429752  1
  O  O295  1  0.88634874  0.13439242  0.12242516  1
  O  O296  1  0.87633140  0.13255771  0.63489477  1
  O  O297  1  0.88200264  0.63421302  0.13000526  1
  O  O298  1  0.88308467  0.63130878  0.63209841  1
  O  O299  1  0.24241632  0.25682879  0.11265938  1
  O  O300  1  0.24354500  0.26597992  0.61829112  1
  O  O301  1  0.24705825  0.76164863  0.12800478  1
  O  O302  1  0.24824851  0.76880084  0.62661140  1
  O  O303  1  0.75804888  0.25288091  0.12009600  1
  O  O304  1  0.75470426  0.25677632  0.61989902  1
  O  O305  1  0.75911568  0.74384949  0.11561853  1
  O  O306  1  0.75840904  0.75582141  0.62064292  1
  O  O307  1  0.24255311  0.26083792  0.39399398  1
  O  O308  1  0.23923454  0.24739037  0.88259749  1
  O  O309  1  0.24257791  0.74235994  0.37203169  1
  O  O310  1  0.23946790  0.75212699  0.87290428  1
  O  O311  1  0.74594668  0.24257653  0.37821729  1
  O  O312  1  0.75614153  0.25573358  0.88651487  1
  O  O313  1  0.74523121  0.74331503  0.38194732  1
  O  O314  1  0.74650834  0.74435628  0.88060225  1
  O  O315  1  0.00382384  0.12520302  0.00003772  1
  O  O316  1  0.00341530  0.11448000  0.50252639  1
  O  O317  1  0.00827426  0.63064518  0.01065216  1
  O  O318  1  0.00083877  0.61596504  0.50726891  1
  O  O319  1  0.49422395  0.10600351  0.00180279  1
  O  O320  1  0.50257514  0.11677441  0.50911517  1
  O  O321  1  0.51652598  0.61928030  -0.00014719  1
  O  O322  1  0.50825719  0.62025890  0.50487504  1
  O  O323  1  0.49379536  0.37842159  0.49963095  1
  O  O324  1  0.48696422  0.36566220  1.00590464  1
  O  O325  1  0.50493212  0.88860217  0.49861871  1
  O  O326  1  0.51286839  0.89084686  0.97934847  1
  O  O327  1  0.99278085  0.38220201  0.49497239  1
  O  O328  1  1.00125034  0.37278578  0.99124434  1
  O  O329  1  0.99945589  0.88654063  0.49375441  1
  O  O330  1  0.99088925  0.87682483  0.99159855  1
  O  O331  1  0.49658218  0.49368907  0.38271111  1
  O  O332  1  0.49372800  0.50003010  0.87674124  1
  O  O333  1  0.49427395  0.99961059  0.38228552  1
  O  O334  1  0.49166443  0.99986327  0.88178177  1
  O  O335  1  0.99871853  0.48978663  0.38516867  1
  O  O336  1  0.99784269  0.48886054  0.87501717  1
  O  O337  1  0.99134995  0.99639122  0.37928842  1
  O  O338  1  1.00738039  0.98358007  0.87713877  1
  O  O339  1  -0.00237743  0.01304394  0.12230446  1
  O  O340  1  0.00591884  -0.00025466  0.61674499  1
  O  O341  1  0.00915996  0.50955729  0.12714850  1
  O  O342  1  -0.00489368  0.51003505  0.61481533  1
  O  O343  1  0.49580119  -0.01304587  0.10660110  1
  O  O344  1  0.50682578  0.00597794  0.61604340  1
  O  O345  1  0.51367779  0.49823514  0.12052582  1
  O  O346  1  0.50713150  0.50636785  0.62086391  1
  O  O347  1  0.25170285  0.38109359  0.24144925  1
  O  O348  1  0.25028746  0.38455559  0.73763644  1
  O  O349  1  0.24519370  0.88498537  0.24313007  1
  O  O350  1  0.24960892  0.88838930  0.74035554  1
  O  O351  1  0.74399992  0.37571713  0.24136730  1
  O  O352  1  0.75240370  0.37654267  0.73866965  1
  O  O353  1  0.73422247  0.87965748  0.24923215  1
  O  O354  1  0.74728115  0.87085388  0.73774443  1
  O  O355  1  0.24793507  0.10725626  0.24203803  1
  O  O356  1  0.25275875  0.11660077  0.75280088  1
  O  O357  1  0.25613438  0.61964163  0.25911922  1
  O  O358  1  0.25757594  0.61585976  0.74618020  1
  O  O359  1  0.74273821  0.11648352  0.26252963  1
  O  O360  1  0.76696102  0.12999096  0.75885171  1
  O  O361  1  0.75732859  0.62522383  0.25844548  1
  O  O362  1  0.76010778  0.62320981  0.75698594  1
  O  O363  1  0.37585679  0.10659573  0.36823532  1
  O  O364  1  0.36208294  0.11729616  0.86794121  1
  O  O365  1  0.36819742  0.61766220  0.36832718  1
  O  O366  1  0.37237009  0.62824904  0.85979305  1
  O  O367  1  0.86494164  0.11553374  0.37971699  1
  O  O368  1  0.86886087  0.12984355  0.86291648  1
  O  O369  1  0.86617993  0.63213996  0.36510358  1
  O  O370  1  0.87632824  0.62135066  0.86896371  1
  O  O371  1  0.13303995  0.38168826  0.12162737  1
  O  O372  1  0.13262718  0.37727021  0.62211582  1
  O  O373  1  0.13222233  0.87682053  0.12643867  1
  O  O374  1  0.13306544  0.88771991  0.62256922  1
  O  O375  1  0.63327375  0.37984981  0.13057051  1
  O  O376  1  0.63395550  0.37944970  0.63165538  1
  O  O377  1  0.61909147  0.86425759  0.13105714  1
  O  O378  1  0.63333309  0.88301009  0.63034576  1
  O  O379  1  0.12684385  0.25539383  0.25391213  1
  O  O380  1  0.11755652  0.24361412  0.76203001  1
  O  O381  1  0.11617596  0.74798953  0.26177021  1
  O  O382  1  0.12350501  0.74596401  0.76959170  1
  O  O383  1  0.61740956  0.25882492  0.25839064  1
  O  O384  1  0.62984709  0.26666818  0.74741654  1
  O  O385  1  0.62388061  0.75859422  0.25780371  1
  O  O386  1  0.61959254  0.75732383  0.75362451  1
  O  O387  1  0.38731024  0.25215449  0.26070952  1
  O  O388  1  0.36409431  0.23508779  0.75176608  1
  O  O389  1  0.38307691  0.73801860  0.25555816  1
  O  O390  1  0.38366928  0.74554633  0.74290601  1
  O  O391  1  0.86881678  0.24603795  0.23597866  1
  O  O392  1  0.88365651  0.24674567  0.74341973  1
  O  O393  1  0.87738773  0.74344789  0.24247031  1
  O  O394  1  0.87710869  0.73921918  0.74003555  1
  O  O395  1  0.38133178  0.49333510  0.49700284  1
  O  O396  1  0.37739456  0.48164886  0.99717640  1
  O  O397  1  0.38088893  1.00298371  0.48787556  1
  O  O398  1  0.36705891  1.00045698  0.98661602  1
  O  O399  1  0.88062298  0.48822433  0.50288555  1
  O  O400  1  0.87547122  0.51092340  0.99310470  1
  O  O401  1  0.88208057  0.99879761  0.49199888  1
  O  O402  1  0.87073455  0.98514642  1.00492517  1
  O  O403  1  0.12248277  0.01543511  0.00243119  1
  O  O404  1  0.11697991  0.00502365  0.50460515  1
  O  O405  1  0.13136784  0.50998533  0.01045796  1
  O  O406  1  0.11408595  0.50214197  0.49909863  1
  O  O407  1  0.62047346  0.00581791  0.00107225  1
  O  O408  1  0.61734333  0.00706110  0.50743206  1
  O  O409  1  0.62905487  0.50455879  0.00622472  1
  O  O410  1  0.62044426  0.50484745  0.50795946  1
  O  O411  1  0.36310042  0.37751121  0.11628822  1
  O  O412  1  0.37077022  0.37753122  0.61616945  1
  O  O413  1  0.35750658  0.86568775  0.13184725  1
  O  O414  1  0.36063471  0.88126845  0.62967438  1
  O  O415  1  0.86878520  0.36193427  0.12901258  1
  O  O416  1  0.86908658  0.37065062  0.61919068  1
  O  O417  1  0.88068833  0.86189987  0.11747052  1
  O  O418  1  0.86972058  0.86794007  0.62488999  1
  O  O419  1  0.12010122  0.12432730  0.39045267  1
  O  O420  1  0.12698638  0.13338702  0.88124396  1
  O  O421  1  0.13302295  0.62934793  0.37450605  1
  O  O422  1  0.12901340  0.63505760  0.88560227  1
  O  O423  1  0.63167329  0.12842368  0.38135588  1
  O  O424  1  0.65085444  0.12981269  0.86095939  1
  O  O425  1  0.63315091  0.63542198  0.37873116  1
  O  O426  1  0.63279877  0.62946852  0.87945582  1
