# generated using pymatgen
data_V85Zn86O256
_symmetry_space_group_name_H-M   'P 1'
_cell_length_a   16.97089999
_cell_length_b   16.96656443
_cell_length_c   16.95217995
_cell_angle_alpha   89.96636414
_cell_angle_beta   89.98839125
_cell_angle_gamma   90.10317093
_symmetry_Int_Tables_number   1
_chemical_formula_structural   V85Zn86O256
_chemical_formula_sum   'V85 Zn86 O256'
_cell_volume   4881.16569705
_cell_formula_units_Z   1
loop_
 _symmetry_equiv_pos_site_id
 _symmetry_equiv_pos_as_xyz
  1  'x, y, z'
loop_
 _atom_site_type_symbol
 _atom_site_label
 _atom_site_symmetry_multiplicity
 _atom_site_fract_x
 _atom_site_fract_y
 _atom_site_fract_z
 _atom_site_occupancy
  V  V0  1  0.12406506  0.74981210  0.87073742  1
  V  V1  1  0.37151573  0.39655777  -0.00082509  1
  V  V2  1  0.87140782  -0.00307023  0.36164956  1
  V  V3  1  0.55229637  0.56039131  0.06419532  1
  V  V4  1  0.63135996  0.00298765  0.13164884  1
  V  V5  1  0.80967005  0.45279577  0.81058962  1
  V  V6  1  0.12500571  0.25709909  0.36439266  1
  V  V7  1  0.01971304  0.51062384  0.48419911  1
  V  V8  1  -0.00225018  0.12937349  0.62010801  1
  V  V9  1  0.86657343  0.49773570  0.37232178  1
  V  V10  1  0.37695318  0.37484328  0.49975862  1
  V  V11  1  0.63193629  0.62925522  0.50418023  1
  V  V12  1  0.12160675  0.49554819  0.12902221  1
  V  V13  1  0.49565482  0.87391477  0.88246898  1
  V  V14  1  0.24695275  0.37721302  0.13509173  1
  V  V15  1  0.63077434  0.49963846  0.63546835  1
  V  V16  1  0.62531939  0.24894005  0.38217095  1
  V  V17  1  0.21620014  0.83534079  0.60168328  1
  V  V18  1  0.24733492  0.37062875  0.62533063  1
  V  V19  1  -0.00322503  0.87653743  0.87530871  1
  V  V20  1  0.25306914  0.12268414  0.35840988  1
  V  V21  1  0.50493658  0.50177778  0.49878170  1
  V  V22  1  0.49613092  0.24972851  0.25066458  1
  V  V23  1  0.01828166  0.87361893  0.36987511  1
  V  V24  1  0.16032814  0.54442026  0.60802682  1
  V  V25  1  0.37212960  0.50441190  0.37365944  1
  V  V26  1  -0.00779859  0.49474749  -0.00955210  1
  V  V27  1  0.49449346  0.12341687  0.13101547  1
  V  V28  1  0.75263772  0.63924397  0.88609079  1
  V  V29  1  -0.00681080  0.62319482  0.61651738  1
  V  V30  1  -0.00462027  0.62323300  0.12942421  1
  V  V31  1  0.12498093  0.12702782  0.49326998  1
  V  V32  1  0.86796350  0.87347021  0.49093943  1
  V  V33  1  0.12412927  0.00585328  0.62369895  1
  V  V34  1  0.12516809  0.12279448  0.00345964  1
  V  V35  1  0.12037061  0.87659518  0.74807181  1
  V  V36  1  0.25373240  0.49831922  0.75847706  1
  V  V37  1  0.51039923  0.00290392  0.50339196  1
  V  V38  1  0.24979739  0.12479171  0.87267767  1
  V  V39  1  -0.00217139  0.37406042  0.36572964  1
  V  V40  1  0.87466381  0.25389521  0.12080072  1
  V  V41  1  0.13089936  -0.01387459  0.13348577  1
  V  V42  1  0.37792959  0.61919723  0.75494371  1
  V  V43  1  0.87714698  0.12072333  0.74879846  1
  V  V44  1  0.74174462  0.11780288  0.37385306  1
  V  V45  1  0.74745594  0.12066303  0.87711358  1
  V  V46  1  0.62538908  0.37855197  0.24591606  1
  V  V47  1  0.75164287  0.62942151  0.37429785  1
  V  V48  1  0.49937882  0.24942941  0.75256888  1
  V  V49  1  0.01503468  0.74657670  0.25523331  1
  V  V50  1  0.86864488  0.62665295  0.75387034  1
  V  V51  1  0.86508230  0.75262397  0.61863770  1
  V  V52  1  0.74295908  0.00152899  0.74456109  1
  V  V53  1  0.62862324  0.87766885  0.25412014  1
  V  V54  1  0.50880444  0.74371745  0.23970520  1
  V  V55  1  0.51762151  0.12435884  0.62183648  1
  V  V56  1  0.74606961  0.87081608  0.12201827  1
  V  V57  1  0.74619623  0.51051106  0.24411066  1
  V  V58  1  0.74065398  0.87856476  0.61864556  1
  V  V59  1  0.49299121  0.38646215  0.88007086  1
  V  V60  1  0.37618394  0.00080552  0.37000074  1
  V  V61  1  0.37422488  0.24849776  0.12719235  1
  V  V62  1  0.25126868  0.24930468  0.49529263  1
  V  V63  1  0.33240986  0.77935487  0.16568925  1
  V  V64  1  0.75404229  0.37837750  0.61985923  1
  V  V65  1  0.50629975  0.62343567  0.63155515  1
  V  V66  1  0.24495217  0.51232185  0.25438959  1
  V  V67  1  0.12368840  0.62478774  -0.00267512  1
  V  V68  1  0.87193952  0.74820346  0.13520867  1
  V  V69  1  0.62378424  0.87365522  0.75389663  1
  V  V70  1  0.38417073  0.75757485  0.62748514  1
  V  V71  1  -0.00107749  0.12342464  0.12854383  1
  V  V72  1  0.75082273  0.37772455  0.11964162  1
  V  V73  1  0.87235766  0.86980282  0.00252168  1
  V  V74  1  0.62099458  0.75025011  0.38079729  1
  V  V75  1  0.62395051  0.12275938  0.00302320  1
  V  V76  1  -0.00243826  0.74969349  0.74787438  1
  V  V77  1  0.12499139  0.37427002  0.75164569  1
  V  V78  1  0.25691456  0.76485989  -0.00351180  1
  V  V79  1  0.25216088  0.25233050  -0.00002183  1
  V  V80  1  0.25395668  0.62343994  0.87559132  1
  V  V81  1  0.37821539  0.24475069  0.62472811  1
  V  V82  1  0.37109681  -0.00711644  0.88142320  1
  V  V83  1  0.25072699  -0.00240568  0.74067617  1
  V  V84  1  0.61894638  0.25103545  0.87991328  1
  Zn  Zn85  1  -0.00026550  0.25324674  0.24601533  1
  Zn  Zn86  1  0.25821852  -0.03781206  0.24158915  1
  Zn  Zn87  1  0.87877732  0.37362244  0.49753626  1
  Zn  Zn88  1  0.86830369  0.12375369  0.24699245  1
  Zn  Zn89  1  0.50147030  0.37500581  0.37376502  1
  Zn  Zn90  1  0.75268848  0.25433458  -0.00002897  1
  Zn  Zn91  1  0.11920881  0.25112011  0.87651708  1
  Zn  Zn92  1  0.87233375  -0.00023593  0.87967940  1
  Zn  Zn93  1  -0.00280733  0.00094188  0.49422511  1
  Zn  Zn94  1  0.75203599  0.24698463  0.49955548  1
  Zn  Zn95  1  0.37642683  0.87887396  0.50628336  1
  Zn  Zn96  1  0.00048413  0.25127312  0.75196381  1
  Zn  Zn97  1  0.50397151  0.74755669  0.75885718  1
  Zn  Zn98  1  0.38899494  0.61841313  0.23823716  1
  Zn  Zn99  1  -0.00073352  -0.00168678  0.00336533  1
  Zn  Zn100  1  0.49259536  -0.00137015  0.00454663  1
  Zn  Zn101  1  -0.00979583  0.37680020  0.87294647  1
  Zn  Zn102  1  0.87457862  0.25076029  0.62061217  1
  Zn  Zn103  1  0.37672228  0.12265010  0.74959022  1
  Zn  Zn104  1  0.49783496  0.87464433  0.37742565  1
  Zn  Zn105  1  0.62588168  0.37862755  0.75619808  1
  Zn  Zn106  1  0.62153672  0.74766529  0.89111591  1
  Zn  Zn107  1  0.18482309  0.18785298  0.18472340  1
  Zn  Zn108  1  0.18602347  0.18981921  0.68810760  1
  Zn  Zn109  1  0.18399593  0.68599304  0.18214877  1
  Zn  Zn110  1  0.22487089  0.70086537  0.48920182  1
  Zn  Zn111  1  0.68736280  0.19109739  0.19290423  1
  Zn  Zn112  1  0.68892923  0.19332308  0.69097171  1
  Zn  Zn113  1  0.68613773  0.68937963  0.06387149  1
  Zn  Zn114  1  0.69007401  0.69081995  0.69447972  1
  Zn  Zn115  1  0.31451625  0.31692613  0.31353373  1
  Zn  Zn116  1  0.31493901  0.31139107  0.81517900  1
  Zn  Zn117  1  0.30939402  0.80613596  0.33462438  1
  Zn  Zn118  1  0.30948480  0.81152285  0.80326119  1
  Zn  Zn119  1  0.81052422  0.30966425  0.30666257  1
  Zn  Zn120  1  0.81086802  0.29137964  0.81068853  1
  Zn  Zn121  1  0.80766734  0.80754003  0.30775497  1
  Zn  Zn122  1  0.81269153  0.81477261  0.80943470  1
  Zn  Zn123  1  0.17971471  0.44820807  0.43691572  1
  Zn  Zn124  1  0.18372064  0.43873996  0.94117232  1
  Zn  Zn125  1  0.19268843  0.94384301  0.43960309  1
  Zn  Zn126  1  0.18242715  0.94183660  0.93482538  1
  Zn  Zn127  1  0.68508919  0.43567524  0.43784477  1
  Zn  Zn128  1  0.67606629  0.44096800  0.94674573  1
  Zn  Zn129  1  0.68698544  0.93958549  0.43685590  1
  Zn  Zn130  1  0.68440681  0.93548678  0.94071967  1
  Zn  Zn131  1  0.31001578  0.06042909  0.06624642  1
  Zn  Zn132  1  0.31608632  0.06471168  0.55568579  1
  Zn  Zn133  1  0.31345793  0.58133286  0.07223688  1
  Zn  Zn134  1  0.32791841  0.56056524  0.56962867  1
  Zn  Zn135  1  0.81251248  0.05910915  0.06346234  1
  Zn  Zn136  1  0.81049749  0.06005104  0.55516026  1
  Zn  Zn137  1  0.81733786  0.55876807  0.06369928  1
  Zn  Zn138  1  0.81521072  0.55855545  0.55794082  1
  Zn  Zn139  1  0.43613963  0.43711461  0.18506791  1
  Zn  Zn140  1  0.43928604  0.43571109  0.69036923  1
  Zn  Zn141  1  0.44282745  0.93320806  0.19039650  1
  Zn  Zn142  1  0.44308481  0.94279171  0.69227011  1
  Zn  Zn143  1  0.93079502  0.43886976  0.18931136  1
  Zn  Zn144  1  0.94574026  0.43882274  0.67697999  1
  Zn  Zn145  1  0.94301012  0.93327627  0.18778469  1
  Zn  Zn146  1  0.93399261  0.94089427  0.68285790  1
  Zn  Zn147  1  0.06545485  0.05833015  0.30697235  1
  Zn  Zn148  1  0.06177718  0.06238661  0.81347575  1
  Zn  Zn149  1  0.06063823  0.55882745  0.31296359  1
  Zn  Zn150  1  0.06637735  0.56196936  0.80321613  1
  Zn  Zn151  1  0.56123401  0.06288450  0.31302540  1
  Zn  Zn152  1  0.56007888  0.06018420  0.81184713  1
  Zn  Zn153  1  0.56587360  0.56293100  0.31296526  1
  Zn  Zn154  1  0.56847689  0.56479813  0.82165223  1
  Zn  Zn155  1  0.43860250  0.18220108  0.43601149  1
  Zn  Zn156  1  0.43493444  0.18604478  0.94123747  1
  Zn  Zn157  1  0.41254976  0.70179093  0.42524845  1
  Zn  Zn158  1  0.43648075  0.68628253  0.94082825  1
  Zn  Zn159  1  0.93248364  0.18795699  0.43447076  1
  Zn  Zn160  1  0.93822001  0.18928969  0.93859142  1
  Zn  Zn161  1  0.93241473  0.69016256  0.43266500  1
  Zn  Zn162  1  0.93477353  0.68704645  0.94104600  1
  Zn  Zn163  1  0.06195549  0.31318797  0.06066739  1
  Zn  Zn164  1  0.06214361  0.31599785  0.55494582  1
  Zn  Zn165  1  0.06137369  0.80776402  0.05942781  1
  Zn  Zn166  1  0.04781413  0.81073970  0.55731162  1
  Zn  Zn167  1  0.56019525  0.32073898  0.06171805  1
  Zn  Zn168  1  0.56572556  0.31575392  0.56533628  1
  Zn  Zn169  1  0.55809700  0.81650815  0.06177918  1
  Zn  Zn170  1  0.55832779  0.81188864  0.56436263  1
  O  O171  1  0.11938022  0.11838439  0.11896643  1
  O  O172  1  0.11845753  0.12458080  0.61535207  1
  O  O173  1  0.11264259  0.61800110  0.11896374  1
  O  O174  1  0.10019383  0.62553627  0.63779911  1
  O  O175  1  0.62049477  0.12074038  0.12158700  1
  O  O176  1  0.61661862  0.13135361  0.62714892  1
  O  O177  1  0.62366168  0.61180875  0.11616789  1
  O  O178  1  0.62662945  0.61996180  0.62323298  1
  O  O179  1  0.38032368  0.38357177  0.38296449  1
  O  O180  1  0.37954778  0.37353595  0.88691686  1
  O  O181  1  0.37737619  0.88778004  0.38512874  1
  O  O182  1  0.38133141  0.88316846  0.86231241  1
  O  O183  1  0.87787985  0.37965261  0.37402884  1
  O  O184  1  0.86638423  0.38446957  0.86141904  1
  O  O185  1  0.87090531  0.87897622  0.37718770  1
  O  O186  1  0.87957504  0.87427453  0.88379701  1
  O  O187  1  0.25757658  0.00468344  0.36569931  1
  O  O188  1  0.25252687  0.00383678  0.86275697  1
  O  O189  1  0.25919848  0.49028371  0.36543920  1
  O  O190  1  0.24291698  0.50692836  0.86583094  1
  O  O191  1  0.75559382  0.00957087  0.37500971  1
  O  O192  1  0.75005604  0.00486373  0.86688645  1
  O  O193  1  0.75070936  0.50547268  0.37072718  1
  O  O194  1  0.74855141  0.50268065  0.87579114  1
  O  O195  1  0.24173388  0.49731573  0.13284363  1
  O  O196  1  0.25692326  0.48768397  0.63820228  1
  O  O197  1  0.23784756  0.99829372  0.12894185  1
  O  O198  1  0.24397666  1.01484379  0.63545923  1
  O  O199  1  0.75801693  0.49245305  0.13448122  1
  O  O200  1  0.74411554  0.48940950  0.62143748  1
  O  O201  1  0.73702797  0.99419659  0.12524406  1
  O  O202  1  0.75422969  0.99102704  0.63219448  1
  O  O203  1  -0.00255645  0.37495976  0.26112515  1
  O  O204  1  0.01110998  0.37762739  0.74834233  1
  O  O205  1  0.00132626  0.86298280  0.26213190  1
  O  O206  1  -0.00192031  0.87222829  0.75542435  1
  O  O207  1  0.50728864  0.36890081  0.24840305  1
  O  O208  1  0.49894304  0.36525182  0.75984361  1
  O  O209  1  0.51311488  0.86640346  0.25475161  1
  O  O210  1  0.51095163  0.87781890  0.75952450  1
  O  O211  1  0.50464673  0.13402063  0.23854702  1
  O  O212  1  0.49821556  0.13021924  0.74115356  1
  O  O213  1  0.50410933  0.64004398  0.25634108  1
  O  O214  1  0.49439576  0.62292223  0.75241783  1
  O  O215  1  1.00144500  0.12626978  0.23711181  1
  O  O216  1  0.99260803  0.12294114  0.74134211  1
  O  O217  1  1.00400384  0.63541343  0.24602797  1
  O  O218  1  0.98570836  0.62816238  0.74382255  1
  O  O219  1  0.36101914  0.25074404  0.00618541  1
  O  O220  1  0.37252492  0.25489603  0.50486549  1
  O  O221  1  0.35542554  0.74950586  -0.00716734  1
  O  O222  1  0.40609994  0.75801956  0.52591907  1
  O  O223  1  0.87047857  0.24332952  0.01446929  1
  O  O224  1  0.87210586  0.25473418  0.50301422  1
  O  O225  1  0.88532518  0.76345197  0.01495609  1
  O  O226  1  0.87498801  0.76326770  0.50497808  1
  O  O227  1  0.12956476  0.24163050  0.48949845  1
  O  O228  1  0.13500231  0.23991005  1.00051797  1
  O  O229  1  0.15118619  0.77139729  0.53909496  1
  O  O230  1  0.12840869  0.74336142  0.98912115  1
  O  O231  1  0.62352395  0.25608661  0.48543692  1
  O  O232  1  0.62276447  0.24324822  0.99217646  1
  O  O233  1  0.61993468  0.73939384  0.49649620  1
  O  O234  1  0.63535000  0.76583937  1.00104240  1
  O  O235  1  0.49535278  0.24384640  0.13151818  1
  O  O236  1  0.49601199  0.24507297  0.63009954  1
  O  O237  1  0.50919116  0.74962451  0.14095691  1
  O  O238  1  0.50139237  0.74132496  0.64032475  1
  O  O239  1  0.99469294  0.24339301  0.12417697  1
  O  O240  1  1.00146822  0.23865613  0.62426631  1
  O  O241  1  0.99817983  0.74325379  0.13696553  1
  O  O242  1  0.98312443  0.74511765  0.62779802  1
  O  O243  1  0.00725108  0.25711485  0.37267409  1
  O  O244  1  0.00052230  0.25816850  0.87241403  1
  O  O245  1  -0.00240725  0.75806022  0.36379976  1
  O  O246  1  0.00128033  0.75950551  0.86978499  1
  O  O247  1  0.50520922  0.24914203  0.36753340  1
  O  O248  1  0.50326461  0.25190763  0.87212275  1
  O  O249  1  0.50978864  0.75215987  0.37538763  1
  O  O250  1  0.50071398  0.75948181  0.87495347  1
  O  O251  1  0.24220941  0.13140981  0.48920872  1
  O  O252  1  0.24339610  0.13131156  0.99521106  1
  O  O253  1  0.22533618  0.59787808  0.53793838  1
  O  O254  1  0.24225699  0.63189991  0.99115447  1
  O  O255  1  0.75414473  0.12786819  0.48137095  1
  O  O256  1  0.73679514  0.12394335  0.99728340  1
  O  O257  1  0.73794931  0.61904534  0.49353181  1
  O  O258  1  0.75814388  0.62449128  0.98970952  1
  O  O259  1  0.25391529  0.36861558  0.00590040  1
  O  O260  1  0.25531454  0.36962880  0.50849431  1
  O  O261  1  0.24589672  0.86301584  -0.01352928  1
  O  O262  1  0.25642342  0.89079831  0.52324985  1
  O  O263  1  0.74276066  0.37521239  0.01542702  1
  O  O264  1  0.75129852  0.37253635  0.50826508  1
  O  O265  1  0.75820039  0.88200594  0.01360489  1
  O  O266  1  0.75455697  0.87989016  0.50821599  1
  O  O267  1  0.12878029  0.50186019  0.23762118  1
  O  O268  1  0.13805147  0.49550563  0.73233299  1
  O  O269  1  0.13373574  0.99385116  0.23807349  1
  O  O270  1  0.13130626  0.99615490  0.74513864  1
  O  O271  1  0.63171537  0.48793318  0.25600068  1
  O  O272  1  0.62244740  0.49993584  0.73850116  1
  O  O273  1  0.61882010  0.99105876  0.24349822  1
  O  O274  1  0.63568822  0.99184434  0.75251770  1
  O  O275  1  0.37336277  -0.01022683  0.26304774  1
  O  O276  1  0.36459258  0.00278981  0.75622402  1
  O  O277  1  0.36456241  0.50165871  0.25562923  1
  O  O278  1  0.36940596  0.51008288  0.74693504  1
  O  O279  1  0.87780860  -0.00228930  0.25876299  1
  O  O280  1  0.86482795  0.00858026  0.75083800  1
  O  O281  1  0.86078302  0.49798754  0.26192791  1
  O  O282  1  0.87454510  0.50661973  0.74979865  1
  O  O283  1  0.11571661  0.36590664  0.37973534  1
  O  O284  1  0.12850911  0.37713098  0.85981557  1
  O  O285  1  0.11666363  0.87712227  0.38223806  1
  O  O286  1  0.11495001  0.87246964  0.86839064  1
  O  O287  1  0.62347120  0.36633038  0.36518382  1
  O  O288  1  0.61592577  0.36584813  0.87713285  1
  O  O289  1  0.62576979  0.86763062  0.37066767  1
  O  O290  1  0.61511709  0.87808672  0.86887032  1
  O  O291  1  0.38429538  0.13219710  0.12001494  1
  O  O292  1  0.37973446  0.13700397  0.62411401  1
  O  O293  1  0.35047202  0.66768309  0.14105082  1
  O  O294  1  0.38896423  0.63155537  0.63534726  1
  O  O295  1  0.88319812  0.12704550  0.12659396  1
  O  O296  1  0.88244555  0.12207899  0.62882174  1
  O  O297  1  0.88822068  0.63288714  0.12128435  1
  O  O298  1  0.87481845  0.63324626  0.62919636  1
  O  O299  1  0.25208501  0.25868763  0.12014433  1
  O  O300  1  0.25995322  0.25173370  0.61847837  1
  O  O301  1  0.23830697  0.75828042  0.10645921  1
  O  O302  1  0.27674943  0.74599242  0.61937762  1
  O  O303  1  0.75631018  0.25758067  0.12515401  1
  O  O304  1  0.74916791  0.26560541  0.62636248  1
  O  O305  1  0.76069948  0.75828384  0.12530934  1
  O  O306  1  0.75982884  0.75976618  0.63010806  1
  O  O307  1  0.24464460  0.24602419  0.37713274  1
  O  O308  1  0.24809695  0.24129000  0.88312770  1
  O  O309  1  0.29715969  0.73100718  0.41338280  1
  O  O310  1  0.24291298  0.74421445  0.87681745  1
  O  O311  1  0.74056804  0.24178903  0.37427172  1
  O  O312  1  0.73796339  0.24000905  0.88021101  1
  O  O313  1  0.73551535  0.74003926  0.36956090  1
  O  O314  1  0.75493716  0.74078841  0.87713853  1
  O  O315  1  0.00860638  0.12271671  0.00930223  1
  O  O316  1  0.00726594  0.12401207  0.50293998  1
  O  O317  1  0.00533572  0.61777252  0.00692070  1
  O  O318  1  -0.00620232  0.62402369  0.50513869  1
  O  O319  1  0.50895567  0.12475278  0.01122826  1
  O  O320  1  0.49706068  0.11473572  0.50921871  1
  O  O321  1  0.50966426  0.62224726  -0.00558111  1
  O  O322  1  0.51256406  0.61194628  0.50928263  1
  O  O323  1  0.49619676  0.38675858  0.50325891  1
  O  O324  1  0.48140359  0.36800324  0.99294622  1
  O  O325  1  0.49977654  0.89108020  0.50232177  1
  O  O326  1  0.49785632  0.88134745  0.98676212  1
  O  O327  1  1.00131477  0.38920289  0.48584247  1
  O  O328  1  1.00651481  0.39017596  0.99482044  1
  O  O329  1  0.98989088  0.87512435  0.48234334  1
  O  O330  1  0.99413240  0.87588914  0.99095185  1
  O  O331  1  0.49787740  0.49620398  0.38468550  1
  O  O332  1  0.50347621  0.48499141  0.87072057  1
  O  O333  1  0.49188013  1.00272847  0.38408112  1
  O  O334  1  0.48691309  0.99548383  0.87532319  1
  O  O335  1  0.98112545  0.49221393  0.36974447  1
  O  O336  1  1.00821361  0.50063285  0.88638023  1
  O  O337  1  0.99511722  0.98609871  0.37094297  1
  O  O338  1  0.99717260  0.98759142  0.87583310  1
  O  O339  1  0.01154846  0.00602544  0.12575456  1
  O  O340  1  0.00500841  0.01250593  0.61989653  1
  O  O341  1  0.00354335  0.50509999  0.12145286  1
  O  O342  1  -0.01100694  0.51392016  0.60286688  1
  O  O343  1  0.50640319  0.00788035  0.12529069  1
  O  O344  1  0.49580261  0.01084393  0.61386945  1
  O  O345  1  0.48066183  0.52385882  0.12944569  1
  O  O346  1  0.50822847  0.50384177  0.62105505  1
  O  O347  1  0.25401662  0.38252070  0.23784966  1
  O  O348  1  0.24827306  0.37901395  0.74563004  1
  O  O349  1  0.26982396  0.83898788  0.23391958  1
  O  O350  1  0.23876310  0.87868388  0.72879611  1
  O  O351  1  0.74144468  0.38180032  0.24257912  1
  O  O352  1  0.75373890  0.38414607  0.75178945  1
  O  O353  1  0.73653586  0.86968845  0.23884413  1
  O  O354  1  0.74527537  0.88379064  0.74354388  1
  O  O355  1  0.24950846  0.12890901  0.25872753  1
  O  O356  1  0.24889716  0.11840902  0.75844802  1
  O  O357  1  0.24276933  0.61403291  0.25309322  1
  O  O358  1  0.25988023  0.61268306  0.75825795  1
  O  O359  1  0.75103815  0.12866658  0.26658783  1
  O  O360  1  0.75487629  0.11856347  0.75381506  1
  O  O361  1  0.74046579  0.61121216  0.26139708  1
  O  O362  1  0.76257900  0.62668372  0.75944967  1
  O  O363  1  0.36516400  0.11328064  0.37773430  1
  O  O364  1  0.36181239  0.11906315  0.87449938  1
  O  O365  1  0.38540772  0.60542085  0.36944401  1
  O  O366  1  0.36203367  0.62871111  0.86929397  1
  O  O367  1  0.86894871  0.11323327  0.37004759  1
  O  O368  1  0.86836838  0.12281212  0.86707506  1
  O  O369  1  0.85792364  0.61932198  0.37895024  1
  O  O370  1  0.86499811  0.62769228  0.86838914  1
  O  O371  1  0.13468694  0.38388587  0.11875522  1
  O  O372  1  0.14219406  0.35588923  0.63568093  1
  O  O373  1  0.11840917  0.88948139  0.11753657  1
  O  O374  1  0.11664578  0.88694938  0.62934598  1
  O  O375  1  0.63326767  0.36481352  0.13874032  1
  O  O376  1  0.63347587  0.38268855  0.63267810  1
  O  O377  1  0.63018521  0.88394105  0.13200719  1
  O  O378  1  0.63561755  0.86917580  0.63328432  1
  O  O379  1  0.12306655  0.24863215  0.26109483  1
  O  O380  1  0.12357610  0.25883971  0.75565198  1
  O  O381  1  0.11382392  0.74758014  0.25079178  1
  O  O382  1  0.11251232  0.76178120  0.75561748  1
  O  O383  1  0.61393070  0.25668910  0.25909004  1
  O  O384  1  0.61934688  0.25243925  0.76521447  1
  O  O385  1  0.61518467  0.75822796  0.26272395  1
  O  O386  1  0.62849984  0.76427845  0.75962447  1
  O  O387  1  0.38878238  0.25795091  0.24535353  1
  O  O388  1  0.38010148  0.24647496  0.74149097  1
  O  O389  1  0.39483459  0.75379627  0.25641644  1
  O  O390  1  0.37749411  0.73712068  0.74329371  1
  O  O391  1  0.87840923  0.24517988  0.23640558  1
  O  O392  1  0.87794748  0.23308606  0.74177105  1
  O  O393  1  0.88565434  0.75350873  0.23865308  1
  O  O394  1  0.87849517  0.74470729  0.74147508  1
  O  O395  1  0.38443737  0.49502133  0.49492756  1
  O  O396  1  0.36138737  0.49503024  1.00829336  1
  O  O397  1  0.38303473  1.00039573  0.48979127  1
  O  O398  1  0.37070913  1.00342320  0.98550012  1
  O  O399  1  0.88184656  0.49881470  0.48348488  1
  O  O400  1  0.89420333  0.50149573  1.00002855  1
  O  O401  1  0.87750682  0.98780459  0.48778688  1
  O  O402  1  0.87900330  0.98648246  1.00095652  1
  O  O403  1  0.12544867  0.01138696  0.00797399  1
  O  O404  1  0.12347756  0.01399458  0.50246030  1
  O  O405  1  0.11957860  0.50698233  0.01166293  1
  O  O406  1  0.12073553  0.47387979  0.54300136  1
  O  O407  1  0.61972413  0.00850471  0.00987989  1
  O  O408  1  0.60923412  0.00253891  0.49406250  1
  O  O409  1  0.60042476  0.48369319  0.01616308  1
  O  O410  1  0.62022050  0.50387334  0.51082030  1
  O  O411  1  0.36583630  0.36872360  0.11674648  1
  O  O412  1  0.36819212  0.36364504  0.62210876  1
  O  O413  1  0.38321546  0.85352129  0.12372276  1
  O  O414  1  0.38246533  0.86150183  0.63537503  1
  O  O415  1  0.86477411  0.36640721  0.12866651  1
  O  O416  1  0.86766950  0.37529178  0.62219846  1
  O  O417  1  0.86799005  0.87001560  0.12229211  1
  O  O418  1  0.86717760  0.87043736  0.61515559  1
  O  O419  1  0.13069470  0.12939375  0.37798877  1
  O  O420  1  0.13454370  0.12315923  0.88356979  1
  O  O421  1  0.10112231  0.54466122  0.42094871  1
  O  O422  1  0.13435447  0.63011918  0.87324848  1
  O  O423  1  0.63442055  0.13119387  0.37176366  1
  O  O424  1  0.62476549  0.12908308  0.88437454  1
  O  O425  1  0.63089037  0.63060899  0.38609351  1
  O  O426  1  0.64788799  0.62963308  0.87052515  1
