# generated using pymatgen
data_V85Zn86O256
_symmetry_space_group_name_H-M   'P 1'
_cell_length_a   16.94674055
_cell_length_b   16.93178862
_cell_length_c   16.93469880
_cell_angle_alpha   90.01132849
_cell_angle_beta   89.96472483
_cell_angle_gamma   90.02654979
_symmetry_Int_Tables_number   1
_chemical_formula_structural   V85Zn86O256
_chemical_formula_sum   'V85 Zn86 O256'
_cell_volume   4859.21771496
_cell_formula_units_Z   1
loop_
 _symmetry_equiv_pos_site_id
 _symmetry_equiv_pos_as_xyz
  1  'x, y, z'
loop_
 _atom_site_type_symbol
 _atom_site_label
 _atom_site_symmetry_multiplicity
 _atom_site_fract_x
 _atom_site_fract_y
 _atom_site_fract_z
 _atom_site_occupancy
  V  V0  1  0.51002998  0.36160295  0.87635001  1
  V  V1  1  0.00466504  0.36732025  0.36342904  1
  V  V2  1  0.87410783  0.00767447  0.37241554  1
  V  V3  1  0.75460024  0.62645939  0.36569063  1
  V  V4  1  0.50182940  0.01771437  0.50121564  1
  V  V5  1  0.62785736  0.62400429  -0.01216226  1
  V  V6  1  0.87417682  0.75169935  0.62549898  1
  V  V7  1  0.62469960  0.74752733  0.37336441  1
  V  V8  1  0.87996630  0.75008333  0.13863495  1
  V  V9  1  0.38145897  0.49864414  0.38150431  1
  V  V10  1  0.87472102  0.12349565  0.75090781  1
  V  V11  1  0.87415055  0.24417555  0.13573450  1
  V  V12  1  0.37023214  0.12171805  0.24960872  1
  V  V13  1  0.50710226  0.62223013  0.12381109  1
  V  V14  1  0.37083026  0.61843619  0.24781432  1
  V  V15  1  0.12800523  0.75045417  0.87641192  1
  V  V16  1  0.62419008  0.87545728  0.24958157  1
  V  V17  1  0.13121524  0.00247648  0.13183971  1
  V  V18  1  0.24983193  0.12628399  0.37817139  1
  V  V19  1  0.37404757  0.49642655  0.87754992  1
  V  V20  1  0.12711666  0.37238613  0.74045425  1
  V  V21  1  0.74802485  0.49735117  0.76417440  1
  V  V22  1  0.62163416  -0.00222445  0.11772402  1
  V  V23  1  0.00469695  0.50271346  0.00160385  1
  V  V24  1  0.62587947  0.24425633  0.37633551  1
  V  V25  1  0.12602955  0.86608366  0.24843521  1
  V  V26  1  0.25861413  0.87689999  0.12719909  1
  V  V27  1  0.00089385  0.74866623  0.74961048  1
  V  V28  1  0.87169994  0.62496395  0.75795630  1
  V  V29  1  0.49832210  0.76007152  0.74764868  1
  V  V30  1  0.50160416  0.25261374  0.25035507  1
  V  V31  1  0.74934103  0.50035131  0.23485586  1
  V  V32  1  0.49920869  0.12010733  0.12012800  1
  V  V33  1  0.75069166  0.25930961  -0.00322084  1
  V  V34  1  0.87718217  0.87364286  0.00321692  1
  V  V35  1  0.75325017  0.87426718  0.12538977  1
  V  V36  1  -0.00152435  0.62983503  0.13838652  1
  V  V37  1  0.87775564  0.37791785  0.50291996  1
  V  V38  1  0.69447230  0.43427405  0.57398336  1
  V  V39  1  0.12721488  0.50682268  0.62014993  1
  V  V40  1  0.00006413  0.25013885  0.74836891  1
  V  V41  1  0.37312228  0.37532104  0.00007883  1
  V  V42  1  0.00073819  0.00626181  0.00327501  1
  V  V43  1  0.61996922  0.01482417  0.62251623  1
  V  V44  1  0.62604429  0.75596434  0.86780735  1
  V  V45  1  0.25946972  0.75442968  0.00012730  1
  V  V46  1  0.25485613  0.00805208  0.75412164  1
  V  V47  1  0.25000390  0.24847213  -0.00637843  1
  V  V48  1  0.74614446  0.23888305  0.50331310  1
  V  V49  1  0.24358454  0.74608400  0.49670010  1
  V  V50  1  0.73587563  0.87199297  0.62587001  1
  V  V51  1  0.87005899  0.25438673  0.62681971  1
  V  V52  1  0.25054572  0.49372681  0.74488562  1
  V  V53  1  0.12612111  0.00119195  0.62477313  1
  V  V54  1  0.24136248  0.61712080  0.37367664  1
  V  V55  1  0.24924216  0.62313206  0.87598831  1
  V  V56  1  0.12796976  0.24755010  0.87395104  1
  V  V57  1  0.12712406  0.87548917  0.75140257  1
  V  V58  1  0.24549457  0.37790089  0.13537291  1
  V  V59  1  0.74374420  -0.00546739  0.75058105  1
  V  V60  1  0.25466972  0.87388005  0.62431977  1
  V  V61  1  0.49510508  0.87756575  0.89389750  1
  V  V62  1  0.49817881  0.74859998  0.24987623  1
  V  V63  1  0.50575656  0.49879105  0.00116826  1
  V  V64  1  0.00337777  0.50690288  0.49840549  1
  V  V65  1  -0.00123854  -0.00175462  0.50163806  1
  V  V66  1  0.87363055  -0.00010093  0.87562525  1
  V  V67  1  0.50946389  0.23965517  0.74023428  1
  V  V68  1  0.12602552  0.12549064  -0.00181150  1
  V  V69  1  0.74877773  0.00996677  0.24919714  1
  V  V70  1  -0.00141723  0.87087699  0.36718200  1
  V  V71  1  0.37383904  0.25165978  0.12484009  1
  V  V72  1  -0.00035111  0.37599271  0.87689040  1
  V  V73  1  0.12757972  0.49703668  0.13821028  1
  V  V74  1  0.00152406  0.87485220  0.87647459  1
  V  V75  1  0.36960077  -0.00181528  0.37452405  1
  V  V76  1  0.49954414  0.87496092  0.38037063  1
  V  V77  1  0.75310686  0.74548463  -0.00506502  1
  V  V78  1  0.74699449  0.74685236  0.49984069  1
  V  V79  1  0.38050663  0.62394267  0.74492181  1
  V  V80  1  0.62626832  0.12714898  -0.00599334  1
  V  V81  1  0.24624988  0.26232411  0.50614708  1
  V  V82  1  0.87653839  0.50207393  0.36497176  1
  V  V83  1  0.37412296  0.00131883  0.88887631  1
  V  V84  1  0.62817890  0.37905418  0.23632236  1
  Zn  Zn85  1  0.87309711  0.37767687  0.00681559  1
  Zn  Zn86  1  0.50274789  0.38053571  0.37966133  1
  Zn  Zn87  1  0.37810728  0.75135266  0.12094404  1
  Zn  Zn88  1  0.12590841  0.25330427  0.36016238  1
  Zn  Zn89  1  0.74848740  0.12590985  0.37336750  1
  Zn  Zn90  1  0.12457619  0.12851530  0.49908411  1
  Zn  Zn91  1  0.37485761  0.87423099  0.49999423  1
  Zn  Zn92  1  0.87846224  0.50473330  0.87888673  1
  Zn  Zn93  1  0.37711123  0.74585460  0.61956879  1
  Zn  Zn94  1  0.37814276  0.38116978  0.51724880  1
  Zn  Zn95  1  0.12717145  0.62648674  0.00561224  1
  Zn  Zn96  1  0.87358813  0.87544258  0.49950194  1
  Zn  Zn97  1  0.01816670  0.18586603  0.21016077  1
  Zn  Zn98  1  0.63400510  0.36996760  0.75034320  1
  Zn  Zn99  1  0.37339850  0.24822271  0.62847227  1
  Zn  Zn100  1  0.00385766  0.62956832  0.61999161  1
  Zn  Zn101  1  0.11769703  0.74391297  0.37495075  1
  Zn  Zn102  1  0.50689149  0.59927959  0.60995902  1
  Zn  Zn103  1  0.38097275  0.12298204  0.75072004  1
  Zn  Zn104  1  0.74356817  0.12941580  0.87275198  1
  Zn  Zn105  1  0.62030909  0.61102996  0.49796735  1
  Zn  Zn106  1  -0.00010295  0.12552900  0.62347243  1
  Zn  Zn107  1  0.19163555  0.18886529  0.18493121  1
  Zn  Zn108  1  0.19121335  0.18359212  0.68552848  1
  Zn  Zn109  1  0.18767524  0.68809238  0.18879270  1
  Zn  Zn110  1  0.19074548  0.68636233  0.68789774  1
  Zn  Zn111  1  0.68896449  0.19146403  0.17941962  1
  Zn  Zn112  1  0.68873555  0.18862330  0.69096781  1
  Zn  Zn113  1  0.68798702  0.68616505  0.18297858  1
  Zn  Zn114  1  0.68304065  0.67576726  0.68763012  1
  Zn  Zn115  1  0.31136226  0.31119888  0.31496197  1
  Zn  Zn116  1  0.31855820  0.31155730  0.80890907  1
  Zn  Zn117  1  0.31092976  0.80806931  0.31066270  1
  Zn  Zn118  1  0.31673219  0.81596622  0.81242113  1
  Zn  Zn119  1  0.81205678  0.31451224  0.31144433  1
  Zn  Zn120  1  0.81201760  0.31500862  0.81802116  1
  Zn  Zn121  1  0.81290635  0.82089158  0.31305241  1
  Zn  Zn122  1  0.81175975  0.81394969  0.81237882  1
  Zn  Zn123  1  0.18484794  0.43918535  0.43179877  1
  Zn  Zn124  1  0.18381234  0.43527596  0.93899730  1
  Zn  Zn125  1  0.18674212  0.93519686  0.43758698  1
  Zn  Zn126  1  0.19184391  0.93721516  0.94061349  1
  Zn  Zn127  1  0.69148504  0.43012683  0.41024579  1
  Zn  Zn128  1  0.68729014  0.44072213  0.93845122  1
  Zn  Zn129  1  0.68628544  0.93786885  0.44074023  1
  Zn  Zn130  1  0.68595540  0.93406374  0.93682753  1
  Zn  Zn131  1  0.30867160  0.06519641  0.06145941  1
  Zn  Zn132  1  0.31721486  0.06785574  0.56301726  1
  Zn  Zn133  1  0.31260364  0.56333598  0.06385123  1
  Zn  Zn134  1  0.30983355  0.56340143  0.56058519  1
  Zn  Zn135  1  0.81106720  0.06725316  0.06375484  1
  Zn  Zn136  1  0.81291014  0.06099939  0.56543512  1
  Zn  Zn137  1  0.81872296  0.56744291  0.05868883  1
  Zn  Zn138  1  0.81794591  0.57020194  0.55924499  1
  Zn  Zn139  1  0.43790881  0.43912325  0.18770786  1
  Zn  Zn140  1  0.43952705  0.42765431  0.68672065  1
  Zn  Zn141  1  0.43788502  0.93816855  0.18926007  1
  Zn  Zn142  1  0.43940661  0.93870235  0.68972485  1
  Zn  Zn143  1  0.93252979  0.43266286  0.18175853  1
  Zn  Zn144  1  0.93794496  0.44009584  0.68659048  1
  Zn  Zn145  1  0.95624191  0.98594891  0.20523016  1
  Zn  Zn146  1  0.93569526  0.93440087  0.68702644  1
  Zn  Zn147  1  0.07001871  0.05512082  0.31661645  1
  Zn  Zn148  1  0.06350311  0.06396535  0.81464359  1
  Zn  Zn149  1  0.06067174  0.55845378  0.31205840  1
  Zn  Zn150  1  0.06258400  0.56325500  0.80921478  1
  Zn  Zn151  1  0.55967974  0.06308486  0.30983843  1
  Zn  Zn152  1  0.56154116  0.05282393  0.81297519  1
  Zn  Zn153  1  0.56399509  0.56283032  0.31261777  1
  Zn  Zn154  1  0.54736017  0.54941083  0.78996843  1
  Zn  Zn155  1  0.43293703  0.19576284  0.43836390  1
  Zn  Zn156  1  0.43523643  0.18169327  0.93757127  1
  Zn  Zn157  1  0.43375056  0.68373032  0.44157072  1
  Zn  Zn158  1  0.43900903  0.68536075  0.93202837  1
  Zn  Zn159  1  0.93654106  0.18658767  0.43841396  1
  Zn  Zn160  1  0.93545730  0.18884025  0.93963203  1
  Zn  Zn161  1  0.93395926  0.68745443  0.43444083  1
  Zn  Zn162  1  0.94167613  0.68667214  0.94156799  1
  Zn  Zn163  1  0.05898189  0.31264963  0.06757472  1
  Zn  Zn164  1  0.06210973  0.31338744  0.55724380  1
  Zn  Zn165  1  0.06651714  0.81278802  0.06324918  1
  Zn  Zn166  1  0.06436330  0.81490780  0.56020233  1
  Zn  Zn167  1  0.56376484  0.30859286  0.06049658  1
  Zn  Zn168  1  0.55589297  0.30907195  0.55708234  1
  Zn  Zn169  1  0.56484485  0.80783994  0.06235640  1
  Zn  Zn170  1  0.56163474  0.80470521  0.56225948  1
  O  O171  1  0.13147796  0.11420674  0.11204246  1
  O  O172  1  0.12229911  0.11085923  0.62470124  1
  O  O173  1  0.11696303  0.61605071  0.12695627  1
  O  O174  1  0.12270015  0.61155887  0.63077084  1
  O  O175  1  0.61761394  0.11702141  0.11871261  1
  O  O176  1  0.62952868  0.11276390  0.62350172  1
  O  O177  1  0.61200407  0.63260511  0.11182133  1
  O  O178  1  0.61996032  0.63074603  0.61072652  1
  O  O179  1  0.37191075  0.39505919  0.36511914  1
  O  O180  1  0.38523163  0.37901204  0.88198365  1
  O  O181  1  0.38202368  0.88241175  0.37275822  1
  O  O182  1  0.38673438  0.88190696  0.87742678  1
  O  O183  1  0.87855063  0.38180156  0.38521714  1
  O  O184  1  0.89115200  0.37727929  0.87754942  1
  O  O185  1  0.88201755  0.88509904  0.37856869  1
  O  O186  1  0.88087540  0.88086553  0.88183353  1
  O  O187  1  0.26395279  0.00508089  0.38226299  1
  O  O188  1  0.26555783  -0.01199902  0.86795986  1
  O  O189  1  0.25596276  0.51245181  0.37435235  1
  O  O190  1  0.25017648  0.50636301  0.86955130  1
  O  O191  1  0.75396828  0.00032411  0.36864361  1
  O  O192  1  0.75516436  -0.00191290  0.86615778  1
  O  O193  1  0.75928232  0.50884348  0.36458518  1
  O  O194  1  0.75957342  0.50045928  0.86833831  1
  O  O195  1  0.23537473  0.49512511  0.11990531  1
  O  O196  1  0.24270701  0.50350902  0.63528470  1
  O  O197  1  0.24230137  0.98948341  0.11668380  1
  O  O198  1  0.24321329  0.99326955  0.63175493  1
  O  O199  1  0.75626061  0.51029844  0.13578500  1
  O  O200  1  0.75384589  0.49703242  0.62870165  1
  O  O201  1  0.74431257  0.99418443  0.13134283  1
  O  O202  1  0.73947141  0.99273280  0.62845552  1
  O  O203  1  -0.00834778  0.37845988  0.26605349  1
  O  O204  1  0.00676462  0.37025792  0.75561902  1
  O  O205  1  0.00901759  0.88792995  0.25962036  1
  O  O206  1  0.00558224  0.86912462  0.75638218  1
  O  O207  1  0.50909745  0.36898238  0.25033417  1
  O  O208  1  0.50594018  0.35938017  0.76551090  1
  O  O209  1  0.50522489  0.87073199  0.26028408  1
  O  O210  1  0.49424120  0.86314616  0.76128393  1
  O  O211  1  0.49318933  0.13241810  0.23974767  1
  O  O212  1  0.50548180  0.13770742  0.75930754  1
  O  O213  1  0.49734041  0.62766312  0.24037022  1
  O  O214  1  0.48287911  0.64582901  0.77526408  1
  O  O215  1  0.98750725  0.08853658  0.25036116  1
  O  O216  1  0.99247007  0.13149599  0.74887123  1
  O  O217  1  1.00008605  0.62308527  0.23735617  1
  O  O218  1  0.99313271  0.63277384  0.74564624  1
  O  O219  1  0.36757495  0.25317045  0.00451049  1
  O  O220  1  0.35608046  0.25129567  0.50008388  1
  O  O221  1  0.36320808  0.74319820  -0.00052835  1
  O  O222  1  0.36116868  0.75400933  0.50044932  1
  O  O223  1  0.86290733  0.25193116  0.00138755  1
  O  O224  1  0.86718018  0.25783135  0.50649920  1
  O  O225  1  0.86848590  0.75414568  0.00299253  1
  O  O226  1  0.86411539  0.75021349  0.50741012  1
  O  O227  1  0.13286482  0.24878980  0.49158385  1
  O  O228  1  0.13048742  0.24414219  0.99767199  1
  O  O229  1  0.13786862  0.75439992  0.49650447  1
  O  O230  1  0.13501394  0.74750121  0.99145965  1
  O  O231  1  0.63562621  0.25490651  0.49018255  1
  O  O232  1  0.63849658  0.24045647  1.00690645  1
  O  O233  1  0.63815500  0.75513175  0.49003381  1
  O  O234  1  0.63420329  0.74570048  0.99194489  1
  O  O235  1  0.49378965  0.24434098  0.13343183  1
  O  O236  1  0.50333755  0.24555925  0.63857644  1
  O  O237  1  0.49772157  0.74265374  0.13099680  1
  O  O238  1  0.49513273  0.75226604  0.63743102  1
  O  O239  1  0.98452770  0.24737493  0.12115138  1
  O  O240  1  0.98903021  0.24881620  0.62856318  1
  O  O241  1  0.99624767  0.73788010  0.12060777  1
  O  O242  1  0.99250534  0.75256477  0.62940805  1
  O  O243  1  -0.00224234  0.26371937  0.38007208  1
  O  O244  1  0.00651430  0.25677278  0.86907726  1
  O  O245  1  -0.00035321  0.76545866  0.38250840  1
  O  O246  1  0.00807535  0.75462128  0.87053630  1
  O  O247  1  0.50412307  0.24680295  0.36036026  1
  O  O248  1  0.50116517  0.26051766  0.88336283  1
  O  O249  1  0.50295696  0.75698743  0.36975958  1
  O  O250  1  0.50505646  0.76283813  0.87482300  1
  O  O251  1  0.24771121  0.13273421  0.49108216  1
  O  O252  1  0.24242229  0.13809115  1.00055356  1
  O  O253  1  0.25231154  0.63114960  0.48449358  1
  O  O254  1  0.24739119  0.63000022  0.99163311  1
  O  O255  1  0.75368942  0.13623941  0.49914858  1
  O  O256  1  0.74152684  0.13129217  0.99575365  1
  O  O257  1  0.74992105  0.63242452  0.48672669  1
  O  O258  1  0.74384837  0.63707260  1.00220350  1
  O  O259  1  0.25431639  0.36876673  0.00625087  1
  O  O260  1  0.25070429  0.36425540  0.49115870  1
  O  O261  1  0.24611724  0.86446283  0.01157471  1
  O  O262  1  0.25143098  0.86954945  0.50831401  1
  O  O263  1  0.75005661  0.36368895  -0.00477017  1
  O  O264  1  0.75386966  0.37424222  0.50618564  1
  O  O265  1  0.75562133  0.86602292  0.00577506  1
  O  O266  1  0.75234347  0.86693662  0.50840877  1
  O  O267  1  0.12368429  0.49774128  0.23675706  1
  O  O268  1  0.13144475  0.49268206  0.74366436  1
  O  O269  1  0.12953095  0.99045519  0.23542295  1
  O  O270  1  0.12997593  0.99363702  0.74575769  1
  O  O271  1  0.63185103  0.48724259  0.25411676  1
  O  O272  1  0.64566728  0.49651470  0.75987759  1
  O  O273  1  0.62918702  0.99454100  0.24110333  1
  O  O274  1  0.63167154  1.00045102  0.73638178  1
  O  O275  1  0.38407065  0.01074568  0.26203970  1
  O  O276  1  0.36803458  -0.00070158  0.75811855  1
  O  O277  1  0.37779172  0.51301703  0.25491262  1
  O  O278  1  0.36244821  0.50509048  0.76035880  1
  O  O279  1  0.85730956  -0.01211233  0.26105092  1
  O  O280  1  0.86880217  0.00660494  0.75225358  1
  O  O281  1  0.86656912  0.49285847  0.25858950  1
  O  O282  1  0.87047782  0.50874273  0.75162637  1
  O  O283  1  0.10864056  0.37533245  0.37278895  1
  O  O284  1  0.11578752  0.36964236  0.86526750  1
  O  O285  1  0.11793110  0.87678963  0.36503948  1
  O  O286  1  0.12166394  0.87042888  0.87087799  1
  O  O287  1  0.61991972  0.36000947  0.36028844  1
  O  O288  1  0.61174792  0.37796285  0.87651492  1
  O  O289  1  0.61810271  0.86998265  0.36975543  1
  O  O290  1  0.60999289  0.86896070  0.87952212  1
  O  O291  1  0.38023171  0.12823877  0.13087936  1
  O  O292  1  0.36347684  0.13377642  0.63831125  1
  O  O293  1  0.38494220  0.62575621  0.13088707  1
  O  O294  1  0.37663852  0.62343682  0.63564793  1
  O  O295  1  0.87414106  0.14121099  0.12011568  1
  O  O296  1  0.87623602  0.13094543  0.63665660  1
  O  O297  1  0.89090462  0.63441774  0.12144589  1
  O  O298  1  0.87721558  0.63865050  0.63281068  1
  O  O299  1  0.25608073  0.25764044  0.11439881  1
  O  O300  1  0.24005558  0.25175169  0.60866108  1
  O  O301  1  0.25183557  0.75548175  0.11656207  1
  O  O302  1  0.25025799  0.75698816  0.61823420  1
  O  O303  1  0.75941904  0.24711788  0.10938642  1
  O  O304  1  0.76159279  0.24788786  0.62021611  1
  O  O305  1  0.75802799  0.75400511  0.11717998  1
  O  O306  1  0.75394765  0.75420335  0.61931719  1
  O  O307  1  0.24672298  0.24196448  0.38072402  1
  O  O308  1  0.24425244  0.25928440  0.88548142  1
  O  O309  1  0.24679806  0.73909785  0.38028392  1
  O  O310  1  0.24775801  0.74460469  0.87971300  1
  O  O311  1  0.74417977  0.25000595  0.38411791  1
  O  O312  1  0.75272764  0.24625403  0.88891440  1
  O  O313  1  0.74904929  0.74495967  0.37957892  1
  O  O314  1  0.73972556  0.75916275  0.88263908  1
  O  O315  1  0.00791590  0.11493423  -0.00594612  1
  O  O316  1  0.00239528  0.11214882  0.50153922  1
  O  O317  1  0.00606257  0.61793891  0.00852724  1
  O  O318  1  -0.00549374  0.61174820  0.49907683  1
  O  O319  1  0.50708545  0.13202332  0.01424458  1
  O  O320  1  0.49767221  0.11679834  0.49333632  1
  O  O321  1  0.50591706  0.61830158  0.00278155  1
  O  O322  1  0.50431506  0.62124516  0.49903510  1
  O  O323  1  0.48806462  0.36352568  0.48977523  1
  O  O324  1  0.49697090  0.37993133  0.99472213  1
  O  O325  1  0.49941056  0.87612544  0.48827034  1
  O  O326  1  0.49821869  0.87230207  0.99294622  1
  O  O327  1  0.99199093  0.38528259  0.49228496  1
  O  O328  1  1.00353137  0.38380066  0.99169460  1
  O  O329  1  0.99862830  0.88593571  0.49483233  1
  O  O330  1  0.99668767  0.87986958  0.99348054  1
  O  O331  1  0.48506104  0.50110612  0.37018037  1
  O  O332  1  0.49415248  0.49058245  0.88387250  1
  O  O333  1  0.49531829  0.99401387  0.38239911  1
  O  O334  1  0.48967626  0.98517688  0.87356887  1
  O  O335  1  0.99323663  0.49321118  0.37954444  1
  O  O336  1  1.00359262  0.49428870  0.88248289  1
  O  O337  1  0.99287506  0.99081486  0.38512434  1
  O  O338  1  0.99476525  0.99440429  0.88291355  1
  O  O339  1  0.01524230  -0.00997476  0.10784469  1
  O  O340  1  0.00744644  -0.00254292  0.61993855  1
  O  O341  1  0.00764831  0.50735983  0.12139200  1
  O  O342  1  0.00735075  0.50249493  0.61567788  1
  O  O343  1  0.50899403  0.00780578  0.12989081  1
  O  O344  1  0.51246379  -0.00451016  0.61804835  1
  O  O345  1  0.49609430  0.50655570  0.10983493  1
  O  O346  1  0.50168963  0.51768177  0.68674352  1
  O  O347  1  0.25210303  0.36760881  0.23415660  1
  O  O348  1  0.24079256  0.38491106  0.75805705  1
  O  O349  1  0.24097241  0.86947425  0.24049661  1
  O  O350  1  0.24510478  0.88035285  0.74273796  1
  O  O351  1  0.73674572  0.38427965  0.25334448  1
  O  O352  1  0.75498567  0.39043170  0.75142653  1
  O  O353  1  0.73959490  0.88065879  0.24355281  1
  O  O354  1  0.75534635  0.88717718  0.74101405  1
  O  O355  1  0.26509502  0.12884498  0.25540552  1
  O  O356  1  0.24435792  0.10972069  0.75608774  1
  O  O357  1  0.25852029  0.63096249  0.26130827  1
  O  O358  1  0.25910793  0.61842980  0.75696751  1
  O  O359  1  0.74283217  0.11284935  0.24857653  1
  O  O360  1  0.75623389  0.11367552  0.75234368  1
  O  O361  1  0.74264731  0.61854092  0.25891137  1
  O  O362  1  0.75990636  0.61040351  0.74568766  1
  O  O363  1  0.36757898  0.11990154  0.36904076  1
  O  O364  1  0.38074865  0.10583196  0.87194006  1
  O  O365  1  0.36687284  0.61490489  0.36750809  1
  O  O366  1  0.36305179  0.61788425  0.87107800  1
  O  O367  1  0.87061669  0.11142281  0.37986887  1
  O  O368  1  0.87463279  0.11878442  0.86350289  1
  O  O369  1  0.86766784  0.61495528  0.37391117  1
  O  O370  1  0.88136477  0.62773866  0.86179919  1
  O  O371  1  0.13022160  0.38863939  0.11993266  1
  O  O372  1  0.11778900  0.38330216  0.63678978  1
  O  O373  1  0.13362416  0.87984674  0.13073506  1
  O  O374  1  0.13400877  0.88365251  0.63008570  1
  O  O375  1  0.62191111  0.37281943  0.13730382  1
  O  O376  1  0.62850441  0.37671554  0.62675517  1
  O  O377  1  0.62925312  0.88063521  0.12849244  1
  O  O378  1  0.63422345  0.87651109  0.62334760  1
  O  O379  1  0.11312862  0.23361568  0.24850547  1
  O  O380  1  0.12230749  0.25551777  0.75175684  1
  O  O381  1  0.12212099  0.76196911  0.25103533  1
  O  O382  1  0.12195378  0.75555593  0.75560000  1
  O  O383  1  0.62017142  0.25787049  0.24959086  1
  O  O384  1  0.61640710  0.25200827  0.75212526  1
  O  O385  1  0.61899288  0.75449808  0.25420822  1
  O  O386  1  0.61759431  0.74476019  0.76257213  1
  O  O387  1  0.38332333  0.24435546  0.24534711  1
  O  O388  1  0.39503309  0.24508333  0.75799123  1
  O  O389  1  0.38362698  0.73741185  0.25007634  1
  O  O390  1  0.37883418  0.74265973  0.74656986  1
  O  O391  1  0.86676714  0.24848678  0.23741054  1
  O  O392  1  0.87707765  0.24466792  0.74438252  1
  O  O393  1  0.87028154  0.75556098  0.23753795  1
  O  O394  1  0.87834299  0.74540344  0.74416830  1
  O  O395  1  0.36881851  0.49835817  0.48538831  1
  O  O396  1  0.38111411  0.49502547  0.99539016  1
  O  O397  1  0.38514672  0.99746231  0.49334596  1
  O  O398  1  0.37117727  1.00181514  0.98817735  1
  O  O399  1  0.88004187  0.49412979  0.49192494  1
  O  O400  1  0.88950206  0.49923701  0.99893560  1
  O  O401  1  0.88161416  0.99725847  0.49663448  1
  O  O402  1  0.88274380  0.99587937  0.99754723  1
  O  O403  1  0.12057071  0.00749552  0.00160391  1
  O  O404  1  0.11791897  -0.00093092  0.50942400  1
  O  O405  1  0.11576371  0.50316945  0.00673919  1
  O  O406  1  0.11706832  0.49399341  0.50881929  1
  O  O407  1  0.63227507  0.00497600  0.01334853  1
  O  O408  1  0.61717095  -0.00284673  0.51283960  1
  O  O409  1  0.61779997  0.51051407  -0.00394485  1
  O  O410  1  0.64286189  0.48709024  0.50316690  1
  O  O411  1  0.36870472  0.37190064  0.11878888  1
  O  O412  1  0.37208972  0.36393878  0.63053871  1
  O  O413  1  0.36333140  0.87246018  0.13258126  1
  O  O414  1  0.36277725  0.87615465  0.62496031  1
  O  O415  1  0.87676819  0.35820933  0.11950926  1
  O  O416  1  0.88059943  0.36889694  0.61259353  1
  O  O417  1  0.87132243  0.86620760  0.11584167  1
  O  O418  1  0.86561757  0.86328918  0.62517502  1
  O  O419  1  0.14173651  0.11759050  0.37696100  1
  O  O420  1  0.12293427  0.13245715  0.88722151  1
  O  O421  1  0.13691594  0.62431478  0.36782851  1
  O  O422  1  0.13744733  0.63045168  0.87130075  1
  O  O423  1  0.62654266  0.13924688  0.36558675  1
  O  O424  1  0.62244449  0.11210072  0.89151718  1
  O  O425  1  0.63400566  0.63065131  0.37731621  1
  O  O426  1  0.61807424  0.63685575  0.88593700  1
