# generated using pymatgen
data_V85Zn86O256
_symmetry_space_group_name_H-M   'P 1'
_cell_length_a   16.92770506
_cell_length_b   16.92010603
_cell_length_c   16.92596855
_cell_angle_alpha   89.92943380
_cell_angle_beta   89.98354597
_cell_angle_gamma   89.99808121
_symmetry_Int_Tables_number   1
_chemical_formula_structural   V85Zn86O256
_chemical_formula_sum   'V85 Zn86 O256'
_cell_volume   4847.90773701
_cell_formula_units_Z   1
loop_
 _symmetry_equiv_pos_site_id
 _symmetry_equiv_pos_as_xyz
  1  'x, y, z'
loop_
 _atom_site_type_symbol
 _atom_site_label
 _atom_site_symmetry_multiplicity
 _atom_site_fract_x
 _atom_site_fract_y
 _atom_site_fract_z
 _atom_site_occupancy
  V  V0  1  0.06059165  0.70681624  0.30681073  1
  V  V1  1  0.62352784  0.37710631  0.24967646  1
  V  V2  1  0.75274237  0.50271348  0.24875848  1
  V  V3  1  -0.00310805  0.24743614  0.24636970  1
  V  V4  1  0.37647667  0.24344109  0.12358282  1
  V  V5  1  0.62500424  0.75050895  0.87672000  1
  V  V6  1  0.50025010  0.62543226  0.62741770  1
  V  V7  1  0.74476160  0.12446727  0.37742710  1
  V  V8  1  0.24715988  0.24734340  0.50215653  1
  V  V9  1  0.49988230  0.50177558  0.00430714  1
  V  V10  1  0.12237041  0.24138424  0.37921678  1
  V  V11  1  0.87301293  0.87762549  0.50123312  1
  V  V12  1  0.74788828  0.75542617  0.50438038  1
  V  V13  1  0.37366478  0.61941598  0.26289847  1
  V  V14  1  0.62168857  0.87797847  0.74468012  1
  V  V15  1  0.75292518  0.75078999  0.00321750  1
  V  V16  1  0.24727618  0.49926424  0.75014526  1
  V  V17  1  0.00382660  0.62458079  0.62442854  1
  V  V18  1  0.74994053  0.62579096  0.37693341  1
  V  V19  1  0.50300411  0.74468642  0.24597351  1
  V  V20  1  0.37407717  0.37634566  0.49995919  1
  V  V21  1  0.38823073  0.00834394  0.87791453  1
  V  V22  1  0.87325195  0.88450095  -0.00050865  1
  V  V23  1  0.24424488  0.74489606  0.48435960  1
  V  V24  1  0.87030745  0.74931060  0.63038742  1
  V  V25  1  0.25207083  0.87156177  0.62258704  1
  V  V26  1  0.13051321  0.87633428  0.75188697  1
  V  V27  1  -0.00140179  0.88027550  0.87619587  1
  V  V28  1  0.51412012  0.24124178  0.75332321  1
  V  V29  1  0.73895551  -0.00401503  0.24343407  1
  V  V30  1  0.75081538  0.49538964  0.76024545  1
  V  V31  1  0.49573117  0.50050246  0.49615290  1
  V  V32  1  0.12905197  0.00758004  0.11755609  1
  V  V33  1  0.00627493  0.63332593  0.12091846  1
  V  V34  1  0.49657874  0.24940409  0.24658668  1
  V  V35  1  0.12549397  0.50201437  0.11299838  1
  V  V36  1  0.74471785  0.25159868  0.50150468  1
  V  V37  1  0.24722806  0.37383449  0.11963384  1
  V  V38  1  0.87708907  0.63468311  0.25120252  1
  V  V39  1  0.49864364  0.87822126  0.36875972  1
  V  V40  1  0.49624085  0.87709630  0.89051508  1
  V  V41  1  0.75794178  0.36160647  0.12783191  1
  V  V42  1  0.13063631  0.00566446  0.61888413  1
  V  V43  1  0.37496346  0.87823121  0.49292130  1
  V  V44  1  0.87159156  0.12724187  0.24208458  1
  V  V45  1  0.62482301  0.62636857  0.50259918  1
  V  V46  1  0.11828559  0.37415784  0.74935372  1
  V  V47  1  0.37307319  0.24267450  0.63615668  1
  V  V48  1  0.25374451  0.74268285  -0.00127210  1
  V  V49  1  0.62544817  0.75636332  0.37113596  1
  V  V50  1  0.25393422  0.12395683  0.86380226  1
  V  V51  1  0.37269379  0.62568262  0.75284447  1
  V  V52  1  0.25610470  -0.00060166  0.25109300  1
  V  V53  1  0.12344150  0.87627033  0.24918172  1
  V  V54  1  0.61585976  0.14529612  0.00107563  1
  V  V55  1  0.38211525  0.74318165  0.11947767  1
  V  V56  1  0.25058301  0.12112904  0.37846477  1
  V  V57  1  0.74971256  0.12973978  0.87702842  1
  V  V58  1  0.00218252  0.00719685  -0.00489032  1
  V  V59  1  0.37706538  0.12503718  0.25207502  1
  V  V60  1  -0.00225554  0.12639473  0.62643665  1
  V  V61  1  0.37590899  0.37214619  -0.00581802  1
  V  V62  1  0.62500693  0.49652759  0.63267052  1
  V  V63  1  0.62220748  0.00434002  0.61959210  1
  V  V64  1  0.87072720  0.35918361  -0.00318155  1
  V  V65  1  0.51517860  0.37450028  0.86638394  1
  V  V66  1  0.49886881  0.00864696  0.49339929  1
  V  V67  1  -0.01325759  0.50491342  -0.00577314  1
  V  V68  1  0.11890187  0.24303762  0.87636126  1
  V  V69  1  0.60569378  0.00156471  0.11216918  1
  V  V70  1  0.00630768  0.00654682  0.49442748  1
  V  V71  1  0.12472031  0.37071614  0.24639572  1
  V  V72  1  0.62066379  0.24620100  0.37758229  1
  V  V73  1  0.25792068  0.87615996  0.11517625  1
  V  V74  1  0.00203344  0.87566204  0.37041852  1
  V  V75  1  0.87386171  0.00079220  0.37150702  1
  V  V76  1  0.87542618  0.62023011  0.75978351  1
  V  V77  1  0.49939122  0.75101610  0.74942286  1
  V  V78  1  0.79068860  0.93331569  0.68409821  1
  V  V79  1  0.74754313  0.37316038  0.63196767  1
  V  V80  1  0.24616803  0.23761751  -0.00320495  1
  V  V81  1  -0.00151641  0.12994452  0.11915345  1
  V  V82  1  -0.00531568  0.36968263  0.37827634  1
  V  V83  1  0.12750737  0.74693508  0.87991868  1
  V  V84  1  0.62145180  0.62593336  0.00729143  1
  Zn  Zn85  1  0.87516308  0.50002436  0.37789606  1
  Zn  Zn86  1  0.86623426  0.11705531  0.75357779  1
  Zn  Zn87  1  0.49892105  0.12102125  0.63065857  1
  Zn  Zn88  1  0.62309030  0.50386834  0.12758391  1
  Zn  Zn89  1  0.24900293  0.37499882  0.62704078  1
  Zn  Zn90  1  0.37408088  0.49929842  0.87482243  1
  Zn  Zn91  1  0.87277343  0.37737005  0.50296618  1
  Zn  Zn92  1  -0.01049460  0.37612053  0.87160139  1
  Zn  Zn93  1  -0.00036991  0.49934602  0.50026032  1
  Zn  Zn94  1  0.24501741  0.62083159  0.87938455  1
  Zn  Zn95  1  0.86974185  0.24667182  0.62926606  1
  Zn  Zn96  1  0.26128547  0.00280076  0.74618940  1
  Zn  Zn97  1  0.00129933  0.74988714  0.75132767  1
  Zn  Zn98  1  0.24793857  0.50914982  0.25817918  1
  Zn  Zn99  1  0.12423652  0.50075769  0.62037215  1
  Zn  Zn100  1  0.74783151  0.87704232  0.12750118  1
  Zn  Zn101  1  0.75368796  0.61909917  0.88183124  1
  Zn  Zn102  1  0.88254164  0.75720653  0.12774108  1
  Zn  Zn103  1  0.12550488  0.62518586  0.48331958  1
  Zn  Zn104  1  -0.00719543  0.24612015  0.75382598  1
  Zn  Zn105  1  0.37499642  0.75081754  0.62267011  1
  Zn  Zn106  1  0.49856574  0.38009069  0.37419800  1
  Zn  Zn107  1  0.18813393  0.18747628  0.18750499  1
  Zn  Zn108  1  0.18342141  0.18828992  0.68891441  1
  Zn  Zn109  1  0.19724278  0.68287124  0.18028239  1
  Zn  Zn110  1  0.18853500  0.69071741  0.68834277  1
  Zn  Zn111  1  0.68126686  0.18331260  0.18473554  1
  Zn  Zn112  1  0.68597489  0.18293694  0.69171742  1
  Zn  Zn113  1  0.68832690  0.68973496  0.18593227  1
  Zn  Zn114  1  0.68912272  0.68549690  0.69156543  1
  Zn  Zn115  1  0.29681993  0.33984112  0.32572019  1
  Zn  Zn116  1  0.31088552  0.31333676  0.81218423  1
  Zn  Zn117  1  0.31646642  0.81213220  0.30692045  1
  Zn  Zn118  1  0.31673880  0.81607985  0.81437282  1
  Zn  Zn119  1  0.81100450  0.30875693  0.31040441  1
  Zn  Zn120  1  0.80664646  0.30300337  0.81274787  1
  Zn  Zn121  1  0.81236819  0.81489207  0.31462614  1
  Zn  Zn122  1  0.81612295  0.80779665  0.82163004  1
  Zn  Zn123  1  0.18394262  0.43737209  0.43848126  1
  Zn  Zn124  1  0.18381469  0.43320902  0.93380976  1
  Zn  Zn125  1  0.18828939  0.93493181  0.43366824  1
  Zn  Zn126  1  0.19240866  0.94078406  0.93655626  1
  Zn  Zn127  1  0.68529790  0.43718295  0.43913973  1
  Zn  Zn128  1  0.68937100  0.43361566  0.94351398  1
  Zn  Zn129  1  0.68502610  0.93775530  0.43767202  1
  Zn  Zn130  1  0.68592881  0.94262881  0.93873965  1
  Zn  Zn131  1  0.32171474  0.06078372  0.05712744  1
  Zn  Zn132  1  0.31754608  0.06201832  0.55986277  1
  Zn  Zn133  1  0.31625142  0.56284711  0.06533594  1
  Zn  Zn134  1  0.31068594  0.56464485  0.56439102  1
  Zn  Zn135  1  0.80966136  0.06886703  0.05596700  1
  Zn  Zn136  1  0.81452680  0.06823498  0.55538190  1
  Zn  Zn137  1  0.81426624  0.56486408  0.06816716  1
  Zn  Zn138  1  0.81478430  0.56092579  0.56566792  1
  Zn  Zn139  1  0.43507938  0.43599359  0.18437364  1
  Zn  Zn140  1  0.43508871  0.43565097  0.68600119  1
  Zn  Zn141  1  0.43652249  0.93243757  0.18856201  1
  Zn  Zn142  1  0.43703109  0.94016268  0.68883259  1
  Zn  Zn143  1  0.93715055  0.44092265  0.18603276  1
  Zn  Zn144  1  0.93359797  0.43778563  0.68612593  1
  Zn  Zn145  1  0.93726909  0.94188965  0.18385405  1
  Zn  Zn146  1  0.95431566  0.93898353  0.68652598  1
  Zn  Zn147  1  0.06528417  0.06209440  0.30667909  1
  Zn  Zn148  1  0.06719105  0.06263472  0.80870362  1
  Zn  Zn149  1  0.06154146  0.54260609  0.30567216  1
  Zn  Zn150  1  0.06112814  0.56263409  0.81281171  1
  Zn  Zn151  1  0.55970656  0.06368463  0.30904785  1
  Zn  Zn152  1  0.59381865  0.05398690  0.82783784  1
  Zn  Zn153  1  0.56186851  0.56667265  0.31302644  1
  Zn  Zn154  1  0.56431492  0.56226331  0.81826176  1
  Zn  Zn155  1  0.43198215  0.19205361  0.43527832  1
  Zn  Zn156  1  0.44470819  0.18676305  0.93418918  1
  Zn  Zn157  1  0.43593589  0.69097438  0.43846232  1
  Zn  Zn158  1  0.43742206  0.68770360  0.93722980  1
  Zn  Zn159  1  0.93052233  0.18665082  0.43923928  1
  Zn  Zn160  1  0.92801014  0.18415693  0.93251217  1
  Zn  Zn161  1  0.93271738  0.68553117  0.44507923  1
  Zn  Zn162  1  0.93962514  0.69292637  0.93968683  1
  Zn  Zn163  1  0.05925333  0.31274531  0.05497543  1
  Zn  Zn164  1  0.06406773  0.31162536  0.56255310  1
  Zn  Zn165  1  0.06855049  0.81808060  0.06033803  1
  Zn  Zn166  1  0.06299724  0.81215718  0.56021112  1
  Zn  Zn167  1  0.56129548  0.31814742  0.06583818  1
  Zn  Zn168  1  0.56193531  0.31223308  0.56734448  1
  Zn  Zn169  1  0.56879557  0.81661748  0.06926871  1
  Zn  Zn170  1  0.56165441  0.81748911  0.56243930  1
  O  O171  1  0.11973010  0.11366186  0.12860568  1
  O  O172  1  0.12029060  0.11114076  0.62862901  1
  O  O173  1  0.11918999  0.61442703  0.12846378  1
  O  O174  1  0.11025079  0.62935508  0.63040119  1
  O  O175  1  0.63073965  0.11014631  0.11590439  1
  O  O176  1  0.62170112  0.10870699  0.62610573  1
  O  O177  1  0.62732025  0.62410070  0.11223273  1
  O  O178  1  0.62026247  0.61988548  0.62074091  1
  O  O179  1  0.38470283  0.36108389  0.39606445  1
  O  O180  1  0.37661747  0.37551678  0.88599147  1
  O  O181  1  0.38450551  0.87137143  0.38064716  1
  O  O182  1  0.39173764  0.88135706  0.87350030  1
  O  O183  1  0.88523322  0.37045708  0.37322988  1
  O  O184  1  0.86960206  0.36922832  0.89265177  1
  O  O185  1  0.88287845  0.88248821  0.37806056  1
  O  O186  1  0.88806815  0.87370277  0.88340646  1
  O  O187  1  0.24475070  0.00958829  0.36441225  1
  O  O188  1  0.25894946  0.00911395  0.87196212  1
  O  O189  1  0.24918097  0.44575121  0.35019768  1
  O  O190  1  0.24921316  0.50148966  0.86508166  1
  O  O191  1  0.74938287  0.00755770  0.36544321  1
  O  O192  1  0.70851082  0.02415796  0.86574988  1
  O  O193  1  0.74875301  0.50554767  0.36453176  1
  O  O194  1  0.74262265  0.49934992  0.86408333  1
  O  O195  1  0.24323843  0.48956921  0.12243169  1
  O  O196  1  0.24572276  0.50008927  0.63788737  1
  O  O197  1  0.24748274  0.99547836  0.12634623  1
  O  O198  1  0.24627609  0.99112278  0.62195822  1
  O  O199  1  0.74899262  0.49677346  0.13928739  1
  O  O200  1  0.74297971  0.49373087  0.63383868  1
  O  O201  1  0.75170061  1.00238241  0.13846490  1
  O  O202  1  0.74236491  0.99675866  0.61521059  1
  O  O203  1  0.00359247  0.36698159  0.25258317  1
  O  O204  1  0.00411129  0.37378557  0.75307109  1
  O  O205  1  0.01028924  0.88132303  0.25276996  1
  O  O206  1  0.01085002  0.87369060  0.75931494  1
  O  O207  1  0.50729230  0.37168911  0.25216834  1
  O  O208  1  0.49752113  0.37406150  0.76287584  1
  O  O209  1  0.49413995  0.86217376  0.26157966  1
  O  O210  1  0.50654637  0.86524943  0.75082679  1
  O  O211  1  0.48833794  0.13478633  0.25312494  1
  O  O212  1  0.51002594  0.13923510  0.75444924  1
  O  O213  1  0.49174653  0.63579442  0.25236208  1
  O  O214  1  0.49437109  0.63096868  0.74899771  1
  O  O215  1  0.99192003  0.12612949  0.23980772  1
  O  O216  1  0.99341150  0.11829502  0.73981741  1
  O  O217  1  0.99799805  0.63284125  0.24668618  1
  O  O218  1  0.99180154  0.62778008  0.74504920  1
  O  O219  1  0.36990273  0.25433742  0.00480442  1
  O  O220  1  0.36607114  0.25354132  0.51097659  1
  O  O221  1  0.36954937  0.74890473  0.00716241  1
  O  O222  1  0.36500952  0.75965501  0.50160536  1
  O  O223  1  0.87928838  0.26120026  0.00691735  1
  O  O224  1  0.85692339  0.25020263  0.50278353  1
  O  O225  1  0.86836052  0.76175216  0.00206040  1
  O  O226  1  0.86966260  0.75825782  0.51100474  1
  O  O227  1  0.13806115  0.25011240  0.49457218  1
  O  O228  1  0.13523317  0.25491238  0.98922366  1
  O  O229  1  0.13916966  0.74990117  0.49882563  1
  O  O230  1  0.13784420  0.75753511  0.99068703  1
  O  O231  1  0.63153513  0.25437251  0.49023490  1
  O  O232  1  0.63134971  0.24297201  1.02019296  1
  O  O233  1  0.62895369  0.74629755  0.49504076  1
  O  O234  1  0.63135117  0.74546514  0.99783271  1
  O  O235  1  0.48942175  0.25976994  0.13781271  1
  O  O236  1  0.49136937  0.24793458  0.63660726  1
  O  O237  1  0.49514801  0.75652479  0.13437233  1
  O  O238  1  0.49964663  0.74346835  0.63135886  1
  O  O239  1  1.00838503  0.23546242  0.12614078  1
  O  O240  1  1.00239707  0.23313739  0.62121063  1
  O  O241  1  1.00426057  0.73782534  0.11444498  1
  O  O242  1  0.98758272  0.74794653  0.62636220  1
  O  O243  1  0.00432101  0.24808933  0.37113649  1
  O  O244  1  0.00645309  0.25033611  0.87729807  1
  O  O245  1  -0.00373215  0.75691909  0.37423649  1
  O  O246  1  0.01011016  0.76362121  0.87754209  1
  O  O247  1  0.50630899  0.25217547  0.36611552  1
  O  O248  1  0.49280052  0.26337188  0.86083588  1
  O  O249  1  0.50761854  0.75547846  0.36983879  1
  O  O250  1  0.50358683  0.76050467  0.86996253  1
  O  O251  1  0.25731326  0.12990685  0.48634222  1
  O  O252  1  0.25553435  0.13400255  0.98924095  1
  O  O253  1  0.24890676  0.64008913  0.50110802  1
  O  O254  1  0.25331661  0.63671953  0.99878492  1
  O  O255  1  0.74878158  0.13089983  0.48436554  1
  O  O256  1  0.73487859  0.11792019  0.98990825  1
  O  O257  1  0.74601563  0.63324560  0.49660510  1
  O  O258  1  0.74653049  0.63300618  1.00116396  1
  O  O259  1  0.25600051  0.36607442  0.00386020  1
  O  O260  1  0.25622183  0.36496271  0.50654252  1
  O  O261  1  0.24832420  0.86950313  0.01122183  1
  O  O262  1  0.25578661  0.86876908  0.50309827  1
  O  O263  1  0.76070397  0.37934714  0.01640960  1
  O  O264  1  0.74871605  0.36726436  0.50693621  1
  O  O265  1  0.75768726  0.87216895  -0.00223178  1
  O  O266  1  0.75906260  0.86669366  0.49251128  1
  O  O267  1  0.12770288  0.48736700  0.23207173  1
  O  O268  1  0.12975864  0.49209608  0.75044557  1
  O  O269  1  0.13689823  0.99510644  0.24038986  1
  O  O270  1  0.13135158  0.98937909  0.74041173  1
  O  O271  1  0.63095047  0.49412826  0.25065979  1
  O  O272  1  0.63198442  0.50833064  0.73911704  1
  O  O273  1  0.63627108  1.00787842  0.24165235  1
  O  O274  1  0.61574380  0.98539974  0.73645529  1
  O  O275  1  0.36367708  0.00870088  0.24283180  1
  O  O276  1  0.37515899  -0.00523451  0.76763388  1
  O  O277  1  0.37745879  0.51595267  0.24191443  1
  O  O278  1  0.36665423  0.50650563  0.75092079  1
  O  O279  1  0.86751317  0.01024076  0.25380744  1
  O  O280  1  0.86064967  -0.01085293  0.73531781  1
  O  O281  1  0.86960259  0.51320651  0.25280233  1
  O  O282  1  0.86446337  0.50929831  0.74727360  1
  O  O283  1  0.10990217  0.35821054  0.37007034  1
  O  O284  1  0.12181486  0.36281476  0.86439520  1
  O  O285  1  0.12034250  0.87769961  0.35827769  1
  O  O286  1  0.12374631  0.87075695  0.86766316  1
  O  O287  1  0.62596730  0.36559905  0.36372516  1
  O  O288  1  0.61317051  0.37403380  0.87894059  1
  O  O289  1  0.61761602  0.86251173  0.37789245  1
  O  O290  1  0.61360904  0.87065479  0.86720692  1
  O  O291  1  0.36722784  0.13670832  0.13327704  1
  O  O292  1  0.37905741  0.13784464  0.62294540  1
  O  O293  1  0.37382546  0.63888171  0.13193320  1
  O  O294  1  0.38099688  0.62726710  0.63701792  1
  O  O295  1  0.88452767  0.11930243  0.13079163  1
  O  O296  1  0.88378121  0.12347141  0.62647842  1
  O  O297  1  0.88697356  0.62928769  0.13468941  1
  O  O298  1  0.88311720  0.63300154  0.63388979  1
  O  O299  1  0.25476069  0.25078556  0.11268329  1
  O  O300  1  0.25787544  0.24702504  0.62050837  1
  O  O301  1  0.25777320  0.75703355  0.11560139  1
  O  O302  1  0.24995588  0.76239020  0.61794897  1
  O  O303  1  0.75288094  0.26370403  0.13962691  1
  O  O304  1  0.74270136  0.25573655  0.61755366  1
  O  O305  1  0.75102772  0.75576772  0.11405470  1
  O  O306  1  0.76200485  0.74504029  0.62135958  1
  O  O307  1  0.24104242  0.24554389  0.38233744  1
  O  O308  1  0.24554153  0.24269848  0.87871041  1
  O  O309  1  0.25155460  0.75588582  0.38602308  1
  O  O310  1  0.24631210  0.75252190  0.88296096  1
  O  O311  1  0.74108355  0.24404681  0.37925185  1
  O  O312  1  0.74613167  0.23279771  0.87854685  1
  O  O313  1  0.74277250  0.74628662  0.38025453  1
  O  O314  1  0.74357337  0.74836867  0.88895111  1
  O  O315  1  -0.00599116  0.11403336  0.00281936  1
  O  O316  1  -0.00503717  0.11194956  0.50359583  1
  O  O317  1  -0.00556008  0.61373436  0.00578723  1
  O  O318  1  0.00451096  0.62602732  0.50974249  1
  O  O319  1  0.51365467  0.13744231  0.00832171  1
  O  O320  1  0.49103257  0.11104481  0.49499800  1
  O  O321  1  0.50788574  0.61423577  -0.00706466  1
  O  O322  1  0.50236900  0.62023578  0.50741224  1
  O  O323  1  0.49430817  0.38385814  0.50370837  1
  O  O324  1  0.49318085  0.37693579  0.98955694  1
  O  O325  1  0.49150404  0.87803652  0.48935441  1
  O  O326  1  0.50391391  0.87020165  0.98809880  1
  O  O327  1  0.99572609  0.37132899  0.49146299  1
  O  O328  1  0.98322803  0.38492876  1.00277109  1
  O  O329  1  0.99475674  0.88540073  0.49433068  1
  O  O330  1  0.99518721  0.88562530  0.99533869  1
  O  O331  1  0.50917471  0.49950654  0.39228658  1
  O  O332  1  0.49847034  0.48757417  0.88231507  1
  O  O333  1  0.50774585  0.98852324  0.37869383  1
  O  O334  1  0.49728044  0.98943466  0.87224211  1
  O  O335  1  0.99631741  0.48362218  0.37562186  1
  O  O336  1  1.00415678  0.49767313  0.89155577  1
  O  O337  1  0.99769123  0.99754238  0.37843957  1
  O  O338  1  1.01055785  0.99046460  0.88181716  1
  O  O339  1  0.00966695  0.00948011  0.11712015  1
  O  O340  1  0.00997898  0.00725516  0.61438724  1
  O  O341  1  0.00534597  0.51017736  0.11681807  1
  O  O342  1  0.00090166  0.51077608  0.62376969  1
  O  O343  1  0.50769612  -0.00015011  0.13120227  1
  O  O344  1  0.50396101  0.00036720  0.61366650  1
  O  O345  1  0.50445157  0.48890417  0.10852217  1
  O  O346  1  0.50775982  0.50479786  0.62077701  1
  O  O347  1  0.24066370  0.35461908  0.22501540  1
  O  O348  1  0.24147106  0.38223019  0.74913116  1
  O  O349  1  0.24624739  0.88277585  0.24189868  1
  O  O350  1  0.24645581  0.87592135  0.74033272  1
  O  O351  1  0.74671936  0.38251025  0.24464589  1
  O  O352  1  0.75254848  0.38207324  0.74363241  1
  O  O353  1  0.75380721  0.89287354  0.25172381  1
  O  O354  1  0.74160338  0.87049739  0.75317740  1
  O  O355  1  0.25495869  0.11906047  0.25664535  1
  O  O356  1  0.25047517  0.12483937  0.75970179  1
  O  O357  1  0.26616078  0.62422396  0.25032753  1
  O  O358  1  0.25685487  0.61983515  0.75189930  1
  O  O359  1  0.75469194  0.11909202  0.25666940  1
  O  O360  1  0.74809526  0.12494901  0.76408546  1
  O  O361  1  0.75714037  0.62043038  0.25372687  1
  O  O362  1  0.75856749  0.61625408  0.75366468  1
  O  O363  1  0.36390380  0.13204920  0.36092187  1
  O  O364  1  0.37264916  0.11601757  0.87508115  1
  O  O365  1  0.37867992  0.62538108  0.36231330  1
  O  O366  1  0.37353462  0.62251603  0.86318088  1
  O  O367  1  0.86509599  0.11884396  0.36689040  1
  O  O368  1  0.85734938  0.11539797  0.87621145  1
  O  O369  1  0.86784068  0.62638269  0.36865427  1
  O  O370  1  0.87504643  0.63264186  0.86361965  1
  O  O371  1  0.12959352  0.37830704  0.12304454  1
  O  O372  1  0.12576402  0.37466780  0.63777476  1
  O  O373  1  0.13322816  0.88562013  0.13290675  1
  O  O374  1  0.13086248  0.88297433  0.63022403  1
  O  O375  1  0.63776284  0.37853919  0.13624390  1
  O  O376  1  0.63488753  0.38588192  0.62148594  1
  O  O377  1  0.63080264  0.89549797  0.12322914  1
  O  O378  1  0.62648550  0.88201182  0.63356266  1
  O  O379  1  0.11688086  0.25088294  0.25703169  1
  O  O380  1  0.11760495  0.25575950  0.75662873  1
  O  O381  1  0.12785497  0.75790019  0.24221004  1
  O  O382  1  0.12543541  0.76368690  0.75559675  1
  O  O383  1  0.61612815  0.25636635  0.25336929  1
  O  O384  1  0.61102098  0.25741235  0.74193017  1
  O  O385  1  0.61761375  0.74385155  0.25904309  1
  O  O386  1  0.61997450  0.75594128  0.75560909  1
  O  O387  1  0.37917424  0.24590080  0.24232639  1
  O  O388  1  0.38017539  0.25508197  0.73832279  1
  O  O389  1  0.38280752  0.73933206  0.24389602  1
  O  O390  1  0.38109130  0.74319295  0.74808871  1
  O  O391  1  0.88065467  0.23494177  0.25371920  1
  O  O392  1  0.87740492  0.24188317  0.74629640  1
  O  O393  1  0.86927057  0.73978070  0.24733003  1
  O  O394  1  0.87629532  0.74390512  0.74468624  1
  O  O395  1  0.38351843  0.49125094  0.51026832  1
  O  O396  1  0.38132601  0.49145138  0.99873782  1
  O  O397  1  0.38214678  0.98626828  0.50016850  1
  O  O398  1  0.37426278  0.99732899  0.97894178  1
  O  O399  1  0.87751178  0.49705737  0.49568571  1
  O  O400  1  0.88439628  0.49551977  1.00489365  1
  O  O401  1  0.88182556  0.99526957  0.49089161  1
  O  O402  1  0.88428999  0.99104534  1.00398026  1
  O  O403  1  0.11748824  -0.00459972  0.00794349  1
  O  O404  1  0.11806248  -0.00621849  0.50603055  1
  O  O405  1  0.11224939  0.49054758  0.00843380  1
  O  O406  1  0.12234812  0.50728812  0.50096490  1
  O  O407  1  0.61564456  0.00538067  0.01004569  1
  O  O408  1  0.61161504  -0.00889660  0.50703506  1
  O  O409  1  0.61943430  0.50786773  0.00105769  1
  O  O410  1  0.62011957  0.50720834  0.51094179  1
  O  O411  1  0.36736062  0.36542048  0.11422269  1
  O  O412  1  0.37346135  0.36174947  0.61817372  1
  O  O413  1  0.36563334  0.86108805  0.13310124  1
  O  O414  1  0.36715893  0.87410636  0.61672684  1
  O  O415  1  0.86353194  0.37837641  0.12147453  1
  O  O416  1  0.86039840  0.37111287  0.62334863  1
  O  O417  1  0.87286357  0.87456906  0.11603052  1
  O  O418  1  0.86715428  0.87309846  0.62715380  1
  O  O419  1  0.13238897  0.13452751  0.36891668  1
  O  O420  1  0.13487821  0.13538112  0.87007056  1
  O  O421  1  0.11162087  0.63229026  0.36198220  1
  O  O422  1  0.12538986  0.64303799  0.86746102  1
  O  O423  1  0.63071918  0.13774191  0.36671618  1
  O  O424  1  0.61988972  0.14266496  0.89453819  1
  O  O425  1  0.63019793  0.63511022  0.38252731  1
  O  O426  1  0.62783219  0.63379446  0.88647149  1
