# generated using pymatgen
data_V85Zn86O256
_symmetry_space_group_name_H-M   'P 1'
_cell_length_a   16.92648855
_cell_length_b   16.92680105
_cell_length_c   16.93061760
_cell_angle_alpha   90.03107907
_cell_angle_beta   90.10448068
_cell_angle_gamma   89.97949570
_symmetry_Int_Tables_number   1
_chemical_formula_structural   V85Zn86O256
_chemical_formula_sum   'V85 Zn86 O256'
_cell_volume   4850.80423970
_cell_formula_units_Z   1
loop_
 _symmetry_equiv_pos_site_id
 _symmetry_equiv_pos_as_xyz
  1  'x, y, z'
loop_
 _atom_site_type_symbol
 _atom_site_label
 _atom_site_symmetry_multiplicity
 _atom_site_fract_x
 _atom_site_fract_y
 _atom_site_fract_z
 _atom_site_occupancy
  V  V0  1  0.75076607  0.12656649  0.87156436  1
  V  V1  1  0.50653263  0.87295940  0.37099434  1
  V  V2  1  0.12221064  0.00268750  0.12809535  1
  V  V3  1  0.24236840  0.74924355  -0.00723658  1
  V  V4  1  0.74883494  0.50328315  0.75144301  1
  V  V5  1  0.74618257  0.62986751  0.37464700  1
  V  V6  1  -0.00023764  0.49909646  0.49871568  1
  V  V7  1  0.24837334  0.87363933  0.62004393  1
  V  V8  1  0.50136365  0.00086001  0.49890874  1
  V  V9  1  0.87566300  0.61644320  0.25033078  1
  V  V10  1  0.74292586  0.49672542  0.25192993  1
  V  V11  1  0.49671147  0.37856076  0.38678355  1
  V  V12  1  -0.00485218  0.37173315  0.37115437  1
  V  V13  1  -0.00301906  0.75130584  0.74766335  1
  V  V14  1  0.14008047  0.62653348  0.49876219  1
  V  V15  1  0.75785960  0.87416699  0.63244403  1
  V  V16  1  0.24989702  0.12722944  0.37814983  1
  V  V17  1  0.62675692  0.37411867  0.75289089  1
  V  V18  1  -0.00211941  0.00227160  0.00229156  1
  V  V19  1  0.12315528  0.12712414  0.00347603  1
  V  V20  1  0.62542837  0.25101073  0.87526530  1
  V  V21  1  0.39529785  0.37587834  0.00081332  1
  V  V22  1  0.25004585  0.00048484  0.75142977  1
  V  V23  1  0.25950625  0.37225428  0.12648613  1
  V  V24  1  0.62814472  -0.00952502  0.13815927  1
  V  V25  1  -0.00210248  0.62929784  0.62224497  1
  V  V26  1  0.11663555  0.12691794  0.50583008  1
  V  V27  1  0.00118125  0.61919150  0.12353833  1
  V  V28  1  0.87127823  0.63009298  0.74870498  1
  V  V29  1  0.49971353  0.13571459  0.12492317  1
  V  V30  1  0.50575328  0.74972660  0.24927682  1
  V  V31  1  0.14391497  0.74494432  0.37898186  1
  V  V32  1  0.50158321  0.75213333  0.74715488  1
  V  V33  1  0.37229049  0.75197969  0.61909430  1
  V  V34  1  0.37290203  0.87554915  0.49875018  1
  V  V35  1  0.37262439  0.13057640  0.74494039  1
  V  V36  1  0.00570667  0.74326299  0.25404916  1
  V  V37  1  0.63011464  -0.00056529  0.63032146  1
  V  V38  1  0.61984887  0.36774012  0.26009836  1
  V  V39  1  0.49477484  0.62080453  0.11179363  1
  V  V40  1  0.50017757  0.62178187  0.61924451  1
  V  V41  1  0.12190592  0.37033010  0.24897003  1
  V  V42  1  0.49741420  0.12895842  0.61999192  1
  V  V43  1  0.37490640  0.13482055  0.24758516  1
  V  V44  1  0.87247025  0.74389383  0.12411904  1
  V  V45  1  0.50146921  0.87427006  0.87470447  1
  V  V46  1  0.37514282  0.00258749  0.37390277  1
  V  V47  1  0.81264364  0.31969235  0.08363513  1
  V  V48  1  0.25090609  0.50113869  0.26028019  1
  V  V49  1  0.25972874  0.25073739  0.00607492  1
  V  V50  1  0.12894972  0.49740497  0.63016349  1
  V  V51  1  0.86712472  0.00027113  0.87573693  1
  V  V52  1  -0.00154017  0.24475130  0.74274560  1
  V  V53  1  0.00197631  0.86906392  0.87871191  1
  V  V54  1  0.12659529  0.49863922  0.12413916  1
  V  V55  1  0.37360885  0.74990693  0.12272982  1
  V  V56  1  0.75819095  0.75304778  0.50105628  1
  V  V57  1  0.75729292  0.12680188  0.35859735  1
  V  V58  1  0.87259190  0.50209824  0.87285668  1
  V  V59  1  0.37251821  0.61608776  0.74908947  1
  V  V60  1  0.12603430  0.87450345  0.25283276  1
  V  V61  1  0.50001256  -0.00129962  0.00250803  1
  V  V62  1  0.25164612  0.12494018  0.87802817  1
  V  V63  1  0.87549420  0.12161462  0.74319334  1
  V  V64  1  -0.00079670  0.49480270  0.00042591  1
  V  V65  1  0.61748495  0.49459055  0.12513765  1
  V  V66  1  0.86928394  0.87283139  0.00242674  1
  V  V67  1  0.63674780  0.61521561  -0.00598673  1
  V  V68  1  -0.00844247  0.37148266  0.87672681  1
  V  V69  1  0.62269181  0.63240007  0.49522699  1
  V  V70  1  0.87303063  -0.00393787  0.36343576  1
  V  V71  1  0.49899775  0.25183474  0.74878011  1
  V  V72  1  0.37201016  0.62404316  0.25762809  1
  V  V73  1  0.12174215  0.25048053  0.37620804  1
  V  V74  1  0.24931354  0.87497407  0.12286372  1
  V  V75  1  0.62531484  0.49980862  0.61801866  1
  V  V76  1  0.37516388  0.37789889  0.51779915  1
  V  V77  1  0.11565480  0.00283433  0.62710769  1
  V  V78  1  0.63177380  0.12243610  0.00066799  1
  V  V79  1  -0.01222998  0.13956508  0.13739468  1
  V  V80  1  0.63223801  0.13295699  0.49328454  1
  V  V81  1  0.13026405  0.37703506  0.75458667  1
  V  V82  1  0.12123145  0.24899467  0.87972177  1
  V  V83  1  0.12741655  0.86963941  0.75583217  1
  V  V84  1  0.24461361  0.61765089  0.86986151  1
  Zn  Zn85  1  0.87336932  0.24708642  0.62040719  1
  Zn  Zn86  1  0.66823253  0.81244465  0.31158565  1
  Zn  Zn87  1  0.37499413  0.50536036  0.38699792  1
  Zn  Zn88  1  0.75429995  0.37089231  0.62046840  1
  Zn  Zn89  1  0.25559588  0.25031830  0.51240700  1
  Zn  Zn90  1  0.74838497  0.87552821  0.13807538  1
  Zn  Zn91  1  0.37445297  0.87527023  -0.00200514  1
  Zn  Zn92  1  -0.00517451  0.00060684  0.50177632  1
  Zn  Zn93  1  0.12342915  0.62723530  -0.00515530  1
  Zn  Zn94  1  0.87654079  0.37022101  0.50412541  1
  Zn  Zn95  1  0.63087465  0.74143408  0.87209445  1
  Zn  Zn96  1  0.00452612  0.87597584  0.38304197  1
  Zn  Zn97  1  0.88075188  0.87601788  0.50389627  1
  Zn  Zn98  1  0.38189380  0.49623701  0.88595399  1
  Zn  Zn99  1  0.25813181  0.37066463  0.63894552  1
  Zn  Zn100  1  0.75609322  0.25466349  0.49247693  1
  Zn  Zn101  1  0.25100000  0.00176683  0.25007518  1
  Zn  Zn102  1  0.75338573  0.74033043  -0.00724705  1
  Zn  Zn103  1  0.62924440  0.87845824  0.75289156  1
  Zn  Zn104  1  0.87244854  0.49710592  0.37537816  1
  Zn  Zn105  1  0.49854433  0.25266422  0.25457182  1
  Zn  Zn106  1  0.37680825  0.00090767  0.87526209  1
  Zn  Zn107  1  0.18647259  0.18852913  0.18942298  1
  Zn  Zn108  1  0.18632661  0.19125364  0.68843900  1
  Zn  Zn109  1  0.18962678  0.68474260  0.18583503  1
  Zn  Zn110  1  0.18492707  0.68956452  0.68733957  1
  Zn  Zn111  1  0.68372243  0.18483344  0.18829836  1
  Zn  Zn112  1  0.69174104  0.18637147  0.68441033  1
  Zn  Zn113  1  0.68810990  0.67886412  0.17909715  1
  Zn  Zn114  1  0.68818442  0.69074937  0.68521881  1
  Zn  Zn115  1  0.31347112  0.31477982  0.32100001  1
  Zn  Zn116  1  0.31477805  0.31050966  0.82014137  1
  Zn  Zn117  1  0.31741502  0.81485853  0.30924383  1
  Zn  Zn118  1  0.31599784  0.80920224  0.81167089  1
  Zn  Zn119  1  0.81286304  0.30557349  0.29407114  1
  Zn  Zn120  1  0.81026273  0.31112376  0.81033070  1
  Zn  Zn121  1  0.82872220  0.81128608  0.31223203  1
  Zn  Zn122  1  0.81119196  0.80875577  0.81476524  1
  Zn  Zn123  1  0.18903722  0.43521179  0.44306540  1
  Zn  Zn124  1  0.18903161  0.43737526  0.93798744  1
  Zn  Zn125  1  0.18587529  0.94000754  0.43875002  1
  Zn  Zn126  1  0.18716666  0.93865289  0.93883762  1
  Zn  Zn127  1  0.68763218  0.43920083  0.43734603  1
  Zn  Zn128  1  0.69038809  0.43495807  0.93934357  1
  Zn  Zn129  1  0.69312505  0.94519327  0.44266381  1
  Zn  Zn130  1  0.68660632  0.93389915  0.94003379  1
  Zn  Zn131  1  0.31475085  0.06281091  0.06525204  1
  Zn  Zn132  1  0.30941673  0.06252684  0.56316156  1
  Zn  Zn133  1  0.31295690  0.55821188  0.06092145  1
  Zn  Zn134  1  0.31545320  0.55438018  0.57205791  1
  Zn  Zn135  1  0.80949501  0.06314056  0.06734107  1
  Zn  Zn136  1  0.81256824  0.05870157  0.55793211  1
  Zn  Zn137  1  0.81722920  0.53035588  0.06990064  1
  Zn  Zn138  1  0.81356733  0.56062528  0.56306852  1
  Zn  Zn139  1  0.43811965  0.43628835  0.18993823  1
  Zn  Zn140  1  0.44371279  0.44813583  0.70987329  1
  Zn  Zn141  1  0.43932148  0.94018989  0.18875514  1
  Zn  Zn142  1  0.43843318  0.94202511  0.68791994  1
  Zn  Zn143  1  0.92101895  0.41018888  0.18827736  1
  Zn  Zn144  1  0.94036145  0.43603890  0.68737251  1
  Zn  Zn145  1  0.94040956  0.93378606  0.18759655  1
  Zn  Zn146  1  0.93586265  0.93854426  0.69185512  1
  Zn  Zn147  1  0.05743284  0.06373407  0.31368323  1
  Zn  Zn148  1  0.05932014  0.05967220  0.81572046  1
  Zn  Zn149  1  0.06744334  0.55949824  0.31597623  1
  Zn  Zn150  1  0.06174027  0.56249873  0.81221049  1
  Zn  Zn151  1  0.56297124  0.06521562  0.31381619  1
  Zn  Zn152  1  0.56056182  0.06298854  0.81187904  1
  Zn  Zn153  1  0.55617461  0.56237401  0.31424428  1
  Zn  Zn154  1  0.55673436  0.55846466  0.81228739  1
  Zn  Zn155  1  0.43815549  0.19686427  0.43890024  1
  Zn  Zn156  1  0.44110828  0.18938700  0.93716809  1
  Zn  Zn157  1  0.43682102  0.69118788  0.43712106  1
  Zn  Zn158  1  0.43307933  0.68929519  0.93364518  1
  Zn  Zn159  1  0.93518528  0.18524130  0.43199922  1
  Zn  Zn160  1  0.92816001  0.19315786  0.95262944  1
  Zn  Zn161  1  0.93901216  0.68579011  0.43618340  1
  Zn  Zn162  1  0.93794484  0.68409089  0.93492676  1
  Zn  Zn163  1  0.06349095  0.31401709  0.06270399  1
  Zn  Zn164  1  0.06294176  0.31246159  0.56320277  1
  Zn  Zn165  1  0.06053031  0.81103059  0.06484135  1
  Zn  Zn166  1  0.06505781  0.81077208  0.56171688  1
  Zn  Zn167  1  0.63826697  0.31095944  0.06449865  1
  Zn  Zn168  1  0.56349304  0.31276639  0.56322851  1
  Zn  Zn169  1  0.56476624  0.80721634  0.05878348  1
  Zn  Zn170  1  0.56588000  0.81322228  0.55997793  1
  O  O171  1  0.12000015  0.11773830  0.12213785  1
  O  O172  1  0.13164106  0.11455100  0.61800339  1
  O  O173  1  0.11846663  0.61591482  0.12366299  1
  O  O174  1  0.11696448  0.61871542  0.62174126  1
  O  O175  1  0.61936086  0.11245416  0.11711592  1
  O  O176  1  0.62131972  0.11775711  0.61396355  1
  O  O177  1  0.61359950  0.61639752  0.11307170  1
  O  O178  1  0.61811622  0.62136351  0.61927435  1
  O  O179  1  0.38262568  0.38135833  0.38455896  1
  O  O180  1  0.37340432  0.37199815  0.89621835  1
  O  O181  1  0.38177364  0.88255074  0.37877874  1
  O  O182  1  0.38763828  0.87720769  0.87526797  1
  O  O183  1  0.88921629  0.37125333  0.36748180  1
  O  O184  1  0.88459929  0.38331199  0.86816732  1
  O  O185  1  0.88186646  0.88410896  0.38011691  1
  O  O186  1  0.88068119  0.88175248  0.88241727  1
  O  O187  1  0.25559792  0.00920387  0.37377966  1
  O  O188  1  0.25199001  0.00687210  0.87017273  1
  O  O189  1  0.25041292  0.49546249  0.36312319  1
  O  O190  1  0.25664688  0.51412618  0.87917831  1
  O  O191  1  0.76369749  0.00857907  0.37736459  1
  O  O192  1  0.76124668  0.00324250  0.88020172  1
  O  O193  1  0.75058595  0.51480770  0.37076958  1
  O  O194  1  0.75786896  0.49455198  0.86215044  1
  O  O195  1  0.24429074  0.49054871  0.13071950  1
  O  O196  1  0.23141629  0.49128740  0.62239118  1
  O  O197  1  0.23772598  0.99600755  0.12569879  1
  O  O198  1  0.24355828  0.99133964  0.63368754  1
  O  O199  1  0.73068958  0.51150511  0.14270722  1
  O  O200  1  0.74279563  0.50021962  0.63511906  1
  O  O201  1  0.73279630  0.99703223  0.12256539  1
  O  O202  1  0.74148842  0.98640273  0.61859073  1
  O  O203  1  0.01179914  0.38286531  0.25667819  1
  O  O204  1  0.00740754  0.36504630  0.76056305  1
  O  O205  1  0.01402976  0.86267859  0.24874313  1
  O  O206  1  0.00531618  0.86952036  0.75756499  1
  O  O207  1  0.50312973  0.37333519  0.26102750  1
  O  O208  1  0.50977738  0.35601552  0.73805338  1
  O  O209  1  0.49411497  0.86455443  0.25851388  1
  O  O210  1  0.50072464  0.86948998  0.75534484  1
  O  O211  1  0.49283618  0.12841680  0.24569867  1
  O  O212  1  0.49301250  0.13004456  0.74045648  1
  O  O213  1  0.48970704  0.63254956  0.24131527  1
  O  O214  1  0.49137785  0.63606076  0.73910187  1
  O  O215  1  1.00380860  0.12715482  0.23603432  1
  O  O216  1  0.98948460  0.13441682  0.76221540  1
  O  O217  1  0.99930753  0.62640860  0.24494093  1
  O  O218  1  0.99782008  0.63390484  0.74328574  1
  O  O219  1  0.36526724  0.25471723  -0.00010250  1
  O  O220  1  0.37406516  0.26976566  0.49966252  1
  O  O221  1  0.36676275  0.75094226  0.01048909  1
  O  O222  1  0.37717196  0.75816224  0.51168456  1
  O  O223  1  0.86676195  0.26554541  0.01832529  1
  O  O224  1  0.87727697  0.25026087  0.50232854  1
  O  O225  1  0.87914795  0.75405801  0.00780248  1
  O  O226  1  0.86268097  0.74994691  0.49584007  1
  O  O227  1  0.12751573  0.24362429  0.49403717  1
  O  O228  1  0.13326274  0.24541123  0.99635942  1
  O  O229  1  0.12460057  0.73949376  0.49053547  1
  O  O230  1  0.13785481  0.74780967  1.00670660  1
  O  O231  1  0.62462640  0.23469213  0.49970254  1
  O  O232  1  0.61347379  0.23269864  0.98612002  1
  O  O233  1  0.63678759  0.73862970  0.50412463  1
  O  O234  1  0.62734952  0.72890277  1.00109859  1
  O  O235  1  0.51152304  0.23441887  0.12966109  1
  O  O236  1  0.50703239  0.23477163  0.63047828  1
  O  O237  1  0.49059634  0.74450861  0.12859673  1
  O  O238  1  0.49400143  0.74688220  0.62921934  1
  O  O239  1  1.00436609  0.23809033  0.12174648  1
  O  O240  1  1.00165894  0.24887990  0.64037222  1
  O  O241  1  0.99452068  0.74069286  0.13359957  1
  O  O242  1  1.00570636  0.74090894  0.63433517  1
  O  O243  1  0.01305824  0.25612597  0.37577002  1
  O  O244  1  0.00059821  0.25718618  0.87829752  1
  O  O245  1  0.00649098  0.74852378  0.36216390  1
  O  O246  1  -0.00260915  0.76261499  0.86953104  1
  O  O247  1  0.49691872  0.27015436  0.37289140  1
  O  O248  1  0.51425168  0.23886678  0.86109451  1
  O  O249  1  0.49437811  0.76000944  0.36305135  1
  O  O250  1  0.50086391  0.75644320  0.86547295  1
  O  O251  1  0.24332348  0.12595392  0.48982124  1
  O  O252  1  0.24587236  0.13170289  0.99951961  1
  O  O253  1  0.23863036  0.61872581  0.50986434  1
  O  O254  1  0.25069071  0.63090792  0.98837546  1
  O  O255  1  0.74001617  0.12563883  0.49272062  1
  O  O256  1  0.73892943  0.11774053  0.99003967  1
  O  O257  1  0.74586534  0.63154364  0.49436254  1
  O  O258  1  0.73769368  0.61360506  1.00324563  1
  O  O259  1  0.24975321  0.36652471  0.01045066  1
  O  O260  1  0.26389735  0.37447324  0.50507470  1
  O  O261  1  0.25200791  0.86763077  0.00405114  1
  O  O262  1  0.25570320  0.88176820  0.51193662  1
  O  O263  1  0.73426165  0.36759520  0.01896274  1
  O  O264  1  0.75574990  0.37441297  0.49861220  1
  O  O265  1  0.76261545  0.87248116  0.00572606  1
  O  O266  1  0.75083116  0.86716400  0.50816055  1
  O  O267  1  0.13309968  0.49138157  0.24517760  1
  O  O268  1  0.11700757  0.48890649  0.74348458  1
  O  O269  1  0.12507026  0.99130507  0.24519991  1
  O  O270  1  0.12910482  0.99172324  0.74596880  1
  O  O271  1  0.62625127  0.49790593  0.24604659  1
  O  O272  1  0.63295817  0.49439783  0.74390178  1
  O  O273  1  0.61692549  0.99772975  0.23642639  1
  O  O274  1  0.61917733  1.00078741  0.73431645  1
  O  O275  1  0.37351448  0.01074521  0.25827568  1
  O  O276  1  0.36931917  0.01249115  0.75144838  1
  O  O277  1  0.36590803  0.50830860  0.24907694  1
  O  O278  1  0.35177012  0.52282042  0.71845130  1
  O  O279  1  0.87824977  -0.00893934  0.26325643  1
  O  O280  1  0.88281252  0.00895625  0.76538777  1
  O  O281  1  0.86198245  0.50101098  0.25139318  1
  O  O282  1  0.87044551  0.50708308  0.75523969  1
  O  O283  1  0.11901335  0.36914603  0.37004682  1
  O  O284  1  0.11477939  0.37051180  0.87265322  1
  O  O285  1  0.12621657  0.86717860  0.36788383  1
  O  O286  1  0.11501766  0.88202123  0.86742609  1
  O  O287  1  0.60890456  0.38458700  0.37230533  1
  O  O288  1  0.62778051  0.36696590  0.86227137  1
  O  O289  1  0.61147093  0.88022881  0.38391774  1
  O  O290  1  0.61338530  0.87390249  0.87261739  1
  O  O291  1  0.38546508  0.11956176  0.13594169  1
  O  O292  1  0.38388241  0.12035430  0.63218442  1
  O  O293  1  0.37834647  0.63136991  0.12939096  1
  O  O294  1  0.38251847  0.63659178  0.62341664  1
  O  O295  1  0.88869210  0.12198559  0.12238484  1
  O  O296  1  0.86979791  0.11937645  0.64063021  1
  O  O297  1  0.88256612  0.62465493  0.12934892  1
  O  O298  1  0.88911112  0.61901164  0.63425098  1
  O  O299  1  0.24472461  0.25875394  0.11747774  1
  O  O300  1  0.24646700  0.25828586  0.62598986  1
  O  O301  1  0.25679288  0.75364763  0.11800064  1
  O  O302  1  0.25770192  0.76330587  0.63184673  1
  O  O303  1  0.73017294  0.25551234  0.11502588  1
  O  O304  1  0.75289242  0.25143688  0.61756459  1
  O  O305  1  0.76505736  0.74280990  0.11820194  1
  O  O306  1  0.74735872  0.76486636  0.61730686  1
  O  O307  1  0.23941809  0.24389613  0.37987555  1
  O  O308  1  0.24271435  0.24272052  0.88590556  1
  O  O309  1  0.24295456  0.75162843  0.36999137  1
  O  O310  1  0.25844385  0.74060765  0.88548976  1
  O  O311  1  0.76241714  0.23246621  0.36982123  1
  O  O312  1  0.73694732  0.24140075  0.87109741  1
  O  O313  1  0.74708231  0.74220576  0.37976519  1
  O  O314  1  0.74453541  0.75029639  0.87988476  1
  O  O315  1  0.00483180  0.12007014  0.00714140  1
  O  O316  1  0.01427188  0.12324420  0.49571152  1
  O  O317  1  0.00413356  0.61543739  0.00344366  1
  O  O318  1  0.00593901  0.61937589  0.50688268  1
  O  O319  1  0.50478847  0.11655375  0.00655278  1
  O  O320  1  0.50757009  0.12245374  0.50239377  1
  O  O321  1  0.49715983  0.62732309  0.00924850  1
  O  O322  1  0.50844910  0.63341070  0.50794552  1
  O  O323  1  0.49250039  0.37513736  0.49560004  1
  O  O324  1  0.49024505  0.36415766  1.00820650  1
  O  O325  1  0.49323694  0.87987084  0.49358705  1
  O  O326  1  0.49903583  0.88001024  0.99255681  1
  O  O327  1  1.00234429  0.38302779  0.49002807  1
  O  O328  1  1.00427854  0.38682586  0.99203655  1
  O  O329  1  1.00022014  0.87853623  0.50054221  1
  O  O330  1  0.99195223  0.87809880  0.99559282  1
  O  O331  1  0.49252234  0.48602790  0.37124563  1
  O  O332  1  0.47013780  0.49093625  0.81720446  1
  O  O333  1  0.49405847  0.99484747  0.37939890  1
  O  O334  1  0.49924938  0.99359926  0.88299108  1
  O  O335  1  0.99998193  0.49167219  0.38254105  1
  O  O336  1  0.99485904  0.49198706  0.87865660  1
  O  O337  1  0.98881249  0.99874441  0.37664653  1
  O  O338  1  0.99151483  0.99000345  0.88417949  1
  O  O339  1  0.00996300  0.00291703  0.12168618  1
  O  O340  1  0.01290172  -0.00242052  0.62843874  1
  O  O341  1  0.00564430  0.50112900  0.11548746  1
  O  O342  1  0.00824845  0.50686643  0.61793472  1
  O  O343  1  0.50845767  0.00429524  0.11848913  1
  O  O344  1  0.50571830  0.00957599  0.61783163  1
  O  O345  1  0.50463218  0.51180605  0.13263538  1
  O  O346  1  0.50998641  0.51526194  0.63164722  1
  O  O347  1  0.24644789  0.38069301  0.24427686  1
  O  O348  1  0.23465139  0.36980459  0.75962033  1
  O  O349  1  0.24008547  0.87612846  0.24287304  1
  O  O350  1  0.24334294  0.87885572  0.74758596  1
  O  O351  1  0.73317064  0.39069512  0.27038454  1
  O  O352  1  0.74170503  0.38278260  0.74630273  1
  O  O353  1  0.74880760  0.85606216  0.24895184  1
  O  O354  1  0.74854376  0.87143371  0.73648167  1
  O  O355  1  0.25466305  0.12430418  0.26118174  1
  O  O356  1  0.25608594  0.12173012  0.75619127  1
  O  O357  1  0.25948229  0.61368501  0.24277836  1
  O  O358  1  0.25549225  0.63843727  0.76443127  1
  O  O359  1  0.74373623  0.12040204  0.26055402  1
  O  O360  1  0.75870562  0.12562147  0.76341566  1
  O  O361  1  0.75251330  0.62078976  0.25813221  1
  O  O362  1  0.76007819  0.61865622  0.74217475  1
  O  O363  1  0.36824066  0.12289583  0.37259225  1
  O  O364  1  0.36816994  0.12419736  0.86852314  1
  O  O365  1  0.37849466  0.62478032  0.36225171  1
  O  O366  1  0.36734688  0.62157100  0.86514986  1
  O  O367  1  0.86577251  0.11291862  0.37138900  1
  O  O368  1  0.86718702  0.11965105  0.87829226  1
  O  O369  1  0.86678995  0.62360112  0.36668826  1
  O  O370  1  0.88326620  0.61791343  0.85658018  1
  O  O371  1  0.13270826  0.37944861  0.13307851  1
  O  O372  1  0.11914269  0.38176855  0.63821787  1
  O  O373  1  0.12831721  0.88168684  0.13174552  1
  O  O374  1  0.13292426  0.88111855  0.63310512  1
  O  O375  1  0.61066047  0.38943310  0.14266338  1
  O  O376  1  0.62514752  0.38494926  0.63267502  1
  O  O377  1  0.62443413  0.88658394  0.11870719  1
  O  O378  1  0.63266547  0.88354652  0.62549261  1
  O  O379  1  0.13160603  0.26339051  0.25891116  1
  O  O380  1  0.11496118  0.25232109  0.76258503  1
  O  O381  1  0.12266928  0.75310439  0.25502053  1
  O  O382  1  0.11575544  0.76326788  0.74818377  1
  O  O383  1  0.62497194  0.26514737  0.25227643  1
  O  O384  1  0.62113972  0.25531029  0.75308814  1
  O  O385  1  0.60993437  0.73983091  0.24234392  1
  O  O386  1  0.61154334  0.75055859  0.74941226  1
  O  O387  1  0.37279419  0.23835493  0.25477038  1
  O  O388  1  0.38286519  0.23897902  0.75614306  1
  O  O389  1  0.37876725  0.74325277  0.23851476  1
  O  O390  1  0.38381581  0.74572141  0.73774133  1
  O  O391  1  0.85607371  0.30907932  0.18879265  1
  O  O392  1  0.88269374  0.23946211  0.75208651  1
  O  O393  1  0.88788083  0.73810394  0.24219808  1
  O  O394  1  0.88769811  0.74486462  0.75110266  1
  O  O395  1  0.37377766  0.48649524  0.50169943  1
  O  O396  1  0.37930122  0.48322054  1.00363001  1
  O  O397  1  0.38111385  0.99670816  0.49380333  1
  O  O398  1  0.38766368  0.99797852  1.00068190  1
  O  O399  1  0.88900697  0.49994919  0.49692783  1
  O  O400  1  0.88564770  0.51588322  0.97818801  1
  O  O401  1  0.87792765  0.99778205  0.48894679  1
  O  O402  1  0.87925471  0.99109145  0.99767549  1
  O  O403  1  0.11910135  0.00541780  0.00905393  1
  O  O404  1  0.12457683  0.00811189  0.51063465  1
  O  O405  1  0.11773494  0.50134504  0.00556362  1
  O  O406  1  0.11561601  0.50545257  0.50526996  1
  O  O407  1  0.61443022  0.00561009  0.00213762  1
  O  O408  1  0.61861924  0.00949710  0.50834772  1
  O  O409  1  0.62280951  0.50588843  0.00918346  1
  O  O410  1  0.63150693  0.51303532  0.51328665  1
  O  O411  1  0.36554990  0.37503058  0.11875831  1
  O  O412  1  0.38026416  0.38381323  0.62049337  1
  O  O413  1  0.36785290  0.86774512  0.12526376  1
  O  O414  1  0.36820827  0.87204403  0.62172133  1
  O  O415  1  0.85950983  0.41818470  0.09180948  1
  O  O416  1  0.87530221  0.37059259  0.62473249  1
  O  O417  1  0.87775158  0.86243802  0.11838879  1
  O  O418  1  0.86168271  0.88097208  0.62496526  1
  O  O419  1  0.13124789  0.13159939  0.37971380  1
  O  O420  1  0.13032292  0.12782371  0.88367816  1
  O  O421  1  0.12504038  0.63238331  0.38562494  1
  O  O422  1  0.13948168  0.62271797  0.87414990  1
  O  O423  1  0.63811477  0.11616602  0.38586354  1
  O  O424  1  0.63290400  0.12621275  0.87859281  1
  O  O425  1  0.63052667  0.62167960  0.38443311  1
  O  O426  1  0.61447844  0.61784888  0.89092578  1
