# generated using pymatgen
data_V85Zn86O256
_symmetry_space_group_name_H-M   'P 1'
_cell_length_a   16.93318990
_cell_length_b   16.93383204
_cell_length_c   16.92846554
_cell_angle_alpha   90.00903474
_cell_angle_beta   89.95106904
_cell_angle_gamma   90.06066872
_symmetry_Int_Tables_number   1
_chemical_formula_structural   V85Zn86O256
_chemical_formula_sum   'V85 Zn86 O256'
_cell_volume   4854.12787905
_cell_formula_units_Z   1
loop_
 _symmetry_equiv_pos_site_id
 _symmetry_equiv_pos_as_xyz
  1  'x, y, z'
loop_
 _atom_site_type_symbol
 _atom_site_label
 _atom_site_symmetry_multiplicity
 _atom_site_fract_x
 _atom_site_fract_y
 _atom_site_fract_z
 _atom_site_occupancy
  V  V0  1  0.62455190  0.74816332  0.37635719  1
  V  V1  1  0.87103344  0.75163843  0.11685510  1
  V  V2  1  -0.00116907  0.12311568  0.61771013  1
  V  V3  1  0.49930386  0.87217548  0.37382026  1
  V  V4  1  0.62423877  0.00145657  0.12931098  1
  V  V5  1  0.00347020  0.62909998  0.11693833  1
  V  V6  1  0.37719541  0.51331636  0.87557428  1
  V  V7  1  0.86846748  0.87377151  -0.00791742  1
  V  V8  1  0.12578452  0.87916654  0.75033969  1
  V  V9  1  0.75331688  0.75542188  0.49899991  1
  V  V10  1  0.50010668  0.37761098  0.87532323  1
  V  V11  1  0.86947456  -0.00922688  0.37245429  1
  V  V12  1  0.37389657  0.12460589  0.75784704  1
  V  V13  1  0.63308804  0.37388293  0.74514772  1
  V  V14  1  0.62457372  0.12420821  0.49924282  1
  V  V15  1  0.00597579  0.75155886  0.75138370  1
  V  V16  1  0.74802264  0.25570298  0.00459336  1
  V  V17  1  0.00462369  0.24879614  0.74691050  1
  V  V18  1  -0.00322373  0.50132179  0.49703634  1
  V  V19  1  0.75031099  -0.00284047  0.75407296  1
  V  V20  1  0.61752831  0.87041472  0.74932265  1
  V  V21  1  0.13199546  0.24828585  0.88931546  1
  V  V22  1  0.12643072  0.49981559  0.62414278  1
  V  V23  1  0.87630143  0.75964938  0.62032196  1
  V  V24  1  0.93678628  0.04239608  0.93595501  1
  V  V25  1  0.36397904  0.74872497  0.11860790  1
  V  V26  1  0.37393328  0.37112169  -0.00063063  1
  V  V27  1  0.24637557  0.86962207  0.62653395  1
  V  V28  1  -0.00971356  -0.00539697  0.50293527  1
  V  V29  1  -0.00086662  0.87421190  0.37424608  1
  V  V30  1  0.87578220  0.38290760  0.00196141  1
  V  V31  1  0.12790863  0.50255281  0.12057299  1
  V  V32  1  0.49084673  0.37106707  0.37433579  1
  V  V33  1  0.00150325  0.37403165  0.87319510  1
  V  V34  1  0.50061616  -0.00350848  0.50013547  1
  V  V35  1  0.43510962  0.68818574  0.69134882  1
  V  V36  1  0.63084561  0.87927328  0.25167281  1
  V  V37  1  0.11973044  -0.00009174  0.10939809  1
  V  V38  1  0.38380030  0.25036312  0.12878023  1
  V  V39  1  0.62976315  0.37942749  0.25237833  1
  V  V40  1  0.49131385  -0.00343305  -0.00621518  1
  V  V41  1  0.00116396  0.75302542  0.24811229  1
  V  V42  1  0.50283549  0.74332115  0.23853395  1
  V  V43  1  0.62250926  0.24976047  0.36843539  1
  V  V44  1  0.75228234  0.12191901  0.87853003  1
  V  V45  1  0.37599084  0.86587001  0.50301412  1
  V  V46  1  0.61832225  0.62598762  0.50816456  1
  V  V47  1  0.87405997  0.12027748  0.24784799  1
  V  V48  1  0.12681576  0.75102047  0.37003045  1
  V  V49  1  0.25533867  0.37398131  0.61220951  1
  V  V50  1  0.75032101  0.87580167  0.12344671  1
  V  V51  1  0.00269283  0.87289711  0.88069129  1
  V  V52  1  0.12481525  0.37181577  0.25061209  1
  V  V53  1  0.23847587  -0.01173791  0.24756281  1
  V  V54  1  -0.00372391  0.37332790  0.37594917  1
  V  V55  1  0.63284335  0.63070324  0.00375150  1
  V  V56  1  0.00144030  0.24535618  0.24886204  1
  V  V57  1  0.74926866  0.12013261  0.37039862  1
  V  V58  1  0.01582744  0.51526682  -0.01696621  1
  V  V59  1  0.87064443  0.62702565  0.74807509  1
  V  V60  1  0.49149343  0.49771370  0.50286981  1
  V  V61  1  0.86957971  0.50339338  0.87148745  1
  V  V62  1  0.62290790  0.12483733  0.00238621  1
  V  V63  1  0.25100148  -0.00005752  0.76154939  1
  V  V64  1  0.49996575  0.12598742  0.62622795  1
  V  V65  1  0.25763310  0.50396324  0.74983471  1
  V  V66  1  0.74841947  0.61708292  0.37290792  1
  V  V67  1  0.63095860  0.50577138  0.13070350  1
  V  V68  1  0.25045929  0.12763891  0.88977750  1
  V  V69  1  0.62423774  0.25149894  0.87627963  1
  V  V70  1  0.75153103  0.25499620  0.50431709  1
  V  V71  1  0.25277052  0.50223304  0.24950342  1
  V  V72  1  0.49813634  0.25159223  0.74992736  1
  V  V73  1  0.00066274  0.62737676  0.62113496  1
  V  V74  1  0.87100639  0.61890979  0.24782671  1
  V  V75  1  0.37335390  0.25483862  0.61359421  1
  V  V76  1  0.62831407  0.49693097  0.62414791  1
  V  V77  1  0.62601681  0.75057763  0.87723325  1
  V  V78  1  0.25043637  0.36641392  0.12310146  1
  V  V79  1  0.50197044  0.50714879  0.00829282  1
  V  V80  1  0.87805578  0.11793574  0.75102376  1
  V  V81  1  0.12953733  0.24330720  0.38992615  1
  V  V82  1  0.37376619  0.12643447  0.25342254  1
  V  V83  1  0.24994510  0.74659401  0.50116890  1
  V  V84  1  0.17202176  0.05496767  0.56455972  1
  Zn  Zn85  1  0.24584110  0.12321611  0.38077141  1
  Zn  Zn86  1  0.36160895  0.87483960  -0.00074299  1
  Zn  Zn87  1  0.75213342  0.87975751  0.62208621  1
  Zn  Zn88  1  0.87067987  0.49637730  0.36967178  1
  Zn  Zn89  1  0.12582559  0.62567075  0.49652967  1
  Zn  Zn90  1  0.38372221  0.62018478  0.24769323  1
  Zn  Zn91  1  0.87024312  0.25428661  0.62982228  1
  Zn  Zn92  1  0.75457536  0.38077186  0.13542195  1
  Zn  Zn93  1  0.75499320  0.63484253  0.87820400  1
  Zn  Zn94  1  0.62623463  -0.00110118  0.62614325  1
  Zn  Zn95  1  0.37019219  -0.00235131  0.37083308  1
  Zn  Zn96  1  0.86823559  0.38147883  0.50954284  1
  Zn  Zn97  1  0.87588809  0.25163038  0.12732658  1
  Zn  Zn98  1  0.75335290  0.49529245  0.74079858  1
  Zn  Zn99  1  0.12995257  0.37174797  0.74932703  1
  Zn  Zn100  1  0.22011768  0.61835567  0.88816377  1
  Zn  Zn101  1  0.48527646  0.86917241  0.86826648  1
  Zn  Zn102  1  0.25205476  0.62452089  0.37155884  1
  Zn  Zn103  1  0.22612551  0.74719340  -0.00903002  1
  Zn  Zn104  1  0.00780212  0.12714594  0.10950643  1
  Zn  Zn105  1  0.50069564  0.12619128  0.13105823  1
  Zn  Zn106  1  0.37072774  0.49919229  0.37772880  1
  Zn  Zn107  1  0.18854484  0.18119326  0.18712109  1
  Zn  Zn108  1  0.19275222  0.19276428  0.69250778  1
  Zn  Zn109  1  0.18506768  0.68826649  0.18213627  1
  Zn  Zn110  1  0.19196956  0.68739080  0.69103607  1
  Zn  Zn111  1  0.68831735  0.18958698  0.18921230  1
  Zn  Zn112  1  0.68633047  0.18445828  0.68838502  1
  Zn  Zn113  1  0.68771079  0.68882421  0.18702488  1
  Zn  Zn114  1  0.68616295  0.68969134  0.68651106  1
  Zn  Zn115  1  0.30853922  0.30893777  0.31177831  1
  Zn  Zn116  1  0.31248591  0.31702939  0.80902029  1
  Zn  Zn117  1  0.31668533  0.81070644  0.30968486  1
  Zn  Zn118  1  0.31147418  0.79297309  0.83168279  1
  Zn  Zn119  1  0.81222732  0.30911814  0.31585568  1
  Zn  Zn120  1  0.81413316  0.30989778  0.81440152  1
  Zn  Zn121  1  0.81248699  0.80828259  0.30903105  1
  Zn  Zn122  1  0.81177606  0.81205083  0.81245369  1
  Zn  Zn123  1  0.18365255  0.43589953  0.43587603  1
  Zn  Zn124  1  0.19298810  0.43438661  0.93586220  1
  Zn  Zn125  1  0.18936968  0.93012664  0.42600041  1
  Zn  Zn126  1  0.19143262  0.93000739  0.93827502  1
  Zn  Zn127  1  0.68256119  0.43732250  0.43866996  1
  Zn  Zn128  1  0.68689496  0.44112603  0.93771856  1
  Zn  Zn129  1  0.68716870  0.93723536  0.43763320  1
  Zn  Zn130  1  0.68431356  0.93676913  0.93710768  1
  Zn  Zn131  1  0.30873228  0.05931206  0.07253739  1
  Zn  Zn132  1  0.33418166  0.05761937  0.56752696  1
  Zn  Zn133  1  0.31491282  0.57141718  0.06299368  1
  Zn  Zn134  1  0.31548471  0.56708592  0.56502520  1
  Zn  Zn135  1  0.80540618  0.06308363  0.07191877  1
  Zn  Zn136  1  0.81274490  0.06474795  0.56263758  1
  Zn  Zn137  1  0.81257680  0.56301137  0.06141179  1
  Zn  Zn138  1  0.81046292  0.56699423  0.56063419  1
  Zn  Zn139  1  0.44216373  0.43570180  0.19008979  1
  Zn  Zn140  1  0.43985148  0.44261588  0.68733785  1
  Zn  Zn141  1  0.43524636  0.93576219  0.18525379  1
  Zn  Zn142  1  0.43145432  0.93384080  0.68806109  1
  Zn  Zn143  1  0.94278753  0.44105675  0.18434027  1
  Zn  Zn144  1  0.93628984  0.43441104  0.68429778  1
  Zn  Zn145  1  0.94531059  0.94062724  0.18488518  1
  Zn  Zn146  1  0.93889855  0.93887954  0.68898466  1
  Zn  Zn147  1  0.06119227  0.06362154  0.31493213  1
  Zn  Zn148  1  0.07404075  0.06522385  0.80776336  1
  Zn  Zn149  1  0.06323317  0.56476802  0.30786732  1
  Zn  Zn150  1  0.05787945  0.55802910  0.80113470  1
  Zn  Zn151  1  0.55814091  0.06168583  0.31206206  1
  Zn  Zn152  1  0.56437048  0.06094799  0.81407373  1
  Zn  Zn153  1  0.56269011  0.55916136  0.31701071  1
  Zn  Zn154  1  0.56264925  0.56628023  0.81256208  1
  Zn  Zn155  1  0.43719354  0.18610575  0.43355058  1
  Zn  Zn156  1  0.43734991  0.18687976  0.94167213  1
  Zn  Zn157  1  0.43602055  0.68328009  0.43309423  1
  Zn  Zn158  1  0.44555379  0.69022659  0.93748842  1
  Zn  Zn159  1  0.93587778  0.18476379  0.43589935  1
  Zn  Zn160  1  0.93435004  0.20613672  0.93460436  1
  Zn  Zn161  1  0.93517249  0.68678516  0.43577434  1
  Zn  Zn162  1  1.06187685  0.69168692  0.93553474  1
  Zn  Zn163  1  0.05938414  0.31653116  0.06383825  1
  Zn  Zn164  1  0.05998271  0.31649589  0.56409474  1
  Zn  Zn165  1  0.06378998  0.82881762  0.06780201  1
  Zn  Zn166  1  0.06520646  0.81648297  0.55983597  1
  Zn  Zn167  1  0.56186563  0.31837845  0.06628660  1
  Zn  Zn168  1  0.56237443  0.31396072  0.55977720  1
  Zn  Zn169  1  0.56320813  0.81460834  0.05921202  1
  Zn  Zn170  1  0.56177916  0.80849685  0.56984340  1
  O  O171  1  0.12288004  0.11227101  0.12729306  1
  O  O172  1  0.12120949  0.12336567  0.62419839  1
  O  O173  1  0.11423421  0.61364408  0.13059283  1
  O  O174  1  0.11924034  0.61659474  0.62175409  1
  O  O175  1  0.62455286  0.11833300  0.12332801  1
  O  O176  1  0.61604429  0.12243575  0.61953370  1
  O  O177  1  0.62887429  0.61858912  0.11834337  1
  O  O178  1  0.62829987  0.61932556  0.61368331  1
  O  O179  1  0.38803217  0.37215763  0.37003903  1
  O  O180  1  0.38068338  0.37936915  0.88398867  1
  O  O181  1  0.38426942  0.87519778  0.38218799  1
  O  O182  1  0.37409967  0.87055459  0.88295153  1
  O  O183  1  0.88601246  0.37664052  0.37700117  1
  O  O184  1  0.87901463  0.37892278  0.88418954  1
  O  O185  1  0.87601478  0.88501243  0.37171073  1
  O  O186  1  0.88071727  0.87290404  0.88434643  1
  O  O187  1  0.25123650  0.00373709  0.36587753  1
  O  O188  1  0.24327203  0.01067062  0.86661797  1
  O  O189  1  0.24872141  0.49793183  0.36531998  1
  O  O190  1  0.25972758  0.50029787  0.86844366  1
  O  O191  1  0.75732183  0.00731347  0.37959116  1
  O  O192  1  0.74502709  0.00765181  0.86356010  1
  O  O193  1  0.75110720  0.51287280  0.38250272  1
  O  O194  1  0.76161675  0.49917876  0.86958483  1
  O  O195  1  0.24494179  0.49105182  0.13040234  1
  O  O196  1  0.24545390  0.49268428  0.62801917  1
  O  O197  1  0.23583759  1.00228290  0.13835768  1
  O  O198  1  0.24049306  0.99862752  0.62275220  1
  O  O199  1  0.73687922  0.49717829  0.12119554  1
  O  O200  1  0.73555470  0.50236669  0.62156771  1
  O  O201  1  0.73595656  0.98909397  0.12589897  1
  O  O202  1  0.75015473  1.00205651  0.63753371  1
  O  O203  1  0.00238744  0.36559682  0.25531707  1
  O  O204  1  0.00218616  0.36398677  0.75472338  1
  O  O205  1  -0.00995196  0.86646065  0.26432885  1
  O  O206  1  0.00505015  0.87048374  0.75534370  1
  O  O207  1  0.51221770  0.37756759  0.26601370  1
  O  O208  1  0.50904575  0.37037890  0.75657293  1
  O  O209  1  0.51002283  0.86738985  0.25526110  1
  O  O210  1  0.51428124  0.88724049  0.75148435  1
  O  O211  1  0.48088925  0.11853469  0.24960219  1
  O  O212  1  0.49354901  0.12890597  0.74708497  1
  O  O213  1  0.50636598  0.64081773  0.25662180  1
  O  O214  1  0.49836591  0.62824346  0.74569655  1
  O  O215  1  0.99109847  0.13617325  0.25615072  1
  O  O216  1  0.99690605  0.12690998  0.73998476  1
  O  O217  1  0.99162018  0.63163018  0.23978597  1
  O  O218  1  0.99160187  0.63366082  0.74162283  1
  O  O219  1  0.38111676  0.26361664  0.00900289  1
  O  O220  1  0.37803576  0.24239457  0.51465536  1
  O  O221  1  0.38346471  0.74681583  0.01520588  1
  O  O222  1  0.36746633  0.75969383  0.49295321  1
  O  O223  1  0.86619619  0.26393453  0.00361186  1
  O  O224  1  0.85865909  0.24692844  0.49682695  1
  O  O225  1  0.87416491  0.76202849  0.01492744  1
  O  O226  1  0.86603469  0.74446556  0.50820308  1
  O  O227  1  0.11927446  0.25337168  0.48785844  1
  O  O228  1  0.12091303  0.25365189  0.98779019  1
  O  O229  1  0.13307351  0.74959256  0.49042742  1
  O  O230  1  0.11236745  0.74595236  1.01673279  1
  O  O231  1  0.63294479  0.24396965  0.49117069  1
  O  O232  1  0.63056682  0.24751840  0.99824984  1
  O  O233  1  0.62883229  0.74254881  0.49645089  1
  O  O234  1  0.62403351  0.74086202  0.99468812  1
  O  O235  1  0.48815975  0.25062538  0.12570336  1
  O  O236  1  0.49453458  0.24634821  0.62994388  1
  O  O237  1  0.50762020  0.74956562  0.13801995  1
  O  O238  1  0.48922770  0.74348955  0.62307654  1
  O  O239  1  0.99776427  0.24553035  0.13294405  1
  O  O240  1  1.00109763  0.24145499  0.63187187  1
  O  O241  1  0.99027351  0.74720887  0.13320774  1
  O  O242  1  0.99401345  0.74767334  0.62671828  1
  O  O243  1  0.00522213  0.25569645  0.37020821  1
  O  O244  1  0.01252587  0.25419136  0.86726710  1
  O  O245  1  0.00283230  0.75544428  0.36955850  1
  O  O246  1  0.00082075  0.76053868  0.86296565  1
  O  O247  1  0.50829918  0.26130882  0.38237593  1
  O  O248  1  0.50554200  0.25629828  0.87112747  1
  O  O249  1  0.50678724  0.75679773  0.36933855  1
  O  O250  1  0.51814886  0.75448080  0.87719020  1
  O  O251  1  0.23983746  0.10702294  0.50928685  1
  O  O252  1  0.26279700  0.12329382  0.98820949  1
  O  O253  1  0.24926846  0.63668207  0.49770412  1
  O  O254  1  0.24872722  0.63177095  0.99890282  1
  O  O255  1  0.74377611  0.12977639  0.48963036  1
  O  O256  1  0.74452560  0.13347444  0.99794995  1
  O  O257  1  0.74207218  0.63560941  0.49227127  1
  O  O258  1  0.73778232  0.61944400  0.99575192  1
  O  O259  1  0.26319748  0.37935299  0.01016887  1
  O  O260  1  0.25055776  0.38100012  0.51326217  1
  O  O261  1  0.24819849  0.86041898  0.00005914  1
  O  O262  1  0.25491894  0.86618267  0.50392642  1
  O  O263  1  0.75732274  0.37055274  0.00015815  1
  O  O264  1  0.74924586  0.35854053  0.49175021  1
  O  O265  1  0.75755768  0.87997739  0.00875426  1
  O  O266  1  0.74337735  0.86027731  0.50184137  1
  O  O267  1  0.12788841  0.49121157  0.23980368  1
  O  O268  1  0.12688453  0.49345505  0.73436875  1
  O  O269  1  0.13707063  1.00347798  0.25633979  1
  O  O270  1  0.13723697  0.99275609  0.74533953  1
  O  O271  1  0.62259834  0.49338564  0.24326386  1
  O  O272  1  0.62697237  0.49171484  0.74233301  1
  O  O273  1  0.61894991  0.99111551  0.24312489  1
  O  O274  1  0.63328619  0.99277959  0.74874399  1
  O  O275  1  0.36583377  0.00832235  0.24689604  1
  O  O276  1  0.36149100  0.01133658  0.74116737  1
  O  O277  1  0.36616845  0.49864916  0.24949839  1
  O  O278  1  0.36876863  0.49347342  0.76252928  1
  O  O279  1  0.88037911  0.00907314  0.25913777  1
  O  O280  1  0.86926310  0.01079506  0.74838618  1
  O  O281  1  0.87996621  0.51416907  0.24876685  1
  O  O282  1  0.87415183  0.50807961  0.75210022  1
  O  O283  1  0.11379999  0.36610002  0.37040492  1
  O  O284  1  0.12275894  0.36458737  0.87210842  1
  O  O285  1  0.11369498  0.86050627  0.37460897  1
  O  O286  1  0.11503671  0.88128720  0.85977605  1
  O  O287  1  0.61870812  0.36771005  0.37086858  1
  O  O288  1  0.61955156  0.37030231  0.86991043  1
  O  O289  1  0.61991284  0.87010920  0.36879663  1
  O  O290  1  0.62325009  0.87094954  0.86376734  1
  O  O291  1  0.37427358  0.13427377  0.13432113  1
  O  O292  1  0.38035536  0.13478687  0.63710238  1
  O  O293  1  0.37955674  0.64019410  0.13278215  1
  O  O294  1  0.36858323  0.62765321  0.64124306  1
  O  O295  1  0.87366096  0.12692804  0.13878508  1
  O  O296  1  0.88282990  0.13105484  0.63401456  1
  O  O297  1  0.87667825  0.63371682  0.12997015  1
  O  O298  1  0.88127130  0.63322479  0.62980502  1
  O  O299  1  0.25820654  0.26209821  0.13170598  1
  O  O300  1  0.25713533  0.26527828  0.62946595  1
  O  O301  1  0.26312817  0.75110713  0.13015600  1
  O  O302  1  0.24400577  0.75813616  0.61466036  1
  O  O303  1  0.75160781  0.25524153  0.11485992  1
  O  O304  1  0.74790182  0.23991147  0.60756070  1
  O  O305  1  0.75714139  0.76535527  0.13208281  1
  O  O306  1  0.75908428  0.75045787  0.61682641  1
  O  O307  1  0.23417508  0.24837698  0.37624644  1
  O  O308  1  0.23847051  0.24601299  0.87025374  1
  O  O309  1  0.24176662  0.75092887  0.37862612  1
  O  O310  1  0.22774882  0.73288442  0.87078043  1
  O  O311  1  0.74245121  0.24041293  0.38359286  1
  O  O312  1  0.74682874  0.24422610  0.88753508  1
  O  O313  1  0.74451137  0.74271839  0.38093868  1
  O  O314  1  0.73560387  0.75056176  0.87024928  1
  O  O315  1  -0.01653680  0.11858713  -0.00833729  1
  O  O316  1  -0.00436772  0.11753121  0.51071740  1
  O  O317  1  -0.01316357  0.62494563  0.01388867  1
  O  O318  1  0.00194433  0.61776363  0.50290609  1
  O  O319  1  0.50607291  0.11676868  0.00545550  1
  O  O320  1  0.50409668  0.11567714  0.50275991  1
  O  O321  1  0.51339018  0.61164735  -0.00412736  1
  O  O322  1  0.51059221  0.61384076  0.49026900  1
  O  O323  1  0.50659759  0.38360086  0.48567043  1
  O  O324  1  0.49607797  0.38453783  0.99433084  1
  O  O325  1  0.49462444  0.87806042  0.49820127  1
  O  O326  1  0.50527899  0.89129080  0.99650046  1
  O  O327  1  0.99714998  0.38352470  0.49190137  1
  O  O328  1  0.99288600  0.38410372  0.99212654  1
  O  O329  1  0.99946095  0.88214368  0.48816478  1
  O  O330  1  0.98841685  0.87890525  0.98671420  1
  O  O331  1  0.49831395  0.48730635  0.38258826  1
  O  O332  1  0.49582850  0.49393081  0.88203121  1
  O  O333  1  0.49998953  0.99108533  0.38642303  1
  O  O334  1  0.50199635  1.00364853  0.89140597  1
  O  O335  1  1.00142353  0.49239834  0.38061284  1
  O  O336  1  0.98520597  0.48910800  0.86900163  1
  O  O337  1  0.99316112  0.99271373  0.38141186  1
  O  O338  1  1.00055807  0.99400240  0.86740845  1
  O  O339  1  0.01074251  0.01238163  0.12719101  1
  O  O340  1  -0.00407001  0.00663715  0.61458763  1
  O  O341  1  0.00920655  0.50942669  0.11500449  1
  O  O342  1  0.00757909  0.50402075  0.61722560  1
  O  O343  1  0.51194621  0.00006492  0.11782905  1
  O  O344  1  0.49652186  0.00495513  0.61330527  1
  O  O345  1  0.51295393  0.49331449  0.11693992  1
  O  O346  1  0.51271784  0.49281981  0.61403706  1
  O  O347  1  0.24499560  0.38270049  0.24349125  1
  O  O348  1  0.24814248  0.38723369  0.74137458  1
  O  O349  1  0.25350123  0.88972831  0.25539434  1
  O  O350  1  0.24301875  0.88304936  0.74248018  1
  O  O351  1  0.73691306  0.37088471  0.25441427  1
  O  O352  1  0.73724119  0.37145639  0.75530615  1
  O  O353  1  0.73719654  0.87199711  0.24582059  1
  O  O354  1  0.74321413  0.88424531  0.74839575  1
  O  O355  1  0.26106272  0.11724839  0.25362356  1
  O  O356  1  0.25657898  0.11943210  0.75657887  1
  O  O357  1  0.24550870  0.60937128  0.24732464  1
  O  O358  1  0.23477923  0.60547957  0.75630430  1
  O  O359  1  0.75706474  0.12998632  0.26242026  1
  O  O360  1  0.75988016  0.12259441  0.75793161  1
  O  O361  1  0.75789086  0.63248518  0.26048665  1
  O  O362  1  0.76228582  0.62459015  0.74759573  1
  O  O363  1  0.36938540  0.12284873  0.36684348  1
  O  O364  1  0.36844063  0.13415124  0.86379138  1
  O  O365  1  0.37012346  0.61924505  0.36586467  1
  O  O366  1  0.38061208  0.61310009  0.88105789  1
  O  O367  1  0.86732839  0.11595870  0.36795073  1
  O  O368  1  0.87594775  0.11676816  0.87369712  1
  O  O369  1  0.86681689  0.62408507  0.36539548  1
  O  O370  1  0.87365201  0.61527422  0.86176568  1
  O  O371  1  0.13251214  0.37734872  0.13179435  1
  O  O372  1  0.13628468  0.38078262  0.62465315  1
  O  O373  1  0.11104400  0.90046575  0.13768088  1
  O  O374  1  0.13471600  0.87526769  0.63359582  1
  O  O375  1  0.62757888  0.38175413  0.13680875  1
  O  O376  1  0.62290410  0.38059162  0.63409842  1
  O  O377  1  0.63145903  0.88041728  0.13131846  1
  O  O378  1  0.62860631  0.87690657  0.63667198  1
  O  O379  1  0.11710686  0.25327256  0.25618264  1
  O  O380  1  0.11453712  0.24965521  0.75614284  1
  O  O381  1  0.10953790  0.74527114  0.25353894  1
  O  O382  1  0.11115613  0.75805445  0.73932267  1
  O  O383  1  0.62627967  0.25472600  0.26290988  1
  O  O384  1  0.61927120  0.25475146  0.75484302  1
  O  O385  1  0.61796283  0.75719875  0.25564863  1
  O  O386  1  0.62886141  0.76518287  0.75358593  1
  O  O387  1  0.37051589  0.23719790  0.24449733  1
  O  O388  1  0.38101047  0.24518528  0.74352159  1
  O  O389  1  0.39065523  0.75046794  0.24332649  1
  O  O390  1  0.38137485  0.75259481  0.74942022  1
  O  O391  1  0.88287498  0.24288696  0.25065664  1
  O  O392  1  0.88748958  0.23670646  0.75679118  1
  O  O393  1  0.88370256  0.74126063  0.24326634  1
  O  O394  1  0.88392025  0.74483882  0.74254466  1
  O  O395  1  0.38763367  0.50373638  0.50045572  1
  O  O396  1  0.38519156  0.49252835  0.99819932  1
  O  O397  1  0.38362268  0.98660055  0.49448200  1
  O  O398  1  0.38964472  0.99886875  1.01291839  1
  O  O399  1  0.88571156  0.50188813  0.49674198  1
  O  O400  1  0.88265809  0.49817042  0.98953325  1
  O  O401  1  0.88312688  1.00403384  0.49039788  1
  O  O402  1  0.86907251  0.99330817  1.00091117  1
  O  O403  1  0.12656830  -0.00264070  0.00936962  1
  O  O404  1  0.11690376  -0.00368787  0.49988774  1
  O  O405  1  0.12381452  0.48336211  0.01552304  1
  O  O406  1  0.11496091  0.50053174  0.50762102  1
  O  O407  1  0.62004223  0.00797677  0.00763535  1
  O  O408  1  0.61768269  0.00460480  0.50298138  1
  O  O409  1  0.61938832  0.50484868  0.00767260  1
  O  O410  1  0.61810434  0.50651504  0.50550972  1
  O  O411  1  0.37070385  0.36909748  0.12153794  1
  O  O412  1  0.36425930  0.37016842  0.62810968  1
  O  O413  1  0.38690281  0.85472956  0.12092319  1
  O  O414  1  0.35771347  0.88268159  0.61513978  1
  O  O415  1  0.87483257  0.37888268  0.11350191  1
  O  O416  1  0.87518644  0.36654717  0.62216134  1
  O  O417  1  0.86868357  0.87364412  0.11980398  1
  O  O418  1  0.87373484  0.86321673  0.62924461  1
  O  O419  1  0.12354832  0.13934605  0.37784231  1
  O  O420  1  0.13435766  0.13943395  0.87329786  1
  O  O421  1  0.12567490  0.63728488  0.37485149  1
  O  O422  1  0.09882332  0.58998586  0.90012459  1
  O  O423  1  0.62961659  0.12988513  0.37701756  1
  O  O424  1  0.63125489  0.13357792  0.88100956  1
  O  O425  1  0.63207465  0.62923179  0.38272620  1
  O  O426  1  0.62994643  0.63225367  0.88202752  1
