# generated using pymatgen
data_V85Zn86O256
_symmetry_space_group_name_H-M   'P 1'
_cell_length_a   16.94247590
_cell_length_b   16.96568349
_cell_length_c   16.94550465
_cell_angle_alpha   90.00306214
_cell_angle_beta   89.99982396
_cell_angle_gamma   90.02111873
_symmetry_Int_Tables_number   1
_chemical_formula_structural   V85Zn86O256
_chemical_formula_sum   'V85 Zn86 O256'
_cell_volume   4870.82710333
_cell_formula_units_Z   1
loop_
 _symmetry_equiv_pos_site_id
 _symmetry_equiv_pos_as_xyz
  1  'x, y, z'
loop_
 _atom_site_type_symbol
 _atom_site_label
 _atom_site_symmetry_multiplicity
 _atom_site_fract_x
 _atom_site_fract_y
 _atom_site_fract_z
 _atom_site_occupancy
  V  V0  1  0.12609090  0.12978049  0.48978273  1
  V  V1  1  0.75192261  0.12260782  0.36398873  1
  V  V2  1  0.37626357  0.11648077  0.75245427  1
  V  V3  1  0.24760878  0.74237946  -0.01012649  1
  V  V4  1  0.74878145  0.75010675  0.01501748  1
  V  V5  1  0.62309823  0.37508222  0.74968364  1
  V  V6  1  0.26651797  0.12710831  0.37141797  1
  V  V7  1  0.37316593  0.88087489  -0.00925047  1
  V  V8  1  0.11705178  0.49874552  0.12272759  1
  V  V9  1  0.10674254  0.62588570  0.50682326  1
  V  V10  1  0.49846071  0.37536988  0.87541440  1
  V  V11  1  0.12533432  0.24296647  0.88699153  1
  V  V12  1  -0.00080381  0.87707473  0.37324230  1
  V  V13  1  0.49730635  0.49981454  0.49844786  1
  V  V14  1  0.24845394  0.49940959  0.25223144  1
  V  V15  1  0.49261258  0.25029554  0.74758510  1
  V  V16  1  0.24888881  0.87426221  0.12294368  1
  V  V17  1  0.37890227  0.75457878  0.62627454  1
  V  V18  1  0.74225525  0.63082856  0.87822430  1
  V  V19  1  0.49942347  0.75062299  0.24644473  1
  V  V20  1  0.37208124  0.74841800  0.12158655  1
  V  V21  1  0.62277677  0.62640992  0.49565636  1
  V  V22  1  0.88155500  0.49780365  0.87949171  1
  V  V23  1  0.86755348  0.62461156  0.23945607  1
  V  V24  1  0.49965341  0.11689587  0.12467961  1
  V  V25  1  0.63407219  0.37518557  0.24281528  1
  V  V26  1  -0.00110396  0.00051963  0.49838872  1
  V  V27  1  0.74538462  0.87884357  0.63295356  1
  V  V28  1  0.37425771  0.24412890  0.12658916  1
  V  V29  1  0.60548933  0.85731956  0.74876682  1
  V  V30  1  0.49729642  0.87940879  0.37162569  1
  V  V31  1  0.00324244  0.00991032  -0.00237890  1
  V  V32  1  0.25170364  0.11643978  0.88230459  1
  V  V33  1  0.25513123  0.36487496  0.62637027  1
  V  V34  1  0.87610222  0.24725329  0.62746020  1
  V  V35  1  0.86986576  -0.00274684  0.36841801  1
  V  V36  1  0.49654114  0.00431798  -0.01544681  1
  V  V37  1  0.12459940  0.36883916  0.75187888  1
  V  V38  1  0.62311951  0.49911945  0.62509505  1
  V  V39  1  0.75579706  0.26322410  0.00841277  1
  V  V40  1  0.74969129  0.75556057  0.49449026  1
  V  V41  1  0.80320246  0.56844198  0.42115278  1
  V  V42  1  0.12586534  0.87712588  0.24901157  1
  V  V43  1  0.49890878  0.62784583  0.63046744  1
  V  V44  1  0.63392142  0.50382657  0.12078649  1
  V  V45  1  0.62589796  0.24914737  0.37068462  1
  V  V46  1  0.88054541  0.86564347  0.01486708  1
  V  V47  1  -0.00472571  0.12286593  0.62869253  1
  V  V48  1  0.87763032  0.75483141  0.62424893  1
  V  V49  1  0.37172576  0.63051929  0.75407943  1
  V  V50  1  0.00325796  0.63333330  0.12325963  1
  V  V51  1  0.37297495  0.37351024  0.00073422  1
  V  V52  1  0.24692852  0.37380011  0.12718883  1
  V  V53  1  -0.00202117  0.39408863  0.39808073  1
  V  V54  1  0.50116298  0.50539455  0.00288571  1
  V  V55  1  0.49736274  0.24543918  0.24715640  1
  V  V56  1  0.64121386  0.02367029  0.65755617  1
  V  V57  1  0.75523021  0.37326823  0.62247573  1
  V  V58  1  0.12680255  0.87522886  0.74957414  1
  V  V59  1  0.62557885  0.74848248  0.37069683  1
  V  V60  1  0.36748824  0.50253217  0.87749731  1
  V  V61  1  0.87382485  0.62800288  0.75081052  1
  V  V62  1  0.49757775  0.37540073  0.37143728  1
  V  V63  1  0.26376036  0.00062951  0.25468441  1
  V  V64  1  0.12811805  0.00113041  0.62558577  1
  V  V65  1  -0.00432443  0.24364412  0.75504768  1
  V  V66  1  -0.00421852  0.87522800  0.87546793  1
  V  V67  1  0.63268154  0.25093788  0.87690699  1
  V  V68  1  0.12616674  0.01048816  0.12194251  1
  V  V69  1  0.62545080  0.12118833  0.49403464  1
  V  V70  1  0.24987611  0.62421086  0.38202898  1
  V  V71  1  -0.00159377  0.75176417  0.74676220  1
  V  V72  1  0.75688875  0.25067769  0.49633650  1
  V  V73  1  0.74780754  0.49980305  0.75395945  1
  V  V74  1  0.63100454  0.88200509  0.23427711  1
  V  V75  1  0.63393707  0.12361460  0.00220741  1
  V  V76  1  0.24744640  0.50303713  0.74907658  1
  V  V77  1  0.49244061  0.13104891  0.62102390  1
  V  V78  1  0.12590376  0.75061752  0.37184778  1
  V  V79  1  0.85697541  0.00576112  0.87089666  1
  V  V80  1  0.37482832  0.88003089  0.49776295  1
  V  V81  1  0.00818767  0.25206513  0.26487358  1
  V  V82  1  0.50096724  0.00247799  0.49548379  1
  V  V83  1  0.12198230  0.61742760  -0.01418274  1
  V  V84  1  0.37429059  0.62549491  0.25005628  1
  Zn  Zn85  1  0.12835165  0.36903815  0.26816633  1
  Zn  Zn86  1  0.75286938  -0.00699112  0.21245354  1
  Zn  Zn87  1  0.87944718  0.26120923  0.13578259  1
  Zn  Zn88  1  -0.00885930  0.75344384  0.24565961  1
  Zn  Zn89  1  0.00451772  0.13672542  0.12316725  1
  Zn  Zn90  1  0.25291770  0.25192122  0.49523591  1
  Zn  Zn91  1  0.24637747  0.24390742  0.00487658  1
  Zn  Zn92  1  0.25294810  0.87696864  0.62442324  1
  Zn  Zn93  1  0.25722990  -0.00337993  0.75238779  1
  Zn  Zn94  1  0.11265468  0.49284238  0.61404425  1
  Zn  Zn95  1  0.76152317  0.49110027  0.24581885  1
  Zn  Zn96  1  0.37359357  0.49904692  0.37714528  1
  Zn  Zn97  1  0.88588767  0.39319096  0.02320624  1
  Zn  Zn98  1  0.38028257  0.36770883  0.50869396  1
  Zn  Zn99  1  0.00106360  0.37492507  0.88167006  1
  Zn  Zn100  1  0.62158216  0.74777819  0.88096858  1
  Zn  Zn101  1  0.49368859  0.87075922  0.86831876  1
  Zn  Zn102  1  0.87215871  0.87878626  0.49971912  1
  Zn  Zn103  1  0.88130736  0.12581511  0.24327479  1
  Zn  Zn104  1  0.25038035  0.75266780  0.50078513  1
  Zn  Zn105  1  0.12527750  0.74050582  0.86874523  1
  Zn  Zn106  1  0.50149825  0.62546150  0.12219700  1
  Zn  Zn107  1  0.18677064  0.18707223  0.19505784  1
  Zn  Zn108  1  0.18561809  0.18382198  0.69146508  1
  Zn  Zn109  1  0.18655913  0.68538114  0.18596029  1
  Zn  Zn110  1  0.19199792  0.68991818  0.68473297  1
  Zn  Zn111  1  0.68691808  0.18717165  0.18266483  1
  Zn  Zn112  1  0.68277283  0.19231876  0.68702957  1
  Zn  Zn113  1  0.68605249  0.68496756  0.18634860  1
  Zn  Zn114  1  0.69066676  0.68805020  0.68395781  1
  Zn  Zn115  1  0.31466703  0.31014062  0.31367317  1
  Zn  Zn116  1  0.31110915  0.30765142  0.81368543  1
  Zn  Zn117  1  0.31300874  0.81346090  0.31326360  1
  Zn  Zn118  1  0.31143128  0.81096390  0.81133994  1
  Zn  Zn119  1  0.82455413  0.31632479  0.31618246  1
  Zn  Zn120  1  0.81292023  0.31212412  0.81242208  1
  Zn  Zn121  1  0.81083103  0.81031207  0.30526265  1
  Zn  Zn122  1  0.80729831  0.81979072  0.81673062  1
  Zn  Zn123  1  0.18090684  0.43917831  0.44115362  1
  Zn  Zn124  1  0.18497773  0.43344059  0.93867144  1
  Zn  Zn125  1  0.18938050  0.94120420  0.43659723  1
  Zn  Zn126  1  0.18510336  0.93578534  0.93592876  1
  Zn  Zn127  1  0.68191891  0.43123964  0.43840170  1
  Zn  Zn128  1  0.68847716  0.43990038  0.93809748  1
  Zn  Zn129  1  0.68594730  0.93534232  0.43330494  1
  Zn  Zn130  1  0.71396339  0.95918087  1.00089713  1
  Zn  Zn131  1  0.31411123  0.06084545  0.06473274  1
  Zn  Zn132  1  0.31302211  0.06311308  0.56100092  1
  Zn  Zn133  1  0.30811408  0.56255567  0.06249710  1
  Zn  Zn134  1  0.31011962  0.55771200  0.56625698  1
  Zn  Zn135  1  0.82552896  0.07194621  0.05993776  1
  Zn  Zn136  1  0.81289876  0.06286373  0.55849201  1
  Zn  Zn137  1  0.81290615  0.56837840  0.06171729  1
  Zn  Zn138  1  0.81750972  0.56245366  0.58186954  1
  Zn  Zn139  1  0.43735044  0.43615863  0.18718952  1
  Zn  Zn140  1  0.43486980  0.44033998  0.68955947  1
  Zn  Zn141  1  0.43972530  0.93353313  0.17976311  1
  Zn  Zn142  1  0.44972814  0.94214605  0.68283332  1
  Zn  Zn143  1  0.93986748  0.43451748  0.19996110  1
  Zn  Zn144  1  0.93920229  0.43344448  0.68691125  1
  Zn  Zn145  1  0.94189862  0.94370738  0.18747289  1
  Zn  Zn146  1  0.93309900  0.94109202  0.69162795  1
  Zn  Zn147  1  0.06429888  0.06308807  0.30878090  1
  Zn  Zn148  1  0.06355769  0.06126297  0.81405413  1
  Zn  Zn149  1  0.05877715  0.56200037  0.31127604  1
  Zn  Zn150  1  0.04661226  0.54906814  0.77621050  1
  Zn  Zn151  1  0.56189693  0.05976780  0.30748766  1
  Zn  Zn152  1  0.58109434  0.06585586  0.81280516  1
  Zn  Zn153  1  0.56528709  0.56222614  0.30719426  1
  Zn  Zn154  1  0.55891858  0.56399774  0.81442090  1
  Zn  Zn155  1  0.43345590  0.19286813  0.43775172  1
  Zn  Zn156  1  0.43644989  0.18805177  0.93603191  1
  Zn  Zn157  1  0.43706898  0.69038600  0.43746399  1
  Zn  Zn158  1  0.43733531  0.68834625  0.93533769  1
  Zn  Zn159  1  0.93637207  0.18731152  0.43508824  1
  Zn  Zn160  1  0.93168750  0.18449886  0.93545657  1
  Zn  Zn161  1  0.93836102  0.69457835  0.43402376  1
  Zn  Zn162  1  0.93973765  0.68520912  0.93676650  1
  Zn  Zn163  1  0.05566505  0.31678296  0.06524104  1
  Zn  Zn164  1  0.06533242  0.30943459  0.56158261  1
  Zn  Zn165  1  0.06720291  0.81167851  0.05976699  1
  Zn  Zn166  1  0.06306853  0.81341200  0.55965296  1
  Zn  Zn167  1  0.56263776  0.31523004  0.06273358  1
  Zn  Zn168  1  0.56593230  0.31023542  0.56014897  1
  Zn  Zn169  1  0.55691889  0.81058136  0.05211477  1
  Zn  Zn170  1  0.56310031  0.81501462  0.56355200  1
  O  O171  1  0.12903977  0.11323418  0.12517010  1
  O  O172  1  0.11858588  0.11638925  0.61824098  1
  O  O173  1  0.12054665  0.61635690  0.11896720  1
  O  O174  1  0.12769997  0.63574917  0.60681731  1
  O  O175  1  0.61313496  0.13565531  0.10946098  1
  O  O176  1  0.61469341  0.12655767  0.60861544  1
  O  O177  1  0.61938420  0.60824407  0.12985057  1
  O  O178  1  0.61788810  0.62028698  0.61764248  1
  O  O179  1  0.38871600  0.37773894  0.37352988  1
  O  O180  1  0.37944851  0.38063515  0.87894683  1
  O  O181  1  0.38905820  0.87090622  0.38164397  1
  O  O182  1  0.37323711  0.87253458  0.88663956  1
  O  O183  1  0.89778097  0.37168630  0.38187199  1
  O  O184  1  0.87296158  0.39369872  0.86779361  1
  O  O185  1  0.87811133  0.88206899  0.37311929  1
  O  O186  1  0.88647633  0.87841264  0.88074254  1
  O  O187  1  0.24956497  0.00582452  0.36118149  1
  O  O188  1  0.24513013  0.01236489  0.87170331  1
  O  O189  1  0.25092979  0.50665721  0.36974071  1
  O  O190  1  0.26366844  0.49266282  0.87164899  1
  O  O191  1  0.76034368  0.00640083  0.37801806  1
  O  O192  1  0.76031456  -0.01075280  0.89296907  1
  O  O193  1  0.73908466  0.50634590  0.37016034  1
  O  O194  1  0.75522866  0.50876924  0.86999897  1
  O  O195  1  0.24580610  0.49195868  0.13381967  1
  O  O196  1  0.24180177  0.49133259  0.63551319  1
  O  O197  1  0.24530539  0.99536777  0.13372809  1
  O  O198  1  0.23889112  0.99970786  0.62693091  1
  O  O199  1  0.73716235  0.50210097  0.12230922  1
  O  O200  1  0.74280406  0.49135311  0.63187353  1
  O  O201  1  0.74875411  1.00269729  0.10096414  1
  O  O202  1  0.73917130  0.99373352  0.61713345  1
  O  O203  1  0.00748905  0.36518016  0.26377587  1
  O  O204  1  0.00959416  0.36196875  0.75839960  1
  O  O205  1  0.00793824  0.87439979  0.25531417  1
  O  O206  1  0.00462141  0.86843058  0.75481230  1
  O  O207  1  0.50847658  0.36914437  0.25547495  1
  O  O208  1  0.50284757  0.36922026  0.75255156  1
  O  O209  1  0.50567824  0.87133608  0.25533033  1
  O  O210  1  0.50032311  0.85932086  0.74534863  1
  O  O211  1  0.50764346  0.13445499  0.23941449  1
  O  O212  1  0.49686997  0.13212612  0.74189097  1
  O  O213  1  0.49150217  0.63262807  0.24890362  1
  O  O214  1  0.49012133  0.61749752  0.73692715  1
  O  O215  1  1.00297642  0.13630473  0.24954388  1
  O  O216  1  1.00722079  0.13089939  0.73955959  1
  O  O217  1  0.99423138  0.62858715  0.24106252  1
  O  O218  1  0.98831125  0.64638083  0.75720244  1
  O  O219  1  0.37383287  0.25712297  0.00910536  1
  O  O220  1  0.36697600  0.25606047  0.49852320  1
  O  O221  1  0.36471238  0.75330154  0.00564452  1
  O  O222  1  0.37706344  0.76388645  0.50611519  1
  O  O223  1  0.85868290  0.25121855  -0.00600356  1
  O  O224  1  0.86209292  0.24096120  0.50811311  1
  O  O225  1  0.87392050  0.76036417  -0.00235825  1
  O  O226  1  0.86659478  0.75373728  0.50560983  1
  O  O227  1  0.13413161  0.23216418  0.50756113  1
  O  O228  1  0.12546164  0.25073505  0.98950449  1
  O  O229  1  0.12740626  0.74405542  0.48877681  1
  O  O230  1  0.13206279  0.73957789  0.99529023  1
  O  O231  1  0.63266102  0.23957303  0.49100688  1
  O  O232  1  0.63202153  0.24985450  0.99443932  1
  O  O233  1  0.63075186  0.74549767  0.49412626  1
  O  O234  1  0.64543368  0.75870793  1.00168226  1
  O  O235  1  0.49286335  0.24483547  0.12943520  1
  O  O236  1  0.50796592  0.24245283  0.63408592  1
  O  O237  1  0.49049612  0.74717631  0.12680024  1
  O  O238  1  0.48950327  0.73969155  0.61671778  1
  O  O239  1  1.00324815  0.25280106  0.14196605  1
  O  O240  1  0.99633157  0.24165624  0.63198713  1
  O  O241  1  1.01145706  0.73726543  0.12861236  1
  O  O242  1  0.98511132  0.76142048  0.62973450  1
  O  O243  1  0.00377785  0.24879256  0.36848428  1
  O  O244  1  0.00692042  0.24338055  0.86894377  1
  O  O245  1  0.00919319  0.75989123  0.37112308  1
  O  O246  1  0.00195950  0.75965286  0.86646813  1
  O  O247  1  0.50505208  0.25472097  0.36562892  1
  O  O248  1  0.50624679  0.25761230  0.86839970  1
  O  O249  1  0.50589520  0.75874477  0.36842088  1
  O  O250  1  0.50980358  0.76006922  0.89595854  1
  O  O251  1  0.24387735  0.11904240  0.48601001  1
  O  O252  1  0.25602682  0.12479080  0.98633234  1
  O  O253  1  0.25454178  0.62683422  0.48838899  1
  O  O254  1  0.23892421  0.63324789  1.00353958  1
  O  O255  1  0.74222195  0.13008320  0.48903892  1
  O  O256  1  0.73553896  0.13886951  0.99882101  1
  O  O257  1  0.74730269  0.62987684  0.49253493  1
  O  O258  1  0.75853715  0.64145096  0.99146312  1
  O  O259  1  0.25574675  0.37069219  0.01062687  1
  O  O260  1  0.24630703  0.37687111  0.51722528  1
  O  O261  1  0.25447624  0.86860496  0.00350781  1
  O  O262  1  0.26098261  0.87630475  0.50034570  1
  O  O263  1  0.75319333  0.36469191  -0.00378589  1
  O  O264  1  0.74137023  0.36210150  0.50877876  1
  O  O265  1  0.77114671  0.85989164  -0.00125031  1
  O  O266  1  0.74685832  0.86858053  0.50867473  1
  O  O267  1  0.13785827  0.50133463  0.24389665  1
  O  O268  1  0.14296831  0.48579227  0.76821947  1
  O  O269  1  0.13271600  0.99336827  0.24134083  1
  O  O270  1  0.12470309  0.99159288  0.74050905  1
  O  O271  1  0.62690022  0.49175456  0.23806910  1
  O  O272  1  0.62759997  0.49507062  0.74483042  1
  O  O273  1  0.62869752  0.98507970  0.25010599  1
  O  O274  1  0.59459025  0.97628667  0.74176219  1
  O  O275  1  0.36183320  -0.00666895  0.24341933  1
  O  O276  1  0.37959255  0.01248130  0.74414287  1
  O  O277  1  0.36389250  0.50520506  0.25069148  1
  O  O278  1  0.36581095  0.50711172  0.75709560  1
  O  O279  1  0.86770487  0.00322843  0.25357499  1
  O  O280  1  0.86936590  -0.00910719  0.77002890  1
  O  O281  1  0.87590562  0.51786024  0.25436362  1
  O  O282  1  0.86546651  0.51156396  0.75452872  1
  O  O283  1  0.11028669  0.37667055  0.38182330  1
  O  O284  1  0.12831063  0.36131606  0.86652500  1
  O  O285  1  0.12206644  0.86983747  0.37022786  1
  O  O286  1  0.11597756  0.87363877  0.86215469  1
  O  O287  1  0.61417797  0.36745102  0.36791342  1
  O  O288  1  0.61796830  0.37134105  0.87013532  1
  O  O289  1  0.61459795  0.86617123  0.36830762  1
  O  O290  1  0.62147276  0.86956380  0.84923422  1
  O  O291  1  0.38083484  0.13813559  0.12157509  1
  O  O292  1  0.38718546  0.12271767  0.62923771  1
  O  O293  1  0.37226174  0.63185748  0.13262120  1
  O  O294  1  0.38097278  0.63022926  0.63066460  1
  O  O295  1  0.88446156  0.13948366  0.12560937  1
  O  O296  1  0.88777092  0.12694404  0.62107477  1
  O  O297  1  0.88662088  0.62150706  0.13228588  1
  O  O298  1  0.86959165  0.64000532  0.64080391  1
  O  O299  1  0.25643510  0.25474149  0.12825428  1
  O  O300  1  0.24650168  0.26318578  0.63017399  1
  O  O301  1  0.25295391  0.75523909  0.11720980  1
  O  O302  1  0.26566620  0.75397786  0.62039954  1
  O  O303  1  0.74986803  0.25184330  0.11073016  1
  O  O304  1  0.75334477  0.25364713  0.61989389  1
  O  O305  1  0.75320814  0.74405861  0.11376677  1
  O  O306  1  0.75649547  0.75718086  0.61352786  1
  O  O307  1  0.25218008  0.23159209  0.37069014  1
  O  O308  1  0.24229184  0.23870912  0.87723488  1
  O  O309  1  0.24360286  0.74292144  0.37667867  1
  O  O310  1  0.24513694  0.75120595  0.88570870  1
  O  O311  1  0.74829911  0.24230468  0.37992687  1
  O  O312  1  0.73704698  0.25479317  0.87923218  1
  O  O313  1  0.74067880  0.75817969  0.38596785  1
  O  O314  1  0.74796499  0.74314396  0.88014794  1
  O  O315  1  0.00071185  0.11257811  -0.00183488  1
  O  O316  1  0.01050368  0.12053492  0.50480799  1
  O  O317  1  0.00898750  0.62662065  0.00955380  1
  O  O318  1  0.00783170  0.63147939  0.50023624  1
  O  O319  1  0.50275967  0.12152145  0.00538621  1
  O  O320  1  0.50446262  0.12165049  0.50105262  1
  O  O321  1  0.49203877  0.60828282  0.00155471  1
  O  O322  1  0.50171828  0.61780488  0.50761218  1
  O  O323  1  0.50324058  0.38203662  0.49207638  1
  O  O324  1  0.49180705  0.38372567  0.99608754  1
  O  O325  1  0.49828983  0.88421403  0.49247471  1
  O  O326  1  0.48998417  0.88975603  1.00234395  1
  O  O327  1  1.00504865  0.38123030  0.50031927  1
  O  O328  1  0.99455472  0.37513392  0.99333577  1
  O  O329  1  0.99852301  0.88300596  0.49098374  1
  O  O330  1  0.99549619  0.87574327  0.99222844  1
  O  O331  1  0.50157084  0.49278294  0.38095758  1
  O  O332  1  0.49102246  0.49431782  0.88126027  1
  O  O333  1  0.50446812  0.99409878  0.38497244  1
  O  O334  1  0.50207142  0.99948138  0.88305503  1
  O  O335  1  1.00179490  0.49363753  0.38090774  1
  O  O336  1  0.98296846  0.50276235  0.86481657  1
  O  O337  1  0.98922512  0.99630286  0.37528265  1
  O  O338  1  1.00117129  0.99123823  0.88217483  1
  O  O339  1  0.01041358  0.00420641  0.11684397  1
  O  O340  1  0.00546905  0.00537722  0.62140703  1
  O  O341  1  0.01524555  0.50533344  0.13465688  1
  O  O342  1  0.01667544  0.50932057  0.66917359  1
  O  O343  1  0.49402610  0.01444093  0.11853622  1
  O  O344  1  0.51520371  0.01272231  0.61186171  1
  O  O345  1  0.50545899  0.49961081  0.11748075  1
  O  O346  1  0.50411270  0.50513520  0.61808384  1
  O  O347  1  0.24838080  0.38196869  0.24730128  1
  O  O348  1  0.24655622  0.37763899  0.74320251  1
  O  O349  1  0.24610641  0.88457703  0.24694256  1
  O  O350  1  0.24125893  0.87731930  0.74737563  1
  O  O351  1  0.73749832  0.37396433  0.26102231  1
  O  O352  1  0.74219045  0.37822053  0.74298567  1
  O  O353  1  0.73560376  0.87564689  0.24747591  1
  O  O354  1  0.73880705  0.86882288  0.73565130  1
  O  O355  1  0.24866982  0.11236929  0.26122998  1
  O  O356  1  0.26086613  0.12243513  0.75602814  1
  O  O357  1  0.25329146  0.61924048  0.26084045  1
  O  O358  1  0.25843644  0.61559443  0.74538084  1
  O  O359  1  0.74645023  0.12110863  0.25745388  1
  O  O360  1  0.68043362  0.09077800  0.73522720  1
  O  O361  1  0.76329602  0.62094140  0.24346615  1
  O  O362  1  0.75554217  0.62215722  0.75590299  1
  O  O363  1  0.36478759  0.11979964  0.37613280  1
  O  O364  1  0.36251408  0.12930552  0.86630414  1
  O  O365  1  0.36789718  0.62446007  0.36872274  1
  O  O366  1  0.37948694  0.61623723  0.86414606  1
  O  O367  1  0.86597845  0.11609132  0.37223513  1
  O  O368  1  0.87073321  0.10563073  0.88070278  1
  O  O369  1  0.86983460  0.62666651  0.36837995  1
  O  O370  1  0.86693850  0.61971308  0.86648073  1
  O  O371  1  0.13751566  0.38155307  0.12655929  1
  O  O372  1  0.13269250  0.37408941  0.63864461  1
  O  O373  1  0.13207840  0.88015394  0.13140248  1
  O  O374  1  0.12518239  0.88180655  0.63286743  1
  O  O375  1  0.61986984  0.38669459  0.13388601  1
  O  O376  1  0.63386762  0.37860239  0.62910905  1
  O  O377  1  0.61571425  0.87103600  0.13727795  1
  O  O378  1  0.62850826  0.88040094  0.63255525  1
  O  O379  1  0.11478668  0.25172996  0.25291600  1
  O  O380  1  0.11662151  0.25323572  0.75710669  1
  O  O381  1  0.12861182  0.75638153  0.26098147  1
  O  O382  1  0.11734510  0.75668133  0.74696168  1
  O  O383  1  0.61771210  0.25698279  0.25087052  1
  O  O384  1  0.61576377  0.25731291  0.75884017  1
  O  O385  1  0.62050863  0.75633228  0.25475305  1
  O  O386  1  0.62191364  0.75521535  0.74377402  1
  O  O387  1  0.38928322  0.25541902  0.24187029  1
  O  O388  1  0.38804050  0.24091022  0.75402833  1
  O  O389  1  0.37874267  0.74726677  0.24207057  1
  O  O390  1  0.37058576  0.73880044  0.74268684  1
  O  O391  1  0.89011471  0.24549155  0.25539908  1
  O  O392  1  0.88704991  0.25099017  0.74638019  1
  O  O393  1  0.87620947  0.73220878  0.25536110  1
  O  O394  1  0.87775601  0.75028235  0.74412205  1
  O  O395  1  0.38715406  0.49527283  0.49995373  1
  O  O396  1  0.37782274  0.49448164  0.99441509  1
  O  O397  1  0.38606840  0.98869493  0.50678683  1
  O  O398  1  0.38160439  0.99165030  1.00260883  1
  O  O399  1  0.85371958  0.51301662  0.48624682  1
  O  O400  1  0.86886063  0.50396255  0.98291202  1
  O  O401  1  0.88192441  0.99924459  0.48960297  1
  O  O402  1  0.88893644  0.98512563  0.99282869  1
  O  O403  1  0.11545415  -0.01062999  0.01025823  1
  O  O404  1  0.11990126  0.00626177  0.50803386  1
  O  O405  1  0.13399555  0.50707914  0.01037898  1
  O  O406  1  0.12791657  0.52221868  0.50241139  1
  O  O407  1  0.61504302  0.01902409  -0.00435427  1
  O  O408  1  0.62081190  0.01296760  0.49314422  1
  O  O409  1  0.61662878  0.49334463  0.01212582  1
  O  O410  1  0.61486655  0.50580262  0.50375326  1
  O  O411  1  0.36494866  0.36656386  0.12327911  1
  O  O412  1  0.35919511  0.37986658  0.62824410  1
  O  O413  1  0.36831422  0.86705008  0.11418037  1
  O  O414  1  0.37941017  0.86949433  0.61804508  1
  O  O415  1  0.87208559  0.37602343  0.13304659  1
  O  O416  1  0.86219609  0.36871502  0.63100279  1
  O  O417  1  0.88767196  0.87255711  0.11329614  1
  O  O418  1  0.86414676  0.87228444  0.62331873  1
  O  O419  1  0.13160175  0.11506213  0.38818490  1
  O  O420  1  0.14097410  0.13073627  0.86758180  1
  O  O421  1  0.13034955  0.63326164  0.38257182  1
  O  O422  1  0.11470993  0.61962243  0.88482139  1
  O  O423  1  0.63127564  0.13002684  0.37562458  1
  O  O424  1  0.61453519  0.14062941  0.89221282  1
  O  O425  1  0.61684907  0.64022758  0.37863224  1
  O  O426  1  0.63795863  0.62482160  0.87072362  1
