# generated using pymatgen
data_V85Zn86O256
_symmetry_space_group_name_H-M   'P 1'
_cell_length_a   16.93559926
_cell_length_b   16.92965803
_cell_length_c   16.91877355
_cell_angle_alpha   89.98989225
_cell_angle_beta   89.93883344
_cell_angle_gamma   90.07064980
_symmetry_Int_Tables_number   1
_chemical_formula_structural   V85Zn86O256
_chemical_formula_sum   'V85 Zn86 O256'
_cell_volume   4850.84108759
_cell_formula_units_Z   1
loop_
 _symmetry_equiv_pos_site_id
 _symmetry_equiv_pos_as_xyz
  1  'x, y, z'
loop_
 _atom_site_type_symbol
 _atom_site_label
 _atom_site_symmetry_multiplicity
 _atom_site_fract_x
 _atom_site_fract_y
 _atom_site_fract_z
 _atom_site_occupancy
  V  V0  1  0.75399460  0.49347533  0.25044490  1
  V  V1  1  0.48088980  0.75443312  0.74531600  1
  V  V2  1  0.12505100  0.86596731  0.25189160  1
  V  V3  1  0.62182073  -0.00774653  0.11430271  1
  V  V4  1  0.37449549  0.37804595  -0.00333410  1
  V  V5  1  0.25028641  0.63846773  0.37594168  1
  V  V6  1  -0.00236763  0.00310415  -0.00293525  1
  V  V7  1  0.87300151  0.37042473  0.50074363  1
  V  V8  1  0.00177210  0.86761598  0.37580982  1
  V  V9  1  0.50132379  0.62403406  0.12717916  1
  V  V10  1  0.62981137  0.49192493  0.12622609  1
  V  V11  1  0.12217784  0.74853911  0.87022186  1
  V  V12  1  0.74687081  0.25319712  0.01084577  1
  V  V13  1  0.74987800  -0.00176904  0.24268233  1
  V  V14  1  0.87848684  0.12378473  0.24570426  1
  V  V15  1  0.00434817  0.87314402  0.86885488  1
  V  V16  1  0.75584065  0.13073485  0.87889463  1
  V  V17  1  0.00363954  0.24499431  0.24687879  1
  V  V18  1  0.37738663  0.62070623  0.25682555  1
  V  V19  1  0.25255848  0.37619749  0.12924822  1
  V  V20  1  0.49812167  0.50222452  -0.00028473  1
  V  V21  1  0.01117576  0.12698723  0.61965675  1
  V  V22  1  0.25228589  0.62306646  0.86071676  1
  V  V23  1  0.24695524  -0.00727039  0.74531963  1
  V  V24  1  0.37016164  0.50414348  0.86274935  1
  V  V25  1  0.62529140  0.62723287  0.00104266  1
  V  V26  1  0.00957900  0.00314027  0.49742676  1
  V  V27  1  0.63718286  -0.01179502  0.63357811  1
  V  V28  1  0.12061254  0.00058723  0.12443315  1
  V  V29  1  0.37916813  0.24617693  0.12535096  1
  V  V30  1  0.87669154  0.87412516  0.00776874  1
  V  V31  1  0.87624968  0.24808164  0.12721827  1
  V  V32  1  0.86937414  0.87897337  0.50555603  1
  V  V33  1  -0.00069904  0.25354843  0.74764237  1
  V  V34  1  0.37322183  0.13521769  0.74168051  1
  V  V35  1  0.25135609  0.74688143  -0.00249551  1
  V  V36  1  0.11784187  0.62267052  0.49484815  1
  V  V37  1  0.62318554  0.62149448  0.50383615  1
  V  V38  1  0.12172962  0.12548223  0.00562688  1
  V  V39  1  0.00182588  0.37786765  0.38131989  1
  V  V40  1  0.85112486  -0.02317846  0.85449419  1
  V  V41  1  0.87999356  0.62683524  0.74827957  1
  V  V42  1  0.87319045  -0.00025717  0.37414504  1
  V  V43  1  0.74885770  0.75520836  0.00444997  1
  V  V44  1  0.61687262  0.12316546  0.00148933  1
  V  V45  1  0.75085978  0.12987255  0.37751519  1
  V  V46  1  0.87120010  0.37601606  0.00674065  1
  V  V47  1  0.74224495  0.36651959  0.62301039  1
  V  V48  1  0.12311295  0.25163103  0.87486872  1
  V  V49  1  0.87497420  0.49965581  0.87480446  1
  V  V50  1  0.24058226  0.11454378  0.38320769  1
  V  V51  1  0.37680785  0.74973687  0.12339608  1
  V  V52  1  0.25472013  0.49709966  0.26406658  1
  V  V53  1  0.48579202  0.49733301  0.49547250  1
  V  V54  1  0.48475006  0.62631067  0.62881410  1
  V  V55  1  0.25808047  0.38184788  0.62428548  1
  V  V56  1  0.12650473  0.50003746  0.12792759  1
  V  V57  1  0.48834503  0.87678846  0.37400686  1
  V  V58  1  0.49704121  -0.00013161  0.49790012  1
  V  V59  1  0.62450181  0.75189552  0.85928730  1
  V  V60  1  0.62951418  0.87462095  0.25184095  1
  V  V61  1  0.87899194  0.50386984  0.37833834  1
  V  V62  1  0.37216740  0.87213908  0.51871850  1
  V  V63  1  0.74669642  0.75349619  0.50560835  1
  V  V64  1  0.24943332  0.87446577  0.12185105  1
  V  V65  1  0.24993180  0.24983274  0.00040131  1
  V  V66  1  0.74946841  0.62490586  0.87387588  1
  V  V67  1  -0.00365374  0.62377093  0.13529848  1
  V  V68  1  0.37605610  0.11636352  0.25861468  1
  V  V69  1  0.24618600  0.75433305  0.51771016  1
  V  V70  1  0.87918859  0.75311115  0.62751212  1
  V  V71  1  0.87505280  0.12274973  0.74949220  1
  V  V72  1  0.62730067  0.25554293  0.37804339  1
  V  V73  1  0.38505200  0.88068602  -0.00271650  1
  V  V74  1  0.74373306  0.49468858  0.74713145  1
  V  V75  1  0.87191688  0.74723860  0.13426255  1
  V  V76  1  0.11840259  0.50069272  0.63300819  1
  V  V77  1  0.12608024  0.37290730  0.25460232  1
  V  V78  1  0.50187659  0.74942559  0.25174370  1
  V  V79  1  0.62707873  0.12349619  0.49996737  1
  V  V80  1  0.75126721  0.62489214  0.37186057  1
  V  V81  1  0.24953510  0.12437962  0.87390433  1
  V  V82  1  0.00026254  0.50047528  0.00280347  1
  V  V83  1  0.48455037  0.37569022  0.37474314  1
  V  V84  1  0.38709916  0.00543406  0.87450322  1
  Zn  Zn85  1  0.50981679  0.38001486  0.86286537  1
  Zn  Zn86  1  0.37881634  0.26001774  0.60907262  1
  Zn  Zn87  1  0.24605231  0.25322444  0.49967624  1
  Zn  Zn88  1  0.12121797  0.23961291  0.38295252  1
  Zn  Zn89  1  -0.00123837  0.74485490  0.25494481  1
  Zn  Zn90  1  -0.00071612  0.37645770  0.87448779  1
  Zn  Zn91  1  0.62475295  0.25700122  0.86824399  1
  Zn  Zn92  1  0.13117395  -0.00505583  0.61764276  1
  Zn  Zn93  1  0.12555132  0.86615152  0.73909345  1
  Zn  Zn94  1  0.50205947  0.24807106  0.25004917  1
  Zn  Zn95  1  0.12637544  0.62438030  0.00076089  1
  Zn  Zn96  1  0.50030398  0.12822454  0.62130594  1
  Zn  Zn97  1  0.12714955  0.38153191  0.75224632  1
  Zn  Zn98  1  0.62337731  0.75127833  0.37878108  1
  Zn  Zn99  1  0.51446125  0.26800774  0.73986915  1
  Zn  Zn100  1  0.25326697  -0.00449091  0.25048273  1
  Zn  Zn101  1  0.61774831  0.49320944  0.62939106  1
  Zn  Zn102  1  0.87465290  0.24760271  0.61798992  1
  Zn  Zn103  1  -0.00241363  0.62443563  0.62313761  1
  Zn  Zn104  1  0.50711427  0.88605153  0.86661729  1
  Zn  Zn105  1  0.49723085  0.11910376  0.12356342  1
  Zn  Zn106  1  0.62658516  0.37126301  0.24877177  1
  Zn  Zn107  1  0.19102449  0.18435481  0.19104244  1
  Zn  Zn108  1  0.19019152  0.19243032  0.68484273  1
  Zn  Zn109  1  0.18767681  0.68545523  0.18638871  1
  Zn  Zn110  1  0.18440524  0.68446154  0.68691435  1
  Zn  Zn111  1  0.68663840  0.18500616  0.18854846  1
  Zn  Zn112  1  0.69249243  0.18259242  0.68493409  1
  Zn  Zn113  1  0.68858564  0.68445096  0.18906990  1
  Zn  Zn114  1  0.69028802  0.68293707  0.68323212  1
  Zn  Zn115  1  0.31134773  0.30027879  0.31593361  1
  Zn  Zn116  1  0.30873028  0.31884160  0.80730215  1
  Zn  Zn117  1  0.31235496  0.81184453  0.30993213  1
  Zn  Zn118  1  0.31337054  0.81585879  0.81514557  1
  Zn  Zn119  1  0.81295923  0.31399128  0.31296797  1
  Zn  Zn120  1  0.81334407  0.31356854  0.81291703  1
  Zn  Zn121  1  0.81089853  0.81299756  0.31718802  1
  Zn  Zn122  1  0.81251026  0.80904515  0.81298349  1
  Zn  Zn123  1  0.18663126  0.43981018  0.44203497  1
  Zn  Zn124  1  0.18849753  0.43791462  0.93715638  1
  Zn  Zn125  1  0.19109658  0.93394797  0.43398367  1
  Zn  Zn126  1  0.19136667  0.93724666  0.93430605  1
  Zn  Zn127  1  0.68583911  0.43820871  0.44175950  1
  Zn  Zn128  1  0.69060461  0.43859847  0.93982302  1
  Zn  Zn129  1  0.68456686  0.93899961  0.43609955  1
  Zn  Zn130  1  0.69490903  0.93132550  0.91775853  1
  Zn  Zn131  1  0.31117475  0.06159536  0.06203835  1
  Zn  Zn132  1  0.31465324  0.05717022  0.56085655  1
  Zn  Zn133  1  0.31209878  0.56295767  0.06539823  1
  Zn  Zn134  1  0.30520371  0.56053717  0.56355373  1
  Zn  Zn135  1  0.81187941  0.06269457  0.06079082  1
  Zn  Zn136  1  0.81361626  0.06279147  0.56433517  1
  Zn  Zn137  1  0.81190522  0.56597762  0.06533901  1
  Zn  Zn138  1  0.81172950  0.55882090  0.56113872  1
  Zn  Zn139  1  0.43953050  0.43634201  0.18961750  1
  Zn  Zn140  1  0.43919681  0.43973374  0.68739774  1
  Zn  Zn141  1  0.44161379  0.93649698  0.18486204  1
  Zn  Zn142  1  0.44335375  0.94615938  0.68899138  1
  Zn  Zn143  1  0.93528792  0.43512573  0.19294496  1
  Zn  Zn144  1  0.93771314  0.43854935  0.68478113  1
  Zn  Zn145  1  0.94054459  0.93579269  0.18636455  1
  Zn  Zn146  1  0.94518084  0.93595573  0.68256728  1
  Zn  Zn147  1  0.06157330  0.05531216  0.30830226  1
  Zn  Zn148  1  0.06004243  0.06295828  0.81325384  1
  Zn  Zn149  1  0.06555076  0.56081755  0.31591198  1
  Zn  Zn150  1  0.06114125  0.56661150  0.81478755  1
  Zn  Zn151  1  0.56169854  0.06141493  0.31275100  1
  Zn  Zn152  1  0.57786584  0.09545361  0.79516072  1
  Zn  Zn153  1  0.56596021  0.55922812  0.31641522  1
  Zn  Zn154  1  0.55869236  0.56336682  0.81110302  1
  Zn  Zn155  1  0.43456438  0.18964203  0.43886760  1
  Zn  Zn156  1  0.44079549  0.19296855  0.92931818  1
  Zn  Zn157  1  0.43476029  0.69076322  0.44051153  1
  Zn  Zn158  1  0.43816031  0.68769384  0.93300452  1
  Zn  Zn159  1  0.93940506  0.18885934  0.43542262  1
  Zn  Zn160  1  0.93702653  0.18583710  0.93686298  1
  Zn  Zn161  1  0.93279913  0.68920694  0.43919448  1
  Zn  Zn162  1  0.93789243  0.68646349  0.94099941  1
  Zn  Zn163  1  0.06076035  0.31432769  0.06565329  1
  Zn  Zn164  1  0.06882729  0.31318493  0.55897381  1
  Zn  Zn165  1  0.06178154  0.81066305  0.06087288  1
  Zn  Zn166  1  0.06181199  0.81192630  0.56154894  1
  Zn  Zn167  1  0.56050571  0.31448021  0.05227096  1
  Zn  Zn168  1  0.55933391  0.31078499  0.55737507  1
  Zn  Zn169  1  0.56503190  0.81398069  0.06147148  1
  Zn  Zn170  1  0.56123823  0.81286183  0.56664649  1
  O  O171  1  0.13123355  0.11490298  0.11734030  1
  O  O172  1  0.11329537  0.12030490  0.63106635  1
  O  O173  1  0.11795062  0.61769396  0.12182193  1
  O  O174  1  0.12243157  0.61810827  0.61622317  1
  O  O175  1  0.62443101  0.11180640  0.11936113  1
  O  O176  1  0.62808245  0.12069036  0.60734358  1
  O  O177  1  0.61850393  0.61787291  0.12117644  1
  O  O178  1  0.61806204  0.62253770  0.61370793  1
  O  O179  1  0.38596989  0.37233221  0.36867045  1
  O  O180  1  0.36949573  0.38837574  0.88228546  1
  O  O181  1  0.38603868  0.87374488  0.37292867  1
  O  O182  1  0.37946604  0.88570853  0.88117622  1
  O  O183  1  0.88094164  0.38122549  0.38028043  1
  O  O184  1  0.87719053  0.38211483  0.88590612  1
  O  O185  1  0.88042263  0.88158014  0.38252785  1
  O  O186  1  0.88987397  0.87103775  0.89002448  1
  O  O187  1  0.24948861  0.00894825  0.36805512  1
  O  O188  1  0.25721177  0.00848522  0.86779210  1
  O  O189  1  0.24744287  0.51013662  0.36670002  1
  O  O190  1  0.26038252  0.50930773  0.88183361  1
  O  O191  1  0.75343454  0.00634504  0.36299366  1
  O  O192  1  0.76195829  0.02447565  0.90373197  1
  O  O193  1  0.75481652  0.50588251  0.37043323  1
  O  O194  1  0.75666165  0.50508550  0.86987768  1
  O  O195  1  0.24582556  0.49464350  0.13508648  1
  O  O196  1  0.23554616  0.49366636  0.62392157  1
  O  O197  1  0.23803761  0.99048618  0.12121249  1
  O  O198  1  0.24826964  1.00417564  0.64107427  1
  O  O199  1  0.74183210  0.50890223  0.13670853  1
  O  O200  1  0.74782819  0.48979498  0.63229520  1
  O  O201  1  0.74216763  1.00295964  0.13632180  1
  O  O202  1  0.73711340  1.00137523  0.62184594  1
  O  O203  1  0.00594007  0.36756461  0.25905462  1
  O  O204  1  0.00265154  0.36722746  0.75271087  1
  O  O205  1  0.00669924  0.87317816  0.25811428  1
  O  O206  1  0.00085743  0.87660728  0.76537962  1
  O  O207  1  0.50411895  0.37530117  0.26352948  1
  O  O208  1  0.51085986  0.38260110  0.74755309  1
  O  O209  1  0.50843513  0.87163012  0.25577582  1
  O  O210  1  0.49408264  0.85899235  0.74856333  1
  O  O211  1  0.48920648  0.12535986  0.24819822  1
  O  O212  1  0.47651666  0.11925730  0.74331958  1
  O  O213  1  0.49431728  0.62690577  0.24926818  1
  O  O214  1  0.50144564  0.63115307  0.73461054  1
  O  O215  1  0.99112493  0.13227786  0.25534511  1
  O  O216  1  0.99314071  0.13142518  0.74369340  1
  O  O217  1  1.00594809  0.62562520  0.23998596  1
  O  O218  1  0.98378009  0.62354468  0.75062744  1
  O  O219  1  0.36958590  0.25721021  0.00431712  1
  O  O220  1  0.36108619  0.24623609  0.49759765  1
  O  O221  1  0.37047497  0.75570348  0.00322138  1
  O  O222  1  0.36264338  0.76280425  0.49752532  1
  O  O223  1  0.87260205  0.25624256  0.00806056  1
  O  O224  1  0.87703265  0.26485910  0.49691323  1
  O  O225  1  0.86880709  0.75456317  0.00872579  1
  O  O226  1  0.86651255  0.75908546  0.50585326  1
  O  O227  1  0.13012851  0.24709240  0.49560684  1
  O  O228  1  0.12760357  0.24625559  0.99641402  1
  O  O229  1  0.13859376  0.74053527  0.50407491  1
  O  O230  1  0.13561141  0.74917144  0.99224936  1
  O  O231  1  0.62165363  0.23935869  0.48640806  1
  O  O232  1  0.63427622  0.23912532  1.00792140  1
  O  O233  1  0.63087744  0.74419038  0.50085729  1
  O  O234  1  0.63278823  0.74371645  0.99854182  1
  O  O235  1  0.48815294  0.24991282  0.12451074  1
  O  O236  1  0.49497136  0.24635869  0.62485383  1
  O  O237  1  0.49672998  0.74452322  0.13112970  1
  O  O238  1  0.50115737  0.73927404  0.63581691  1
  O  O239  1  0.99428502  0.25244358  0.13854777  1
  O  O240  1  0.99860817  0.24480080  0.63193295  1
  O  O241  1  0.99180706  0.74008441  0.12443043  1
  O  O242  1  0.98308015  0.74499578  0.61822313  1
  O  O243  1  0.00109564  0.25736300  0.36292019  1
  O  O244  1  0.00758598  0.25134086  0.86991265  1
  O  O245  1  -0.00741931  0.76315211  0.37354297  1
  O  O246  1  0.01147057  0.75783350  0.88713243  1
  O  O247  1  0.50595757  0.26330016  0.37492393  1
  O  O248  1  0.50190138  0.25932886  0.86473310  1
  O  O249  1  0.50149529  0.75680595  0.36867300  1
  O  O250  1  0.50594050  0.74367490  0.85647716  1
  O  O251  1  0.25128872  0.11490823  0.48457028  1
  O  O252  1  0.24359792  0.13235195  0.99383102  1
  O  O253  1  0.24640262  0.63758124  0.49439873  1
  O  O254  1  0.25118595  0.63734315  0.99851921  1
  O  O255  1  0.74453999  0.11769934  0.48507735  1
  O  O256  1  0.74682918  0.13885900  1.00025245  1
  O  O257  1  0.74197133  0.62944117  0.49363533  1
  O  O258  1  0.74604125  0.63352900  0.99354699  1
  O  O259  1  0.25834212  0.37077339  0.00699654  1
  O  O260  1  0.24276707  0.37828087  0.51766744  1
  O  O261  1  0.25952480  0.86385041  0.00108495  1
  O  O262  1  0.25906356  0.86411351  0.49728298  1
  O  O263  1  0.76396355  0.36887209  0.00276054  1
  O  O264  1  0.75754444  0.37921596  0.51390765  1
  O  O265  1  0.76055814  0.86195020  -0.00502051  1
  O  O266  1  0.75867740  0.86674247  0.49070201  1
  O  O267  1  0.13519233  0.49382801  0.24656672  1
  O  O268  1  0.12097185  0.50478190  0.73766007  1
  O  O269  1  0.12515059  0.98734540  0.23816280  1
  O  O270  1  0.14056429  1.00210564  0.75615168  1
  O  O271  1  0.63269321  0.49896983  0.24256208  1
  O  O272  1  0.64021245  0.50837283  0.74953345  1
  O  O273  1  0.63110488  0.99369376  0.24195623  1
  O  O274  1  0.61866010  1.00847721  0.73168930  1
  O  O275  1  0.37446255  0.01282443  0.23897891  1
  O  O276  1  0.36353276  0.00727423  0.75571846  1
  O  O277  1  0.36643780  0.50944543  0.24427384  1
  O  O278  1  0.37488100  0.50173559  0.76468872  1
  O  O279  1  0.86827765  0.00251481  0.25066939  1
  O  O280  1  0.88552688  0.00756957  0.75611969  1
  O  O281  1  0.86633033  0.49684641  0.26289667  1
  O  O282  1  0.86651331  0.50598105  0.75446062  1
  O  O283  1  0.11763731  0.37821417  0.36964656  1
  O  O284  1  0.12351078  0.36389056  0.87575191  1
  O  O285  1  0.11520493  0.87927494  0.36437620  1
  O  O286  1  0.11985914  0.86663474  0.87516399  1
  O  O287  1  0.62145935  0.36686846  0.37578546  1
  O  O288  1  0.61933462  0.36690940  0.89879392  1
  O  O289  1  0.61521937  0.87286737  0.36660035  1
  O  O290  1  0.61654910  0.85756493  0.88474285  1
  O  O291  1  0.37604939  0.13138400  0.12885507  1
  O  O292  1  0.37032500  0.12631639  0.63494517  1
  O  O293  1  0.38112733  0.63002939  0.13496436  1
  O  O294  1  0.38652357  0.62450759  0.61967775  1
  O  O295  1  0.87226788  0.13781693  0.12965505  1
  O  O296  1  0.88158899  0.12807137  0.63323094  1
  O  O297  1  0.88460900  0.63381963  0.12359265  1
  O  O298  1  0.87417063  0.63055721  0.63071021  1
  O  O299  1  0.26032880  0.25529471  0.12147252  1
  O  O300  1  0.25050738  0.26710143  0.62423829  1
  O  O301  1  0.25631417  0.75407393  0.11742849  1
  O  O302  1  0.25046509  0.74895410  0.61592141  1
  O  O303  1  0.75791002  0.24934292  0.11875887  1
  O  O304  1  0.75523515  0.26263986  0.62970586  1
  O  O305  1  0.75803293  0.74206228  0.11621100  1
  O  O306  1  0.75844886  0.74557450  0.61154785  1
  O  O307  1  0.24357190  0.22924678  0.37100546  1
  O  O308  1  0.24202026  0.24623882  0.87945145  1
  O  O309  1  0.24951519  0.74093901  0.37652763  1
  O  O310  1  0.24677687  0.74336163  0.88131927  1
  O  O311  1  0.74299751  0.23981740  0.36867950  1
  O  O312  1  0.75332415  0.24371971  0.88775334  1
  O  O313  1  0.74939268  0.74144341  0.38581897  1
  O  O314  1  0.74183459  0.74251462  0.88193364  1
  O  O315  1  0.00417335  0.11092009  -0.00439323  1
  O  O316  1  -0.00760412  0.11614731  0.50745350  1
  O  O317  1  -0.00030148  0.61207536  0.01012268  1
  O  O318  1  0.01553780  0.63263543  0.49701333  1
  O  O319  1  0.51374317  0.12888094  0.00018896  1
  O  O320  1  0.50726317  0.11506508  0.49476674  1
  O  O321  1  0.50476173  0.62148015  0.00566989  1
  O  O322  1  0.50407290  0.62065113  0.50518096  1
  O  O323  1  0.50014516  0.38841183  0.49011959  1
  O  O324  1  0.48382539  0.38349805  1.00075338  1
  O  O325  1  0.48796885  0.87498933  0.49434152  1
  O  O326  1  0.48731410  0.86964648  0.99684627  1
  O  O327  1  0.99371086  0.37335355  0.48691140  1
  O  O328  1  0.99115207  0.38573451  1.00219305  1
  O  O329  1  0.99070187  0.88213051  0.49201253  1
  O  O330  1  0.99642789  0.88443096  0.99542259  1
  O  O331  1  0.50195405  0.48912518  0.38455401  1
  O  O332  1  0.48711039  0.50316059  0.88227408  1
  O  O333  1  0.50649693  0.98988316  0.38707012  1
  O  O334  1  0.48836047  1.00481098  0.86572585  1
  O  O335  1  0.99059900  0.49140372  0.36852888  1
  O  O336  1  0.99464659  0.50027426  0.88624788  1
  O  O337  1  0.99157332  0.99235319  0.37950569  1
  O  O338  1  0.99407099  0.99050761  0.88179570  1
  O  O339  1  0.01262988  -0.00561306  0.11512760  1
  O  O340  1  -0.00042199  0.01012366  0.61310964  1
  O  O341  1  0.00300760  0.50435367  0.12286212  1
  O  O342  1  0.01250586  0.50503118  0.62353311  1
  O  O343  1  0.51740354  -0.00007426  0.12405787  1
  O  O344  1  0.50706635  0.00449700  0.61085606  1
  O  O345  1  0.50652928  0.50582866  0.12009433  1
  O  O346  1  0.49964494  0.51133255  0.61398844  1
  O  O347  1  0.24819368  0.38052390  0.25058343  1
  O  O348  1  0.24166960  0.37544964  0.73439134  1
  O  O349  1  0.24369683  0.87501426  0.24156628  1
  O  O350  1  0.24778976  0.88955173  0.75662103  1
  O  O351  1  0.74641334  0.38884590  0.25382069  1
  O  O352  1  0.75671179  0.38175675  0.73677083  1
  O  O353  1  0.73778943  0.88210542  0.25671673  1
  O  O354  1  0.77061175  0.91292450  0.81588585  1
  O  O355  1  0.26237142  0.11883473  0.25365220  1
  O  O356  1  0.25734236  0.12026949  0.75478773  1
  O  O357  1  0.25630384  0.61959577  0.25657649  1
  O  O358  1  0.25026353  0.62738557  0.76153266  1
  O  O359  1  0.75657662  0.11695903  0.25688919  1
  O  O360  1  0.76724712  0.12920058  0.76184911  1
  O  O361  1  0.74337703  0.61724562  0.26650565  1
  O  O362  1  0.75923776  0.61737676  0.75480623  1
  O  O363  1  0.36880957  0.12400090  0.36116788  1
  O  O364  1  0.36820317  0.12183510  0.86730712  1
  O  O365  1  0.36854517  0.63007413  0.36358365  1
  O  O366  1  0.36661692  0.61215392  0.88147788  1
  O  O367  1  0.86778088  0.12009631  0.36843214  1
  O  O368  1  0.87237945  0.11764257  0.86794520  1
  O  O369  1  0.86527117  0.61643004  0.38215453  1
  O  O370  1  0.86959779  0.62087744  0.87015380  1
  O  O371  1  0.13208016  0.37943512  0.13388908  1
  O  O372  1  0.12320433  0.39177688  0.62604179  1
  O  O373  1  0.13017036  0.87919961  0.12757990  1
  O  O374  1  0.11311023  0.88276987  0.62894533  1
  O  O375  1  0.61915743  0.38869410  0.12383717  1
  O  O376  1  0.63881622  0.37452391  0.61711717  1
  O  O377  1  0.62463307  0.88524771  0.13195751  1
  O  O378  1  0.62418019  0.88827401  0.62259954  1
  O  O379  1  0.11852892  0.25468945  0.25084754  1
  O  O380  1  0.11425512  0.24846134  0.75898621  1
  O  O381  1  0.12154669  0.76182245  0.24222842  1
  O  O382  1  0.12844507  0.74914511  0.76481555  1
  O  O383  1  0.62211315  0.24940413  0.26050132  1
  O  O384  1  0.61471596  0.20900434  0.76061621  1
  O  O385  1  0.62067799  0.75846224  0.25024865  1
  O  O386  1  0.62711435  0.74568321  0.75704416  1
  O  O387  1  0.37725978  0.23652576  0.24116411  1
  O  O388  1  0.37033117  0.23869092  0.74809500  1
  O  O389  1  0.38152029  0.74277326  0.24221377  1
  O  O390  1  0.38288471  0.74712124  0.75313909  1
  O  O391  1  0.88115532  0.24624336  0.24418311  1
  O  O392  1  0.88774393  0.24333533  0.75248212  1
  O  O393  1  0.87444826  0.75691799  0.23783718  1
  O  O394  1  0.86447700  0.74224846  0.73959777  1
  O  O395  1  0.38748385  0.50870142  0.49710784  1
  O  O396  1  0.37784021  0.49298069  0.99883392  1
  O  O397  1  0.38145387  0.98286138  0.50150289  1
  O  O398  1  0.36963563  0.99233801  0.98930607  1
  O  O399  1  0.87093536  0.48944363  0.48673681  1
  O  O400  1  0.87958469  0.49360087  0.99959336  1
  O  O401  1  0.87972895  0.99297335  0.49499708  1
  O  O402  1  0.88162888  0.98985616  0.99902632  1
  O  O403  1  0.11847756  0.00400741  0.00265783  1
  O  O404  1  0.11248511  -0.00383877  0.49560477  1
  O  O405  1  0.11634859  0.49813118  0.00811055  1
  O  O406  1  0.12905687  0.51840536  0.50808385  1
  O  O407  1  0.63626434  0.00261383  0.01184098  1
  O  O408  1  0.61770344  0.00557159  0.50364711  1
  O  O409  1  0.62243291  0.50971702  0.00843976  1
  O  O410  1  0.61410925  0.50806490  0.50245235  1
  O  O411  1  0.37029471  0.36832030  0.12010301  1
  O  O412  1  0.36165379  0.38232513  0.62561468  1
  O  O413  1  0.37048418  0.87096838  0.11731499  1
  O  O414  1  0.37847801  0.87516376  0.61662486  1
  O  O415  1  0.88030731  0.36194732  0.11959208  1
  O  O416  1  0.86894000  0.37464601  0.61550874  1
  O  O417  1  0.88121144  0.86609936  0.11427044  1
  O  O418  1  0.87708831  0.87003574  0.61475136  1
  O  O419  1  0.13721083  0.11951643  0.36600095  1
  O  O420  1  0.12778850  0.13513255  0.88268320  1
  O  O421  1  0.13354199  0.62269887  0.38665411  1
  O  O422  1  0.13291404  0.63039366  0.88050409  1
  O  O423  1  0.63190060  0.12922950  0.38034522  1
  O  O424  1  0.63943197  0.12191329  0.89024082  1
  O  O425  1  0.63063728  0.62727394  0.38708072  1
  O  O426  1  0.62806430  0.63235505  0.88173738  1
