# generated using pymatgen
data_V85Zn86O256
_symmetry_space_group_name_H-M   'P 1'
_cell_length_a   16.97105831
_cell_length_b   16.95333137
_cell_length_c   16.97350302
_cell_angle_alpha   89.95746273
_cell_angle_beta   90.06748315
_cell_angle_gamma   90.04486847
_symmetry_Int_Tables_number   1
_chemical_formula_structural   V85Zn86O256
_chemical_formula_sum   'V85 Zn86 O256'
_cell_volume   4883.54174851
_cell_formula_units_Z   1
loop_
 _symmetry_equiv_pos_site_id
 _symmetry_equiv_pos_as_xyz
  1  'x, y, z'
loop_
 _atom_site_type_symbol
 _atom_site_label
 _atom_site_symmetry_multiplicity
 _atom_site_fract_x
 _atom_site_fract_y
 _atom_site_fract_z
 _atom_site_occupancy
  V  V0  1  0.37771123  0.75159520  0.12543569  1
  V  V1  1  0.88517130  0.88444601  0.49491089  1
  V  V2  1  0.37349248  0.74828515  0.62463012  1
  V  V3  1  0.62829111  0.62596230  0.00190029  1
  V  V4  1  0.50089239  0.74823324  0.75134835  1
  V  V5  1  0.37413762  0.00582026  0.86139633  1
  V  V6  1  0.24752134  0.62608910  0.87743621  1
  V  V7  1  0.87330126  0.49837784  0.88044702  1
  V  V8  1  0.00257913  0.62920734  0.13656873  1
  V  V9  1  0.12096920  0.77696193  0.37372656  1
  V  V10  1  0.13060094  0.87400664  0.76576134  1
  V  V11  1  0.62167787  -0.00178341  0.11261833  1
  V  V12  1  0.12677809  0.49996665  0.12352727  1
  V  V13  1  0.12313485  0.49859708  0.62679698  1
  V  V14  1  0.63692579  0.87547803  0.25584985  1
  V  V15  1  0.12209723  0.62503857  0.49551829  1
  V  V16  1  0.25244796  0.37646739  0.12345444  1
  V  V17  1  0.74695756  0.24865769  0.49422246  1
  V  V18  1  0.38215874  0.11405453  0.26078954  1
  V  V19  1  0.37502410  0.49975755  0.37410270  1
  V  V20  1  0.48892496  0.11975014  0.62449647  1
  V  V21  1  0.73255236  0.37348734  0.12742073  1
  V  V22  1  0.24848772  0.50007758  0.75168131  1
  V  V23  1  0.87878112  0.25485342  0.63513089  1
  V  V24  1  0.74830441  0.00313779  0.75237722  1
  V  V25  1  0.62309673  0.49895258  0.62554410  1
  V  V26  1  0.12050277  0.23930073  0.88167994  1
  V  V27  1  0.88819733  0.87751907  -0.00869529  1
  V  V28  1  0.24220841  -0.00628521  0.26268980  1
  V  V29  1  0.73835051  0.49541264  0.24500817  1
  V  V30  1  0.74504779  0.37429759  0.62465470  1
  V  V31  1  0.87462122  0.36982674  0.49865403  1
  V  V32  1  0.24274516  0.14964964  0.37805849  1
  V  V33  1  0.50920468  0.24830781  0.24967086  1
  V  V34  1  0.91861385  0.32240119  0.04823312  1
  V  V35  1  0.50412238  0.86313144  0.37492075  1
  V  V36  1  0.12916883  0.00236193  0.10917784  1
  V  V37  1  0.72817226  0.25115215  -0.00017711  1
  V  V38  1  0.37890156  0.24576589  0.12511458  1
  V  V39  1  0.50672775  0.62153058  0.12729325  1
  V  V40  1  0.74889518  0.63184312  0.37061364  1
  V  V41  1  -0.00361990  0.50444104  0.00196356  1
  V  V42  1  0.00381341  0.77438169  0.25473373  1
  V  V43  1  0.50340337  0.36802157  0.87416567  1
  V  V44  1  0.75344525  0.87930380  0.11914578  1
  V  V45  1  0.87421425  0.13527193  0.75147493  1
  V  V46  1  0.49837816  0.49726014  0.50082819  1
  V  V47  1  0.74756812  0.50043474  0.75185363  1
  V  V48  1  0.88404391  -0.00036484  0.87003727  1
  V  V49  1  0.50655559  0.49837750  0.00344921  1
  V  V50  1  0.75065987  0.75095818  0.49848952  1
  V  V51  1  0.25051837  0.75212517  -0.00181864  1
  V  V52  1  0.00075743  0.62795549  0.62549255  1
  V  V53  1  0.37562491  0.62660935  0.24961356  1
  V  V54  1  -0.00361415  0.37128466  0.87169401  1
  V  V55  1  0.06205870  0.09878754  0.57599956  1
  V  V56  1  0.50078946  -0.00175482  0.48826555  1
  V  V57  1  0.25215065  0.37081596  0.61973818  1
  V  V58  1  0.12104731  0.37143673  0.75219395  1
  V  V59  1  0.24045322  0.87883150  0.62324570  1
  V  V60  1  0.62642722  0.62712282  0.49694266  1
  V  V61  1  0.25146540  0.23911387  -0.00228792  1
  V  V62  1  0.37432997  0.62486382  0.75183558  1
  V  V63  1  0.37628333  0.37448938  -0.00159056  1
  V  V64  1  0.37504458  0.49871025  0.87582570  1
  V  V65  1  0.49263703  0.24235484  0.74811138  1
  V  V66  1  0.62522942  0.87227832  0.75061188  1
  V  V67  1  0.24879532  0.74922637  0.49849585  1
  V  V68  1  0.37443198  0.87584367  0.49566592  1
  V  V69  1  0.87726626  0.62675458  0.24913026  1
  V  V70  1  -0.00384481  0.49667197  0.50300755  1
  V  V71  1  0.50317686  0.11682413  0.11458506  1
  V  V72  1  0.87503292  0.62733117  0.75190685  1
  V  V73  1  0.00717610  0.75516117  0.76270447  1
  V  V74  1  0.37973945  0.88584327  0.00275427  1
  V  V75  1  0.75976953  0.10346937  0.36850752  1
  V  V76  1  0.73004239  0.12994841  0.87851362  1
  V  V77  1  0.62403078  0.00031463  0.62365628  1
  V  V78  1  0.49993162  0.87726549  0.87917217  1
  V  V79  1  0.12290467  0.63432373  -0.00272286  1
  V  V80  1  0.87368568  0.49711163  0.37261181  1
  V  V81  1  0.75330837  0.87678462  0.62565674  1
  V  V82  1  0.62370917  0.36595918  0.75210874  1
  V  V83  1  0.50981620  0.37431827  0.36876605  1
  V  V84  1  0.24599975  0.62587861  0.37262817  1
  Zn  Zn85  1  0.62962343  0.24530640  0.37073735  1
  Zn  Zn86  1  0.36788529  0.36401372  0.49235901  1
  Zn  Zn87  1  0.87823157  0.75273289  0.62513398  1
  Zn  Zn88  1  0.87383889  0.12139221  0.24101648  1
  Zn  Zn89  1  0.24906783  0.12376970  0.86997534  1
  Zn  Zn90  1  0.00999281  0.35236453  0.38050393  1
  Zn  Zn91  1  0.62847296  0.12352289  0.49723317  1
  Zn  Zn92  1  0.24290841  0.02766912  0.73057099  1
  Zn  Zn93  1  0.50084427  0.62353762  0.62589398  1
  Zn  Zn94  1  -0.00944907  0.12663627  0.10630531  1
  Zn  Zn95  1  0.74744051  0.62572743  0.87634624  1
  Zn  Zn96  1  0.75301117  0.75208917  -0.00236682  1
  Zn  Zn97  1  0.87896483  0.75664951  0.12458348  1
  Zn  Zn98  1  0.25026746  0.87568743  0.13271992  1
  Zn  Zn99  1  0.50641659  0.74908262  0.25299025  1
  Zn  Zn100  1  -0.00897808  0.24956290  0.25200568  1
  Zn  Zn101  1  0.25219570  0.49896594  0.24730205  1
  Zn  Zn102  1  0.02304095  0.01233443  -0.02490536  1
  Zn  Zn103  1  0.36329698  0.23397246  0.62122570  1
  Zn  Zn104  1  0.62873876  0.74904860  0.87660124  1
  Zn  Zn105  1  0.12839123  0.35822916  0.26143739  1
  Zn  Zn106  1  -0.05550522  0.95861913  0.33902618  1
  Zn  Zn107  1  0.19536135  0.17907667  0.19030347  1
  Zn  Zn108  1  0.18892540  0.19408752  0.69596659  1
  Zn  Zn109  1  0.18528763  0.69333366  0.19079469  1
  Zn  Zn110  1  0.18629399  0.68899118  0.68754063  1
  Zn  Zn111  1  0.69331258  0.18269421  0.18575670  1
  Zn  Zn112  1  0.68594087  0.18672052  0.68367877  1
  Zn  Zn113  1  0.68964478  0.69525918  0.18564229  1
  Zn  Zn114  1  0.68822791  0.68753227  0.68483456  1
  Zn  Zn115  1  0.32268179  0.31362514  0.30520358  1
  Zn  Zn116  1  0.31057315  0.30748985  0.80862480  1
  Zn  Zn117  1  0.31456977  0.81202720  0.31556278  1
  Zn  Zn118  1  0.31214194  0.81343205  0.81537462  1
  Zn  Zn119  1  0.82008276  0.30463340  0.30753485  1
  Zn  Zn120  1  0.80426562  0.31436058  0.82346283  1
  Zn  Zn121  1  0.81695361  0.81573143  0.31180538  1
  Zn  Zn122  1  0.81392301  0.80965951  0.81451848  1
  Zn  Zn123  1  0.18809967  0.43784806  0.43953033  1
  Zn  Zn124  1  0.18459395  0.43579214  0.94168155  1
  Zn  Zn125  1  0.12533117  0.99211912  0.41897869  1
  Zn  Zn126  1  0.19702202  0.93302993  0.93322692  1
  Zn  Zn127  1  0.68880680  0.43914991  0.43538839  1
  Zn  Zn128  1  0.68663869  0.43572513  0.93975182  1
  Zn  Zn129  1  0.68811577  0.93370990  0.43961837  1
  Zn  Zn130  1  0.68884813  0.93581657  0.93652465  1
  Zn  Zn131  1  0.31364317  0.06002734  0.06671982  1
  Zn  Zn132  1  0.30670445  0.05629968  0.54777706  1
  Zn  Zn133  1  0.31646566  0.56426456  0.06150679  1
  Zn  Zn134  1  0.31135382  0.56047958  0.56201576  1
  Zn  Zn135  1  0.80282136  0.06120405  0.05137301  1
  Zn  Zn136  1  0.85569443  0.08982842  0.53900745  1
  Zn  Zn137  1  0.81182553  0.55965746  0.06876169  1
  Zn  Zn138  1  0.81208061  0.56142661  0.56441779  1
  Zn  Zn139  1  0.44076032  0.43685017  0.18824795  1
  Zn  Zn140  1  0.43618007  0.43605204  0.68860860  1
  Zn  Zn141  1  0.44020020  0.93769468  0.19270090  1
  Zn  Zn142  1  0.43668815  0.93398771  0.68429477  1
  Zn  Zn143  1  0.93883558  0.43432663  0.19469306  1
  Zn  Zn144  1  0.93448949  0.43747683  0.69036556  1
  Zn  Zn145  1  0.91987892  0.97794000  0.16025259  1
  Zn  Zn146  1  0.94089957  0.94120521  0.67702302  1
  Zn  Zn147  1  0.07049308  0.08349108  0.28460186  1
  Zn  Zn148  1  0.05168218  0.05802167  0.75080591  1
  Zn  Zn149  1  0.07549623  0.52575198  0.32545643  1
  Zn  Zn150  1  0.06144157  0.56257650  0.81529082  1
  Zn  Zn151  1  0.57547452  0.05983370  0.30976072  1
  Zn  Zn152  1  0.55702373  0.05875646  0.81147906  1
  Zn  Zn153  1  0.56313281  0.56504791  0.31463749  1
  Zn  Zn154  1  0.56245795  0.55974566  0.81602817  1
  Zn  Zn155  1  0.43803513  0.18852275  0.44029051  1
  Zn  Zn156  1  0.44174513  0.18712763  0.93723324  1
  Zn  Zn157  1  0.43845498  0.68564002  0.43831559  1
  Zn  Zn158  1  0.43814772  0.68850529  0.93929484  1
  Zn  Zn159  1  0.97764192  0.14226216  0.41408096  1
  Zn  Zn160  1  0.93085418  0.18098922  0.93054946  1
  Zn  Zn161  1  0.93704277  0.69223854  0.43460228  1
  Zn  Zn162  1  0.93632245  0.68863637  0.93943309  1
  Zn  Zn163  1  0.09436374  0.28112832  0.09664795  1
  Zn  Zn164  1  0.05972155  0.29818851  0.56460336  1
  Zn  Zn165  1  0.06566221  0.82177682  0.06800607  1
  Zn  Zn166  1  0.06323703  0.81141494  0.56277881  1
  Zn  Zn167  1  0.56029570  0.31201328  0.06728683  1
  Zn  Zn168  1  0.55575876  0.30759145  0.55964720  1
  Zn  Zn169  1  0.56404387  0.81106991  0.06477310  1
  Zn  Zn170  1  0.56422072  0.81032257  0.56308081  1
  O  O171  1  0.13757904  0.10591295  0.12147725  1
  O  O172  1  0.11430174  0.11512879  0.67138814  1
  O  O173  1  0.12039178  0.62286791  0.11654983  1
  O  O174  1  0.11736191  0.62042285  0.61894881  1
  O  O175  1  0.61926612  0.10550813  0.13222379  1
  O  O176  1  0.62040122  0.10948966  0.62259658  1
  O  O177  1  0.61297091  0.63051210  0.12049032  1
  O  O178  1  0.62480916  0.61807624  0.61385831  1
  O  O179  1  0.38476124  0.38514790  0.37513404  1
  O  O180  1  0.38237510  0.37938000  0.87789331  1
  O  O181  1  0.38643070  0.86639953  0.38831022  1
  O  O182  1  0.38131842  0.88039921  0.88210502  1
  O  O183  1  0.87347388  0.38242807  0.38506551  1
  O  O184  1  0.88158949  0.38813654  0.86580079  1
  O  O185  1  0.87954350  0.87289214  0.38912290  1
  O  O186  1  0.87154728  0.88382729  0.88232392  1
  O  O187  1  0.23462804  0.00327498  0.36368675  1
  O  O188  1  0.26741223  0.00183224  0.87329881  1
  O  O189  1  0.26391118  0.50465001  0.37454146  1
  O  O190  1  0.25509173  0.50490620  0.87255921  1
  O  O191  1  0.74920191  0.00496804  0.37708841  1
  O  O192  1  0.75102957  0.00448411  0.86433329  1
  O  O193  1  0.75879540  0.50837413  0.37032524  1
  O  O194  1  0.75653535  0.50201125  0.87048785  1
  O  O195  1  0.24727476  0.49317615  0.12064628  1
  O  O196  1  0.24126722  0.49504708  0.63130526  1
  O  O197  1  0.24878387  0.99720631  0.13493226  1
  O  O198  1  0.26118310  0.98335662  0.62571111  1
  O  O199  1  0.75041318  0.48621551  0.13175055  1
  O  O200  1  0.74330917  0.49408327  0.63202656  1
  O  O201  1  0.73501262  0.98781127  0.11877860  1
  O  O202  1  0.74064033  0.98795905  0.63494106  1
  O  O203  1  0.00495165  0.37024990  0.25680892  1
  O  O204  1  0.00907244  0.38693884  0.76118345  1
  O  O205  1  -0.00654455  0.87228271  0.25578800  1
  O  O206  1  0.01538756  0.86186987  0.74308306  1
  O  O207  1  0.49467238  0.36307103  0.25727618  1
  O  O208  1  0.50519903  0.36981914  0.75606485  1
  O  O209  1  0.50529600  0.87159899  0.26168271  1
  O  O210  1  0.50395713  0.86515964  0.75477000  1
  O  O211  1  0.49407906  0.12568308  0.24763033  1
  O  O212  1  0.50414953  0.13190943  0.74031058  1
  O  O213  1  0.49641511  0.62693364  0.24346276  1
  O  O214  1  0.49406091  0.63124719  0.75011074  1
  O  O215  1  0.99769722  0.13643564  0.22098199  1
  O  O216  1  0.97116108  0.14155657  0.76848044  1
  O  O217  1  0.99997546  0.62186554  0.23980971  1
  O  O218  1  0.99559298  0.63133542  0.74478171  1
  O  O219  1  0.37259694  0.25708544  0.00344066  1
  O  O220  1  0.39285008  0.25712638  0.51400468  1
  O  O221  1  0.37029554  0.75389896  0.00885726  1
  O  O222  1  0.37247873  0.75211018  0.50823580  1
  O  O223  1  0.86181916  0.26115259  -0.01051624  1
  O  O224  1  0.86447579  0.26407671  0.51511482  1
  O  O225  1  0.87708589  0.76442276  0.00081296  1
  O  O226  1  0.86385144  0.75443660  0.50340214  1
  O  O227  1  0.09665570  0.19455618  0.54569272  1
  O  O228  1  0.14089279  0.25587214  0.99434054  1
  O  O229  1  0.12745556  0.74297077  0.49031500  1
  O  O230  1  0.13634819  0.74431335  1.00862627  1
  O  O231  1  0.63319629  0.24678841  0.49826208  1
  O  O232  1  0.62935937  0.25135241  0.99914838  1
  O  O233  1  0.63904525  0.74100069  0.50626557  1
  O  O234  1  0.62526223  0.73890062  0.99838407  1
  O  O235  1  0.49680139  0.24117269  0.13192765  1
  O  O236  1  0.50488389  0.23417214  0.63277106  1
  O  O237  1  0.48980983  0.74136357  0.12517607  1
  O  O238  1  0.49336241  0.74735059  0.63501956  1
  O  O239  1  0.98106748  0.26017634  0.09923610  1
  O  O240  1  0.97648623  0.26923697  0.64168157  1
  O  O241  1  1.00249024  0.74738126  0.13719247  1
  O  O242  1  0.99980482  0.73712054  0.63143152  1
  O  O243  1  0.00262113  0.24068584  0.36987162  1
  O  O244  1  0.00456312  0.26696230  0.88484073  1
  O  O245  1  0.01240212  0.74556676  0.36568926  1
  O  O246  1  -0.00041436  0.74532898  0.86049861  1
  O  O247  1  0.50445044  0.25780796  0.36744985  1
  O  O248  1  0.49597498  0.26001305  0.86614556  1
  O  O249  1  0.50362867  0.75865101  0.37757183  1
  O  O250  1  0.49819928  0.75660943  0.86356814  1
  O  O251  1  0.26051284  0.12717382  0.47563716  1
  O  O252  1  0.26349574  0.13679785  0.99246208  1
  O  O253  1  0.24464248  0.63011890  0.49372592  1
  O  O254  1  0.24343612  0.63172231  0.99832253  1
  O  O255  1  0.75387085  0.13503541  0.49205241  1
  O  O256  1  0.74669156  0.14173115  0.99335259  1
  O  O257  1  0.74610439  0.63008495  0.49432343  1
  O  O258  1  0.73657262  0.62290090  1.00546562  1
  O  O259  1  0.25945012  0.37133599  0.00728919  1
  O  O260  1  0.24897316  0.38067485  0.51506810  1
  O  O261  1  0.26371902  0.86487144  0.00157172  1
  O  O262  1  0.26184903  0.86422934  0.50960615  1
  O  O263  1  0.74249071  0.36537102  0.01097833  1
  O  O264  1  0.75508866  0.37294749  0.50561248  1
  O  O265  1  0.75813954  0.87319802  0.00460556  1
  O  O266  1  0.75465639  0.86618729  0.50740787  1
  O  O267  1  0.13281700  0.50539175  0.22886035  1
  O  O268  1  0.12959174  0.49516289  0.74599012  1
  O  O269  1  0.14173151  1.00153641  0.23906526  1
  O  O270  1  0.13660957  0.97761339  0.76107968  1
  O  O271  1  0.63994211  0.50401424  0.25663209  1
  O  O272  1  0.62706559  0.49315582  0.74399226  1
  O  O273  1  0.62067665  0.97984204  0.23904757  1
  O  O274  1  0.62994496  0.99196937  0.74385442  1
  O  O275  1  0.36907069  0.01094831  0.25009579  1
  O  O276  1  0.37218990  -0.00928794  0.76030128  1
  O  O277  1  0.37524582  0.50758755  0.25760331  1
  O  O278  1  0.36963152  0.50669224  0.75542537  1
  O  O279  1  0.88041434  0.00453336  0.26058199  1
  O  O280  1  0.86192352  0.01120168  0.75110245  1
  O  O281  1  0.86747780  0.50658477  0.25804587  1
  O  O282  1  0.86963392  0.50931232  0.75874188  1
  O  O283  1  0.11268067  0.41150253  0.36300112  1
  O  O284  1  0.11456624  0.37721643  0.87031430  1
  O  O285  1  0.12214110  0.87435424  0.38859067  1
  O  O286  1  0.13517964  0.86241592  0.86407164  1
  O  O287  1  0.61220593  0.37719960  0.37593428  1
  O  O288  1  0.61337887  0.38216958  0.86485720  1
  O  O289  1  0.62237896  0.87498219  0.36330299  1
  O  O290  1  0.61619845  0.87248547  0.86871851  1
  O  O291  1  0.38444913  0.12645346  0.13524921  1
  O  O292  1  0.38623309  0.11577378  0.61873631  1
  O  O293  1  0.38547852  0.63117909  0.12878445  1
  O  O294  1  0.37544850  0.63411620  0.62984306  1
  O  O295  1  0.87974933  0.08840637  0.12459471  1
  O  O296  1  0.85860892  0.14067752  0.64431007  1
  O  O297  1  0.88499964  0.62862235  0.13091879  1
  O  O298  1  0.88189811  0.62438890  0.63653329  1
  O  O299  1  0.26065515  0.25575104  0.11580953  1
  O  O300  1  0.24959276  0.26741120  0.62977207  1
  O  O301  1  0.26272113  0.74992051  0.11932617  1
  O  O302  1  0.25767714  0.75070816  0.61787464  1
  O  O303  1  0.74255324  0.26009401  0.11366150  1
  O  O304  1  0.74862239  0.25913609  0.61593397  1
  O  O305  1  0.75673767  0.76472628  0.12100020  1
  O  O306  1  0.75209090  0.76093790  0.61976593  1
  O  O307  1  0.25451968  0.25032230  0.36983902  1
  O  O308  1  0.24129105  0.25502605  0.88416933  1
  O  O309  1  0.23916126  0.74663713  0.37942946  1
  O  O310  1  0.25953049  0.74045725  0.89017568  1
  O  O311  1  0.74812598  0.26105581  0.38877235  1
  O  O312  1  0.74047086  0.24560100  0.88833248  1
  O  O313  1  0.75478370  0.73893226  0.38157516  1
  O  O314  1  0.74766155  0.74321659  0.87840055  1
  O  O315  1  -0.00156924  0.12156273  -0.00632751  1
  O  O316  1  -0.03282066  0.11559423  0.52394147  1
  O  O317  1  0.00710487  0.62561796  0.00964655  1
  O  O318  1  -0.00011933  0.62096229  0.50923995  1
  O  O319  1  0.49830835  0.12814948  0.01592069  1
  O  O320  1  0.50458990  0.11203149  0.50521049  1
  O  O321  1  0.50713431  0.61784730  0.00645284  1
  O  O322  1  0.50891043  0.61482709  0.49954127  1
  O  O323  1  0.50150073  0.38824559  0.49285280  1
  O  O324  1  0.49778928  0.37992206  0.99357371  1
  O  O325  1  0.49647107  0.87661286  0.49526200  1
  O  O326  1  0.49163913  0.86358328  0.98883823  1
  O  O327  1  0.99211542  0.37636566  0.50109606  1
  O  O328  1  0.98526291  0.38527880  0.99378307  1
  O  O329  1  0.98408896  0.87299178  0.51082768  1
  O  O330  1  0.98972376  0.88090930  0.99684054  1
  O  O331  1  0.49242687  0.49651322  0.37958667  1
  O  O332  1  0.49335395  0.49002256  0.88170851  1
  O  O333  1  0.50960110  0.98867551  0.38583080  1
  O  O334  1  0.49012549  0.98449820  0.86924431  1
  O  O335  1  0.98014257  0.50812502  0.38683058  1
  O  O336  1  0.99313529  0.49467777  0.88277354  1
  O  O337  1  1.02324657  1.03037332  0.37691645  1
  O  O338  1  0.98514408  1.00420172  0.86006329  1
  O  O339  1  0.02366357  -0.00315119  0.11109930  1
  O  O340  1  0.00248750  0.02619798  0.64693520  1
  O  O341  1  0.00724474  0.50801950  0.11973887  1
  O  O342  1  0.00193590  0.50954020  0.62268213  1
  O  O343  1  0.51004985  0.00320146  0.12720277  1
  O  O344  1  0.50697169  0.00081719  0.61885598  1
  O  O345  1  0.49496371  0.50885938  0.11567127  1
  O  O346  1  0.50270394  0.50124541  0.61674689  1
  O  O347  1  0.25082707  0.37653863  0.23459310  1
  O  O348  1  0.24232669  0.38305531  0.74345537  1
  O  O349  1  0.26197536  0.89086227  0.25261466  1
  O  O350  1  0.23780799  0.85858995  0.74073575  1
  O  O351  1  0.75453611  0.38070737  0.23499851  1
  O  O352  1  0.73921948  0.38083161  0.74767199  1
  O  O353  1  0.74230767  0.87090682  0.24232039  1
  O  O354  1  0.74651104  0.87972015  0.74408590  1
  O  O355  1  0.26603345  0.11794866  0.25963028  1
  O  O356  1  0.26295873  0.13422625  0.75746248  1
  O  O357  1  0.25706940  0.62509464  0.25601306  1
  O  O358  1  0.25371885  0.62057366  0.75662299  1
  O  O359  1  0.74994812  0.12603692  0.26610059  1
  O  O360  1  0.74506920  0.11797798  0.75726274  1
  O  O361  1  0.75373831  0.62225400  0.25524395  1
  O  O362  1  0.75878188  0.61972408  0.74922679  1
  O  O363  1  0.37528873  0.12894970  0.36187246  1
  O  O364  1  0.38647944  0.10575813  0.87695283  1
  O  O365  1  0.36959389  0.61974994  0.37034828  1
  O  O366  1  0.37038593  0.61815528  0.87191195  1
  O  O367  1  0.85950677  0.12341886  0.37964366  1
  O  O368  1  0.85439527  0.11838106  0.86572310  1
  O  O369  1  0.86582659  0.61975175  0.36998089  1
  O  O370  1  0.87584948  0.61926383  0.86435394  1
  O  O371  1  0.13965833  0.38886561  0.11240114  1
  O  O372  1  0.13050122  0.37737102  0.63228862  1
  O  O373  1  0.13668205  0.89045815  0.12218689  1
  O  O374  1  0.13755113  0.86519735  0.63079431  1
  O  O375  1  0.63354501  0.37757925  0.12795228  1
  O  O376  1  0.62567015  0.38029229  0.63149421  1
  O  O377  1  0.63055256  0.88072303  0.13019112  1
  O  O378  1  0.63033415  0.88131095  0.63047024  1
  O  O379  1  0.11677981  0.25749272  0.20892388  1
  O  O380  1  0.12622223  0.26813362  0.76422535  1
  O  O381  1  0.11698917  0.75397567  0.26217727  1
  O  O382  1  0.11291184  0.75112290  0.74929025  1
  O  O383  1  0.61252369  0.24196578  0.24887105  1
  O  O384  1  0.61584463  0.26191768  0.74490947  1
  O  O385  1  0.62162573  0.76901238  0.24189834  1
  O  O386  1  0.61614667  0.75269313  0.74985561  1
  O  O387  1  0.38694489  0.23760437  0.24274944  1
  O  O388  1  0.38980220  0.25875044  0.73931329  1
  O  O389  1  0.37855627  0.74407702  0.24280128  1
  O  O390  1  0.38081922  0.74490817  0.74397670  1
  O  O391  1  0.87488341  0.23882420  0.24094962  1
  O  O392  1  0.85321251  0.24243677  0.74834283  1
  O  O393  1  0.88749389  0.74384053  0.25013705  1
  O  O394  1  0.88727057  0.74380278  0.74768336  1
  O  O395  1  0.38356529  0.49999804  0.49182547  1
  O  O396  1  0.38618745  0.49539787  0.99502641  1
  O  O397  1  0.38728566  0.98393249  0.50395522  1
  O  O398  1  0.37396158  0.98778752  0.99429808  1
  O  O399  1  0.87558596  0.48956086  0.49693247  1
  O  O400  1  0.87919695  0.51333022  0.98662488  1
  O  O401  1  0.86619628  0.98108571  0.50396902  1
  O  O402  1  0.87113840  0.98964768  0.98265672  1
  O  O403  1  0.13583095  -0.00231893  0.00196287  1
  O  O404  1  0.11814066  0.03232269  0.52530753  1
  O  O405  1  0.11901252  0.51077995  0.00790475  1
  O  O406  1  0.11556305  0.50595986  0.50933044  1
  O  O407  1  0.62050122  -0.00968724  0.01329479  1
  O  O408  1  0.61784092  -0.00458337  0.50941134  1
  O  O409  1  0.61220640  0.50621473  -0.00360669  1
  O  O410  1  0.61925820  0.50635447  0.50509606  1
  O  O411  1  0.37158858  0.36925541  0.11898393  1
  O  O412  1  0.35609223  0.38386224  0.62509910  1
  O  O413  1  0.37846022  0.86745559  0.11897377  1
  O  O414  1  0.37176804  0.86045465  0.61932868  1
  O  O415  1  0.86826197  0.38056388  0.11524841  1
  O  O416  1  0.86231919  0.37636563  0.62209088  1
  O  O417  1  0.86930682  0.88284866  0.10795359  1
  O  O418  1  0.86677900  0.87276322  0.62132221  1
  O  O419  1  0.14459604  0.13657305  0.36156730  1
  O  O420  1  0.12469460  0.14093430  0.86730266  1
  O  O421  1  0.13377708  0.61481007  0.38117978  1
  O  O422  1  0.12973659  0.62075223  0.88998061  1
  O  O423  1  0.64036871  0.12491446  0.37897656  1
  O  O424  1  0.63130379  0.11656692  0.87494046  1
  O  O425  1  0.63439169  0.62047928  0.38819303  1
  O  O426  1  0.62435068  0.62547712  0.88708560  1
