# generated using pymatgen
data_V85Zn86O256
_symmetry_space_group_name_H-M   'P 1'
_cell_length_a   16.94196960
_cell_length_b   16.94515613
_cell_length_c   16.93523090
_cell_angle_alpha   89.97562469
_cell_angle_beta   89.98108290
_cell_angle_gamma   90.03914180
_symmetry_Int_Tables_number   1
_chemical_formula_structural   V85Zn86O256
_chemical_formula_sum   'V85 Zn86 O256'
_cell_volume   4861.83740690
_cell_formula_units_Z   1
loop_
 _symmetry_equiv_pos_site_id
 _symmetry_equiv_pos_as_xyz
  1  'x, y, z'
loop_
 _atom_site_type_symbol
 _atom_site_label
 _atom_site_symmetry_multiplicity
 _atom_site_fract_x
 _atom_site_fract_y
 _atom_site_fract_z
 _atom_site_occupancy
  V  V0  1  0.75078079  0.75466037  0.00037719  1
  V  V1  1  0.37187555  0.00016747  0.87741054  1
  V  V2  1  0.49906451  0.87641372  0.87320704  1
  V  V3  1  0.74995122  0.00983835  0.24855755  1
  V  V4  1  -0.00246534  0.62292328  0.12247171  1
  V  V5  1  0.62088583  0.00438391  0.12401317  1
  V  V6  1  0.37875595  0.62532622  0.74873053  1
  V  V7  1  0.12096265  0.87319438  0.75237998  1
  V  V8  1  0.87548733  0.75880336  0.12142348  1
  V  V9  1  0.24857703  -0.00060696  0.74949221  1
  V  V10  1  0.25093362  0.24904854  0.50362644  1
  V  V11  1  0.37622728  0.12739444  0.73673647  1
  V  V12  1  0.62065320  0.62009617  0.01287008  1
  V  V13  1  -0.01465817  0.88162803  0.87768683  1
  V  V14  1  0.24935554  0.12174821  0.37317663  1
  V  V15  1  -0.00221951  0.62456961  0.63424378  1
  V  V16  1  -0.00194869  0.36827187  0.37309565  1
  V  V17  1  0.62681280  0.24917193  0.87651515  1
  V  V18  1  0.24392244  0.12320004  0.87399039  1
  V  V19  1  0.12259666  0.62155583  -0.00415164  1
  V  V20  1  0.37774605  0.36920662  0.50596400  1
  V  V21  1  0.74961905  0.13149345  0.39009611  1
  V  V22  1  0.60379993  0.12488898  0.50571059  1
  V  V23  1  0.76547190  0.37069488  0.12189143  1
  V  V24  1  0.24989493  0.37419992  0.62608074  1
  V  V25  1  0.25276743  0.49847033  0.24885016  1
  V  V26  1  0.62545450  0.37223440  0.24743209  1
  V  V27  1  0.50502279  0.75138668  0.74938227  1
  V  V28  1  0.12188561  0.00226666  0.62463750  1
  V  V29  1  0.24930900  0.75391698  0.00203617  1
  V  V30  1  0.11879256  0.37286331  0.24923755  1
  V  V31  1  0.49772731  0.24563584  0.74047022  1
  V  V32  1  0.75633350  0.50243540  0.74779650  1
  V  V33  1  0.50405171  0.88429344  0.38397148  1
  V  V34  1  0.10878704  0.13766536  0.03464879  1
  V  V35  1  0.26163286  0.74571939  0.50228694  1
  V  V36  1  0.62333789  0.75171280  0.87559921  1
  V  V37  1  0.11607698  0.37752418  0.74442047  1
  V  V38  1  0.36578417  0.12227425  0.24263729  1
  V  V39  1  0.49994606  0.37455053  0.87413320  1
  V  V40  1  0.74958955  0.87859065  0.12245981  1
  V  V41  1  0.74697066  0.49886189  0.24466992  1
  V  V42  1  0.37106757  0.87649841  0.01393986  1
  V  V43  1  0.12507221  0.62672916  0.50754979  1
  V  V44  1  0.00353822  0.50088924  0.50589152  1
  V  V45  1  0.86899647  0.13258091  0.75793691  1
  V  V46  1  0.49233578  0.25155998  0.24695746  1
  V  V47  1  0.75381545  0.62593055  0.87128235  1
  V  V48  1  0.88830885  0.13900755  0.24098842  1
  V  V49  1  0.50255673  0.49812319  0.50101438  1
  V  V50  1  0.61165867  -0.00023485  0.62756314  1
  V  V51  1  0.87820538  0.87603376  0.50571609  1
  V  V52  1  0.87232269  0.36428354  0.50480997  1
  V  V53  1  0.12154641  0.24731354  0.86321900  1
  V  V54  1  -0.00206572  0.00501024  0.50341414  1
  V  V55  1  0.76580175  0.25267929  0.00166662  1
  V  V56  1  0.87302044  0.49673161  0.88049000  1
  V  V57  1  0.37625127  0.49899556  0.87374443  1
  V  V58  1  0.75451274  0.75201584  0.49967766  1
  V  V59  1  0.75307184  0.36213545  0.62383734  1
  V  V60  1  -0.00564061  0.37013819  0.87829703  1
  V  V61  1  0.62457961  0.87808193  0.25037035  1
  V  V62  1  0.62315285  0.13463289  0.00302171  1
  V  V63  1  0.62770075  0.49989521  0.62661665  1
  V  V64  1  0.25094863  0.36863766  0.12577121  1
  V  V65  1  0.87744141  0.62724602  0.24939805  1
  V  V66  1  0.74532983  0.87932756  0.63262858  1
  V  V67  1  0.24577758  0.50115119  0.74341846  1
  V  V68  1  0.13980148  -0.01613503  0.13551636  1
  V  V69  1  0.25165830  0.24580292  -0.00150701  1
  V  V70  1  0.87478404  0.00153817  0.37423272  1
  V  V71  1  0.63065487  0.75242322  0.37326169  1
  V  V72  1  0.87625179  0.50172807  0.37718943  1
  V  V73  1  0.87632589  0.74531334  0.63558459  1
  V  V74  1  0.49763165  0.00323012  0.00226372  1
  V  V75  1  0.37237078  0.37155265  0.00033228  1
  V  V76  1  0.38062378  0.72906651  0.13002278  1
  V  V77  1  0.37773158  0.49511778  0.37261390  1
  V  V78  1  0.62947094  0.62439099  0.49847987  1
  V  V79  1  0.25002091  0.61961163  0.37595896  1
  V  V80  1  -0.00986533  0.14337355  0.63228072  1
  V  V81  1  0.25066722  0.87412599  0.62116520  1
  V  V82  1  0.24862522  0.62644721  0.87248804  1
  V  V83  1  0.12247780  0.12685195  0.50019795  1
  V  V84  1  -0.00771258  -0.00107563  0.00854308  1
  Zn  Zn85  1  0.20382055  0.83013623  0.18520274  1
  Zn  Zn86  1  -0.00731262  0.49474300  0.00080860  1
  Zn  Zn87  1  0.50588627  0.37164313  0.37810965  1
  Zn  Zn88  1  0.13177525  0.75510969  0.36419720  1
  Zn  Zn89  1  0.50084697  0.62751684  0.62075127  1
  Zn  Zn90  1  0.49143709  0.13594297  0.12024916  1
  Zn  Zn91  1  -0.00492153  0.74768010  0.75497412  1
  Zn  Zn92  1  0.75401181  0.11202213  0.88135200  1
  Zn  Zn93  1  0.37586638  0.00225508  0.37581015  1
  Zn  Zn94  1  0.12296496  0.49762504  0.12233443  1
  Zn  Zn95  1  0.50573456  0.73988784  0.24109028  1
  Zn  Zn96  1  0.00492717  0.87398260  0.36643791  1
  Zn  Zn97  1  0.62632194  0.25051311  0.38009115  1
  Zn  Zn98  1  0.75543847  0.62866735  0.37393908  1
  Zn  Zn99  1  0.62657727  0.37387335  0.75098491  1
  Zn  Zn100  1  0.75015771  -0.00066976  0.75448282  1
  Zn  Zn101  1  0.01542807  0.75830795  0.24567131  1
  Zn  Zn102  1  0.49426795  0.51190163  0.01375898  1
  Zn  Zn103  1  0.38574716  0.88388552  0.50639098  1
  Zn  Zn104  1  0.37929474  0.75189594  0.62566899  1
  Zn  Zn105  1  0.12157244  0.24889237  0.37343739  1
  Zn  Zn106  1  0.12128929  0.75316891  0.87556343  1
  Zn  Zn107  1  0.17424191  0.19249636  0.18622137  1
  Zn  Zn108  1  0.18794871  0.18759815  0.68480992  1
  Zn  Zn109  1  0.18970895  0.67167438  0.18575477  1
  Zn  Zn110  1  0.18393203  0.68935555  0.68541265  1
  Zn  Zn111  1  0.68735570  0.19290213  0.18692586  1
  Zn  Zn112  1  0.68210645  0.18307524  0.68818194  1
  Zn  Zn113  1  0.69085555  0.68763622  0.18836025  1
  Zn  Zn114  1  0.68802147  0.68781374  0.68746192  1
  Zn  Zn115  1  0.31157519  0.31020135  0.31559327  1
  Zn  Zn116  1  0.31230095  0.31024127  0.80915464  1
  Zn  Zn117  1  0.32468532  0.80313890  0.31803089  1
  Zn  Zn118  1  0.31297821  0.81277592  0.81402080  1
  Zn  Zn119  1  0.81317466  0.31202369  0.31459150  1
  Zn  Zn120  1  0.81324736  0.30865667  0.80738336  1
  Zn  Zn121  1  0.82669807  0.82163850  0.30564537  1
  Zn  Zn122  1  0.80960243  0.81592523  0.81321921  1
  Zn  Zn123  1  0.18413765  0.43728707  0.43946677  1
  Zn  Zn124  1  0.18586398  0.43663411  0.93139317  1
  Zn  Zn125  1  0.18671080  0.93274616  0.32853748  1
  Zn  Zn126  1  0.17855481  0.94100222  0.94317171  1
  Zn  Zn127  1  0.69201942  0.43567199  0.43605214  1
  Zn  Zn128  1  0.68773691  0.43699474  0.94129586  1
  Zn  Zn129  1  0.68809751  0.94395637  0.44354324  1
  Zn  Zn130  1  0.68537293  0.93814089  0.93655386  1
  Zn  Zn131  1  0.30180449  0.06090247  0.06707586  1
  Zn  Zn132  1  0.31476215  0.05797073  0.55616144  1
  Zn  Zn133  1  0.30813669  0.55829673  0.05965662  1
  Zn  Zn134  1  0.31653702  0.55958058  0.56381326  1
  Zn  Zn135  1  0.81237187  0.07019534  0.06444815  1
  Zn  Zn136  1  0.81334405  0.06250199  0.57278032  1
  Zn  Zn137  1  0.80743668  0.56351103  0.06197520  1
  Zn  Zn138  1  0.81498982  0.56131289  0.56193231  1
  Zn  Zn139  1  0.43576984  0.43814656  0.18716742  1
  Zn  Zn140  1  0.43834071  0.43564229  0.68684392  1
  Zn  Zn141  1  0.43730624  0.93788344  0.19410594  1
  Zn  Zn142  1  0.43494568  0.93739473  0.69095949  1
  Zn  Zn143  1  0.93657614  0.43965311  0.18855536  1
  Zn  Zn144  1  0.93346421  0.43809070  0.68889868  1
  Zn  Zn145  1  0.93920590  0.94264527  0.18716115  1
  Zn  Zn146  1  0.93406702  0.94305175  0.69075195  1
  Zn  Zn147  1  0.06244452  0.06232386  0.31072393  1
  Zn  Zn148  1  0.05544072  0.05981903  0.81183482  1
  Zn  Zn149  1  0.06389472  0.56150831  0.31328439  1
  Zn  Zn150  1  0.06134651  0.55832836  0.81402725  1
  Zn  Zn151  1  0.56243708  0.06974844  0.31117675  1
  Zn  Zn152  1  0.56481299  0.06383984  0.81182286  1
  Zn  Zn153  1  0.56684012  0.56131942  0.30846311  1
  Zn  Zn154  1  0.56590776  0.56231752  0.81667514  1
  Zn  Zn155  1  0.43488186  0.19052393  0.43215664  1
  Zn  Zn156  1  0.43617312  0.18841538  0.93096906  1
  Zn  Zn157  1  0.45937238  0.66599496  0.39936990  1
  Zn  Zn158  1  0.43661120  0.68844973  0.93961046  1
  Zn  Zn159  1  0.93422497  0.18624167  0.43622438  1
  Zn  Zn160  1  0.94221347  0.18448262  0.93354470  1
  Zn  Zn161  1  0.94504243  0.69261011  0.43735446  1
  Zn  Zn162  1  0.93517281  0.68968630  0.93574120  1
  Zn  Zn163  1  0.06666006  0.31226213  0.05581069  1
  Zn  Zn164  1  0.06550577  0.31654761  0.56041355  1
  Zn  Zn165  1  0.05717394  0.81010128  0.05578955  1
  Zn  Zn166  1  0.10441289  0.84986303  0.51195985  1
  Zn  Zn167  1  0.54788164  0.34738256  0.08174393  1
  Zn  Zn168  1  0.56889117  0.31029028  0.56190747  1
  Zn  Zn169  1  0.56033261  0.81255309  0.06158285  1
  Zn  Zn170  1  0.56669086  0.81251570  0.56307443  1
  O  O171  1  0.14706218  0.09741286  0.12925593  1
  O  O172  1  0.11481993  0.12043144  0.62242082  1
  O  O173  1  0.11492478  0.61967374  0.11490540  1
  O  O174  1  0.11623618  0.62663089  0.61504218  1
  O  O175  1  0.62076538  0.12311029  0.11795000  1
  O  O176  1  0.62369531  0.11671501  0.61287025  1
  O  O177  1  0.62729951  0.62894359  0.11228417  1
  O  O178  1  0.62547111  0.61470179  0.61819369  1
  O  O179  1  0.37409513  0.38240344  0.38598061  1
  O  O180  1  0.37774766  0.37918956  0.87924532  1
  O  O181  1  0.39796452  0.87044019  0.37799820  1
  O  O182  1  0.38001852  0.88083624  0.88421223  1
  O  O183  1  0.87987167  0.38361065  0.38085108  1
  O  O184  1  0.88409025  0.38148944  0.86714957  1
  O  O185  1  0.86838730  0.89171346  0.38843389  1
  O  O186  1  0.88651047  0.87716917  0.87165686  1
  O  O187  1  0.24734579  0.01970299  0.37533547  1
  O  O188  1  0.24914234  0.00570958  0.87086344  1
  O  O189  1  0.25541260  0.49851512  0.36879108  1
  O  O190  1  0.25613625  0.50549868  0.86395274  1
  O  O191  1  0.75502728  0.00999044  0.36868967  1
  O  O192  1  0.74281681  -0.00009897  0.86819328  1
  O  O193  1  0.76487141  0.50102570  0.36811763  1
  O  O194  1  0.75235009  0.50559694  0.86878786  1
  O  O195  1  0.24791588  0.49171307  0.13303938  1
  O  O196  1  0.25319786  0.49399604  0.63699088  1
  O  O197  1  0.23983005  0.98021434  0.12211897  1
  O  O198  1  0.24314570  0.99276478  0.63092502  1
  O  O199  1  0.75640610  0.48722253  0.13371434  1
  O  O200  1  0.74542366  0.49845323  0.63270755  1
  O  O201  1  0.74364520  0.99930308  0.13066584  1
  O  O202  1  0.74098416  0.99248942  0.62702844  1
  O  O203  1  0.00689425  0.38393269  0.25953745  1
  O  O204  1  0.01156636  0.38259817  0.75534406  1
  O  O205  1  -0.03623508  0.86219568  0.25978246  1
  O  O206  1  0.00423076  0.87839461  0.76031143  1
  O  O207  1  0.50781169  0.36644804  0.25415558  1
  O  O208  1  0.49929268  0.36901851  0.76144976  1
  O  O209  1  0.51083646  0.86968300  0.25838871  1
  O  O210  1  0.49338549  0.86677871  0.76514769  1
  O  O211  1  0.48970800  0.13677631  0.24714972  1
  O  O212  1  0.48801326  0.13335752  0.75754064  1
  O  O213  1  0.49119220  0.63778053  0.28978074  1
  O  O214  1  0.49362555  0.63158521  0.75193696  1
  O  O215  1  0.98727757  0.12611777  0.25603660  1
  O  O216  1  0.99201267  0.12249702  0.73742714  1
  O  O217  1  0.99346930  0.62522042  0.23991364  1
  O  O218  1  1.00618410  0.62480097  0.73821258  1
  O  O219  1  0.35929803  0.25432590  -0.00949641  1
  O  O220  1  0.36879107  0.26216696  0.49757060  1
  O  O221  1  0.36813426  0.75539523  0.00827421  1
  O  O222  1  0.36562318  0.75018279  0.50276694  1
  O  O223  1  0.86482779  0.24439515  -0.00664043  1
  O  O224  1  0.87720056  0.26551738  0.49617526  1
  O  O225  1  0.86328181  0.74380917  0.00983394  1
  O  O226  1  0.87245323  0.75960483  0.50591226  1
  O  O227  1  0.13221318  0.24451187  0.49795737  1
  O  O228  1  0.13692179  0.24496505  0.97778919  1
  O  O229  1  0.14152991  0.73756289  0.49803565  1
  O  O230  1  0.13245057  0.73904386  0.99969171  1
  O  O231  1  0.62217589  0.23145166  0.49875080  1
  O  O232  1  0.62616952  0.24152958  0.99561141  1
  O  O233  1  0.63623711  0.74525116  0.49515301  1
  O  O234  1  0.62932481  0.74197187  0.99451083  1
  O  O235  1  0.50248655  0.25436792  0.14181543  1
  O  O236  1  0.50510670  0.25831440  0.64185708  1
  O  O237  1  0.48542188  0.75001944  0.12316544  1
  O  O238  1  0.50141286  0.74893671  0.63487271  1
  O  O239  1  1.06637892  0.21009436  0.10224949  1
  O  O240  1  1.00612989  0.24060351  0.62442362  1
  O  O241  1  0.99123585  0.74022083  0.12373395  1
  O  O242  1  0.98778529  0.73923755  0.62923557  1
  O  O243  1  -0.00025732  0.26526984  0.38143831  1
  O  O244  1  0.01018880  0.25667405  0.87312275  1
  O  O245  1  0.01060371  0.75023164  0.36748695  1
  O  O246  1  -0.00021229  0.76401817  0.87457337  1
  O  O247  1  0.50352599  0.25277962  0.36284516  1
  O  O248  1  0.50957285  0.25533192  0.86788300  1
  O  O249  1  0.52290180  0.76503897  0.38015685  1
  O  O250  1  0.50500696  0.75569090  0.87136030  1
  O  O251  1  0.24375515  0.13359559  0.49597623  1
  O  O252  1  0.23616116  0.13062379  0.99502323  1
  O  O253  1  0.24411814  0.62514630  0.49948030  1
  O  O254  1  0.24331103  0.63224122  0.99376088  1
  O  O255  1  0.75347748  0.12204398  0.48995759  1
  O  O256  1  0.74155970  0.13570679  0.99990845  1
  O  O257  1  0.74694604  0.63204761  0.49764678  1
  O  O258  1  0.73967278  0.63548931  0.99487942  1
  O  O259  1  0.25459889  0.36861510  0.00164493  1
  O  O260  1  0.25393833  0.37093143  0.50768596  1
  O  O261  1  0.25604021  0.86146018  -0.00798728  1
  O  O262  1  0.24693128  0.86227709  0.51496854  1
  O  O263  1  0.74652285  0.36932303  0.01482968  1
  O  O264  1  0.76041148  0.38245953  0.51184537  1
  O  O265  1  0.74104648  0.86200793  0.00631282  1
  O  O266  1  0.76133837  0.87362115  0.50970037  1
  O  O267  1  0.13395996  0.49015359  0.24904505  1
  O  O268  1  0.13561895  0.49060888  0.75530503  1
  O  O269  1  0.12079707  0.98956744  0.24143120  1
  O  O270  1  0.12720129  0.99015950  0.74419376  1
  O  O271  1  0.63988851  0.49213789  0.25762366  1
  O  O272  1  0.63315247  0.49824454  0.74291860  1
  O  O273  1  0.63117700  0.99980658  0.24352896  1
  O  O274  1  0.62752698  1.01070847  0.73205535  1
  O  O275  1  0.37992223  0.01920859  0.25551992  1
  O  O276  1  0.36746362  0.00556505  0.75868922  1
  O  O277  1  0.36669052  0.48890868  0.26074458  1
  O  O278  1  0.37043374  0.50730868  0.75425418  1
  O  O279  1  0.86707399  0.00996341  0.25904517  1
  O  O280  1  0.86802656  0.02299780  0.73456226  1
  O  O281  1  0.86945792  0.51021609  0.25588535  1
  O  O282  1  0.86214805  0.49984852  0.76016994  1
  O  O283  1  0.11425210  0.37755350  0.36888283  1
  O  O284  1  0.11966580  0.36734503  0.86429502  1
  O  O285  1  0.11840687  0.87148029  0.39539006  1
  O  O286  1  0.11870110  0.87458106  0.86566074  1
  O  O287  1  0.62977631  0.37114750  0.36484293  1
  O  O288  1  0.61536493  0.36924971  0.87697508  1
  O  O289  1  0.62476367  0.87417932  0.37077175  1
  O  O290  1  0.61344442  0.85982211  0.88388120  1
  O  O291  1  0.37039130  0.12412078  0.13755800  1
  O  O292  1  0.36663151  0.12080848  0.63814926  1
  O  O293  1  0.37778604  0.63021776  0.11722497  1
  O  O294  1  0.37924525  0.62579119  0.63781866  1
  O  O295  1  0.87373154  0.12573601  0.14199708  1
  O  O296  1  0.88681921  0.13325561  0.62543965  1
  O  O297  1  0.88022084  0.63004424  0.12916547  1
  O  O298  1  0.88330887  0.63439997  0.61917875  1
  O  O299  1  0.24075497  0.25778186  0.11113419  1
  O  O300  1  0.24762492  0.25761265  0.61258502  1
  O  O301  1  0.26070151  0.74491764  0.11741066  1
  O  O302  1  0.25394837  0.75580652  0.62177492  1
  O  O303  1  0.75121024  0.26107955  0.11680555  1
  O  O304  1  0.74037651  0.26421446  0.62896834  1
  O  O305  1  0.75527471  0.75564402  0.11769119  1
  O  O306  1  0.75446604  0.75619279  0.61840101  1
  O  O307  1  0.24719783  0.24564050  0.38833047  1
  O  O308  1  0.24482897  0.24080468  0.87609374  1
  O  O309  1  0.25448329  0.73463310  0.38327512  1
  O  O310  1  0.24873577  0.74243636  0.88238680  1
  O  O311  1  0.74803627  0.23385253  0.37273700  1
  O  O312  1  0.73724991  0.25653121  0.88388532  1
  O  O313  1  0.74590961  0.75660768  0.37969853  1
  O  O314  1  0.74324917  0.74638117  0.88005935  1
  O  O315  1  0.01214458  0.11022034  -0.01180216  1
  O  O316  1  0.00070945  0.12280115  0.50946998  1
  O  O317  1  0.00653892  0.62374957  0.00381483  1
  O  O318  1  0.00778733  0.61988088  0.50721841  1
  O  O319  1  0.50368044  0.12314364  0.00104102  1
  O  O320  1  0.50570059  0.12443586  0.49628865  1
  O  O321  1  0.51483070  0.62565486  -0.00477749  1
  O  O322  1  0.51067945  0.61728142  0.49693988  1
  O  O323  1  0.49355817  0.37831388  0.50194356  1
  O  O324  1  0.48200051  0.35831824  0.98485806  1
  O  O325  1  0.50650656  0.87535955  0.48783883  1
  O  O326  1  0.49016009  0.87993056  0.99173053  1
  O  O327  1  0.99519846  0.38459805  0.49553851  1
  O  O328  1  1.00758968  0.37737836  0.98450636  1
  O  O329  1  0.98782969  0.88652731  0.50232696  1
  O  O330  1  1.00157976  0.88551025  0.98789830  1
  O  O331  1  0.49277616  0.49310386  0.38279402  1
  O  O332  1  0.49496351  0.49013578  0.87890617  1
  O  O333  1  0.50609484  0.98628837  0.36853095  1
  O  O334  1  0.49601470  0.99305192  0.88100917  1
  O  O335  1  0.99069712  0.49548781  0.38113339  1
  O  O336  1  0.98931795  0.49247217  0.87619959  1
  O  O337  1  0.99022980  1.00289350  0.38716487  1
  O  O338  1  1.00500966  0.98795897  0.88666367  1
  O  O339  1  0.01056741  -0.00720731  0.11325693  1
  O  O340  1  0.00090235  0.00751696  0.61564820  1
  O  O341  1  -0.00148380  0.51021750  0.11941514  1
  O  O342  1  -0.00888843  0.50891346  0.61565239  1
  O  O343  1  0.50363201  0.00275067  0.11834677  1
  O  O344  1  0.51236469  -0.00741663  0.62800731  1
  O  O345  1  0.50983198  0.45587646  0.10858210  1
  O  O346  1  0.51024514  0.50112681  0.62022066  1
  O  O347  1  0.24539758  0.37876495  0.24222896  1
  O  O348  1  0.24492284  0.38171839  0.74369440  1
  O  O349  1  0.26215125  0.87909887  0.26510262  1
  O  O350  1  0.24242430  0.87759572  0.74210681  1
  O  O351  1  0.74963443  0.37977977  0.24373098  1
  O  O352  1  0.74801386  0.38349026  0.74160944  1
  O  O353  1  0.74618064  0.89035135  0.24436037  1
  O  O354  1  0.74882357  0.87358441  0.73604487  1
  O  O355  1  0.26103015  0.14019949  0.25663495  1
  O  O356  1  0.25459919  0.11944145  0.75602136  1
  O  O357  1  0.24908439  0.60689080  0.25999344  1
  O  O358  1  0.25520701  0.61961232  0.75185476  1
  O  O359  1  0.75007778  0.11782964  0.25743369  1
  O  O360  1  0.75898091  0.12914288  0.75394368  1
  O  O361  1  0.75750201  0.61492198  0.24981063  1
  O  O362  1  0.74340078  0.61660180  0.75968732  1
  O  O363  1  0.36592961  0.12836457  0.36375283  1
  O  O364  1  0.35995250  0.11780280  0.87305203  1
  O  O365  1  0.35915861  0.60423887  0.38941213  1
  O  O366  1  0.37055432  0.62109756  0.86585922  1
  O  O367  1  0.86459173  0.11763213  0.37179895  1
  O  O368  1  0.87421566  0.12541556  0.86249744  1
  O  O369  1  0.87722587  0.62016078  0.36708346  1
  O  O370  1  0.86019657  0.62048423  0.87780474  1
  O  O371  1  0.13187497  0.37901810  0.12984029  1
  O  O372  1  0.13719717  0.37446376  0.63188792  1
  O  O373  1  0.12275814  0.87905732  0.11943867  1
  O  O374  1  0.13035774  0.88383823  0.62634498  1
  O  O375  1  0.64352438  0.36905522  0.14357179  1
  O  O376  1  0.63386772  0.38739876  0.62411338  1
  O  O377  1  0.62910284  0.88175103  0.13029795  1
  O  O378  1  0.63271189  0.88940310  0.61758739  1
  O  O379  1  0.12783039  0.26828732  0.25652303  1
  O  O380  1  0.13361394  0.26179377  0.75610674  1
  O  O381  1  0.13349583  0.75133981  0.24430235  1
  O  O382  1  0.12087989  0.76402080  0.74916704  1
  O  O383  1  0.61569625  0.25431513  0.25555865  1
  O  O384  1  0.61796979  0.25105594  0.76009511  1
  O  O385  1  0.62951915  0.75834962  0.25691557  1
  O  O386  1  0.61301780  0.74512188  0.75863860  1
  O  O387  1  0.38568780  0.24474283  0.25282611  1
  O  O388  1  0.38375886  0.23904976  0.75552033  1
  O  O389  1  0.37604592  0.74478984  0.23178836  1
  O  O390  1  0.38642620  0.74226965  0.75221922  1
  O  O391  1  0.87435225  0.23771035  0.25558379  1
  O  O392  1  0.87568276  0.23428234  0.74718498  1
  O  O393  1  0.86414270  0.73419037  0.23868981  1
  O  O394  1  0.87271537  0.75098323  0.73920937  1
  O  O395  1  0.38116488  0.48754995  0.49743448  1
  O  O396  1  0.37450973  0.48966101  0.99216236  1
  O  O397  1  0.37228893  0.99464059  0.48876447  1
  O  O398  1  0.37545825  0.99437172  0.99729144  1
  O  O399  1  0.88401785  0.49626675  0.49163470  1
  O  O400  1  0.87031888  0.50325543  0.98508001  1
  O  O401  1  0.87916572  0.99705408  0.49752100  1
  O  O402  1  0.89290936  1.00775684  1.00986239  1
  O  O403  1  0.11820617  0.00905091  0.01511341  1
  O  O404  1  0.11144453  0.00962514  0.50819648  1
  O  O405  1  0.12589261  0.51207639  -0.00293571  1
  O  O406  1  0.11171777  0.50825235  0.49740279  1
  O  O407  1  0.61726751  0.01236625  0.00511304  1
  O  O408  1  0.62772617  0.01496239  0.51155955  1
  O  O409  1  0.62665663  0.51832612  -0.00510088  1
  O  O410  1  0.62406326  0.50427850  0.50573291  1
  O  O411  1  0.35883852  0.37425827  0.11423361  1
  O  O412  1  0.36168387  0.37887551  0.61958950  1
  O  O413  1  0.37930012  0.87272093  0.11516316  1
  O  O414  1  0.36622706  0.87228146  0.62518241  1
  O  O415  1  0.86513203  0.37287620  0.12883987  1
  O  O416  1  0.86478607  0.37940530  0.61818001  1
  O  O417  1  0.86707877  0.86391954  0.12552826  1
  O  O418  1  0.86949447  0.86881801  0.62079958  1
  O  O419  1  0.12891380  0.12868198  0.38099340  1
  O  O420  1  0.13394550  0.13116173  0.86215953  1
  O  O421  1  0.13795399  0.61989336  0.38481867  1
  O  O422  1  0.12850547  0.62906591  0.87980852  1
  O  O423  1  0.63478909  0.12165092  0.38855462  1
  O  O424  1  0.62571870  0.13444819  0.88425914  1
  O  O425  1  0.63501502  0.63580357  0.38118532  1
  O  O426  1  0.63397045  0.63582553  0.88114997  1
