# generated using pymatgen
data_V85Zn86O256
_symmetry_space_group_name_H-M   'P 1'
_cell_length_a   16.97099855
_cell_length_b   16.97663239
_cell_length_c   16.96598702
_cell_angle_alpha   90.08379444
_cell_angle_beta   90.11726643
_cell_angle_gamma   90.03664437
_symmetry_Int_Tables_number   1
_chemical_formula_structural   V85Zn86O256
_chemical_formula_sum   'V85 Zn86 O256'
_cell_volume   4888.06089504
_cell_formula_units_Z   1
loop_
 _symmetry_equiv_pos_site_id
 _symmetry_equiv_pos_as_xyz
  1  'x, y, z'
loop_
 _atom_site_type_symbol
 _atom_site_label
 _atom_site_symmetry_multiplicity
 _atom_site_fract_x
 _atom_site_fract_y
 _atom_site_fract_z
 _atom_site_occupancy
  V  V0  1  0.63092344  0.11729794  0.50123280  1
  V  V1  1  0.50140099  0.00824385  0.00577790  1
  V  V2  1  0.62096646  0.62272552  0.01706524  1
  V  V3  1  0.63354772  0.24987492  0.38139116  1
  V  V4  1  0.37603872  0.36552321  0.00196039  1
  V  V5  1  0.74572393  0.50083888  0.24335611  1
  V  V6  1  0.62394585  0.74894103  0.37654669  1
  V  V7  1  0.24866421  0.37273351  0.61896890  1
  V  V8  1  0.88155243  0.49621486  0.37482063  1
  V  V9  1  0.62316661  0.87329842  0.76675472  1
  V  V10  1  0.12214655  0.87063060  0.75317441  1
  V  V11  1  0.88079370  0.36827823  0.50005960  1
  V  V12  1  0.00058557  0.12616970  0.12084123  1
  V  V13  1  0.12871441  0.25378191  0.37429530  1
  V  V14  1  0.74224768  0.37857407  0.61417464  1
  V  V15  1  0.50189038  0.37382871  0.37473903  1
  V  V16  1  0.12858611  0.00100054  0.62638993  1
  V  V17  1  0.38035218  0.49470245  0.87897721  1
  V  V18  1  0.88000957  0.62839597  0.75219207  1
  V  V19  1  0.38324795  0.62418018  0.75018770  1
  V  V20  1  0.12168539  0.12166872  0.49673887  1
  V  V21  1  0.51076217  0.50018278  0.50937681  1
  V  V22  1  0.01832418  0.64305542  0.13431864  1
  V  V23  1  0.75369694  0.00167584  0.25328607  1
  V  V24  1  0.00022911  0.25538253  0.24811634  1
  V  V25  1  0.25286714  0.36812343  0.12232437  1
  V  V26  1  0.37803140  -0.00077186  0.37126468  1
  V  V27  1  0.12857116  -0.00199197  0.12697481  1
  V  V28  1  -0.00036665  0.24792242  0.75034832  1
  V  V29  1  0.12747577  0.49634461  0.12266728  1
  V  V30  1  0.73992287  0.62485641  0.87663695  1
  V  V31  1  0.50242487  0.24626953  0.75330990  1
  V  V32  1  0.64143636  0.24290852  0.87509425  1
  V  V33  1  0.00173551  0.50187457  0.00094418  1
  V  V34  1  0.74207148  0.75296404  -0.00554481  1
  V  V35  1  0.25150845  0.50362671  0.25563802  1
  V  V36  1  0.37851643  0.37345458  0.49914169  1
  V  V37  1  0.12735980  0.62544803  -0.00897933  1
  V  V38  1  -0.00284101  0.11957853  0.62164092  1
  V  V39  1  0.12707936  0.37609568  0.24916091  1
  V  V40  1  0.50322216  0.87400023  0.38922942  1
  V  V41  1  0.25236977  0.75177878  -0.00880898  1
  V  V42  1  0.12578932  0.37311716  0.74879838  1
  V  V43  1  0.87469574  0.12318847  0.25393536  1
  V  V44  1  0.38373418  0.74743179  0.11888901  1
  V  V45  1  0.62277942  0.37702620  0.24465109  1
  V  V46  1  0.37681479  0.24693446  0.62330475  1
  V  V47  1  0.74803736  0.62368810  0.37368040  1
  V  V48  1  0.74784656  0.37509809  0.11779913  1
  V  V49  1  0.25221048  0.49640772  0.75075553  1
  V  V50  1  0.38721629  0.87331287  -0.01382294  1
  V  V51  1  0.87229034  0.75112789  0.12581729  1
  V  V52  1  0.00089360  -0.00062735  -0.00077148  1
  V  V53  1  0.13908016  0.12751147  -0.00597075  1
  V  V54  1  0.25270373  0.12042754  0.36645755  1
  V  V55  1  0.25278196  0.62382989  0.87286087  1
  V  V56  1  0.50359223  0.49897835  0.01726360  1
  V  V57  1  0.50259324  0.74967908  0.24778542  1
  V  V58  1  0.38156476  0.62621251  0.24581239  1
  V  V59  1  0.37864216  0.50707123  0.37719359  1
  V  V60  1  -0.00488644  0.85063556  0.36516368  1
  V  V61  1  0.49940716  0.11659146  0.62013863  1
  V  V62  1  0.74954197  0.87583148  0.62912404  1
  V  V63  1  0.62753455  0.38299920  0.75068951  1
  V  V64  1  0.62371391  0.87819370  0.25054535  1
  V  V65  1  0.87110656  0.25153125  0.11687249  1
  V  V66  1  0.88015210  0.62642048  0.24672678  1
  V  V67  1  0.00004616  0.37457549  0.87615938  1
  V  V68  1  0.75108446  0.75492414  0.50170318  1
  V  V69  1  0.37677621  0.00837421  0.87297701  1
  V  V70  1  0.87907154  0.75278443  0.62794401  1
  V  V71  1  0.63381458  0.61721839  0.51384316  1
  V  V72  1  0.86984812  0.00253996  0.87791844  1
  V  V73  1  0.50642158  0.75447672  0.76294988  1
  V  V74  1  0.87208385  0.50120437  0.87566688  1
  V  V75  1  0.37796184  0.23753290  0.12940183  1
  V  V76  1  0.49856510  0.23250762  0.24987847  1
  V  V77  1  0.74276989  0.00608521  0.75446001  1
  V  V78  1  0.00275814  0.86672124  0.87817273  1
  V  V79  1  0.35224173  0.87442128  0.49923310  1
  V  V80  1  0.63767158  0.13058511  0.00595267  1
  V  V81  1  0.13804901  0.24602500  0.87573015  1
  V  V82  1  0.11420154  0.50766878  0.61943819  1
  V  V83  1  0.86956033  0.12788806  0.75731656  1
  V  V84  1  0.87461750  0.87483402  0.00280425  1
  Zn  Zn85  1  0.50527239  0.37071490  0.87995586  1
  Zn  Zn86  1  0.25221365  0.24683629  0.49807092  1
  Zn  Zn87  1  0.86835421  0.24907471  0.62185835  1
  Zn  Zn88  1  0.24441641  0.87204490  0.62618871  1
  Zn  Zn89  1  0.76386226  0.12950460  0.38814548  1
  Zn  Zn90  1  0.00781455  0.38032332  0.38284876  1
  Zn  Zn91  1  0.51082763  0.62371967  0.63078997  1
  Zn  Zn92  1  0.15223899  0.74104352  0.40862021  1
  Zn  Zn93  1  0.12300823  0.83468739  0.24745210  1
  Zn  Zn94  1  0.00516713  0.74646044  0.75070637  1
  Zn  Zn95  1  0.06176512  0.62833701  0.51208704  1
  Zn  Zn96  1  0.74735266  0.87969095  0.12561256  1
  Zn  Zn97  1  0.24246482  0.00708298  0.76367494  1
  Zn  Zn98  1  0.24965832  -0.00913874  0.24973369  1
  Zn  Zn99  1  0.61923807  -0.00733653  0.62199430  1
  Zn  Zn100  1  0.38213259  0.75383447  0.62152645  1
  Zn  Zn101  1  -0.05688967  -0.02416787  0.45271055  1
  Zn  Zn102  1  0.36894836  0.12668806  0.75204325  1
  Zn  Zn103  1  0.87033253  0.37201335  -0.00364265  1
  Zn  Zn104  1  0.25570691  0.87456388  0.12261813  1
  Zn  Zn105  1  0.61902326  0.01025948  0.13199091  1
  Zn  Zn106  1  0.74702042  0.50520020  0.73973614  1
  Zn  Zn107  1  0.18919528  0.18501597  0.18525405  1
  Zn  Zn108  1  0.19023465  0.18365540  0.68854890  1
  Zn  Zn109  1  0.19970941  0.68307480  0.17877172  1
  Zn  Zn110  1  0.20336182  0.69036148  0.59046520  1
  Zn  Zn111  1  0.68891988  0.19131895  0.18964138  1
  Zn  Zn112  1  0.68781314  0.19219251  0.68363601  1
  Zn  Zn113  1  0.69027222  0.69060702  0.18657268  1
  Zn  Zn114  1  0.69108016  0.69050477  0.69292982  1
  Zn  Zn115  1  0.31445887  0.31288510  0.31242357  1
  Zn  Zn116  1  0.31621658  0.31069837  0.80969908  1
  Zn  Zn117  1  0.30858140  0.81584179  0.30843444  1
  Zn  Zn118  1  0.28476923  0.78596958  0.77409810  1
  Zn  Zn119  1  0.81288802  0.31328437  0.30811745  1
  Zn  Zn120  1  0.81123171  0.31698649  0.80776093  1
  Zn  Zn121  1  0.81477065  0.81536370  0.31365262  1
  Zn  Zn122  1  0.81096927  0.81451210  0.81569147  1
  Zn  Zn123  1  0.19724328  0.55644128  0.44213632  1
  Zn  Zn124  1  0.19070258  0.43268902  0.93749086  1
  Zn  Zn125  1  0.14381356  0.94782723  0.41391479  1
  Zn  Zn126  1  0.19146328  0.93586395  0.93734706  1
  Zn  Zn127  1  0.69349374  0.43581133  0.43364720  1
  Zn  Zn128  1  0.68399231  0.43958989  0.93662195  1
  Zn  Zn129  1  0.74627267  0.96000261  0.45600687  1
  Zn  Zn130  1  0.68631139  0.94308323  0.94135402  1
  Zn  Zn131  1  0.31261156  0.05991327  0.05882937  1
  Zn  Zn132  1  0.30966712  0.05962142  0.55499801  1
  Zn  Zn133  1  0.31632382  0.55998415  0.06487192  1
  Zn  Zn134  1  0.32356958  0.55025546  0.57283960  1
  Zn  Zn135  1  0.81007171  0.06209757  0.06943623  1
  Zn  Zn136  1  0.80699685  0.07066887  0.57329003  1
  Zn  Zn137  1  0.81290902  0.56361021  0.06286981  1
  Zn  Zn138  1  0.84975602  0.57152773  0.55189396  1
  Zn  Zn139  1  0.43653740  0.43157791  0.19011889  1
  Zn  Zn140  1  0.44099452  0.43252701  0.68936010  1
  Zn  Zn141  1  0.43750002  0.93525211  0.18635829  1
  Zn  Zn142  1  0.43747980  0.93442682  0.68811382  1
  Zn  Zn143  1  0.93774532  0.44135465  0.18401954  1
  Zn  Zn144  1  0.93269982  0.43606814  0.68864758  1
  Zn  Zn145  1  0.94175473  0.93426794  0.19414583  1
  Zn  Zn146  1  0.93580685  0.93933034  0.68979107  1
  Zn  Zn147  1  0.05771374  0.06627800  0.30916039  1
  Zn  Zn148  1  0.05895006  0.06078531  0.81380202  1
  Zn  Zn149  1  0.06347300  0.56942125  0.31641335  1
  Zn  Zn150  1  0.06346672  0.55997141  0.80871045  1
  Zn  Zn151  1  0.56622441  0.05687572  0.32315261  1
  Zn  Zn152  1  0.55743533  0.06325494  0.81763450  1
  Zn  Zn153  1  0.56208009  0.56259615  0.31540691  1
  Zn  Zn154  1  0.56121223  0.56141655  0.82106960  1
  Zn  Zn155  1  0.44119926  0.18268841  0.43696516  1
  Zn  Zn156  1  0.44321898  0.18536126  0.93988576  1
  Zn  Zn157  1  0.32869177  0.69028237  0.43884509  1
  Zn  Zn158  1  0.44400356  0.68400955  0.93633726  1
  Zn  Zn159  1  0.94119917  0.19365067  0.43671547  1
  Zn  Zn160  1  0.94116704  0.18704397  0.93635135  1
  Zn  Zn161  1  0.92412377  0.69072451  0.43653226  1
  Zn  Zn162  1  0.93474243  0.68741556  0.94153037  1
  Zn  Zn163  1  0.06221315  0.31085147  0.05888616  1
  Zn  Zn164  1  0.06230719  0.31018952  0.56369287  1
  Zn  Zn165  1  0.07294960  0.80179680  0.07491065  1
  Zn  Zn166  1  0.05634137  0.82011589  0.55783775  1
  Zn  Zn167  1  0.56154430  0.30677416  0.06458282  1
  Zn  Zn168  1  0.56401540  0.30947600  0.56416681  1
  Zn  Zn169  1  0.56323189  0.81538640  0.06215056  1
  Zn  Zn170  1  0.56591487  0.80534096  0.57152792  1
  O  O171  1  0.12213502  0.12084206  0.11151216  1
  O  O172  1  0.11634938  0.12235347  0.61682565  1
  O  O173  1  0.13276029  0.61006252  0.10617044  1
  O  O174  1  0.12487245  0.60939414  0.63036117  1
  O  O175  1  0.62754820  0.13178375  0.11025872  1
  O  O176  1  0.61857265  0.12663563  0.61549611  1
  O  O177  1  0.62969932  0.62130334  0.11534488  1
  O  O178  1  0.63533356  0.62164619  0.61696370  1
  O  O179  1  0.38132685  0.38460428  0.37893540  1
  O  O180  1  0.37762632  0.37768693  0.88472709  1
  O  O181  1  0.38160208  0.87747267  0.38582366  1
  O  O182  1  0.37988360  0.88388764  0.88734192  1
  O  O183  1  0.87662944  0.37775536  0.38124086  1
  O  O184  1  0.87880653  0.38373574  0.87646472  1
  O  O185  1  0.89352756  0.88136202  0.36228690  1
  O  O186  1  0.88028565  0.88377089  0.88296266  1
  O  O187  1  0.24632090  0.00619435  0.37071315  1
  O  O188  1  0.27235563  -0.00246744  0.88273019  1
  O  O189  1  0.26129552  0.50018242  0.36386922  1
  O  O190  1  0.26366903  0.50060725  0.87293879  1
  O  O191  1  0.74448923  0.01408511  0.35717541  1
  O  O192  1  0.76182890  -0.00283836  0.86843780  1
  O  O193  1  0.75876219  0.50152471  0.36066754  1
  O  O194  1  0.75823540  0.50721458  0.87608072  1
  O  O195  1  0.24915331  0.48801298  0.13290269  1
  O  O196  1  0.24514073  0.48904219  0.63451374  1
  O  O197  1  0.24074579  0.99932795  0.12433338  1
  O  O198  1  0.23489949  0.99934014  0.62362994  1
  O  O199  1  0.75595477  0.49320583  0.13648993  1
  O  O200  1  0.76092450  0.48033049  0.62550991  1
  O  O201  1  0.74211267  0.99940095  0.13748624  1
  O  O202  1  0.74526587  0.99381213  0.64089400  1
  O  O203  1  0.00833455  0.36741683  0.24482723  1
  O  O204  1  0.00323961  0.36557663  0.75525023  1
  O  O205  1  0.01165066  0.87340793  0.25871378  1
  O  O206  1  0.00330601  0.87805372  0.76239503  1
  O  O207  1  0.50915667  0.37256564  0.25730692  1
  O  O208  1  0.51088504  0.36454281  0.75101203  1
  O  O209  1  0.50639887  0.86753305  0.25470789  1
  O  O210  1  0.50722761  0.86216529  0.74813264  1
  O  O211  1  0.50572464  0.13477150  0.25617463  1
  O  O212  1  0.49741736  0.13231828  0.74207155  1
  O  O213  1  0.48979007  0.63121379  0.25384853  1
  O  O214  1  0.49989667  0.63032007  0.75264106  1
  O  O215  1  0.99547208  0.13576725  0.24089676  1
  O  O216  1  0.99217409  0.13143514  0.74551353  1
  O  O217  1  0.98784765  0.61982477  0.24429780  1
  O  O218  1  0.98551256  0.62964923  0.76205531  1
  O  O219  1  0.38637213  0.25991607  0.00924492  1
  O  O220  1  0.37782189  0.25665515  0.50496984  1
  O  O221  1  0.37847084  0.75451730  0.00120015  1
  O  O222  1  0.37998277  0.77048535  0.50315078  1
  O  O223  1  0.88214483  0.25122480  0.01268525  1
  O  O224  1  0.87213664  0.26347585  0.49816325  1
  O  O225  1  0.86131461  0.75594136  0.00318520  1
  O  O226  1  0.85750580  0.75264732  0.51181179  1
  O  O227  1  0.12514553  0.24258078  0.49064272  1
  O  O228  1  0.11957212  0.23633872  0.99077439  1
  O  O229  1  0.11951042  0.73279243  0.52076937  1
  O  O230  1  0.14010391  0.73758434  1.00013790  1
  O  O231  1  0.61922064  0.24630884  0.48567906  1
  O  O232  1  0.62016521  0.23974461  0.98773874  1
  O  O233  1  0.63480790  0.73728741  0.49907297  1
  O  O234  1  0.62992619  0.73631000  1.00637555  1
  O  O235  1  0.49374348  0.25166111  0.14190311  1
  O  O236  1  0.49668322  0.24230058  0.63439661  1
  O  O237  1  0.49723946  0.75278666  0.13691627  1
  O  O238  1  0.49838181  0.74237012  0.63903552  1
  O  O239  1  0.99617513  0.24631868  0.13122630  1
  O  O240  1  0.99874314  0.24120889  0.63729797  1
  O  O241  1  0.97583135  0.74695794  0.10315123  1
  O  O242  1  0.98112160  0.76254048  0.62996836  1
  O  O243  1  0.00896523  0.25398870  0.36270498  1
  O  O244  1  0.00663067  0.25417628  0.86489411  1
  O  O245  1  -0.01211274  0.74995240  0.36487866  1
  O  O246  1  -0.00622257  0.76400391  0.87723087  1
  O  O247  1  0.50509057  0.25440125  0.36469320  1
  O  O248  1  0.50478033  0.24992673  0.86346522  1
  O  O249  1  0.50818909  0.75841402  0.35995327  1
  O  O250  1  0.50478889  0.74581428  0.86223021  1
  O  O251  1  0.23911730  0.12808308  0.48900783  1
  O  O252  1  0.23702795  0.12619355  0.99889752  1
  O  O253  1  0.26427845  0.62381837  0.51045807  1
  O  O254  1  0.25030768  0.62558508  0.98848056  1
  O  O255  1  0.73513873  0.13700220  0.50491998  1
  O  O256  1  0.73639801  0.12048960  0.99964287  1
  O  O257  1  0.74990884  0.62949835  0.49207928  1
  O  O258  1  0.73980197  0.62979616  0.99760422  1
  O  O259  1  0.26211676  0.37758606  0.01099278  1
  O  O260  1  0.25995997  0.37214190  0.51427145  1
  O  O261  1  0.26147299  0.86429970  -0.00158402  1
  O  O262  1  0.25308005  0.87239948  0.50088990  1
  O  O263  1  0.74896239  0.38254110  0.01417595  1
  O  O264  1  0.75366638  0.37145037  0.50934786  1
  O  O265  1  0.75203554  0.86786446  0.00211214  1
  O  O266  1  0.73755586  0.86484752  0.51501946  1
  O  O267  1  0.13498440  0.49879269  0.24625438  1
  O  O268  1  0.13347409  0.49030941  0.74700680  1
  O  O269  1  0.12642855  1.01245112  0.22903718  1
  O  O270  1  0.12166082  0.99759005  0.74168585  1
  O  O271  1  0.63271744  0.48935640  0.25590071  1
  O  O272  1  0.62393951  0.48611498  0.75871068  1
  O  O273  1  0.62921956  0.99351482  0.24970183  1
  O  O274  1  0.63009945  0.99547453  0.75405069  1
  O  O275  1  0.36879534  -0.01291215  0.26515518  1
  O  O276  1  0.38082377  -0.00172499  0.76674808  1
  O  O277  1  0.37276473  0.50532988  0.25591713  1
  O  O278  1  0.37545598  0.50055293  0.76063116  1
  O  O279  1  0.86894963  0.01268208  0.24035334  1
  O  O280  1  0.86674400  0.00854466  0.75898328  1
  O  O281  1  0.86740272  0.50655508  0.25227198  1
  O  O282  1  0.87400456  0.50785157  0.76155980  1
  O  O283  1  0.12471724  0.36115359  0.36577029  1
  O  O284  1  0.12017967  0.36712767  0.86939314  1
  O  O285  1  0.11591077  0.84580789  0.36744072  1
  O  O286  1  0.11232963  0.88763239  0.86852762  1
  O  O287  1  0.62295979  0.36616038  0.36611009  1
  O  O288  1  0.62570551  0.36243706  0.86972947  1
  O  O289  1  0.61797420  0.86675752  0.36248460  1
  O  O290  1  0.63028657  0.87738608  0.86608568  1
  O  O291  1  0.36775842  0.13912535  0.12001238  1
  O  O292  1  0.38283905  0.13128876  0.61813492  1
  O  O293  1  0.37724413  0.63646487  0.12980461  1
  O  O294  1  0.38248533  0.61878300  0.64439966  1
  O  O295  1  0.88061832  0.13415921  0.13126488  1
  O  O296  1  0.88141958  0.12990061  0.63770447  1
  O  O297  1  0.88248782  0.63139458  0.13063213  1
  O  O298  1  0.86000612  0.63920557  0.64394880  1
  O  O299  1  0.25934460  0.26198697  0.13514685  1
  O  O300  1  0.25808638  0.25581770  0.62282924  1
  O  O301  1  0.26555148  0.74730416  0.10459449  1
  O  O302  1  0.26815322  0.75931502  0.65153616  1
  O  O303  1  0.76077754  0.26163967  0.13122104  1
  O  O304  1  0.75481887  0.27091046  0.63525460  1
  O  O305  1  0.75753790  0.75130211  0.11321212  1
  O  O306  1  0.75342366  0.75869929  0.62195203  1
  O  O307  1  0.24417743  0.24468173  0.37511441  1
  O  O308  1  0.23702603  0.25541388  0.87109230  1
  O  O309  1  0.25646272  0.73625459  0.36622237  1
  O  O310  1  0.25902328  0.73720861  0.88081171  1
  O  O311  1  0.73700213  0.24584264  0.36335895  1
  O  O312  1  0.73962674  0.25077970  0.87250253  1
  O  O313  1  0.74580492  0.74734618  0.38373345  1
  O  O314  1  0.75295429  0.74133213  0.88759691  1
  O  O315  1  0.00472422  0.11737377  0.00525013  1
  O  O316  1  0.00529377  0.13122230  0.50973221  1
  O  O317  1  0.01310348  0.62336601  0.00366114  1
  O  O318  1  -0.04718316  0.61255400  0.50995528  1
  O  O319  1  0.51114127  0.11372281  0.00005372  1
  O  O320  1  0.51525102  0.12909337  0.50913819  1
  O  O321  1  0.51411033  0.61699090  -0.00063814  1
  O  O322  1  0.52001612  0.61212638  0.50651576  1
  O  O323  1  0.49868286  0.37898897  0.49405210  1
  O  O324  1  0.49533640  0.38105374  1.00148977  1
  O  O325  1  0.51187737  0.86894577  0.48913193  1
  O  O326  1  0.49779317  0.88857354  1.00226758  1
  O  O327  1  0.98620414  0.37101552  0.49950680  1
  O  O328  1  0.99807526  0.38217939  0.99299220  1
  O  O329  1  0.99881671  0.87168753  0.47460547  1
  O  O330  1  0.99605843  0.88168180  0.99471371  1
  O  O331  1  0.49558710  0.49267675  0.38356429  1
  O  O332  1  0.48998187  0.49465194  0.88514953  1
  O  O333  1  0.49041316  0.98677063  0.37257038  1
  O  O334  1  0.48992056  1.00176872  0.89016812  1
  O  O335  1  0.98504404  0.49491110  0.36404840  1
  O  O336  1  0.99321346  0.49465134  0.87981831  1
  O  O337  1  1.02978725  0.98665964  0.38033977  1
  O  O338  1  0.98680627  0.99521256  0.88145358  1
  O  O339  1  0.01041131  0.00540359  0.11861023  1
  O  O340  1  0.00440067  0.01367010  0.62912597  1
  O  O341  1  0.00990396  0.50914931  0.11945003  1
  O  O342  1  0.01641427  0.49185434  0.63456400  1
  O  O343  1  0.50053947  0.00007038  0.11229233  1
  O  O344  1  0.50205200  0.01300675  0.63057448  1
  O  O345  1  0.49382915  0.49744191  0.11617523  1
  O  O346  1  0.49887479  0.49725858  0.61248303  1
  O  O347  1  0.24651536  0.38406021  0.24452764  1
  O  O348  1  0.24753175  0.37699078  0.74046271  1
  O  O349  1  0.23635104  0.87121213  0.23892261  1
  O  O350  1  0.23505295  0.88743993  0.75189694  1
  O  O351  1  0.74312955  0.38199459  0.24138990  1
  O  O352  1  0.74168722  0.38166767  0.74351280  1
  O  O353  1  0.74263669  0.88411791  0.25153582  1
  O  O354  1  0.74173121  0.88312891  0.74965870  1
  O  O355  1  0.24693042  0.12456528  0.26386403  1
  O  O356  1  0.25607665  0.11852870  0.74783428  1
  O  O357  1  0.26624797  0.61280794  0.23915847  1
  O  O358  1  0.26338884  0.61460647  0.76495190  1
  O  O359  1  0.76099991  0.12121422  0.24706222  1
  O  O360  1  0.75710392  0.11770525  0.74507537  1
  O  O361  1  0.75484553  0.61726788  0.25211802  1
  O  O362  1  0.75513152  0.62272734  0.76230245  1
  O  O363  1  0.36576036  0.11201726  0.38335138  1
  O  O364  1  0.38014063  0.11250952  0.87611864  1
  O  O365  1  0.38178249  0.61100859  0.36770387  1
  O  O366  1  0.37383632  0.61338356  0.87105854  1
  O  O367  1  0.87892072  0.13448521  0.35924845  1
  O  O368  1  0.87947174  0.11856002  0.86516574  1
  O  O369  1  0.86544774  0.61557102  0.36231479  1
  O  O370  1  0.86498216  0.61935083  0.87345129  1
  O  O371  1  0.13388637  0.37683936  0.12760181  1
  O  O372  1  0.13349477  0.37641076  0.63016597  1
  O  O373  1  0.12832247  0.89419479  0.11287037  1
  O  O374  1  0.11875015  0.88732369  0.63255516  1
  O  O375  1  0.63202115  0.36650869  0.13666218  1
  O  O376  1  0.63482112  0.37233658  0.63250700  1
  O  O377  1  0.62656057  0.87541414  0.13982631  1
  O  O378  1  0.63447004  0.87590751  0.63836086  1
  O  O379  1  0.11828421  0.25280535  0.25316533  1
  O  O380  1  0.11766925  0.25315153  0.75528164  1
  O  O381  1  0.10236024  0.73798894  0.18228517  1
  O  O382  1  0.12054183  0.77034391  0.74983965  1
  O  O383  1  0.61386179  0.25503840  0.25677634  1
  O  O384  1  0.62141013  0.25372229  0.76116349  1
  O  O385  1  0.62064614  0.75416315  0.25322616  1
  O  O386  1  0.61518547  0.75690916  0.75054785  1
  O  O387  1  0.39070732  0.25341171  0.24597370  1
  O  O388  1  0.38594956  0.24900854  0.74207860  1
  O  O389  1  0.38346267  0.74348045  0.24026398  1
  O  O390  1  0.39021666  0.73790525  0.75603440  1
  O  O391  1  0.88479003  0.24792279  0.23952830  1
  O  O392  1  0.88268895  0.24339100  0.75266277  1
  O  O393  1  0.86313417  0.73742595  0.23818924  1
  O  O394  1  0.87397855  0.74433476  0.74740181  1
  O  O395  1  0.38685262  0.49283962  0.49302237  1
  O  O396  1  0.38221280  0.49025582  0.99622525  1
  O  O397  1  0.36787684  0.98515097  0.48550084  1
  O  O398  1  0.38572935  0.99529451  0.99714224  1
  O  O399  1  0.86250787  0.47930463  0.48429535  1
  O  O400  1  0.88213388  0.50218197  0.98992517  1
  O  O401  1  0.84736554  1.00464263  0.49335549  1
  O  O402  1  0.87711373  0.99600281  0.99594694  1
  O  O403  1  0.12293051  0.01179375  0.00368583  1
  O  O404  1  0.12547645  0.01581040  0.50872419  1
  O  O405  1  0.12092423  0.50257569  0.00114162  1
  O  O406  1  0.12461616  0.50219132  0.51748158  1
  O  O407  1  0.61789665  0.01283147  0.00196606  1
  O  O408  1  0.63843291  0.01515065  0.50204036  1
  O  O409  1  0.61682598  0.51112376  -0.00111359  1
  O  O410  1  0.62246076  0.50545543  0.49195491  1
  O  O411  1  0.36943011  0.36627530  0.12012925  1
  O  O412  1  0.37079738  0.36693388  0.62128367  1
  O  O413  1  0.37660642  0.86140517  0.11573138  1
  O  O414  1  0.37312440  0.88327457  0.60740375  1
  O  O415  1  0.86736673  0.36890381  0.12290702  1
  O  O416  1  0.87093088  0.37243448  0.61225219  1
  O  O417  1  0.87184203  0.86905640  0.12090961  1
  O  O418  1  0.85809423  0.86949699  0.63759976  1
  O  O419  1  0.12867557  0.13561786  0.37960043  1
  O  O420  1  0.11914845  0.13072944  0.88645109  1
  O  O421  1  0.11462131  0.62453629  0.39900704  1
  O  O422  1  0.13698322  0.61485573  0.88302980  1
  O  O423  1  0.62513455  0.13166373  0.38925271  1
  O  O424  1  0.62406344  0.13759010  0.88226502  1
  O  O425  1  0.63222542  0.63100280  0.38080181  1
  O  O426  1  0.63733506  0.61998298  0.88539766  1
