# generated using pymatgen
data_V85Zn86O256
_symmetry_space_group_name_H-M   'P 1'
_cell_length_a   16.97149350
_cell_length_b   16.96714651
_cell_length_c   16.95242143
_cell_angle_alpha   89.97122238
_cell_angle_beta   90.02501550
_cell_angle_gamma   90.11032571
_symmetry_Int_Tables_number   1
_chemical_formula_structural   V85Zn86O256
_chemical_formula_sum   'V85 Zn86 O256'
_cell_volume   4881.57213332
_cell_formula_units_Z   1
loop_
 _symmetry_equiv_pos_site_id
 _symmetry_equiv_pos_as_xyz
  1  'x, y, z'
loop_
 _atom_site_type_symbol
 _atom_site_label
 _atom_site_symmetry_multiplicity
 _atom_site_fract_x
 _atom_site_fract_y
 _atom_site_fract_z
 _atom_site_occupancy
  V  V0  1  0.25069851  0.50151878  0.74894195  1
  V  V1  1  0.87243941  -0.00321127  0.87554202  1
  V  V2  1  0.11467032  0.11997621  0.51222930  1
  V  V3  1  0.50063671  0.25143216  0.74829080  1
  V  V4  1  0.11823320  0.37770468  0.75377958  1
  V  V5  1  0.87612767  0.24090142  0.62494146  1
  V  V6  1  0.74431042  0.36845481  0.11388950  1
  V  V7  1  0.24964305  0.37665695  0.62437477  1
  V  V8  1  0.37010068  0.24432846  0.12884265  1
  V  V9  1  0.37325015  0.37716901  0.49738006  1
  V  V10  1  -0.00279842  0.24765380  0.74857098  1
  V  V11  1  0.12522124  0.62584331  0.00166166  1
  V  V12  1  0.24288486  0.87421221  0.62700404  1
  V  V13  1  0.62701104  0.24906493  0.88481765  1
  V  V14  1  0.50193096  0.87544704  0.87154707  1
  V  V15  1  0.00473540  0.75325309  0.74952377  1
  V  V16  1  0.87758632  0.86770136  0.01218726  1
  V  V17  1  0.37566905  0.25040215  0.62388978  1
  V  V18  1  0.11770351  0.25332308  0.87700907  1
  V  V19  1  0.49107465  0.24006651  0.25025062  1
  V  V20  1  0.00105299  0.50027664  0.49837950  1
  V  V21  1  0.25362820  0.62768675  0.87374936  1
  V  V22  1  0.75075773  0.37162580  0.62422852  1
  V  V23  1  0.50062784  0.12088977  0.62058293  1
  V  V24  1  0.62005171  0.49708094  0.13830728  1
  V  V25  1  0.62611362  0.25413117  0.36562534  1
  V  V26  1  0.12757316  -0.00392044  0.13231768  1
  V  V27  1  0.75104887  0.49977832  0.75247705  1
  V  V28  1  0.87170571  0.75046152  0.61474868  1
  V  V29  1  0.87421028  0.62790202  0.75104700  1
  V  V30  1  0.75115960  0.12751419  0.88580083  1
  V  V31  1  0.00440591  0.00222048  0.00070310  1
  V  V32  1  0.74658428  0.88310754  0.13661131  1
  V  V33  1  0.01395029  0.88260690  0.37837774  1
  V  V34  1  0.24688992  -0.00512534  0.74972961  1
  V  V35  1  0.12950563  0.75789014  0.87212314  1
  V  V36  1  0.62383191  0.74837621  0.87394252  1
  V  V37  1  -0.00019122  0.12730879  0.14456072  1
  V  V38  1  0.38740557  0.88299923  0.49816318  1
  V  V39  1  0.25077255  0.12066063  0.37019819  1
  V  V40  1  0.38450595  0.87709965  0.00636713  1
  V  V41  1  0.87976716  0.89485749  0.49514355  1
  V  V42  1  0.62095293  -0.00102104  0.62124891  1
  V  V43  1  0.49947092  0.50004992  0.49802086  1
  V  V44  1  0.00062427  0.87187236  0.87780743  1
  V  V45  1  0.24631360  0.75201042  0.49320101  1
  V  V46  1  0.75391808  0.74581834  0.01220644  1
  V  V47  1  0.38234816  0.00264957  0.87990333  1
  V  V48  1  0.49623706  0.63559124  0.12565303  1
  V  V49  1  0.25442745  0.38059025  0.12496305  1
  V  V50  1  0.62387904  0.87056065  0.74998887  1
  V  V51  1  0.62345835  0.62103592  0.00157034  1
  V  V52  1  0.25370944  0.25642150  -0.00076869  1
  V  V53  1  0.62329711  0.12138541  0.49020578  1
  V  V54  1  0.36856581  0.50291373  0.36649538  1
  V  V55  1  0.12035133  0.24586748  0.37197798  1
  V  V56  1  0.37506505  0.49795139  0.88098888  1
  V  V57  1  0.12611989  0.50230884  0.13041164  1
  V  V58  1  -0.01292504  0.63008353  0.12472595  1
  V  V59  1  0.63749984  0.62911838  0.49893087  1
  V  V60  1  0.62454284  0.50005344  0.62281177  1
  V  V61  1  0.37902955  0.62931179  0.74879237  1
  V  V62  1  0.25856791  0.75115104  0.00508381  1
  V  V63  1  0.12494982  0.37165791  0.24816790  1
  V  V64  1  0.37542518  0.12415994  0.74873303  1
  V  V65  1  0.74757905  0.24660331  0.49526770  1
  V  V66  1  0.00214775  0.62578006  0.62352878  1
  V  V67  1  0.38987119  0.00360510  0.37282470  1
  V  V68  1  0.25572699  0.87192710  0.12898253  1
  V  V69  1  0.24446841  0.12433993  0.87577296  1
  V  V70  1  0.75503409  0.48989439  0.25136735  1
  V  V71  1  0.50093100  0.62781902  0.62609201  1
  V  V72  1  0.74894841  0.87173269  0.62115968  1
  V  V73  1  0.37121116  0.63461152  0.24733870  1
  V  V74  1  0.63003632  0.75959541  0.37466712  1
  V  V75  1  0.24159189  0.62695452  0.36875691  1
  V  V76  1  0.37998127  0.75321041  0.62544558  1
  V  V77  1  0.24830038  0.24676038  0.49985922  1
  V  V78  1  0.81041687  0.06570843  0.31140834  1
  V  V79  1  0.49986917  0.37692177  0.36467311  1
  V  V80  1  0.49557696  0.37499954  0.88178642  1
  V  V81  1  -0.00165169  0.49192032  -0.00418363  1
  V  V82  1  0.62247777  0.37310928  0.74848733  1
  V  V83  1  -0.00180149  0.37319660  0.37399989  1
  V  V84  1  0.12547976  0.50217483  0.62422251  1
  Zn  Zn85  1  0.74648729  0.00069524  0.75404027  1
  Zn  Zn86  1  0.49160789  0.11505093  0.11582667  1
  Zn  Zn87  1  0.49517326  0.49733324  0.00543111  1
  Zn  Zn88  1  0.75151630  0.62578449  0.87742555  1
  Zn  Zn89  1  0.87684553  0.50165795  0.37408324  1
  Zn  Zn90  1  0.75321515  0.62583386  0.37270576  1
  Zn  Zn91  1  0.12178664  0.63139960  0.49241998  1
  Zn  Zn92  1  0.60993970  0.00146615  0.12395248  1
  Zn  Zn93  1  -0.00163819  0.75499099  0.25968055  1
  Zn  Zn94  1  0.86847864  0.63540361  0.24975109  1
  Zn  Zn95  1  0.13375959  0.86503762  0.26108763  1
  Zn  Zn96  1  0.87321209  0.12216448  0.75089908  1
  Zn  Zn97  1  0.25504412  -0.00038549  0.25240336  1
  Zn  Zn98  1  0.87638638  0.37222130  0.49841736  1
  Zn  Zn99  1  0.88615338  0.49389982  0.86968000  1
  Zn  Zn100  1  0.61154707  0.11137074  -0.00097610  1
  Zn  Zn101  1  0.86798395  0.36189140  -0.00967664  1
  Zn  Zn102  1  0.61598550  0.88763200  0.25980622  1
  Zn  Zn103  1  0.50056761  0.75453299  0.25801455  1
  Zn  Zn104  1  0.86543080  0.23533224  0.12285489  1
  Zn  Zn105  1  0.10947711  0.99284933  0.62360974  1
  Zn  Zn106  1  0.12744024  0.12472944  0.00489665  1
  Zn  Zn107  1  0.18416437  0.18692495  0.18835019  1
  Zn  Zn108  1  0.18799488  0.18854812  0.69128364  1
  Zn  Zn109  1  0.18337902  0.69182142  0.19138560  1
  Zn  Zn110  1  0.18952705  0.68968458  0.68497797  1
  Zn  Zn111  1  0.67954040  0.18169264  0.18418650  1
  Zn  Zn112  1  0.68954587  0.18361778  0.69322406  1
  Zn  Zn113  1  0.68781526  0.68448592  0.19242981  1
  Zn  Zn114  1  0.68786549  0.68941920  0.68698750  1
  Zn  Zn115  1  0.30686936  0.31404585  0.31053668  1
  Zn  Zn116  1  0.31027269  0.31361640  0.81154218  1
  Zn  Zn117  1  0.31882597  0.81579497  0.31631492  1
  Zn  Zn118  1  0.31776556  0.81320569  0.81184226  1
  Zn  Zn119  1  0.81880449  0.23145947  0.30489544  1
  Zn  Zn120  1  0.81219034  0.31272201  0.81665782  1
  Zn  Zn121  1  0.81683865  0.80669099  0.31699963  1
  Zn  Zn122  1  0.81035263  0.81215280  0.81460369  1
  Zn  Zn123  1  0.18557391  0.43936826  0.43512743  1
  Zn  Zn124  1  0.18732382  0.43832778  0.93851467  1
  Zn  Zn125  1  0.19197933  0.94176142  0.44562287  1
  Zn  Zn126  1  0.19153430  0.93764237  0.94035590  1
  Zn  Zn127  1  0.68633593  0.43479531  0.43566963  1
  Zn  Zn128  1  0.68304259  0.43913508  0.93482628  1
  Zn  Zn129  1  0.69490773  0.94059206  0.43844363  1
  Zn  Zn130  1  0.69054830  0.93763266  0.94677007  1
  Zn  Zn131  1  0.31355444  0.06055166  0.06194766  1
  Zn  Zn132  1  0.30900675  0.06059374  0.56060126  1
  Zn  Zn133  1  0.31188941  0.56426563  0.06447757  1
  Zn  Zn134  1  0.31209524  0.56584127  0.55657628  1
  Zn  Zn135  1  0.81637071  0.05983559  0.06272500  1
  Zn  Zn136  1  0.80349227  0.06331548  0.56347509  1
  Zn  Zn137  1  0.81053256  0.55280272  0.06244063  1
  Zn  Zn138  1  0.81788920  0.55807934  0.56476316  1
  Zn  Zn139  1  0.43419437  0.43974657  0.18747430  1
  Zn  Zn140  1  0.43645823  0.44007135  0.68916157  1
  Zn  Zn141  1  0.44365427  0.93668044  0.19535217  1
  Zn  Zn142  1  0.43715784  0.93695087  0.69006876  1
  Zn  Zn143  1  0.90734280  0.38523220  0.21413594  1
  Zn  Zn144  1  0.93654623  0.43435484  0.68655030  1
  Zn  Zn145  1  0.93692124  0.93932033  0.19491503  1
  Zn  Zn146  1  0.93464154  0.93313017  0.68766918  1
  Zn  Zn147  1  0.06237716  0.05237501  0.32055651  1
  Zn  Zn148  1  0.04162763  0.04209226  0.78067678  1
  Zn  Zn149  1  0.06088230  0.56071267  0.30722010  1
  Zn  Zn150  1  0.06479687  0.56800142  0.81447308  1
  Zn  Zn151  1  0.56710363  0.06237507  0.30381853  1
  Zn  Zn152  1  0.56473984  0.06209047  0.81282486  1
  Zn  Zn153  1  0.56031509  0.56980597  0.31439093  1
  Zn  Zn154  1  0.56218342  0.56232039  0.81138870  1
  Zn  Zn155  1  0.43769306  0.18546230  0.43652774  1
  Zn  Zn156  1  0.43133671  0.19317500  0.93722382  1
  Zn  Zn157  1  0.43922754  0.68963554  0.43802014  1
  Zn  Zn158  1  0.44132404  0.68964001  0.93773898  1
  Zn  Zn159  1  0.93854949  0.18338422  0.43945685  1
  Zn  Zn160  1  0.93627847  0.18612963  0.94244119  1
  Zn  Zn161  1  0.93561079  0.69029921  0.43064719  1
  Zn  Zn162  1  0.93784272  0.68440859  0.93737614  1
  Zn  Zn163  1  0.06291868  0.30979562  0.06296484  1
  Zn  Zn164  1  0.06233178  0.31073762  0.56342481  1
  Zn  Zn165  1  0.06867808  0.81087484  0.06559433  1
  Zn  Zn166  1  0.05997365  0.81273934  0.55753206  1
  Zn  Zn167  1  0.55877121  0.30882508  0.06505423  1
  Zn  Zn168  1  0.56187595  0.31175725  0.55674337  1
  Zn  Zn169  1  0.56646107  0.81507898  0.06201489  1
  Zn  Zn170  1  0.56467157  0.80829537  0.55816980  1
  O  O171  1  0.12017480  0.11197637  0.12484474  1
  O  O172  1  0.13042352  0.12824377  0.61396697  1
  O  O173  1  0.12940121  0.61887843  0.11240204  1
  O  O174  1  0.11911268  0.61859699  0.62431872  1
  O  O175  1  0.61285481  0.12606879  0.11778681  1
  O  O176  1  0.61861090  0.11719115  0.62089490  1
  O  O177  1  0.61643002  0.61739824  0.11869211  1
  O  O178  1  0.61844152  0.62206783  0.61999608  1
  O  O179  1  0.37603565  0.38397389  0.37882821  1
  O  O180  1  0.38282480  0.38622164  0.86450503  1
  O  O181  1  0.37298599  0.88866031  0.39017325  1
  O  O182  1  0.38452509  0.88232625  0.87945278  1
  O  O183  1  0.89456843  0.37586235  0.37783900  1
  O  O184  1  0.86883739  0.38329749  0.87865841  1
  O  O185  1  0.86873765  0.87835152  0.39558278  1
  O  O186  1  0.87955487  0.87832614  0.88535973  1
  O  O187  1  0.25601064  0.00858870  0.37747521  1
  O  O188  1  0.25970837  0.00678596  0.87125794  1
  O  O189  1  0.25966591  0.51081315  0.38239409  1
  O  O190  1  0.25662627  0.50650547  0.86940452  1
  O  O191  1  0.75087464  0.01564818  0.37539615  1
  O  O192  1  0.75888274  0.00266537  0.87694662  1
  O  O193  1  0.74954479  0.49381202  0.36089741  1
  O  O194  1  0.74445493  0.50444815  0.85909494  1
  O  O195  1  0.23886482  0.49128854  0.11454020  1
  O  O196  1  0.24603900  0.49743570  0.62819240  1
  O  O197  1  0.24480838  0.99302147  0.12802402  1
  O  O198  1  0.25139963  0.99044703  0.63378910  1
  O  O199  1  0.73642212  0.49814145  0.13110938  1
  O  O200  1  0.74610629  0.49174568  0.63318547  1
  O  O201  1  0.75405088  0.98284152  0.12134101  1
  O  O202  1  0.73552648  0.99392068  0.63048924  1
  O  O203  1  0.01587955  0.38301745  0.26094154  1
  O  O204  1  0.01246640  0.36985819  0.74760310  1
  O  O205  1  0.00340248  0.88061424  0.26830481  1
  O  O206  1  -0.00602675  0.85759393  0.76037460  1
  O  O207  1  0.49301144  0.37110722  0.26225361  1
  O  O208  1  0.50500675  0.37132601  0.75402448  1
  O  O209  1  0.50292077  0.86629308  0.25506802  1
  O  O210  1  0.50552832  0.87499073  0.76303607  1
  O  O211  1  0.49453539  0.13903025  0.24876516  1
  O  O212  1  0.49582331  0.13037870  0.73990541  1
  O  O213  1  0.49090546  0.62823892  0.24221538  1
  O  O214  1  0.49587787  0.61899302  0.73418587  1
  O  O215  1  1.00754747  0.11882937  0.24301849  1
  O  O216  1  0.99372187  0.14574147  0.76089087  1
  O  O217  1  0.99823681  0.61921131  0.23087247  1
  O  O218  1  0.99363289  0.63297754  0.74550435  1
  O  O219  1  0.35911901  0.25568027  0.00655713  1
  O  O220  1  0.36461057  0.25500326  0.50304007  1
  O  O221  1  0.36563252  0.75917067  -0.00850440  1
  O  O222  1  0.36871184  0.75939332  0.50520485  1
  O  O223  1  0.88402021  0.25205750  0.01262882  1
  O  O224  1  0.86583357  0.25070367  0.50696997  1
  O  O225  1  0.86605185  0.75601831  -0.00707754  1
  O  O226  1  0.87849320  0.75380098  0.51404720  1
  O  O227  1  0.13486443  0.24389826  0.49727107  1
  O  O228  1  0.13364606  0.24759911  0.99159305  1
  O  O229  1  0.14189657  0.74878704  0.50740086  1
  O  O230  1  0.13648566  0.74390506  0.99271693  1
  O  O231  1  0.63002110  0.24383397  0.49218276  1
  O  O232  1  0.62234423  0.25543754  0.98491490  1
  O  O233  1  0.62605817  0.73875083  0.49311501  1
  O  O234  1  0.63242526  0.73917812  0.99439693  1
  O  O235  1  0.48428743  0.26051831  0.13651615  1
  O  O236  1  0.49421911  0.24535553  0.62898671  1
  O  O237  1  0.50485301  0.73735297  0.12400748  1
  O  O238  1  0.48854022  0.74250987  0.62005732  1
  O  O239  1  1.01460634  0.22608827  0.12383130  1
  O  O240  1  0.98787787  0.25757666  0.63416956  1
  O  O241  1  1.00400666  0.73026829  0.11478430  1
  O  O242  1  0.99536275  0.74615560  0.63271191  1
  O  O243  1  0.01445973  0.25735952  0.38523176  1
  O  O244  1  0.01440619  0.24942814  0.87299117  1
  O  O245  1  -0.00476620  0.77486456  0.38402958  1
  O  O246  1  0.01019539  0.75090261  0.87024042  1
  O  O247  1  0.50001661  0.25800822  0.36907668  1
  O  O248  1  0.50206756  0.25904226  0.86517007  1
  O  O249  1  0.52243050  0.73776151  0.37794863  1
  O  O250  1  0.51507211  0.75816806  0.87819762  1
  O  O251  1  0.24350197  0.13347773  0.49446183  1
  O  O252  1  0.24783732  0.13224085  0.99135742  1
  O  O253  1  0.24971773  0.63560023  0.48998118  1
  O  O254  1  0.24684310  0.63325803  0.99369500  1
  O  O255  1  0.73691501  0.13893033  0.50646273  1
  O  O256  1  0.74942010  0.11967669  0.98859613  1
  O  O257  1  0.73915165  0.61477316  0.50443378  1
  O  O258  1  0.74322655  0.62839830  0.99914638  1
  O  O259  1  0.24110992  0.36700868  0.01082688  1
  O  O260  1  0.25285052  0.36753875  0.50421020  1
  O  O261  1  0.26168205  0.86801053  0.00435585  1
  O  O262  1  0.26047487  0.86866631  0.50876352  1
  O  O263  1  0.74457247  0.38171671  0.00947803  1
  O  O264  1  0.74964452  0.36555614  0.50812582  1
  O  O265  1  0.76047850  0.86352284  0.00783427  1
  O  O266  1  0.76115797  0.88124054  0.51516041  1
  O  O267  1  0.12480719  0.49507586  0.23485475  1
  O  O268  1  0.12988689  0.49545834  0.74676871  1
  O  O269  1  0.13022261  0.99236469  0.24136865  1
  O  O270  1  0.14648491  1.00005971  0.75748167  1
  O  O271  1  0.62635997  0.50556697  0.24117969  1
  O  O272  1  0.63096694  0.49516904  0.74139962  1
  O  O273  1  0.62734162  0.99863692  0.24005556  1
  O  O274  1  0.62365510  0.98600687  0.74419935  1
  O  O275  1  0.37245471  -0.00316958  0.27049374  1
  O  O276  1  0.36899952  0.00577312  0.75856491  1
  O  O277  1  0.37736966  0.50918812  0.26254824  1
  O  O278  1  0.36863585  0.50931796  0.75587304  1
  O  O279  1  0.86669178  0.00454647  0.25566009  1
  O  O280  1  0.87130609  -0.00374046  0.76672416  1
  O  O281  1  0.86127853  0.49045809  0.25036178  1
  O  O282  1  0.86806267  0.50794850  0.74690737  1
  O  O283  1  0.12230354  0.36686882  0.36920419  1
  O  O284  1  0.13480497  0.36610799  0.86400131  1
  O  O285  1  0.11864048  0.88042658  0.38173525  1
  O  O286  1  0.12281808  0.86293042  0.88103133  1
  O  O287  1  0.60988727  0.36543130  0.38349521  1
  O  O288  1  0.61583127  0.37008304  0.86675294  1
  O  O289  1  0.63248508  0.86325133  0.38053322  1
  O  O290  1  0.62080547  0.86985940  0.86897151  1
  O  O291  1  0.36864725  0.14127768  0.12299079  1
  O  O292  1  0.38200497  0.12850537  0.62677826  1
  O  O293  1  0.38271951  0.61823489  0.13547357  1
  O  O294  1  0.38155119  0.63227496  0.62683683  1
  O  O295  1  0.89591552  0.11834700  0.12281713  1
  O  O296  1  0.86500993  0.13790491  0.62980573  1
  O  O297  1  0.88602361  0.62013646  0.12179194  1
  O  O298  1  0.88087405  0.63162100  0.63337291  1
  O  O299  1  0.25099818  0.25669431  0.11891645  1
  O  O300  1  0.25610159  0.25528849  0.61897244  1
  O  O301  1  0.24779413  0.75713151  0.11321006  1
  O  O302  1  0.26235949  0.75553144  0.61962582  1
  O  O303  1  0.74016780  0.26695891  0.12692648  1
  O  O304  1  0.75225211  0.25645669  0.62042837  1
  O  O305  1  0.74598742  0.75300968  0.11467948  1
  O  O306  1  0.75949582  0.75942332  0.63031047  1
  O  O307  1  0.24200501  0.24505564  0.38405277  1
  O  O308  1  0.24580279  0.24478788  0.88066887  1
  O  O309  1  0.25686052  0.74184724  0.38354664  1
  O  O310  1  0.24604156  0.74703652  0.87922843  1
  O  O311  1  0.73827741  0.25911791  0.38399278  1
  O  O312  1  0.73774082  0.24060928  0.86841163  1
  O  O313  1  0.73609573  0.74318074  0.37593614  1
  O  O314  1  0.73802530  0.74839503  0.88292922  1
  O  O315  1  0.00754035  0.10765162  -0.00415375  1
  O  O316  1  0.01629577  0.13042709  0.50349708  1
  O  O317  1  0.00983120  0.62113199  0.00420059  1
  O  O318  1  0.00217995  0.61859007  0.50483273  1
  O  O319  1  0.50068437  0.14287699  0.00373312  1
  O  O320  1  0.50755087  0.13333624  0.51460941  1
  O  O321  1  0.50604162  0.62280684  0.00696875  1
  O  O322  1  0.50510148  0.61837767  0.51105625  1
  O  O323  1  0.49015651  0.37935711  0.49198900  1
  O  O324  1  0.49986983  0.37670147  0.98483792  1
  O  O325  1  0.48544826  0.87313674  0.50585940  1
  O  O326  1  0.48964502  0.86672801  0.99012611  1
  O  O327  1  1.00401080  0.38330484  0.49400954  1
  O  O328  1  1.00395734  0.39087738  1.00618579  1
  O  O329  1  0.98687742  0.87817571  0.49959352  1
  O  O330  1  0.99619638  0.87985717  0.99822261  1
  O  O331  1  0.49292845  0.49435655  0.37913192  1
  O  O332  1  0.49167726  0.49248874  0.87290277  1
  O  O333  1  0.48765763  1.01304765  0.37791629  1
  O  O334  1  0.48923386  0.99400914  0.87023039  1
  O  O335  1  1.00415342  0.49291678  0.38355700  1
  O  O336  1  1.00611036  0.50618087  0.89056249  1
  O  O337  1  0.99794986  0.98378195  0.38457359  1
  O  O338  1  0.99586067  0.98991279  0.87954607  1
  O  O339  1  0.00913460  0.00305402  0.11966089  1
  O  O340  1  0.01151069  0.00946977  0.67303590  1
  O  O341  1  0.01401006  0.51560009  0.10822467  1
  O  O342  1  0.00487811  0.50447609  0.61913221  1
  O  O343  1  0.49053031  0.00131548  0.12054749  1
  O  O344  1  0.51041103  0.00725084  0.63061925  1
  O  O345  1  0.50477941  0.50596391  0.12403535  1
  O  O346  1  0.50499087  0.50538368  0.61867857  1
  O  O347  1  0.23534027  0.37441672  0.24144751  1
  O  O348  1  0.24149237  0.38140035  0.74314091  1
  O  O349  1  0.25245932  0.87454371  0.24221804  1
  O  O350  1  0.26103490  0.88227725  0.73935028  1
  O  O351  1  0.73796948  0.39109278  0.23252327  1
  O  O352  1  0.74243767  0.38117885  0.74195345  1
  O  O353  1  0.75276991  0.86743138  0.23605668  1
  O  O354  1  0.74192789  0.87658024  0.74095663  1
  O  O355  1  0.24458846  0.12512653  0.26688385  1
  O  O356  1  0.25841501  0.11980801  0.75565681  1
  O  O357  1  0.25747363  0.62900122  0.25679731  1
  O  O358  1  0.25646007  0.62049145  0.75498171  1
  O  O359  1  0.75851780  0.13732401  0.25364303  1
  O  O360  1  0.75251172  0.11908587  0.76407912  1
  O  O361  1  0.75190289  0.60682338  0.24751581  1
  O  O362  1  0.75793358  0.61762773  0.74752117  1
  O  O363  1  0.36485931  0.11151674  0.38823835  1
  O  O364  1  0.36627632  0.11971457  0.87007654  1
  O  O365  1  0.36823926  0.61931995  0.36950923  1
  O  O366  1  0.37391412  0.62092250  0.86733812  1
  O  O367  1  0.86868060  0.13726788  0.36468700  1
  O  O368  1  0.86906471  0.11475603  0.87642106  1
  O  O369  1  0.87145917  0.61812898  0.37147059  1
  O  O370  1  0.87368649  0.62119047  0.86112780  1
  O  O371  1  0.12934678  0.38066115  0.13125718  1
  O  O372  1  0.13153025  0.38135217  0.63220806  1
  O  O373  1  0.14005747  0.88151615  0.12172442  1
  O  O374  1  0.13896980  0.87420356  0.62063218  1
  O  O375  1  0.62796538  0.38932117  0.11516857  1
  O  O376  1  0.63326052  0.37814700  0.62664111  1
  O  O377  1  0.64042395  0.87170594  0.12650692  1
  O  O378  1  0.62868424  0.87769780  0.62907887  1
  O  O379  1  0.12820649  0.25708658  0.26180350  1
  O  O380  1  0.11946072  0.25884398  0.75484529  1
  O  O381  1  0.11104882  0.75576099  0.24346207  1
  O  O382  1  0.11754846  0.74294395  0.75968531  1
  O  O383  1  0.61314462  0.24837980  0.26219562  1
  O  O384  1  0.61729176  0.25521906  0.75416553  1
  O  O385  1  0.62481867  0.74884688  0.26546820  1
  O  O386  1  0.62849458  0.76154881  0.75694150  1
  O  O387  1  0.37779607  0.25549258  0.24201605  1
  O  O388  1  0.37920555  0.24459807  0.74318919  1
  O  O389  1  0.37883993  0.73747344  0.25657260  1
  O  O390  1  0.37271728  0.74045582  0.73986758  1
  O  O391  1  0.88173144  0.27598824  0.22766931  1
  O  O392  1  0.88169764  0.25369601  0.74206978  1
  O  O393  1  0.88542559  0.74749051  0.25239695  1
  O  O394  1  0.88086160  0.74272607  0.74505318  1
  O  O395  1  0.38071173  0.49675865  0.49100418  1
  O  O396  1  0.37495927  0.50579920  0.98443497  1
  O  O397  1  0.37328603  0.98826511  0.49691522  1
  O  O398  1  0.36822839  0.98932114  0.98871963  1
  O  O399  1  0.88909293  0.49418720  0.50072018  1
  O  O400  1  0.89251400  0.50494345  0.99539906  1
  O  O401  1  0.87563377  0.99320434  0.51018688  1
  O  O402  1  0.88511899  0.98912287  0.99267033  1
  O  O403  1  0.12034121  -0.00213341  0.00998972  1
  O  O404  1  0.12958092  0.01536609  0.50900599  1
  O  O405  1  0.12033432  0.50933732  0.00217225  1
  O  O406  1  0.11607305  0.50267326  0.50639985  1
  O  O407  1  0.62288991  -0.00290505  0.00771134  1
  O  O408  1  0.62836413  0.00991805  0.50819776  1
  O  O409  1  0.62067946  0.51309044  0.00188871  1
  O  O410  1  0.61859697  0.50434370  0.50578928  1
  O  O411  1  0.35839338  0.37177125  0.13028987  1
  O  O412  1  0.36911088  0.37148724  0.61911304  1
  O  O413  1  0.36437621  0.87865755  0.11640436  1
  O  O414  1  0.37159814  0.86944580  0.61778055  1
  O  O415  1  0.84928909  0.38880692  0.11197745  1
  O  O416  1  0.86186320  0.36756120  0.62390482  1
  O  O417  1  0.87175417  0.87745902  0.11574669  1
  O  O418  1  0.86786221  0.86860408  0.62142423  1
  O  O419  1  0.13040314  0.12991695  0.38635117  1
  O  O420  1  0.13978292  0.13428009  0.87120664  1
  O  O421  1  0.13781217  0.61837326  0.37300664  1
  O  O422  1  0.13288586  0.63466403  0.88472347  1
  O  O423  1  0.61328563  0.13593984  0.38668905  1
  O  O424  1  0.63047859  0.13286019  0.87635770  1
  O  O425  1  0.63111372  0.62422860  0.38678657  1
  O  O426  1  0.62395231  0.63198468  0.88099471  1
