# generated using pymatgen
data_V85Zn86O256
_symmetry_space_group_name_H-M   'P 1'
_cell_length_a   16.92987711
_cell_length_b   16.93049868
_cell_length_c   16.92293064
_cell_angle_alpha   90.04057937
_cell_angle_beta   90.05951673
_cell_angle_gamma   90.01700475
_symmetry_Int_Tables_number   1
_chemical_formula_structural   V85Zn86O256
_chemical_formula_sum   'V85 Zn86 O256'
_cell_volume   4850.63691924
_cell_formula_units_Z   1
loop_
 _symmetry_equiv_pos_site_id
 _symmetry_equiv_pos_as_xyz
  1  'x, y, z'
loop_
 _atom_site_type_symbol
 _atom_site_label
 _atom_site_symmetry_multiplicity
 _atom_site_fract_x
 _atom_site_fract_y
 _atom_site_fract_z
 _atom_site_occupancy
  V  V0  1  -0.00526858  -0.00110165  -0.00879424  1
  V  V1  1  0.61987453  0.49879185  0.11414364  1
  V  V2  1  0.11800905  0.00239330  0.12869856  1
  V  V3  1  0.37124889  0.62701100  0.25021545  1
  V  V4  1  0.37419684  0.24941876  0.12198388  1
  V  V5  1  0.61395522  0.88844213  0.74232836  1
  V  V6  1  0.24793127  0.12338373  0.87017304  1
  V  V7  1  0.50342385  0.49896927  0.51310699  1
  V  V8  1  0.00182562  0.25506663  0.74804355  1
  V  V9  1  0.00150112  0.37978841  0.87009562  1
  V  V10  1  0.75503136  0.11694028  0.87568926  1
  V  V11  1  0.24999715  0.37596835  0.12473054  1
  V  V12  1  0.24885555  0.37858061  0.63345174  1
  V  V13  1  0.62524123  0.37591274  0.25276763  1
  V  V14  1  0.11965995  0.12436136  0.00191394  1
  V  V15  1  0.37802896  0.39149351  -0.00144714  1
  V  V16  1  0.36712471  0.11729101  0.25066752  1
  V  V17  1  0.49791169  0.12268714  0.12416032  1
  V  V18  1  0.12066651  0.62891945  -0.00334782  1
  V  V19  1  0.49274999  0.63595429  0.63101762  1
  V  V20  1  0.87996512  0.24563909  0.12226778  1
  V  V21  1  0.62670538  0.87459002  0.24716148  1
  V  V22  1  0.12525783  0.25332558  0.87029095  1
  V  V23  1  0.63267334  0.62115976  0.50037046  1
  V  V24  1  0.24749589  0.88019825  0.12675519  1
  V  V25  1  0.12568926  0.37425600  0.24965729  1
  V  V26  1  0.74806836  0.88540134  0.62172628  1
  V  V27  1  0.62377829  0.25079967  0.87481597  1
  V  V28  1  -0.00475058  0.50153118  -0.00372120  1
  V  V29  1  0.74850027  0.00460859  0.25329462  1
  V  V30  1  0.74513766  0.37471140  0.63128747  1
  V  V31  1  0.37501325  0.37646407  0.50218609  1
  V  V32  1  0.87206845  0.75089500  0.64696970  1
  V  V33  1  0.36294981  -0.00606929  0.37567046  1
  V  V34  1  0.74880242  0.49979267  0.24938600  1
  V  V35  1  0.24010536  -0.01494829  0.73529711  1
  V  V36  1  0.75239719  0.62598348  0.37793963  1
  V  V37  1  0.75361910  0.86984959  0.12156345  1
  V  V38  1  0.62729597  0.75319909  0.86174765  1
  V  V39  1  0.49696076  0.38820059  0.87850468  1
  V  V40  1  0.00251060  0.24413897  0.24498098  1
  V  V41  1  0.75204101  0.24965101  -0.00098381  1
  V  V42  1  0.50935063  0.12237797  0.62491776  1
  V  V43  1  0.11648431  0.49670656  0.61555538  1
  V  V44  1  0.49973378  0.24872914  0.25085162  1
  V  V45  1  0.49926354  0.87472763  0.37350123  1
  V  V46  1  0.38075598  0.63009846  0.76050602  1
  V  V47  1  0.12798209  0.73671023  0.37702777  1
  V  V48  1  0.50001477  0.74724768  0.24612821  1
  V  V49  1  0.11751793  0.75602084  0.85887304  1
  V  V50  1  0.87769267  0.49915604  0.37466011  1
  V  V51  1  0.24996363  0.50161049  0.25275080  1
  V  V52  1  0.62974191  0.64394687  -0.00351529  1
  V  V53  1  0.86275138  0.51139599  0.86017525  1
  V  V54  1  0.87205221  0.86343614  0.49665158  1
  V  V55  1  0.00197803  0.37818218  0.37930177  1
  V  V56  1  0.50493557  -0.00055653  0.50143841  1
  V  V57  1  0.00504656  0.63940479  0.62563886  1
  V  V58  1  0.37714599  0.24916827  0.62397412  1
  V  V59  1  0.12824513  0.87902396  0.25700795  1
  V  V60  1  0.00416766  0.12354220  0.62463555  1
  V  V61  1  -0.00219180  0.62511078  0.12312975  1
  V  V62  1  0.87307289  0.12591202  0.25542725  1
  V  V63  1  0.49942219  0.25196682  0.75200928  1
  V  V64  1  0.37897722  0.85786358  0.51115890  1
  V  V65  1  0.49788675  -0.00292273  -0.00281777  1
  V  V66  1  0.68703700  0.55019438  0.68224525  1
  V  V67  1  0.63129441  0.74865757  0.37749613  1
  V  V68  1  0.12914373  0.11440543  0.50386386  1
  V  V69  1  0.62475758  0.12341045  -0.00077082  1
  V  V70  1  0.24921114  0.75245499  -0.00228100  1
  V  V71  1  0.25364810  0.61540675  0.87807946  1
  V  V72  1  -0.00590221  -0.00148708  0.49906466  1
  V  V73  1  0.87481246  0.62477274  0.24918210  1
  V  V74  1  -0.00261776  0.75241597  0.24856018  1
  V  V75  1  0.62795592  0.23948618  0.37343873  1
  V  V76  1  0.36983158  -0.00415596  0.87300350  1
  V  V77  1  0.12745546  0.24842653  0.37699599  1
  V  V78  1  0.87412404  0.87101759  -0.01162190  1
  V  V79  1  0.25103473  0.24735571  0.50063052  1
  V  V80  1  0.87695778  0.37672829  0.50199161  1
  V  V81  1  0.21531753  0.76204222  0.54662186  1
  V  V82  1  0.75046461  0.24499164  0.49593798  1
  V  V83  1  0.87714319  0.11962006  0.75253579  1
  V  V84  1  0.37618507  0.50145395  0.37924338  1
  Zn  Zn85  1  0.24640100  0.11652026  0.37265679  1
  Zn  Zn86  1  0.49496593  0.61822837  0.11527688  1
  Zn  Zn87  1  0.87099367  0.74763743  0.11611001  1
  Zn  Zn88  1  0.87525340  0.37603555  -0.00134308  1
  Zn  Zn89  1  0.62616858  -0.00073322  0.12284015  1
  Zn  Zn90  1  0.25262365  0.49883831  0.75076717  1
  Zn  Zn91  1  0.75177253  0.37400922  0.12412060  1
  Zn  Zn92  1  0.24849709  0.62774268  0.39872800  1
  Zn  Zn93  1  0.62449286  0.38061599  0.74960954  1
  Zn  Zn94  1  0.87081340  0.00378819  0.37677488  1
  Zn  Zn95  1  -0.00025142  0.87386460  0.37732280  1
  Zn  Zn96  1  0.37418598  0.12204849  0.74716315  1
  Zn  Zn97  1  0.49218027  0.86808704  0.86642150  1
  Zn  Zn98  1  0.63293568  0.11680791  0.49921573  1
  Zn  Zn99  1  0.37248301  0.75110813  0.12443568  1
  Zn  Zn100  1  -0.00354440  0.87665386  0.85031053  1
  Zn  Zn101  1  0.74782999  0.00400209  0.74717996  1
  Zn  Zn102  1  0.87460435  0.25129566  0.62575160  1
  Zn  Zn103  1  0.37303371  0.87244716  -0.00053848  1
  Zn  Zn104  1  0.12364992  0.50065887  0.12453466  1
  Zn  Zn105  1  0.24973833  0.25182553  -0.00297009  1
  Zn  Zn106  1  0.50173651  0.37422434  0.37940292  1
  Zn  Zn107  1  0.18829491  0.18627577  0.18569761  1
  Zn  Zn108  1  0.18835292  0.18594005  0.68795013  1
  Zn  Zn109  1  0.18523239  0.69024600  0.18695573  1
  Zn  Zn110  1  0.18302012  0.66719211  0.69434355  1
  Zn  Zn111  1  0.68876732  0.18630096  0.18438082  1
  Zn  Zn112  1  0.68787922  0.19092067  0.68788030  1
  Zn  Zn113  1  0.68697008  0.68517930  0.18426981  1
  Zn  Zn114  1  0.68648492  0.71200375  0.68085608  1
  Zn  Zn115  1  0.31370699  0.31123653  0.31371451  1
  Zn  Zn116  1  0.31621312  0.31267309  0.81421904  1
  Zn  Zn117  1  0.30932718  0.81406416  0.31479141  1
  Zn  Zn118  1  0.30857243  0.80802291  0.80755128  1
  Zn  Zn119  1  0.81242866  0.31091289  0.31251764  1
  Zn  Zn120  1  0.81747980  0.31227753  0.81385120  1
  Zn  Zn121  1  0.81255086  0.81456989  0.31182994  1
  Zn  Zn122  1  0.80144826  0.82000247  0.81470811  1
  Zn  Zn123  1  0.18939713  0.43810998  0.44244186  1
  Zn  Zn124  1  0.18340986  0.43659057  0.94066620  1
  Zn  Zn125  1  0.16604346  0.90773205  0.47695191  1
  Zn  Zn126  1  0.18426790  0.93750739  0.93561753  1
  Zn  Zn127  1  0.68925729  0.43537882  0.43903313  1
  Zn  Zn128  1  0.68862112  0.43439176  0.93444435  1
  Zn  Zn129  1  0.68979385  0.93679813  0.43519120  1
  Zn  Zn130  1  0.68590792  0.93247941  0.93460570  1
  Zn  Zn131  1  0.30644943  0.06114485  0.05913632  1
  Zn  Zn132  1  0.31978657  0.05903182  0.56066687  1
  Zn  Zn133  1  0.30928815  0.56561694  0.06642518  1
  Zn  Zn134  1  0.30777922  0.57445383  0.56581681  1
  Zn  Zn135  1  0.81611080  0.06060782  0.06793452  1
  Zn  Zn136  1  0.81685653  0.06526323  0.56457187  1
  Zn  Zn137  1  0.80932270  0.56160563  0.05937366  1
  Zn  Zn138  1  0.83201402  0.56970273  0.55744102  1
  Zn  Zn139  1  0.43856895  0.43667551  0.18907327  1
  Zn  Zn140  1  0.43403610  0.44247760  0.69378588  1
  Zn  Zn141  1  0.43519628  0.93657404  0.18628267  1
  Zn  Zn142  1  0.43142573  0.94175933  0.68507170  1
  Zn  Zn143  1  0.93765764  0.43356158  0.18537425  1
  Zn  Zn144  1  0.93750034  0.43922686  0.68706362  1
  Zn  Zn145  1  0.93807278  0.93847750  0.18356096  1
  Zn  Zn146  1  0.93547077  0.94171991  0.68232359  1
  Zn  Zn147  1  0.06107526  0.06247039  0.31513186  1
  Zn  Zn148  1  0.06433930  0.05840656  0.80951410  1
  Zn  Zn149  1  0.06098983  0.55992999  0.31009001  1
  Zn  Zn150  1  0.06321612  0.56157453  0.80135924  1
  Zn  Zn151  1  0.55784247  0.05934896  0.31173463  1
  Zn  Zn152  1  0.55977927  0.06329983  0.81431168  1
  Zn  Zn153  1  0.55964946  0.56097351  0.31313255  1
  Zn  Zn154  1  0.56149182  0.56997347  0.82094291  1
  Zn  Zn155  1  0.43885070  0.18401316  0.43609808  1
  Zn  Zn156  1  0.43492062  0.18743104  0.93644052  1
  Zn  Zn157  1  0.44683916  0.68090367  0.43409891  1
  Zn  Zn158  1  0.44356502  0.68624563  0.93851320  1
  Zn  Zn159  1  0.93975938  0.19087710  0.43663260  1
  Zn  Zn160  1  0.93998791  0.18581017  0.93587123  1
  Zn  Zn161  1  0.94716857  0.68407487  0.44245185  1
  Zn  Zn162  1  0.93383833  0.68968681  0.92821242  1
  Zn  Zn163  1  0.06269558  0.31330747  0.05938608  1
  Zn  Zn164  1  0.06605852  0.31272574  0.56304879  1
  Zn  Zn165  1  0.05952818  0.81471593  0.06164293  1
  Zn  Zn166  1  0.07495355  0.82464616  0.67052061  1
  Zn  Zn167  1  0.56207133  0.31459728  0.06151539  1
  Zn  Zn168  1  0.56614515  0.31157856  0.56262363  1
  Zn  Zn169  1  0.56098771  0.81449084  0.06304985  1
  Zn  Zn170  1  0.56494152  0.81192766  0.56006604  1
  O  O171  1  0.13213765  0.11598767  0.11486295  1
  O  O172  1  0.11695180  0.13167722  0.61488606  1
  O  O173  1  0.11729938  0.62411083  0.11507093  1
  O  O174  1  0.11024009  0.62185416  0.61674248  1
  O  O175  1  0.61694297  0.12279102  0.11701956  1
  O  O176  1  0.61327229  0.13164701  0.62097967  1
  O  O177  1  0.62260481  0.61359791  0.11792457  1
  O  O178  1  0.62556342  0.61840004  0.62219569  1
  O  O179  1  0.37669164  0.38373046  0.38230884  1
  O  O180  1  0.38295000  0.37030828  0.88765516  1
  O  O181  1  0.38112344  0.87749668  0.38032720  1
  O  O182  1  0.37370884  0.88159560  0.87718467  1
  O  O183  1  0.88337134  0.37737856  0.37935578  1
  O  O184  1  0.88881717  0.37978189  0.87766860  1
  O  O185  1  0.87649182  0.87682516  0.38508373  1
  O  O186  1  0.87706319  0.87711984  0.88458078  1
  O  O187  1  0.26265556  -0.00435640  0.38470272  1
  O  O188  1  0.25367245  0.00579202  0.87022352  1
  O  O189  1  0.26044757  0.50516763  0.37413925  1
  O  O190  1  0.24203346  0.51267078  0.87774597  1
  O  O191  1  0.75164618  -0.00296612  0.35875790  1
  O  O192  1  0.74526261  0.01464083  0.87403188  1
  O  O193  1  0.75566551  0.50459268  0.36781961  1
  O  O194  1  0.76445991  0.49334891  0.87654526  1
  O  O195  1  0.24797505  0.49161992  0.13304818  1
  O  O196  1  0.24882910  0.49103266  0.62162697  1
  O  O197  1  0.23741450  0.98746445  0.11843811  1
  O  O198  1  0.25796446  1.00148468  0.63665630  1
  O  O199  1  0.73919471  0.49640907  0.13254151  1
  O  O200  1  0.75392516  0.49391779  0.62421406  1
  O  O201  1  0.74930032  0.99101560  0.13522073  1
  O  O202  1  0.75265395  0.99071386  0.62469726  1
  O  O203  1  0.00603207  0.36517029  0.25595649  1
  O  O204  1  -0.00129010  0.36380076  0.75504954  1
  O  O205  1  0.00650635  0.86801699  0.25226141  1
  O  O206  1  0.01191663  0.88586585  0.73856618  1
  O  O207  1  0.50996957  0.36801752  0.25256459  1
  O  O208  1  0.49933176  0.36833745  0.75792555  1
  O  O209  1  0.50556462  0.86735081  0.25313295  1
  O  O210  1  0.51009212  0.88216227  0.74600368  1
  O  O211  1  0.48931301  0.12949631  0.24395595  1
  O  O212  1  0.49798773  0.13228461  0.74291346  1
  O  O213  1  0.48851991  0.63115371  0.25094281  1
  O  O214  1  0.49533864  0.62003045  0.73996173  1
  O  O215  1  0.99571636  0.13854843  0.25242033  1
  O  O216  1  0.99663984  0.13031542  0.74368796  1
  O  O217  1  0.99387287  0.63040759  0.24304634  1
  O  O218  1  0.99296505  0.61151135  0.72281003  1
  O  O219  1  0.37250594  0.25031494  0.01326023  1
  O  O220  1  0.37138304  0.25415763  0.50390328  1
  O  O221  1  0.36048460  0.74893402  0.00060545  1
  O  O222  1  0.39710617  0.76043180  0.49857695  1
  O  O223  1  0.87037757  0.24823236  0.00595703  1
  O  O224  1  0.86793490  0.26019039  0.49831885  1
  O  O225  1  0.87873669  0.76627611  -0.00228052  1
  O  O226  1  0.87882928  0.76327214  0.49926660  1
  O  O227  1  0.13144177  0.23999324  0.49517205  1
  O  O228  1  0.12456825  0.24215392  0.98945127  1
  O  O229  1  0.12132918  0.73660933  0.47765396  1
  O  O230  1  0.13004136  0.74135025  0.99700031  1
  O  O231  1  0.63232178  0.24939752  0.48923101  1
  O  O232  1  0.63269517  0.24348380  0.99701285  1
  O  O233  1  0.62023663  0.73699900  0.48853925  1
  O  O234  1  0.63164956  0.74626469  1.00303567  1
  O  O235  1  0.49291520  0.24381768  0.12977417  1
  O  O236  1  0.49637641  0.24679734  0.63187129  1
  O  O237  1  0.49815106  0.74881476  0.13715113  1
  O  O238  1  0.51119026  0.73286633  0.62533836  1
  O  O239  1  0.99396441  0.25501715  0.13290811  1
  O  O240  1  1.00117041  0.24408388  0.63280529  1
  O  O241  1  0.99760538  0.74346161  0.13210892  1
  O  O242  1  0.98764230  0.74568969  0.62811253  1
  O  O243  1  0.00774441  0.25937182  0.36706701  1
  O  O244  1  0.00629770  0.25729177  0.86840458  1
  O  O245  1  0.00915347  0.74643879  0.36577196  1
  O  O246  1  0.01452642  0.75259653  0.87448941  1
  O  O247  1  0.50679315  0.25174647  0.36805311  1
  O  O248  1  0.50389239  0.25188107  0.86744186  1
  O  O249  1  0.51046508  0.75259435  0.36342459  1
  O  O250  1  0.51943866  0.75812007  0.88823598  1
  O  O251  1  0.24411833  0.12807563  0.50012568  1
  O  O252  1  0.23851279  0.12583572  0.98776362  1
  O  O253  1  0.25243045  0.66057081  0.51016116  1
  O  O254  1  0.24045115  0.63131188  0.99744532  1
  O  O255  1  0.75025456  0.13982125  0.50559646  1
  O  O256  1  0.74820948  0.13174795  0.99519842  1
  O  O257  1  0.74107822  0.61743553  0.49493623  1
  O  O258  1  0.72687152  0.61554351  1.00256351  1
  O  O259  1  0.25735140  0.37390805  0.00687422  1
  O  O260  1  0.25772384  0.36647626  0.50778193  1
  O  O261  1  0.24695037  0.86732535  0.00646129  1
  O  O262  1  0.26689410  0.84494267  0.49563624  1
  O  O263  1  0.75244184  0.36020357  0.00015868  1
  O  O264  1  0.75578989  0.36683229  0.50778684  1
  O  O265  1  0.76533995  0.88612873  0.00624051  1
  O  O266  1  0.76315009  0.88050132  0.50397805  1
  O  O267  1  0.13205248  0.49178998  0.24799798  1
  O  O268  1  0.13713944  0.51219236  0.72706763  1
  O  O269  1  0.11776478  0.99148229  0.24335421  1
  O  O270  1  0.14170417  1.00533927  0.74701108  1
  O  O271  1  0.62943230  0.49270351  0.24762336  1
  O  O272  1  0.62719024  0.50003464  0.74947962  1
  O  O273  1  0.63057200  0.99414903  0.24790487  1
  O  O274  1  0.62473806  0.99175464  0.74971509  1
  O  O275  1  0.37921937  0.00681239  0.25982181  1
  O  O276  1  0.36591707  0.00184284  0.76043251  1
  O  O277  1  0.37211449  0.50607181  0.25897823  1
  O  O278  1  0.36946561  0.51809628  0.74699468  1
  O  O279  1  0.87025690  0.00959593  0.24891462  1
  O  O280  1  0.87197206  0.01574887  0.74619732  1
  O  O281  1  0.86933299  0.50288048  0.25381892  1
  O  O282  1  0.87388732  0.49506995  0.76137554  1
  O  O283  1  0.12022969  0.37044031  0.37219016  1
  O  O284  1  0.11376867  0.36676100  0.87919495  1
  O  O285  1  0.12175989  0.86363503  0.37200004  1
  O  O286  1  0.12491104  0.85708558  0.87805369  1
  O  O287  1  0.62294241  0.36779175  0.36649480  1
  O  O288  1  0.61606481  0.36692243  0.87313586  1
  O  O289  1  0.62094177  0.86551256  0.36871222  1
  O  O290  1  0.61959490  0.87342653  0.85937407  1
  O  O291  1  0.37538034  0.12908724  0.13004657  1
  O  O292  1  0.38628283  0.13421259  0.62415094  1
  O  O293  1  0.37812719  0.62911165  0.13395024  1
  O  O294  1  0.38926015  0.62786452  0.63251808  1
  O  O295  1  0.87427195  0.13828234  0.13517448  1
  O  O296  1  0.88512410  0.13259425  0.63200749  1
  O  O297  1  0.87836165  0.62712014  0.12933684  1
  O  O298  1  0.86610365  0.64930260  0.63176053  1
  O  O299  1  0.25747701  0.25821133  0.12394874  1
  O  O300  1  0.25648636  0.25581914  0.62058107  1
  O  O301  1  0.24618775  0.76148610  0.11665602  1
  O  O302  1  0.25234509  0.74367633  0.63674875  1
  O  O303  1  0.75747554  0.25000342  0.11506696  1
  O  O304  1  0.75145540  0.25999063  0.61684239  1
  O  O305  1  0.75208625  0.76504609  0.13170106  1
  O  O306  1  0.76414308  0.76886749  0.62393864  1
  O  O307  1  0.24425998  0.24727695  0.38231672  1
  O  O308  1  0.24236023  0.24399713  0.87473889  1
  O  O309  1  0.23224653  0.74436593  0.36175156  1
  O  O310  1  0.23795163  0.74165821  0.88194311  1
  O  O311  1  0.74071234  0.25507988  0.38303900  1
  O  O312  1  0.74527880  0.24393538  0.88184308  1
  O  O313  1  0.73854482  0.74305926  0.36764769  1
  O  O314  1  0.72713792  0.76233786  0.87918072  1
  O  O315  1  0.01173461  0.11723782  -0.00485802  1
  O  O316  1  0.00663346  0.12320902  0.50604678  1
  O  O317  1  0.00387000  0.62209670  0.00149730  1
  O  O318  1  -0.02929872  0.61383855  0.52903158  1
  O  O319  1  0.50221194  0.11514013  0.00291786  1
  O  O320  1  0.50206086  0.11636512  0.50614300  1
  O  O321  1  0.52035236  0.62524124  0.00181565  1
  O  O322  1  0.50941981  0.61839644  0.51308034  1
  O  O323  1  0.49457227  0.38243054  0.50131916  1
  O  O324  1  0.48959333  0.36851581  0.99114358  1
  O  O325  1  0.49576966  0.88040121  0.49487885  1
  O  O326  1  0.49553075  0.88864949  1.00247822  1
  O  O327  1  0.99140008  0.36557351  0.48980375  1
  O  O328  1  1.00010351  0.38583779  0.99169788  1
  O  O329  1  0.98403304  0.88692417  0.49960361  1
  O  O330  1  0.98754125  0.88189271  0.99914868  1
  O  O331  1  0.48812149  0.50043644  0.38458726  1
  O  O332  1  0.50398261  0.48725833  0.87422394  1
  O  O333  1  0.49202089  0.99140743  0.38032183  1
  O  O334  1  0.48846477  0.99843345  0.88094985  1
  O  O335  1  0.99563596  0.48572974  0.36928476  1
  O  O336  1  0.99880552  0.49474583  0.87722333  1
  O  O337  1  0.99537829  1.00047127  0.38687375  1
  O  O338  1  1.00905831  0.99400652  0.88687449  1
  O  O339  1  0.01272372  -0.00310319  0.11404435  1
  O  O340  1  -0.00444384  0.01592199  0.61214195  1
  O  O341  1  -0.00027955  0.50570039  0.11501871  1
  O  O342  1  0.01469460  0.48945936  0.61996515  1
  O  O343  1  0.49871266  0.00662834  0.11655164  1
  O  O344  1  0.49386012  0.01077382  0.61487692  1
  O  O345  1  0.51616809  0.50078245  0.13397755  1
  O  O346  1  0.49869712  0.50649493  0.61635003  1
  O  O347  1  0.24604897  0.37984279  0.24564041  1
  O  O348  1  0.25645024  0.37489474  0.73742990  1
  O  O349  1  0.23597982  0.87128374  0.24264539  1
  O  O350  1  0.24854360  0.88546717  0.74945238  1
  O  O351  1  0.73956865  0.37882981  0.24888223  1
  O  O352  1  0.74967868  0.36635854  0.73530983  1
  O  O353  1  0.74569467  0.88181052  0.24259622  1
  O  O354  1  0.73763729  0.88335930  0.74095851  1
  O  O355  1  0.26311641  0.12793065  0.25215735  1
  O  O356  1  0.25246975  0.12234663  0.76065925  1
  O  O357  1  0.26126282  0.62006962  0.24512752  1
  O  O358  1  0.26175566  0.62423033  0.76399702  1
  O  O359  1  0.75879661  0.11709578  0.24397762  1
  O  O360  1  0.75780650  0.12832487  0.75720747  1
  O  O361  1  0.75588034  0.61949721  0.25522554  1
  O  O362  1  0.73468965  0.61807090  0.73498743  1
  O  O363  1  0.37375705  0.11444804  0.36723610  1
  O  O364  1  0.36413293  0.11782350  0.87446086  1
  O  O365  1  0.37121147  0.61896573  0.37027993  1
  O  O366  1  0.36858360  0.62620686  0.87248932  1
  O  O367  1  0.87821714  0.12892669  0.36013757  1
  O  O368  1  0.86667463  0.13073244  0.86672601  1
  O  O369  1  0.87299123  0.61930805  0.37039062  1
  O  O370  1  0.87542550  0.61101638  0.87357925  1
  O  O371  1  0.13264133  0.37552925  0.12980465  1
  O  O372  1  0.13615365  0.38438474  0.61967132  1
  O  O373  1  0.12777349  0.88153919  0.13377037  1
  O  O374  1  0.14362548  0.83723826  0.57954691  1
  O  O375  1  0.62598508  0.38233773  0.13393426  1
  O  O376  1  0.63930241  0.37645916  0.62562159  1
  O  O377  1  0.63299976  0.87812783  0.13019786  1
  O  O378  1  0.63157138  0.87007598  0.63435964  1
  O  O379  1  0.12011763  0.25323644  0.25473414  1
  O  O380  1  0.11706522  0.24383357  0.76223779  1
  O  O381  1  0.11327836  0.75698547  0.25319076  1
  O  O382  1  0.12398126  0.74760126  0.75591531  1
  O  O383  1  0.62246037  0.25581208  0.25433678  1
  O  O384  1  0.61317869  0.25296055  0.75464863  1
  O  O385  1  0.61774959  0.75173819  0.25483057  1
  O  O386  1  0.62012778  0.76363981  0.75688031  1
  O  O387  1  0.37941204  0.24418997  0.24031243  1
  O  O388  1  0.38623504  0.24767210  0.74465163  1
  O  O389  1  0.38158817  0.74297509  0.25165865  1
  O  O390  1  0.37764481  0.73255542  0.75679291  1
  O  O391  1  0.88209102  0.24647019  0.24338480  1
  O  O392  1  0.88693442  0.24151591  0.74966519  1
  O  O393  1  0.88620881  0.74604470  0.25041341  1
  O  O394  1  0.87262690  0.76101249  0.74550838  1
  O  O395  1  0.38022466  0.49986834  0.49583336  1
  O  O396  1  0.37531276  0.49044273  1.00922411  1
  O  O397  1  0.38530781  0.98817014  0.49217423  1
  O  O398  1  0.37825466  0.99982145  0.98917692  1
  O  O399  1  0.86889208  0.48404395  0.48997152  1
  O  O400  1  0.88558825  0.49987236  0.99384720  1
  O  O401  1  0.87957739  0.99701381  0.49645422  1
  O  O402  1  0.88665824  0.99284340  1.00626150  1
  O  O403  1  0.11854616  0.00582949  0.00607720  1
  O  O404  1  0.11623447  0.00844956  0.49800438  1
  O  O405  1  0.11283161  0.51224884  -0.00082074  1
  O  O406  1  0.13423627  0.50503985  0.51493402  1
  O  O407  1  0.61513224  0.00515537  -0.00205048  1
  O  O408  1  0.61106744  -0.00005092  0.49092586  1
  O  O409  1  0.62515228  0.49046076  0.01419122  1
  O  O410  1  0.61481198  0.50852992  0.49213329  1
  O  O411  1  0.37157781  0.36726278  0.12099310  1
  O  O412  1  0.37081364  0.36882189  0.61998176  1
  O  O413  1  0.36223309  0.87298993  0.12342268  1
  O  O414  1  0.37970706  0.87272058  0.60961967  1
  O  O415  1  0.87235970  0.36191444  0.12163982  1
  O  O416  1  0.86688324  0.37342753  0.61702738  1
  O  O417  1  0.86896809  0.87250302  0.11593700  1
  O  O418  1  0.86969760  0.86987001  0.61483140  1
  O  O419  1  0.12726207  0.13010074  0.38366037  1
  O  O420  1  0.12994138  0.13166919  0.88009164  1
  O  O421  1  0.13043306  0.63222176  0.36312634  1
  O  O422  1  0.12822992  0.63390886  0.87920831  1
  O  O423  1  0.62077747  0.13635171  0.37394232  1
  O  O424  1  0.63086344  0.13194478  0.88046687  1
  O  O425  1  0.62896579  0.62951158  0.38147425  1
  O  O426  1  0.62450945  0.64208367  0.88354262  1
