# generated using pymatgen
data_V85Zn86O256
_symmetry_space_group_name_H-M   'P 1'
_cell_length_a   16.93501712
_cell_length_b   16.93565222
_cell_length_c   16.93306692
_cell_angle_alpha   89.93524223
_cell_angle_beta   90.06120632
_cell_angle_gamma   89.98729246
_symmetry_Int_Tables_number   1
_chemical_formula_structural   V85Zn86O256
_chemical_formula_sum   'V85 Zn86 O256'
_cell_volume   4856.49175138
_cell_formula_units_Z   1
loop_
 _symmetry_equiv_pos_site_id
 _symmetry_equiv_pos_as_xyz
  1  'x, y, z'
loop_
 _atom_site_type_symbol
 _atom_site_label
 _atom_site_symmetry_multiplicity
 _atom_site_fract_x
 _atom_site_fract_y
 _atom_site_fract_z
 _atom_site_occupancy
  V  V0  1  0.37093811  0.76136161  0.12217370  1
  V  V1  1  0.12688141  0.75003391  0.87303100  1
  V  V2  1  0.00002704  0.74706146  0.74616297  1
  V  V3  1  0.38296762  0.38867564  0.49623654  1
  V  V4  1  0.11939869  0.12978024  0.50400748  1
  V  V5  1  0.25194692  0.12499857  0.87627185  1
  V  V6  1  0.49764911  0.50113393  -0.00212391  1
  V  V7  1  0.12716318  0.87451088  0.74765057  1
  V  V8  1  0.48812418  0.62188370  0.61887974  1
  V  V9  1  0.62095774  0.49011042  0.12778806  1
  V  V10  1  0.37383789  -0.00065113  0.37873863  1
  V  V11  1  0.24927815  0.50123915  0.74501011  1
  V  V12  1  0.26051737  0.24845790  0.50743647  1
  V  V13  1  0.23727687  0.88505495  0.12035264  1
  V  V14  1  0.87450312  0.25013560  0.12071761  1
  V  V15  1  0.87443662  0.62474930  0.24981976  1
  V  V16  1  0.87270552  0.61464844  0.75662047  1
  V  V17  1  -0.00039012  0.62018851  0.11891022  1
  V  V18  1  0.62936504  0.87144303  0.75597250  1
  V  V19  1  0.00465555  0.25613356  0.24892376  1
  V  V20  1  0.87466508  0.11218585  0.74762152  1
  V  V21  1  0.62929648  0.24986653  0.87162202  1
  V  V22  1  0.74694904  0.75185233  0.49819801  1
  V  V23  1  0.62600466  0.87141782  0.25386453  1
  V  V24  1  0.50726747  0.37756292  0.86692220  1
  V  V25  1  0.62331794  -0.00151961  0.62647293  1
  V  V26  1  0.24929966  0.37402139  0.13072918  1
  V  V27  1  0.75250066  0.25116456  0.50272288  1
  V  V28  1  0.50219661  0.25522104  0.74211758  1
  V  V29  1  0.12443332  0.61955656  -0.00125931  1
  V  V30  1  0.25134106  0.25042898  0.00501247  1
  V  V31  1  0.49884316  0.75332218  0.25493823  1
  V  V32  1  0.12501828  0.00337162  0.62526559  1
  V  V33  1  0.37483239  0.50212078  0.87267930  1
  V  V34  1  0.87495342  0.12632736  0.24935833  1
  V  V35  1  0.74893434  0.12430040  0.37579335  1
  V  V36  1  0.12158406  0.25080349  0.87696890  1
  V  V37  1  0.25319591  -0.00066814  0.74998376  1
  V  V38  1  0.87655994  0.75293308  0.12423678  1
  V  V39  1  0.62380504  0.12005193  0.50219650  1
  V  V40  1  0.75656067  0.11079496  0.87535785  1
  V  V41  1  0.12414871  0.63959947  0.48189405  1
  V  V42  1  0.87930333  0.50033027  0.38503772  1
  V  V43  1  0.25064981  0.50011463  0.25935983  1
  V  V44  1  0.49718236  0.12608474  0.11566802  1
  V  V45  1  0.50047547  0.25023023  0.24473003  1
  V  V46  1  0.00396823  0.11606905  0.12795253  1
  V  V47  1  0.12469957  0.37567272  0.74991088  1
  V  V48  1  0.12782753  0.25373051  0.37320935  1
  V  V49  1  0.25376883  0.62666581  0.87456318  1
  V  V50  1  0.01073331  0.75063082  0.25438890  1
  V  V51  1  0.49435368  0.62654064  0.12487729  1
  V  V52  1  0.62156384  0.24954893  0.37234838  1
  V  V53  1  0.26396778  0.75764824  0.49335770  1
  V  V54  1  0.39178425  -0.00853279  0.88421278  1
  V  V55  1  0.00063283  0.00264109  0.50516272  1
  V  V56  1  0.49159438  0.75445970  0.73921839  1
  V  V57  1  0.12366493  0.49498607  0.12745467  1
  V  V58  1  0.36715149  0.62470279  0.26036921  1
  V  V59  1  0.61923542  0.00030493  0.11878067  1
  V  V60  1  0.37473117  0.12765512  0.24552420  1
  V  V61  1  0.87715629  -0.00009963  0.37605717  1
  V  V62  1  0.37530350  0.13336560  0.74875866  1
  V  V63  1  -0.00306194  0.24639353  0.74561071  1
  V  V64  1  0.62612276  0.62499940  0.50243422  1
  V  V65  1  0.87616942  0.38932425  -0.00029702  1
  V  V66  1  0.74908215  0.63153657  0.37464220  1
  V  V67  1  0.49983290  0.88038765  0.37929840  1
  V  V68  1  0.87468463  0.74807789  0.62589643  1
  V  V69  1  -0.00732182  0.88054190  0.87524539  1
  V  V70  1  -0.00251634  0.38798519  0.88001898  1
  V  V71  1  0.74904313  -0.00053805  0.24855906  1
  V  V72  1  0.12449659  0.11573991  0.00331820  1
  V  V73  1  0.00162391  0.37670405  0.38080283  1
  V  V74  1  0.74922952  0.49120652  0.25440709  1
  V  V75  1  0.37503958  0.37155903  0.00098492  1
  V  V76  1  0.56530528  0.41818224  0.31119035  1
  V  V77  1  0.49571143  0.12361474  0.62059511  1
  V  V78  1  0.62728021  0.62231129  0.00200511  1
  V  V79  1  0.74631209  0.37566935  0.63474064  1
  V  V80  1  0.59660964  0.76175835  0.89456671  1
  V  V81  1  0.75108204  0.87941091  0.63017818  1
  V  V82  1  0.75408753  0.74845905  -0.00233346  1
  V  V83  1  0.12032693  0.50137200  0.61232761  1
  V  V84  1  0.87678801  0.87506972  0.50022911  1
  Zn  Zn85  1  0.12227659  0.89225623  0.25114477  1
  Zn  Zn86  1  0.25643149  0.37087754  0.62707243  1
  Zn  Zn87  1  0.75042176  0.62082687  0.87637601  1
  Zn  Zn88  1  0.43639710  -0.06403194  0.54518964  1
  Zn  Zn89  1  0.24389308  0.00497443  0.24707230  1
  Zn  Zn90  1  0.87894214  0.37828514  0.50680755  1
  Zn  Zn91  1  0.74679927  0.37026679  0.12720349  1
  Zn  Zn92  1  0.25219786  0.75462288  -0.00244837  1
  Zn  Zn93  1  0.36976949  0.63064940  0.74064117  1
  Zn  Zn94  1  0.27286485  0.86483793  0.62376389  1
  Zn  Zn95  1  -0.00289339  0.61567730  0.61789922  1
  Zn  Zn96  1  -0.00449701  0.00058410  -0.00096542  1
  Zn  Zn97  1  0.74919684  0.24914083  -0.00073193  1
  Zn  Zn98  1  0.00790981  0.86714339  0.38169278  1
  Zn  Zn99  1  0.62132184  0.49576698  0.63135828  1
  Zn  Zn100  1  0.87789807  0.24723922  0.62639473  1
  Zn  Zn101  1  0.86907201  0.88379366  -0.00554347  1
  Zn  Zn102  1  0.62282917  0.12125197  -0.00495822  1
  Zn  Zn103  1  0.24906693  0.12468898  0.37367281  1
  Zn  Zn104  1  0.74232669  0.48879597  0.76577981  1
  Zn  Zn105  1  0.74950980  0.87581742  0.12405951  1
  Zn  Zn106  1  0.50253662  0.49861634  0.48732555  1
  Zn  Zn107  1  0.18641511  0.18628430  0.18784407  1
  Zn  Zn108  1  0.18498132  0.18629873  0.68771837  1
  Zn  Zn109  1  0.19016966  0.68653379  0.18676224  1
  Zn  Zn110  1  0.18918093  0.68671945  0.67899571  1
  Zn  Zn111  1  0.68440346  0.18720055  0.18684961  1
  Zn  Zn112  1  0.68959535  0.18709736  0.69198470  1
  Zn  Zn113  1  0.68634732  0.68678173  0.18567325  1
  Zn  Zn114  1  0.68448354  0.68697015  0.69012836  1
  Zn  Zn115  1  0.31570704  0.31132924  0.31596357  1
  Zn  Zn116  1  0.31356020  0.31404608  0.81481413  1
  Zn  Zn117  1  0.30603954  0.81655764  0.31203202  1
  Zn  Zn118  1  0.31587380  0.81565111  0.81102887  1
  Zn  Zn119  1  0.81489152  0.31187550  0.31471743  1
  Zn  Zn120  1  0.81669747  0.30967494  0.81663483  1
  Zn  Zn121  1  0.81825682  0.81377915  0.31144044  1
  Zn  Zn122  1  0.80985709  0.80431456  0.81380761  1
  Zn  Zn123  1  0.18923651  0.43042293  0.43938552  1
  Zn  Zn124  1  0.18609024  0.43918976  0.93813750  1
  Zn  Zn125  1  0.18930296  0.93072766  0.43400476  1
  Zn  Zn126  1  0.18956234  0.93609985  0.93591113  1
  Zn  Zn127  1  0.69451851  0.44141208  0.44816634  1
  Zn  Zn128  1  0.69090358  0.43691515  0.93850209  1
  Zn  Zn129  1  0.68512736  0.93758538  0.43851316  1
  Zn  Zn130  1  0.68788278  0.93618607  0.94017779  1
  Zn  Zn131  1  0.31729711  0.06287948  0.06081602  1
  Zn  Zn132  1  0.30881414  0.06637700  0.56429973  1
  Zn  Zn133  1  0.31149854  0.56439084  0.06495423  1
  Zn  Zn134  1  0.30449824  0.56431715  0.55142954  1
  Zn  Zn135  1  0.81284772  0.06111890  0.05979467  1
  Zn  Zn136  1  0.81213845  0.06288644  0.56718668  1
  Zn  Zn137  1  0.80931601  0.56112866  0.06675029  1
  Zn  Zn138  1  0.81177815  0.56224694  0.56777991  1
  Zn  Zn139  1  0.42788242  0.44032957  0.18363533  1
  Zn  Zn140  1  0.43368623  0.43849635  0.67949111  1
  Zn  Zn141  1  0.43551477  0.94199222  0.19037841  1
  Zn  Zn142  1  0.44339980  0.94440774  0.71049171  1
  Zn  Zn143  1  0.93698506  0.43674429  0.18995329  1
  Zn  Zn144  1  0.93701125  0.43200990  0.68782780  1
  Zn  Zn145  1  0.93724009  0.93568600  0.18649607  1
  Zn  Zn146  1  0.94072627  0.93636043  0.68619775  1
  Zn  Zn147  1  0.06574804  0.06157333  0.31691764  1
  Zn  Zn148  1  0.06217518  0.06393950  0.81172560  1
  Zn  Zn149  1  0.06236087  0.55981771  0.30729776  1
  Zn  Zn150  1  0.06406116  0.56426031  0.80745873  1
  Zn  Zn151  1  0.56049659  0.06166824  0.30858856  1
  Zn  Zn152  1  0.56733811  0.06398317  0.80837425  1
  Zn  Zn153  1  0.56442711  0.58474824  0.31411248  1
  Zn  Zn154  1  0.56451218  0.56907832  0.80896627  1
  Zn  Zn155  1  0.43952486  0.18613952  0.43336147  1
  Zn  Zn156  1  0.43703804  0.18954170  0.93279258  1
  Zn  Zn157  1  0.43580248  0.69271644  0.43692909  1
  Zn  Zn158  1  0.43991127  0.70037505  0.94001158  1
  Zn  Zn159  1  0.93899319  0.18737453  0.43744757  1
  Zn  Zn160  1  0.93731935  0.18694705  0.93667058  1
  Zn  Zn161  1  0.94043166  0.68371082  0.43968928  1
  Zn  Zn162  1  0.94058175  0.68860910  0.93592720  1
  Zn  Zn163  1  0.06114840  0.31190280  0.06214371  1
  Zn  Zn164  1  0.06548142  0.31506389  0.56364924  1
  Zn  Zn165  1  0.06408249  0.80817320  0.05997090  1
  Zn  Zn166  1  0.06939661  0.81371912  0.56279914  1
  Zn  Zn167  1  0.56078008  0.30911884  0.05774894  1
  Zn  Zn168  1  0.56392137  0.31270858  0.56008850  1
  Zn  Zn169  1  0.56192175  0.81223540  0.06677226  1
  Zn  Zn170  1  0.56702240  0.80777651  0.56332371  1
  O  O171  1  0.11514110  0.13504606  0.11403325  1
  O  O172  1  0.12584982  0.11345321  0.62009572  1
  O  O173  1  0.11959961  0.61974299  0.11658521  1
  O  O174  1  0.12086503  0.60976101  0.62242923  1
  O  O175  1  0.61647107  0.11712490  0.12289904  1
  O  O176  1  0.62046565  0.11554933  0.62592392  1
  O  O177  1  0.61676549  0.61532158  0.11965600  1
  O  O178  1  0.61898502  0.62950483  0.61199487  1
  O  O179  1  0.37423274  0.36361541  0.39805115  1
  O  O180  1  0.38268786  0.38250084  0.88263375  1
  O  O181  1  0.38319507  0.89116187  0.36743106  1
  O  O182  1  0.37566660  0.89221432  0.86974520  1
  O  O183  1  0.88129755  0.38313894  0.37847289  1
  O  O184  1  0.88254944  0.37165263  0.89106400  1
  O  O185  1  0.88061242  0.88256714  0.38237883  1
  O  O186  1  0.88971370  0.86526720  0.87353882  1
  O  O187  1  0.26279413  0.00403773  0.37334588  1
  O  O188  1  0.24965845  0.00681955  0.86337543  1
  O  O189  1  0.24461340  0.48713589  0.35786135  1
  O  O190  1  0.25263500  0.50742954  0.86668897  1
  O  O191  1  0.75567070  0.00465469  0.36985720  1
  O  O192  1  0.74651710  0.01217267  0.87527062  1
  O  O193  1  0.75658694  0.50938847  0.37093483  1
  O  O194  1  0.74971273  0.50718992  0.87745256  1
  O  O195  1  0.24357161  0.49223606  0.12973094  1
  O  O196  1  0.24153488  0.50003117  0.63108114  1
  O  O197  1  0.25547836  0.98681728  0.12218200  1
  O  O198  1  0.24344870  1.00327914  0.63802371  1
  O  O199  1  0.73755892  0.50109665  0.13821262  1
  O  O200  1  0.75174338  0.48273785  0.62479291  1
  O  O201  1  0.74128482  0.99997379  0.13354874  1
  O  O202  1  0.74417378  0.98550346  0.62274712  1
  O  O203  1  -0.00605813  0.36207683  0.25983178  1
  O  O204  1  0.00506420  0.36737397  0.76020880  1
  O  O205  1  -0.00017055  0.85847947  0.24554950  1
  O  O206  1  0.00545588  0.86782178  0.75767644  1
  O  O207  1  0.49711916  0.36973297  0.24545245  1
  O  O208  1  0.49101352  0.36869954  0.75620008  1
  O  O209  1  0.50560037  0.87097371  0.25659652  1
  O  O210  1  0.51149134  0.85935056  0.74842921  1
  O  O211  1  0.49543599  0.13320916  0.24106246  1
  O  O212  1  0.49428014  0.13289305  0.74125998  1
  O  O213  1  0.49111604  0.63516781  0.24354852  1
  O  O214  1  0.49492773  0.63033639  0.73091645  1
  O  O215  1  0.99365236  0.13588794  0.24530046  1
  O  O216  1  0.98576475  0.13279403  0.76097834  1
  O  O217  1  0.99539237  0.63322575  0.23969232  1
  O  O218  1  0.99093581  0.63134846  0.74623814  1
  O  O219  1  0.36379731  0.25970963  -0.00853132  1
  O  O220  1  0.36092248  0.24051228  0.49974212  1
  O  O221  1  0.37029007  0.74569247  0.01835826  1
  O  O222  1  0.36404401  0.74820741  0.50334749  1
  O  O223  1  0.87620386  0.25317064  0.01264729  1
  O  O224  1  0.86171078  0.24452900  0.50135461  1
  O  O225  1  0.86943536  0.74919000  0.00661549  1
  O  O226  1  0.86775683  0.75297599  0.50602130  1
  O  O227  1  0.13100397  0.24515126  0.49583336  1
  O  O228  1  0.13020220  0.24566275  0.99041330  1
  O  O229  1  0.12381497  0.74268367  0.49260622  1
  O  O230  1  0.12770556  0.73655475  0.99188766  1
  O  O231  1  0.63533112  0.24351477  0.49304335  1
  O  O232  1  0.62501042  0.24606653  0.98544738  1
  O  O233  1  0.64117757  0.74602215  0.49905314  1
  O  O234  1  0.64055093  0.73831413  1.01024569  1
  O  O235  1  0.50652683  0.24198158  0.13434138  1
  O  O236  1  0.50814637  0.24372827  0.63670643  1
  O  O237  1  0.48720793  0.75007783  0.13573429  1
  O  O238  1  0.50481363  0.73932965  0.63212654  1
  O  O239  1  0.99431556  0.24549484  0.13266574  1
  O  O240  1  1.00322475  0.25476467  0.64160769  1
  O  O241  1  0.99400411  0.74135795  0.13033500  1
  O  O242  1  0.99694814  0.75255736  0.63632878  1
  O  O243  1  0.00516121  0.25516909  0.36782586  1
  O  O244  1  0.00831104  0.25636600  0.86988175  1
  O  O245  1  -0.00918763  0.74833840  0.35703575  1
  O  O246  1  0.00722638  0.75501650  0.86315374  1
  O  O247  1  0.51484702  0.24771907  0.36897604  1
  O  O248  1  0.50552702  0.25796155  0.86419923  1
  O  O249  1  0.49407925  0.76015833  0.36148655  1
  O  O250  1  0.50133442  0.72533363  0.84522996  1
  O  O251  1  0.23836750  0.13401143  0.49910247  1
  O  O252  1  0.24386221  0.13302359  0.99855731  1
  O  O253  1  0.23335378  0.63791187  0.50168755  1
  O  O254  1  0.24325821  0.62644483  0.99097229  1
  O  O255  1  0.74366273  0.13017554  0.49634282  1
  O  O256  1  0.74800159  0.12773447  0.98689405  1
  O  O257  1  0.74666525  0.63158087  0.49569417  1
  O  O258  1  0.74248912  0.62914965  1.00346704  1
  O  O259  1  0.25558059  0.36943148  0.00411116  1
  O  O260  1  0.25785316  0.36137794  0.50267299  1
  O  O261  1  0.24490407  0.87160120  0.01352438  1
  O  O262  1  0.24926873  0.86425734  0.50503281  1
  O  O263  1  0.76405149  0.37115540  0.00501950  1
  O  O264  1  0.75648733  0.36545399  0.50845726  1
  O  O265  1  0.75092553  0.86325342  0.00440850  1
  O  O266  1  0.75583639  0.86829229  0.50416037  1
  O  O267  1  0.13532640  0.50564755  0.23526776  1
  O  O268  1  0.13555112  0.49649010  0.74344894  1
  O  O269  1  0.12919058  1.00907455  0.24471752  1
  O  O270  1  0.13185679  0.99850253  0.74409573  1
  O  O271  1  0.62539658  0.49404287  0.24941724  1
  O  O272  1  0.63335332  0.51433188  0.74248385  1
  O  O273  1  0.63046766  0.99345436  0.24183122  1
  O  O274  1  0.61983516  0.98635536  0.73791804  1
  O  O275  1  0.37101777  0.01120037  0.25821456  1
  O  O276  1  0.36800678  0.01503627  0.76229096  1
  O  O277  1  0.36638963  0.51582315  0.24342931  1
  O  O278  1  0.36307681  0.50285397  0.75292845  1
  O  O279  1  0.86981770  0.00463071  0.25460244  1
  O  O280  1  0.88121911  0.01303172  0.74798315  1
  O  O281  1  0.86546199  0.50637153  0.25605180  1
  O  O282  1  0.87356166  0.51304264  0.74478386  1
  O  O283  1  0.11714990  0.36254124  0.37904401  1
  O  O284  1  0.11997456  0.36798420  0.87201989  1
  O  O285  1  0.11721253  0.88330820  0.36518007  1
  O  O286  1  0.11971821  0.86801244  0.86707242  1
  O  O287  1  0.63177662  0.36809272  0.37719714  1
  O  O288  1  0.61214467  0.36921178  0.88095816  1
  O  O289  1  0.61790696  0.88243931  0.36091995  1
  O  O290  1  0.63295852  0.86708063  0.86575299  1
  O  O291  1  0.38262435  0.12252482  0.13541275  1
  O  O292  1  0.38428856  0.11976191  0.63528303  1
  O  O293  1  0.37818570  0.63505369  0.13246701  1
  O  O294  1  0.38533631  0.62027792  0.61810911  1
  O  O295  1  0.88225796  0.13308192  0.13047966  1
  O  O296  1  0.86851341  0.12890686  0.64248869  1
  O  O297  1  0.88218649  0.63043380  0.12894281  1
  O  O298  1  0.87880907  0.63082003  0.63257962  1
  O  O299  1  0.24325833  0.25851128  0.11239417  1
  O  O300  1  0.24383636  0.24983786  0.61133354  1
  O  O301  1  0.25891078  0.75879900  0.12504871  1
  O  O302  1  0.23997758  0.75501576  0.60798284  1
  O  O303  1  0.75865754  0.25061673  0.12452527  1
  O  O304  1  0.74892277  0.25729444  0.61849114  1
  O  O305  1  0.76072547  0.74771197  0.11902624  1
  O  O306  1  0.75380312  0.75881593  0.61734215  1
  O  O307  1  0.24204245  0.24834251  0.38492739  1
  O  O308  1  0.24181542  0.24674041  0.88385622  1
  O  O309  1  0.25469518  0.75407342  0.39052278  1
  O  O310  1  0.24671733  0.74320450  0.87338260  1
  O  O311  1  0.74177263  0.24493084  0.37995777  1
  O  O312  1  0.74176830  0.24512896  0.87604256  1
  O  O313  1  0.76093823  0.73877530  0.38128227  1
  O  O314  1  0.74180125  0.74385485  0.88863212  1
  O  O315  1  0.00817267  0.12715958  0.00836274  1
  O  O316  1  0.01124232  0.12129657  0.50085908  1
  O  O317  1  0.00716131  0.62797804  0.01018676  1
  O  O318  1  0.01615830  0.62745030  0.50307755  1
  O  O319  1  0.49942864  0.13309808  0.01203357  1
  O  O320  1  0.50747922  0.13496775  0.51379061  1
  O  O321  1  0.50518159  0.62052170  0.00634698  1
  O  O322  1  0.50761354  0.62693521  0.50362026  1
  O  O323  1  0.48891804  0.37818532  0.50324430  1
  O  O324  1  0.49161050  0.37994476  0.99192616  1
  O  O325  1  0.50935679  0.87061911  0.48479531  1
  O  O326  1  0.52167605  0.80247425  0.96138685  1
  O  O327  1  0.99604795  0.36732304  0.48634981  1
  O  O328  1  0.98751303  0.37123837  0.99415745  1
  O  O329  1  0.99360875  0.88320132  0.50181761  1
  O  O330  1  1.00274113  0.87112861  0.98379029  1
  O  O331  1  0.51516482  0.49231318  0.36668706  1
  O  O332  1  0.49589778  0.49576555  0.87683236  1
  O  O333  1  0.49006925  0.99293256  0.37000664  1
  O  O334  1  0.49129462  1.00455302  0.87012569  1
  O  O335  1  0.99095837  0.48901029  0.36439391  1
  O  O336  1  1.00872943  0.48694069  0.87188084  1
  O  O337  1  0.99198182  1.00531454  0.38988571  1
  O  O338  1  1.00568069  0.98268600  0.87269114  1
  O  O339  1  -0.00172362  0.01350831  0.12687191  1
  O  O340  1  0.00660729  -0.00056471  0.61369034  1
  O  O341  1  0.00897296  0.50884389  0.13349467  1
  O  O342  1  0.01644765  0.49472621  0.62879968  1
  O  O343  1  0.50728034  0.01124358  0.13162918  1
  O  O344  1  0.50681084  0.00828685  0.62459501  1
  O  O345  1  0.50443064  0.50451672  0.11990312  1
  O  O346  1  0.50203220  0.51216734  0.61838016  1
  O  O347  1  0.26283228  0.37806707  0.23525620  1
  O  O348  1  0.24432815  0.38232934  0.75005881  1
  O  O349  1  0.24816065  0.87800817  0.23355855  1
  O  O350  1  0.24473532  0.88405610  0.74715530  1
  O  O351  1  0.75412335  0.38738429  0.24930975  1
  O  O352  1  0.75602243  0.37170647  0.73867707  1
  O  O353  1  0.74262080  0.87861021  0.24850332  1
  O  O354  1  0.74271100  0.86538366  0.74127043  1
  O  O355  1  0.26212441  0.13025396  0.25194494  1
  O  O356  1  0.25745664  0.12227628  0.75440954  1
  O  O357  1  0.25983397  0.61801177  0.24766171  1
  O  O358  1  0.25047744  0.61922405  0.75548132  1
  O  O359  1  0.75483847  0.11995796  0.25602388  1
  O  O360  1  0.76306352  0.12782446  0.76231866  1
  O  O361  1  0.75093089  0.61774667  0.25856892  1
  O  O362  1  0.76610921  0.63172854  0.75086002  1
  O  O363  1  0.37820487  0.11637174  0.36384876  1
  O  O364  1  0.36862855  0.12110946  0.86823079  1
  O  O365  1  0.38209920  0.62636554  0.35837974  1
  O  O366  1  0.36396439  0.62247477  0.87515061  1
  O  O367  1  0.86880704  0.12075718  0.36917318  1
  O  O368  1  0.86320826  0.12801111  0.86847869  1
  O  O369  1  0.87048384  0.61780275  0.36956767  1
  O  O370  1  0.87743850  0.63012517  0.85955097  1
  O  O371  1  0.13428997  0.38416523  0.11696050  1
  O  O372  1  0.13060473  0.38500925  0.63112290  1
  O  O373  1  0.13431055  0.87210849  0.12695235  1
  O  O374  1  0.12362811  0.88998611  0.63245390  1
  O  O375  1  0.62519842  0.38637702  0.11898990  1
  O  O376  1  0.64187706  0.37456505  0.61985368  1
  O  O377  1  0.62233084  0.88186015  0.13522889  1
  O  O378  1  0.63207569  0.87847800  0.63135490  1
  O  O379  1  0.11629708  0.24629272  0.25961110  1
  O  O380  1  0.12105220  0.25301666  0.76074299  1
  O  O381  1  0.11103888  0.74578044  0.24543974  1
  O  O382  1  0.11844385  0.75255874  0.75224200  1
  O  O383  1  0.61547616  0.24994016  0.25850269  1
  O  O384  1  0.61594948  0.24726667  0.76128585  1
  O  O385  1  0.61333286  0.75832908  0.24294181  1
  O  O386  1  0.61642968  0.75617880  0.75796399  1
  O  O387  1  0.39085891  0.24256968  0.25795958  1
  O  O388  1  0.38259987  0.24032962  0.75611179  1
  O  O389  1  0.37630197  0.74247431  0.24226158  1
  O  O390  1  0.38713941  0.75028707  0.74559864  1
  O  O391  1  0.88048189  0.24639879  0.24100902  1
  O  O392  1  0.88449841  0.24226455  0.75151547  1
  O  O393  1  0.88027037  0.74278214  0.24059402  1
  O  O394  1  0.88325165  0.74346968  0.74390255  1
  O  O395  1  0.37707621  0.49320195  0.49315273  1
  O  O396  1  0.37890197  0.49548983  0.99312048  1
  O  O397  1  0.37585879  1.01300892  0.48414738  1
  O  O398  1  0.37510345  1.00539592  0.98272642  1
  O  O399  1  0.87307056  0.50202737  0.48820606  1
  O  O400  1  0.87666295  0.48773616  1.00958399  1
  O  O401  1  0.88202220  0.99745551  0.49895628  1
  O  O402  1  0.88202835  0.99515340  1.00380953  1
  O  O403  1  0.12107030  0.01314690  -0.00608137  1
  O  O404  1  0.12040871  0.00822433  0.50632940  1
  O  O405  1  0.12998665  0.51187915  0.00915295  1
  O  O406  1  0.13297897  0.50395253  0.51024049  1
  O  O407  1  0.62555804  -0.00109220  0.01408546  1
  O  O408  1  0.62894019  0.00516444  0.51435007  1
  O  O409  1  0.61878582  0.50529022  0.00899686  1
  O  O410  1  0.62341672  0.51075326  0.50544107  1
  O  O411  1  0.36621378  0.37888225  0.10834452  1
  O  O412  1  0.37082759  0.37601468  0.60652564  1
  O  O413  1  0.37132943  0.86437996  0.12954394  1
  O  O414  1  0.38106320  0.89438691  0.63120859  1
  O  O415  1  0.87562238  0.36824218  0.11684080  1
  O  O416  1  0.86620847  0.36761926  0.62339469  1
  O  O417  1  0.87405647  0.86143441  0.12329640  1
  O  O418  1  0.86844323  0.86949512  0.62132855  1
  O  O419  1  0.12469399  0.13799557  0.38592604  1
  O  O420  1  0.13045988  0.13326474  0.88119742  1
  O  O421  1  0.12139392  0.62056511  0.38455648  1
  O  O422  1  0.13373998  0.62756942  0.87939768  1
  O  O423  1  0.62944735  0.12987535  0.37935951  1
  O  O424  1  0.63695165  0.13056507  0.87271388  1
  O  O425  1  0.63721097  0.62822416  0.38816952  1
  O  O426  1  0.61956330  0.63764904  0.89351251  1
