# generated using pymatgen
data_V85Zn86O256
_symmetry_space_group_name_H-M   'P 1'
_cell_length_a   16.94286794
_cell_length_b   16.94031443
_cell_length_c   16.94880346
_cell_angle_alpha   90.05777436
_cell_angle_beta   90.06450076
_cell_angle_gamma   90.03749729
_symmetry_Int_Tables_number   1
_chemical_formula_structural   V85Zn86O256
_chemical_formula_sum   'V85 Zn86 O256'
_cell_volume   4864.59676850
_cell_formula_units_Z   1
loop_
 _symmetry_equiv_pos_site_id
 _symmetry_equiv_pos_as_xyz
  1  'x, y, z'
loop_
 _atom_site_type_symbol
 _atom_site_label
 _atom_site_symmetry_multiplicity
 _atom_site_fract_x
 _atom_site_fract_y
 _atom_site_fract_z
 _atom_site_occupancy
  V  V0  1  0.38335228  0.88054768  -0.00048948  1
  V  V1  1  0.63357133  0.50399790  0.63943438  1
  V  V2  1  0.25387266  0.74984980  0.49686608  1
  V  V3  1  0.12238256  0.75153687  0.37273287  1
  V  V4  1  0.88240418  0.25050019  0.62581641  1
  V  V5  1  0.12407130  0.12295405  0.49852539  1
  V  V6  1  0.88373573  0.38941758  0.50117452  1
  V  V7  1  0.73846289  0.24640259  0.00064754  1
  V  V8  1  0.50085074  0.36941633  0.87340326  1
  V  V9  1  0.00006376  -0.00160407  0.00276718  1
  V  V10  1  0.61632638  0.50387646  0.12678307  1
  V  V11  1  0.24729928  0.25129618  0.49760817  1
  V  V12  1  0.37523643  0.50182380  0.37402282  1
  V  V13  1  0.87428221  0.72817807  0.12002742  1
  V  V14  1  0.64638839  0.59634266  0.46641176  1
  V  V15  1  0.75032145  0.00022556  0.74944251  1
  V  V16  1  0.24918552  0.37569858  0.62513399  1
  V  V17  1  0.26416336  0.00235624  0.25057829  1
  V  V18  1  0.86099975  0.61387025  0.26941274  1
  V  V19  1  0.49955672  0.50233976  0.50600000  1
  V  V20  1  0.24661875  0.25137907  -0.00508440  1
  V  V21  1  0.00411546  0.12074057  0.62769210  1
  V  V22  1  0.12396281  0.36107934  0.75282519  1
  V  V23  1  -0.00089756  0.73792398  0.24322712  1
  V  V24  1  0.74714927  0.88056133  0.62274072  1
  V  V25  1  0.87431961  -0.00080156  0.87541948  1
  V  V26  1  0.75138838  0.38331464  0.12897935  1
  V  V27  1  0.74207411  0.75065515  -0.00378591  1
  V  V28  1  0.75101352  0.12428759  0.38080449  1
  V  V29  1  0.50320492  0.63010553  0.62868571  1
  V  V30  1  0.24767009  0.88239351  0.62031033  1
  V  V31  1  0.61882489  0.87070268  0.74419559  1
  V  V32  1  0.37541507  0.37619294  0.50057142  1
  V  V33  1  0.87487080  0.87238603  -0.00058603  1
  V  V34  1  0.38394460  0.24704967  0.62835462  1
  V  V35  1  0.26554341  0.12433314  0.36936296  1
  V  V36  1  0.12347484  0.12945599  -0.00648490  1
  V  V37  1  0.50114950  0.74391945  0.25046055  1
  V  V38  1  0.87683355  0.25158381  0.13251478  1
  V  V39  1  0.73692902  0.12690295  0.87870814  1
  V  V40  1  0.60658586  0.02823085  0.62025456  1
  V  V41  1  0.24951725  0.38468339  0.12965161  1
  V  V42  1  0.37702819  0.62958486  0.75021258  1
  V  V43  1  0.38165185  0.74397801  0.12164880  1
  V  V44  1  0.37641590  0.61647532  0.24477266  1
  V  V45  1  0.75327234  0.87613133  0.12542662  1
  V  V46  1  0.01009471  -0.00373057  0.50044843  1
  V  V47  1  -0.00048208  0.87236453  0.87308792  1
  V  V48  1  0.61294893  0.62655925  0.00134603  1
  V  V49  1  0.87843519  0.12735297  0.25204719  1
  V  V50  1  -0.00678833  0.38050283  0.36739816  1
  V  V51  1  0.11825296  0.50243918  0.62161175  1
  V  V52  1  0.12637670  0.37522467  0.25138993  1
  V  V53  1  0.00416330  0.50104090  0.00254192  1
  V  V54  1  0.88030393  0.13143732  0.75480235  1
  V  V55  1  0.50124051  0.37424739  0.37600839  1
  V  V56  1  0.24752535  0.61861275  0.36949994  1
  V  V57  1  0.75136860  0.25185888  0.50349952  1
  V  V58  1  0.37652132  0.75450534  0.62089700  1
  V  V59  1  0.37249199  0.24645388  0.13428550  1
  V  V60  1  0.87593494  0.00000739  0.37470771  1
  V  V61  1  0.87799863  0.37234330  -0.00126081  1
  V  V62  1  0.12411432  0.88027998  0.74314511  1
  V  V63  1  0.63015431  0.37581467  0.25189065  1
  V  V64  1  0.12202656  0.62538240  0.00296187  1
  V  V65  1  0.25058452  0.87669023  0.12253137  1
  V  V66  1  0.00624770  0.35903717  0.87382043  1
  V  V67  1  0.62435147  0.24478839  0.37978875  1
  V  V68  1  0.62370169  0.75774706  0.37819099  1
  V  V69  1  0.25067395  0.75018803  -0.00347282  1
  V  V70  1  0.62196609  0.00868540  0.11319035  1
  V  V71  1  0.49702927  0.12444923  0.11869749  1
  V  V72  1  0.49943641  0.87632774  0.86875388  1
  V  V73  1  0.62053136  0.87807884  0.24812555  1
  V  V74  1  0.24729650  0.50136185  0.75169916  1
  V  V75  1  0.75007740  0.00130007  0.25180858  1
  V  V76  1  0.37589693  0.37513936  -0.00048768  1
  V  V77  1  0.00208427  0.74124613  0.74964698  1
  V  V78  1  0.00229533  0.12926918  0.13349287  1
  V  V79  1  0.37426577  0.00645895  0.87652117  1
  V  V80  1  0.12571241  0.00055125  0.12858533  1
  V  V81  1  0.87877425  0.75109182  0.62491061  1
  V  V82  1  0.63375426  0.36973781  0.75749456  1
  V  V83  1  0.87431947  0.87532226  0.49569307  1
  V  V84  1  0.74982162  0.75136098  0.49303412  1
  Zn  Zn85  1  0.61722926  0.74413928  0.86496482  1
  Zn  Zn86  1  0.12186284  0.87184911  0.24614969  1
  Zn  Zn87  1  0.87344883  0.49714045  0.86462126  1
  Zn  Zn88  1  0.24976526  0.62468650  0.87443486  1
  Zn  Zn89  1  0.11855345  0.61888312  0.49327829  1
  Zn  Zn90  1  0.12353700  0.50740082  0.13331205  1
  Zn  Zn91  1  0.47036668  0.88209230  0.38201466  1
  Zn  Zn92  1  -0.00104661  0.87068936  0.36956282  1
  Zn  Zn93  1  0.37705462  0.11930189  0.74407180  1
  Zn  Zn94  1  -0.00518365  0.61911445  0.61870529  1
  Zn  Zn95  1  0.24628757  0.00244060  0.75042598  1
  Zn  Zn96  1  0.86247725  0.61523502  0.74977192  1
  Zn  Zn97  1  0.49526119  0.50320454  0.00037068  1
  Zn  Zn98  1  0.49558068  0.24536111  0.25420838  1
  Zn  Zn99  1  0.74309978  0.61049041  0.86602208  1
  Zn  Zn100  1  0.50893363  0.23955452  0.75362038  1
  Zn  Zn101  1  0.24560196  0.12782642  0.86954509  1
  Zn  Zn102  1  0.76077944  0.38329409  0.63527751  1
  Zn  Zn103  1  0.11608609  0.24610942  0.36526430  1
  Zn  Zn104  1  0.37542661  0.50069779  0.87415296  1
  Zn  Zn105  1  0.12596770  0.74924238  0.87414198  1
  Zn  Zn106  1  0.47480300  0.00999222  0.49406124  1
  Zn  Zn107  1  0.18774256  0.19245842  0.18744359  1
  Zn  Zn108  1  0.19275234  0.18344504  0.68322169  1
  Zn  Zn109  1  0.19182707  0.68538132  0.18490585  1
  Zn  Zn110  1  0.18845982  0.68926821  0.68705196  1
  Zn  Zn111  1  0.68745046  0.18916736  0.19038566  1
  Zn  Zn112  1  0.69661886  0.19286624  0.69247807  1
  Zn  Zn113  1  0.68840482  0.68558535  0.18522488  1
  Zn  Zn114  1  0.68823889  0.69184929  0.68305009  1
  Zn  Zn115  1  0.30804984  0.31403675  0.31418350  1
  Zn  Zn116  1  0.31162837  0.31310713  0.81297666  1
  Zn  Zn117  1  0.30500143  0.80393262  0.30155039  1
  Zn  Zn118  1  0.31370998  0.81466421  0.80947165  1
  Zn  Zn119  1  0.81463574  0.31594497  0.31460933  1
  Zn  Zn120  1  0.81406512  0.31039453  0.81720534  1
  Zn  Zn121  1  0.81391858  0.80587591  0.30874571  1
  Zn  Zn122  1  0.80516310  0.79648192  0.80588914  1
  Zn  Zn123  1  0.18421528  0.43722160  0.43368099  1
  Zn  Zn124  1  0.18646170  0.43660235  0.93655022  1
  Zn  Zn125  1  0.29923265  0.93558371  0.43474197  1
  Zn  Zn126  1  0.18759152  0.93761429  0.93622612  1
  Zn  Zn127  1  0.68947281  0.42785305  0.44499456  1
  Zn  Zn128  1  0.68439228  0.43548454  0.94187251  1
  Zn  Zn129  1  0.61363071  0.94968434  0.43754443  1
  Zn  Zn130  1  0.68632725  0.93583118  0.93361706  1
  Zn  Zn131  1  0.31218248  0.06514512  0.06053693  1
  Zn  Zn132  1  0.30874963  0.06670583  0.56404885  1
  Zn  Zn133  1  0.31105850  0.56309078  0.06092802  1
  Zn  Zn134  1  0.30885618  0.56632827  0.56300045  1
  Zn  Zn135  1  0.81184978  0.06358686  0.06300016  1
  Zn  Zn136  1  0.81476963  0.06275927  0.56067189  1
  Zn  Zn137  1  0.79941817  0.55210065  0.03026215  1
  Zn  Zn138  1  0.81278574  0.56697075  0.56547038  1
  Zn  Zn139  1  0.44020412  0.43138200  0.18883406  1
  Zn  Zn140  1  0.43881582  0.43702084  0.69138977  1
  Zn  Zn141  1  0.44130527  0.93608596  0.18484244  1
  Zn  Zn142  1  0.43393340  0.94074325  0.68591078  1
  Zn  Zn143  1  0.93884083  0.44430385  0.18828715  1
  Zn  Zn144  1  0.93958212  0.43662192  0.69537669  1
  Zn  Zn145  1  0.93840325  0.93269530  0.18881405  1
  Zn  Zn146  1  0.93764859  0.93846544  0.68734497  1
  Zn  Zn147  1  0.06650330  0.05868426  0.31541591  1
  Zn  Zn148  1  0.06092512  0.06039408  0.81211796  1
  Zn  Zn149  1  0.05601641  0.55859626  0.31218020  1
  Zn  Zn150  1  0.06189788  0.55771238  0.81856196  1
  Zn  Zn151  1  0.55542196  0.06809523  0.30660332  1
  Zn  Zn152  1  0.55606072  0.05785860  0.80897312  1
  Zn  Zn153  1  0.57164042  0.55837903  0.31323518  1
  Zn  Zn154  1  0.55709822  0.56023809  0.81607568  1
  Zn  Zn155  1  0.44578827  0.18175882  0.45164706  1
  Zn  Zn156  1  0.44140261  0.18838046  0.94202610  1
  Zn  Zn157  1  0.44255509  0.68783369  0.43584539  1
  Zn  Zn158  1  0.43765816  0.69140932  0.93175147  1
  Zn  Zn159  1  0.93995625  0.19338885  0.43824367  1
  Zn  Zn160  1  0.93418858  0.18604641  0.94431020  1
  Zn  Zn161  1  0.94032659  0.67999347  0.43653890  1
  Zn  Zn162  1  0.93557191  0.68248919  0.93418504  1
  Zn  Zn163  1  0.06350235  0.31241382  0.06699195  1
  Zn  Zn164  1  0.06198088  0.31260139  0.56193692  1
  Zn  Zn165  1  0.06031903  0.80874219  0.06457870  1
  Zn  Zn166  1  0.06522041  0.80739177  0.55838848  1
  Zn  Zn167  1  0.55874592  0.31217438  0.06536282  1
  Zn  Zn168  1  0.56799128  0.31579995  0.56662363  1
  Zn  Zn169  1  0.56057596  0.81575120  0.06420122  1
  Zn  Zn170  1  0.55955421  0.81667840  0.55987609  1
  O  O171  1  0.11813170  0.11988292  0.12065180  1
  O  O172  1  0.11721757  0.12829174  0.61136218  1
  O  O173  1  0.13271191  0.62297486  0.10980293  1
  O  O174  1  0.12707516  0.60891986  0.62830445  1
  O  O175  1  0.62619208  0.11249743  0.12671202  1
  O  O176  1  0.62462330  0.12506419  0.63510446  1
  O  O177  1  0.62681062  0.61373619  0.11932944  1
  O  O178  1  0.61837588  0.61552373  0.63093830  1
  O  O179  1  0.37910264  0.38163140  0.38123438  1
  O  O180  1  0.37964249  0.37670616  0.88348880  1
  O  O181  1  0.36163805  0.87261971  0.36638008  1
  O  O182  1  0.37906564  0.88137596  0.88103357  1
  O  O183  1  0.88294125  0.37577060  0.38673545  1
  O  O184  1  0.88684479  0.37170788  0.88365303  1
  O  O185  1  0.87488464  0.87782363  0.38111620  1
  O  O186  1  0.88048085  0.87784310  0.87936321  1
  O  O187  1  0.24711024  0.01611153  0.36474773  1
  O  O188  1  0.25800499  0.00193002  0.87376161  1
  O  O189  1  0.25754719  0.51127919  0.38021963  1
  O  O190  1  0.25183262  0.49905345  0.86195334  1
  O  O191  1  0.75643387  0.01197975  0.36925399  1
  O  O192  1  0.75674727  0.00525630  0.87016326  1
  O  O193  1  0.68202940  0.52772607  0.39374887  1
  O  O194  1  0.76498862  0.50681407  0.91366386  1
  O  O195  1  0.24820150  0.48715961  0.12211658  1
  O  O196  1  0.24462142  0.49486001  0.63479305  1
  O  O197  1  0.24223625  0.99872182  0.12977035  1
  O  O198  1  0.25066985  0.98476014  0.62743186  1
  O  O199  1  0.73985589  0.48491711  0.11311642  1
  O  O200  1  0.73618609  0.50208744  0.62572446  1
  O  O201  1  0.74423748  0.99493091  0.13067168  1
  O  O202  1  0.76388060  0.98868668  0.63351988  1
  O  O203  1  0.00191948  0.37596674  0.26114761  1
  O  O204  1  0.00852623  0.37271947  0.76535932  1
  O  O205  1  0.00015769  0.85740183  0.24914902  1
  O  O206  1  0.00587270  0.86863312  0.75367449  1
  O  O207  1  0.50869084  0.36904430  0.25999479  1
  O  O208  1  0.51027670  0.37197322  0.75705331  1
  O  O209  1  0.50861089  0.86496726  0.24797081  1
  O  O210  1  0.50807794  0.88214138  0.75460887  1
  O  O211  1  0.50831609  0.13332768  0.23049308  1
  O  O212  1  0.48943252  0.12956513  0.75704445  1
  O  O213  1  0.49447211  0.63748407  0.25613241  1
  O  O214  1  0.49098975  0.62184683  0.73990290  1
  O  O215  1  0.99699000  0.11871624  0.23995824  1
  O  O216  1  0.99344573  0.11994915  0.74066713  1
  O  O217  1  0.98606951  0.63243442  0.25321102  1
  O  O218  1  1.00258051  0.63589171  0.74851060  1
  O  O219  1  0.36755592  0.26073220  0.00906613  1
  O  O220  1  0.36747363  0.25610728  0.50679444  1
  O  O221  1  0.36952343  0.75522323  0.00541000  1
  O  O222  1  0.36768265  0.74070145  0.50809489  1
  O  O223  1  0.87094152  0.25760684  0.01295038  1
  O  O224  1  0.86761991  0.25711706  0.50800939  1
  O  O225  1  0.86570876  0.75467663  0.00431755  1
  O  O226  1  0.87034473  0.75643398  0.50421801  1
  O  O227  1  0.13665122  0.24490205  0.50094005  1
  O  O228  1  0.13327644  0.24050610  1.00838858  1
  O  O229  1  0.13337457  0.74455879  0.48845711  1
  O  O230  1  0.13359694  0.74479779  1.00017084  1
  O  O231  1  0.64186721  0.26140610  0.49501770  1
  O  O232  1  0.64036652  0.25468778  1.00567939  1
  O  O233  1  0.63422084  0.75312215  0.49066553  1
  O  O234  1  0.62738776  0.74536370  1.00362220  1
  O  O235  1  0.48840217  0.24659168  0.12756220  1
  O  O236  1  0.48601249  0.25948902  0.62398862  1
  O  O237  1  0.48817071  0.75414356  0.13245145  1
  O  O238  1  0.49416448  0.73726707  0.61421492  1
  O  O239  1  0.99022552  0.23999722  0.12183225  1
  O  O240  1  0.98973933  0.23744719  0.61738505  1
  O  O241  1  0.98564812  0.74839624  0.12921853  1
  O  O242  1  0.99327908  0.75062891  0.63171436  1
  O  O243  1  0.00320554  0.27011476  0.38414383  1
  O  O244  1  -0.00117143  0.26013356  0.88271600  1
  O  O245  1  0.00649806  0.74778940  0.36463835  1
  O  O246  1  -0.00016345  0.75701772  0.86694081  1
  O  O247  1  0.50913263  0.25599739  0.37834111  1
  O  O248  1  0.49436712  0.26444152  0.87457758  1
  O  O249  1  0.50552720  0.76116246  0.36756347  1
  O  O250  1  0.50084228  0.76921361  0.87652307  1
  O  O251  1  0.24186472  0.13113531  0.48984777  1
  O  O252  1  0.23895010  0.13395070  1.00094836  1
  O  O253  1  0.24570958  0.63289899  0.49053064  1
  O  O254  1  0.24633161  0.63421400  0.99612637  1
  O  O255  1  0.75974053  0.13505453  0.48820116  1
  O  O256  1  0.75610052  0.13763995  0.99466035  1
  O  O257  1  0.73847531  0.63631039  0.50812934  1
  O  O258  1  0.73190174  0.64020376  0.99992274  1
  O  O259  1  0.25415694  0.36931289  0.00683067  1
  O  O260  1  0.25445729  0.36732800  0.50110939  1
  O  O261  1  0.25661276  0.86752334  0.00434443  1
  O  O262  1  0.24579926  0.85752953  0.50680507  1
  O  O263  1  0.75889111  0.36185637  0.00693944  1
  O  O264  1  0.76469815  0.36914618  0.50539753  1
  O  O265  1  0.75231447  0.87338217  0.01138138  1
  O  O266  1  0.76413077  0.86998141  0.50684859  1
  O  O267  1  0.11757253  0.48422078  0.24724072  1
  O  O268  1  0.13148495  0.49253318  0.74370734  1
  O  O269  1  0.12948872  0.99863748  0.23797522  1
  O  O270  1  0.12430783  0.98471645  0.75243266  1
  O  O271  1  0.62233081  0.48501306  0.24182178  1
  O  O272  1  0.62124553  0.49211622  0.74396032  1
  O  O273  1  0.63373294  0.99255885  0.24089703  1
  O  O274  1  0.63202764  0.99561747  0.73200322  1
  O  O275  1  0.36331110  -0.00025709  0.23988523  1
  O  O276  1  0.36877314  -0.00168372  0.76176830  1
  O  O277  1  0.38471941  0.51093184  0.25319885  1
  O  O278  1  0.36593919  0.51052208  0.74702562  1
  O  O279  1  0.87033658  0.00464630  0.25479234  1
  O  O280  1  0.87127222  0.00905290  0.75660678  1
  O  O281  1  0.87548330  0.51537268  0.24864649  1
  O  O282  1  0.86854022  0.50048965  0.74907190  1
  O  O283  1  0.11944095  0.37112681  0.36597885  1
  O  O284  1  0.11501271  0.37334415  0.86883772  1
  O  O285  1  0.12431958  0.85463956  0.36687302  1
  O  O286  1  0.11476783  0.87233727  0.86913337  1
  O  O287  1  0.62354431  0.36433897  0.37038814  1
  O  O288  1  0.61908548  0.38090760  0.86414678  1
  O  O289  1  0.63956415  0.86781443  0.35686635  1
  O  O290  1  0.61587872  0.88177438  0.86163695  1
  O  O291  1  0.38160630  0.13514452  0.11959608  1
  O  O292  1  0.36855874  0.14442238  0.62354157  1
  O  O293  1  0.37156676  0.63225370  0.13132376  1
  O  O294  1  0.38290836  0.63201993  0.62889329  1
  O  O295  1  0.88226154  0.13100743  0.13094315  1
  O  O296  1  0.88167844  0.13136504  0.63305389  1
  O  O297  1  0.86320923  0.62977771  0.11090378  1
  O  O298  1  0.87451400  0.63988145  0.62881167  1
  O  O299  1  0.25660055  0.25745492  0.11677269  1
  O  O300  1  0.25722328  0.25770817  0.61436304  1
  O  O301  1  0.26093585  0.75536309  0.11574058  1
  O  O302  1  0.25744251  0.75098215  0.61453762  1
  O  O303  1  0.75647342  0.25424373  0.11720410  1
  O  O304  1  0.76373413  0.25361876  0.61935191  1
  O  O305  1  0.75512348  0.75900768  0.11675444  1
  O  O306  1  0.75671649  0.76272851  0.61377065  1
  O  O307  1  0.24556409  0.24023621  0.38093605  1
  O  O308  1  0.25525578  0.24854132  0.89049078  1
  O  O309  1  0.24320136  0.73724368  0.37794051  1
  O  O310  1  0.25088191  0.75232178  0.88750301  1
  O  O311  1  0.74737939  0.24607003  0.38404271  1
  O  O312  1  0.75477496  0.24192567  0.89135547  1
  O  O313  1  0.74444704  0.75379536  0.38672138  1
  O  O314  1  0.73772992  0.76796405  0.89293048  1
  O  O315  1  0.00438291  0.11826973  0.01190821  1
  O  O316  1  0.00472388  0.11842952  0.50509131  1
  O  O317  1  0.00910642  0.61457743  -0.00421622  1
  O  O318  1  0.00649932  0.62739547  0.50656594  1
  O  O319  1  0.50706182  0.13325092  0.01739736  1
  O  O320  1  0.51634795  0.11420912  0.49848062  1
  O  O321  1  0.50813793  0.62689111  -0.00230860  1
  O  O322  1  0.51639839  0.61280796  0.50119465  1
  O  O323  1  0.49728978  0.38577580  0.49811025  1
  O  O324  1  0.49107738  0.37438207  0.99455936  1
  O  O325  1  0.52009052  0.89224621  0.48862896  1
  O  O326  1  0.48782680  0.87355514  0.99515239  1
  O  O327  1  0.98756008  0.37473628  0.49694314  1
  O  O328  1  0.99761981  0.37475451  0.99163187  1
  O  O329  1  0.99075673  0.87970447  0.49944588  1
  O  O330  1  0.99539061  0.87870325  0.99419632  1
  O  O331  1  0.49672415  0.49468981  0.38550241  1
  O  O332  1  0.49415516  0.48680701  0.87911458  1
  O  O333  1  0.52187279  0.98978200  0.37512083  1
  O  O334  1  0.48877854  0.98787072  0.87635018  1
  O  O335  1  1.00787679  0.47986522  0.38216518  1
  O  O336  1  0.99839542  0.48668752  0.88739713  1
  O  O337  1  0.99393429  0.99399766  0.38138950  1
  O  O338  1  0.99380701  0.99259491  0.88281832  1
  O  O339  1  0.00636539  0.00444948  0.12160491  1
  O  O340  1  -0.00779129  0.01240635  0.61511235  1
  O  O341  1  0.00709950  0.48904003  0.10781380  1
  O  O342  1  0.01577743  0.49826332  0.63128081  1
  O  O343  1  0.51440943  0.00598928  0.12700007  1
  O  O344  1  0.50667744  0.00316942  0.62259597  1
  O  O345  1  0.51278365  0.49139205  0.12184594  1
  O  O346  1  0.50446373  0.51035914  0.62214289  1
  O  O347  1  0.23993428  0.37441614  0.24290809  1
  O  O348  1  0.24353334  0.38192856  0.74582309  1
  O  O349  1  0.24407130  0.88327615  0.23785922  1
  O  O350  1  0.24000775  0.87128646  0.73959983  1
  O  O351  1  0.74426424  0.37188404  0.24125486  1
  O  O352  1  0.73851011  0.37227543  0.75366003  1
  O  O353  1  0.74706109  0.87685019  0.23813514  1
  O  O354  1  0.74358685  0.87924615  0.74133455  1
  O  O355  1  0.24450121  0.12061303  0.26268140  1
  O  O356  1  0.25626103  0.12185605  0.75299830  1
  O  O357  1  0.26334696  0.62868074  0.25766874  1
  O  O358  1  0.25551368  0.61777775  0.75105743  1
  O  O359  1  0.75811744  0.12303522  0.25965687  1
  O  O360  1  0.76050438  0.12149845  0.75978786  1
  O  O361  1  0.76287986  0.62967479  0.24865545  1
  O  O362  1  0.75716507  0.66400402  0.76519612  1
  O  O363  1  0.36324595  0.13383089  0.37727163  1
  O  O364  1  0.37350171  0.11191906  0.88650637  1
  O  O365  1  0.37137653  0.62022015  0.36695185  1
  O  O366  1  0.37322843  0.62310415  0.86469759  1
  O  O367  1  0.87228726  0.12291317  0.37006335  1
  O  O368  1  0.87304879  0.11984531  0.86952724  1
  O  O369  1  0.86653769  0.62438080  0.36921107  1
  O  O370  1  0.86878877  0.61956618  0.87134619  1
  O  O371  1  0.13396455  0.37537643  0.13322030  1
  O  O372  1  0.12937460  0.38268589  0.63142027  1
  O  O373  1  0.13052067  0.88384022  0.12245399  1
  O  O374  1  0.13466910  0.86630123  0.63159891  1
  O  O375  1  0.63195405  0.37683957  0.13398268  1
  O  O376  1  0.62835648  0.38712969  0.63998490  1
  O  O377  1  0.63137955  0.88286398  0.13247437  1
  O  O378  1  0.63516564  0.87784351  0.62901641  1
  O  O379  1  0.12365185  0.26590588  0.24798997  1
  O  O380  1  0.13190677  0.26242470  0.74224749  1
  O  O381  1  0.11578564  0.74427030  0.25068890  1
  O  O382  1  0.11749927  0.75808005  0.75132250  1
  O  O383  1  0.62684349  0.26066610  0.26016228  1
  O  O384  1  0.62504684  0.26641020  0.74618833  1
  O  O385  1  0.61828672  0.75687831  0.25115374  1
  O  O386  1  0.62308422  0.76714359  0.74665416  1
  O  O387  1  0.37266660  0.25620139  0.23776411  1
  O  O388  1  0.37333207  0.25635566  0.73327615  1
  O  O389  1  0.38174902  0.73949247  0.24014003  1
  O  O390  1  0.36793245  0.73649313  0.73964800  1
  O  O391  1  0.87008516  0.24531792  0.23945389  1
  O  O392  1  0.87201846  0.23939499  0.74310624  1
  O  O393  1  0.87890755  0.73707522  0.23876365  1
  O  O394  1  0.88915963  0.75763215  0.73854365  1
  O  O395  1  0.38271277  0.49815113  0.49802046  1
  O  O396  1  0.37405223  0.48713553  1.00053458  1
  O  O397  1  0.36450278  0.99322275  0.50489395  1
  O  O398  1  0.36716024  0.98781900  0.99460118  1
  O  O399  1  0.87083869  0.48755552  0.50766655  1
  O  O400  1  0.88723798  0.47999482  1.00748871  1
  O  O401  1  0.88200710  0.99230153  0.49310768  1
  O  O402  1  0.87972097  0.99309912  0.99680408  1
  O  O403  1  0.12132735  0.00630970  0.01164952  1
  O  O404  1  0.11094929  0.00694655  0.49682227  1
  O  O405  1  0.12076790  0.50772822  -0.00000202  1
  O  O406  1  0.13456563  0.49828449  0.51862399  1
  O  O407  1  0.63162125  -0.00475047  0.01569097  1
  O  O408  1  0.64739945  0.00726412  0.52928659  1
  O  O409  1  0.61879975  0.50847202  0.00899749  1
  O  O410  1  0.61655504  0.49638684  0.52239390  1
  O  O411  1  0.36779620  0.36937368  0.12006734  1
  O  O412  1  0.36865097  0.37135125  0.61828444  1
  O  O413  1  0.37132026  0.86825504  0.11654755  1
  O  O414  1  0.36746022  0.85938650  0.63231773  1
  O  O415  1  0.86931150  0.36815120  0.12315739  1
  O  O416  1  0.88000584  0.36760355  0.61786527  1
  O  O417  1  0.86646472  0.87005434  0.11861574  1
  O  O418  1  0.87147530  0.86723132  0.61805149  1
  O  O419  1  0.12510186  0.12858950  0.38675163  1
  O  O420  1  0.12205819  0.11931236  0.89012833  1
  O  O421  1  0.13305855  0.62876915  0.36955449  1
  O  O422  1  0.12859541  0.62855083  0.88594518  1
  O  O423  1  0.63700256  0.13966910  0.36720127  1
  O  O424  1  0.63879329  0.11474716  0.87039709  1
  O  O425  1  0.61105018  0.65036348  0.37340626  1
  O  O426  1  0.62380329  0.62741329  0.88272642  1
