# generated using pymatgen
data_V85Zn86O256
_symmetry_space_group_name_H-M   'P 1'
_cell_length_a   16.92447733
_cell_length_b   16.93902237
_cell_length_c   16.92224170
_cell_angle_alpha   89.97360708
_cell_angle_beta   90.02530417
_cell_angle_gamma   89.91021127
_symmetry_Int_Tables_number   1
_chemical_formula_structural   V85Zn86O256
_chemical_formula_sum   'V85 Zn86 O256'
_cell_volume   4851.33068573
_cell_formula_units_Z   1
loop_
 _symmetry_equiv_pos_site_id
 _symmetry_equiv_pos_as_xyz
  1  'x, y, z'
loop_
 _atom_site_type_symbol
 _atom_site_label
 _atom_site_symmetry_multiplicity
 _atom_site_fract_x
 _atom_site_fract_y
 _atom_site_fract_z
 _atom_site_occupancy
  V  V0  1  0.37820346  0.11574493  0.75381515  1
  V  V1  1  0.87929685  0.25203858  0.12964508  1
  V  V2  1  0.75202986  0.62653685  0.37508675  1
  V  V3  1  0.62716444  0.00134394  0.62222418  1
  V  V4  1  0.63022870  0.50102326  0.62592646  1
  V  V5  1  0.24007066  0.62389880  0.87742151  1
  V  V6  1  0.74852053  0.87338259  0.62534449  1
  V  V7  1  0.87615023  0.12810658  0.25706005  1
  V  V8  1  0.62513449  0.62880683  0.50022327  1
  V  V9  1  0.62749055  0.87312998  0.25065002  1
  V  V10  1  0.12640993  0.51281892  0.12126416  1
  V  V11  1  0.12543485  0.24742372  0.87705468  1
  V  V12  1  0.37632536  0.12360547  0.25287345  1
  V  V13  1  0.62158507  0.87617130  0.76274249  1
  V  V14  1  0.24798119  0.50140630  0.74902940  1
  V  V15  1  0.86498449  0.25193143  0.62624393  1
  V  V16  1  0.37705904  0.86648484  0.50852594  1
  V  V17  1  0.00417097  0.87202078  0.37665282  1
  V  V18  1  0.37456331  0.87612876  -0.01618157  1
  V  V19  1  0.25118675  0.24907613  0.50082154  1
  V  V20  1  0.87689711  0.75939835  0.12203069  1
  V  V21  1  0.24880648  0.37463226  0.62541204  1
  V  V22  1  0.12368602  0.24858046  0.37239466  1
  V  V23  1  0.87577088  0.63231712  0.75058328  1
  V  V24  1  0.75391791  0.74462806  -0.00773847  1
  V  V25  1  0.50545745  0.37184481  0.86874794  1
  V  V26  1  0.00155998  0.11934046  0.62614734  1
  V  V27  1  0.87983876  0.62362235  0.23924390  1
  V  V28  1  0.12594835  0.12387239  0.00047924  1
  V  V29  1  0.37193743  0.50298499  0.87372637  1
  V  V30  1  0.23855360  0.74660028  0.00017268  1
  V  V31  1  0.50247495  0.13244471  0.62517612  1
  V  V32  1  0.37310376  0.25300137  0.12477512  1
  V  V33  1  0.25729649  -0.00299133  0.25271907  1
  V  V34  1  0.62680488  0.50773593  0.12186379  1
  V  V35  1  0.12590300  0.37042955  0.24097726  1
  V  V36  1  0.49145731  0.87706649  0.37005372  1
  V  V37  1  0.25078513  0.87505305  0.12308067  1
  V  V38  1  0.88223745  0.50146044  0.37917590  1
  V  V39  1  0.11725795  0.74942743  0.86383576  1
  V  V40  1  0.62974258  0.12891829  0.48612210  1
  V  V41  1  0.12654454  0.62016199  0.49137286  1
  V  V42  1  0.37646042  0.37519936  0.00171061  1
  V  V43  1  0.25237307  0.49374274  0.24578541  1
  V  V44  1  0.00409515  0.74549984  0.24644092  1
  V  V45  1  0.12717411  -0.00125143  0.12643970  1
  V  V46  1  0.11307572  0.49651255  0.62110876  1
  V  V47  1  0.62502814  0.00126706  0.12321141  1
  V  V48  1  -0.00124744  0.63119260  0.62186292  1
  V  V49  1  0.74705636  0.50561351  0.75360139  1
  V  V50  1  -0.00388821  0.25020197  0.75071014  1
  V  V51  1  0.49301940  0.00328240  0.49362847  1
  V  V52  1  0.74743987  0.25122807  0.48372050  1
  V  V53  1  0.49077852  0.75548116  0.75018803  1
  V  V54  1  0.00281660  0.37303227  0.37523134  1
  V  V55  1  0.11361328  0.88570266  0.74192794  1
  V  V56  1  0.61954135  0.73279261  0.87981254  1
  V  V57  1  0.00304394  0.51336901  0.00430949  1
  V  V58  1  -0.00043006  0.37662129  0.88009373  1
  V  V59  1  0.75128538  0.00430417  0.25548153  1
  V  V60  1  0.12484705  0.37392634  0.75093548  1
  V  V61  1  -0.00440121  -0.00711221  0.00396408  1
  V  V62  1  0.25462628  0.25197716  0.00012209  1
  V  V63  1  0.87720633  0.00057794  0.38064726  1
  V  V64  1  0.50004073  0.12319023  0.12041586  1
  V  V65  1  0.49978327  0.50094017  0.49912796  1
  V  V66  1  0.37683907  0.74897213  0.12095751  1
  V  V67  1  0.00280674  0.12806613  0.13365067  1
  V  V68  1  0.86549434  0.00807186  0.88223083  1
  V  V69  1  0.50823233  0.24948402  0.25325900  1
  V  V70  1  0.62711035  0.36613094  0.74623795  1
  V  V71  1  0.87545296  0.37691646  0.50436854  1
  V  V72  1  0.49576648  -0.00611070  -0.01495522  1
  V  V73  1  0.25489144  0.11965656  0.37782704  1
  V  V74  1  0.74879656  0.37422109  0.12447946  1
  V  V75  1  0.50434415  0.50859947  -0.00264492  1
  V  V76  1  0.49016226  0.63145480  0.62425726  1
  V  V77  1  -0.01037822  0.87049385  0.87730246  1
  V  V78  1  0.37333624  0.62693132  0.25206657  1
  V  V79  1  0.75052982  0.50003939  0.24919334  1
  V  V80  1  0.87066605  0.50443084  0.87719874  1
  V  V81  1  0.50696111  0.37280621  0.37616097  1
  V  V82  1  0.36983328  0.50142505  0.37568912  1
  V  V83  1  0.74430850  0.24673143  -0.00730936  1
  V  V84  1  0.37753107  0.25232534  0.63356799  1
  Zn  Zn85  1  0.62787814  0.37256666  0.25368197  1
  Zn  Zn86  1  0.50425044  0.62856120  0.12044657  1
  Zn  Zn87  1  0.87611841  0.75490172  0.62770628  1
  Zn  Zn88  1  0.63995420  0.11699440  -0.01871198  1
  Zn  Zn89  1  0.25629512  0.74180254  0.49996553  1
  Zn  Zn90  1  0.24520818  0.87499028  0.62504920  1
  Zn  Zn91  1  0.12901633  0.87091334  0.25205279  1
  Zn  Zn92  1  0.37671379  0.37458167  0.50034065  1
  Zn  Zn93  1  0.00967689  -0.00826730  0.50934111  1
  Zn  Zn94  1  0.24538618  -0.00104996  0.75152044  1
  Zn  Zn95  1  0.50260606  0.74801183  0.24658510  1
  Zn  Zn96  1  0.87404836  0.87124192  0.50124823  1
  Zn  Zn97  1  0.75284564  0.75110577  0.50054222  1
  Zn  Zn98  1  0.62587189  0.75059312  0.37222532  1
  Zn  Zn99  1  0.87599508  0.37687828  0.00287036  1
  Zn  Zn100  1  0.26281246  0.11779580  0.87993241  1
  Zn  Zn101  1  0.86463959  0.12990347  0.75639825  1
  Zn  Zn102  1  0.75459450  0.87679801  0.12129212  1
  Zn  Zn103  1  0.36668346  0.63272482  0.74418282  1
  Zn  Zn104  1  0.74654587  0.00646677  0.75695654  1
  Zn  Zn105  1  0.13050412  0.11794736  0.50998014  1
  Zn  Zn106  1  0.13518412  0.74458190  0.37305034  1
  Zn  Zn107  1  0.19130837  0.18770195  0.18831072  1
  Zn  Zn108  1  0.18875660  0.18556262  0.69118972  1
  Zn  Zn109  1  0.19265959  0.68474880  0.19135431  1
  Zn  Zn110  1  0.18795080  0.69300572  0.68051192  1
  Zn  Zn111  1  0.68959318  0.18510016  0.18469588  1
  Zn  Zn112  1  0.69142903  0.18521016  0.68439688  1
  Zn  Zn113  1  0.69268201  0.68838348  0.18453704  1
  Zn  Zn114  1  0.68413773  0.68879058  0.69145841  1
  Zn  Zn115  1  0.31571519  0.31392946  0.31360487  1
  Zn  Zn116  1  0.31513399  0.31031737  0.81604397  1
  Zn  Zn117  1  0.31109341  0.80860650  0.31765173  1
  Zn  Zn118  1  0.30266291  0.81306115  0.80885509  1
  Zn  Zn119  1  0.81633673  0.31398007  0.31051237  1
  Zn  Zn120  1  0.80961538  0.31920618  0.81234902  1
  Zn  Zn121  1  0.81510923  0.81308624  0.31108285  1
  Zn  Zn122  1  0.80719956  0.81638030  0.81451410  1
  Zn  Zn123  1  0.18769570  0.43845099  0.43800904  1
  Zn  Zn124  1  0.18770425  0.43533867  0.94186850  1
  Zn  Zn125  1  0.18870986  0.93842030  0.43899998  1
  Zn  Zn126  1  0.18622765  0.93792019  0.93040162  1
  Zn  Zn127  1  0.69094334  0.43847194  0.43914261  1
  Zn  Zn128  1  0.68717652  0.43698741  0.93713018  1
  Zn  Zn129  1  0.68715540  0.93932869  0.43659349  1
  Zn  Zn130  1  0.68709097  0.92911795  0.94423211  1
  Zn  Zn131  1  0.31670981  0.06282272  0.06092123  1
  Zn  Zn132  1  0.30984124  0.05558503  0.56972014  1
  Zn  Zn133  1  0.30969708  0.56291433  0.06271621  1
  Zn  Zn134  1  0.30864470  0.55917521  0.56193814  1
  Zn  Zn135  1  0.81439279  0.06461913  0.06628818  1
  Zn  Zn136  1  0.81189909  0.06724700  0.56422742  1
  Zn  Zn137  1  0.81089314  0.56682578  0.05839643  1
  Zn  Zn138  1  0.81220281  0.56154483  0.56360409  1
  Zn  Zn139  1  0.44175555  0.43732360  0.18629673  1
  Zn  Zn140  1  0.43848535  0.44136639  0.68651572  1
  Zn  Zn141  1  0.43701359  0.93497039  0.18283648  1
  Zn  Zn142  1  0.44297973  0.94053513  0.68463322  1
  Zn  Zn143  1  0.94291756  0.43685457  0.18966000  1
  Zn  Zn144  1  0.93425626  0.43763381  0.69029322  1
  Zn  Zn145  1  0.94051443  0.93701017  0.19367479  1
  Zn  Zn146  1  0.93217013  0.93813446  0.69641315  1
  Zn  Zn147  1  0.06794739  0.05897510  0.31722540  1
  Zn  Zn148  1  0.05385558  0.06342777  0.81635862  1
  Zn  Zn149  1  0.06011065  0.55727409  0.30802260  1
  Zn  Zn150  1  0.05952734  0.56316681  0.81026806  1
  Zn  Zn151  1  0.56253888  0.06104757  0.31087761  1
  Zn  Zn152  1  0.56790992  0.06627534  0.80695695  1
  Zn  Zn153  1  0.56088466  0.56136227  0.30970450  1
  Zn  Zn154  1  0.55664639  0.56307864  0.80848421  1
  Zn  Zn155  1  0.43647600  0.18976213  0.43932971  1
  Zn  Zn156  1  0.47997248  0.16911981  0.91264154  1
  Zn  Zn157  1  0.44004825  0.68933883  0.43059509  1
  Zn  Zn158  1  0.43140148  0.68908557  0.93261853  1
  Zn  Zn159  1  0.94000734  0.18863132  0.44053144  1
  Zn  Zn160  1  0.93703389  0.18738819  0.94615156  1
  Zn  Zn161  1  0.93916366  0.68848662  0.44096511  1
  Zn  Zn162  1  0.93493144  0.68611214  0.93861904  1
  Zn  Zn163  1  0.06254778  0.31312096  0.06275189  1
  Zn  Zn164  1  0.05952766  0.30695468  0.56060378  1
  Zn  Zn165  1  0.06258563  0.81114972  0.06408532  1
  Zn  Zn166  1  0.06098102  0.80626774  0.55938410  1
  Zn  Zn167  1  0.56316465  0.31643944  0.06181701  1
  Zn  Zn168  1  0.56668344  0.31382368  0.56224936  1
  Zn  Zn169  1  0.56319924  0.81452331  0.05869361  1
  Zn  Zn170  1  0.56261936  0.81368436  0.56333480  1
  O  O171  1  0.12044270  0.12108451  0.12185574  1
  O  O172  1  0.10655916  0.13297503  0.62961146  1
  O  O173  1  0.12729411  0.61125847  0.12776618  1
  O  O174  1  0.11253465  0.61626544  0.62164009  1
  O  O175  1  0.61747197  0.11436896  0.12201900  1
  O  O176  1  0.61837688  0.12046327  0.61597448  1
  O  O177  1  0.62451215  0.61204830  0.12990360  1
  O  O178  1  0.61779155  0.62001217  0.61795838  1
  O  O179  1  0.38651460  0.38342634  0.37644106  1
  O  O180  1  0.38055691  0.38451001  0.88171150  1
  O  O181  1  0.38866394  0.87498838  0.37991403  1
  O  O182  1  0.36914325  0.86881878  0.88496653  1
  O  O183  1  0.88291706  0.38075762  0.37965964  1
  O  O184  1  0.88323870  0.38764602  0.87651866  1
  O  O185  1  0.88451803  0.88325868  0.37410536  1
  O  O186  1  0.88390261  0.88246328  0.87392707  1
  O  O187  1  0.25012951  0.00852805  0.36496346  1
  O  O188  1  0.24491762  0.00729946  0.86693123  1
  O  O189  1  0.26319540  0.49434190  0.36738874  1
  O  O190  1  0.24941348  0.50620185  0.87097584  1
  O  O191  1  0.75926996  -0.00382400  0.36334280  1
  O  O192  1  0.76285643  -0.00469657  0.88566627  1
  O  O193  1  0.75919474  0.50868315  0.37030737  1
  O  O194  1  0.75910152  0.49760110  0.86912799  1
  O  O195  1  0.23796590  0.49782869  0.13001850  1
  O  O196  1  0.23941460  0.49250316  0.63075253  1
  O  O197  1  0.24641504  0.99527854  0.12944542  1
  O  O198  1  0.25408605  0.98843834  0.63718518  1
  O  O199  1  0.74649066  0.49355073  0.12655372  1
  O  O200  1  0.73665538  0.50256992  0.63143988  1
  O  O201  1  0.74338037  0.99851909  0.13247032  1
  O  O202  1  0.73869145  0.99448976  0.62264814  1
  O  O203  1  0.01079098  0.37694641  0.26372089  1
  O  O204  1  0.00392312  0.37143650  0.76213500  1
  O  O205  1  0.00449361  0.86525299  0.25788430  1
  O  O206  1  0.00451610  0.87418455  0.76200420  1
  O  O207  1  0.50184945  0.36635382  0.25684246  1
  O  O208  1  0.51196926  0.38728691  0.75982263  1
  O  O209  1  0.50729578  0.87626684  0.25520933  1
  O  O210  1  0.50945228  0.86643403  0.74270579  1
  O  O211  1  0.49603989  0.12998571  0.24200713  1
  O  O212  1  0.49213850  0.12505021  0.73315841  1
  O  O213  1  0.48716487  0.62381521  0.24351438  1
  O  O214  1  0.49481316  0.63360418  0.74013907  1
  O  O215  1  0.99653491  0.11757758  0.23945754  1
  O  O216  1  0.99199187  0.13409477  0.74369743  1
  O  O217  1  0.99049404  0.63154554  0.25461628  1
  O  O218  1  0.98848838  0.61530740  0.73579980  1
  O  O219  1  0.37062057  0.25677172  0.00625254  1
  O  O220  1  0.36401941  0.25159811  0.50901049  1
  O  O221  1  0.36532132  0.75530711  0.00450109  1
  O  O222  1  0.38262483  0.76359131  0.49818649  1
  O  O223  1  0.86768774  0.25255421  0.01446573  1
  O  O224  1  0.86608993  0.25587474  0.50323756  1
  O  O225  1  0.86450865  0.74627042  0.00660797  1
  O  O226  1  0.87062264  0.75100271  0.50743539  1
  O  O227  1  0.13718102  0.24485874  0.49411730  1
  O  O228  1  0.13482472  0.24599180  0.99873555  1
  O  O229  1  0.11737294  0.72939886  0.49523190  1
  O  O230  1  0.13500455  0.75459152  0.99250521  1
  O  O231  1  0.64004755  0.24633096  0.50270175  1
  O  O232  1  0.64155180  0.25100886  1.00826822  1
  O  O233  1  0.62682127  0.73816745  0.49729434  1
  O  O234  1  0.62651655  0.75010852  0.98517409  1
  O  O235  1  0.49297252  0.24320334  0.12781937  1
  O  O236  1  0.49063905  0.24311859  0.61440259  1
  O  O237  1  0.49145289  0.74823415  0.12382976  1
  O  O238  1  0.50831516  0.74091064  0.63575404  1
  O  O239  1  0.99251927  0.24062650  0.12082415  1
  O  O240  1  0.98897050  0.24537403  0.63165320  1
  O  O241  1  0.99442288  0.75193437  0.13648062  1
  O  O242  1  0.99733003  0.73400872  0.62768875  1
  O  O243  1  0.01641769  0.25336623  0.37826205  1
  O  O244  1  0.00152646  0.25812967  0.87370867  1
  O  O245  1  -0.00043141  0.75571707  0.36389354  1
  O  O246  1  0.00587521  0.75853464  0.88589411  1
  O  O247  1  0.49451886  0.25901604  0.36578626  1
  O  O248  1  0.48775806  0.27567556  0.87094609  1
  O  O249  1  0.50614008  0.76071717  0.36784545  1
  O  O250  1  0.51089799  0.74397988  0.86738578  1
  O  O251  1  0.25332656  0.13044051  0.49434586  1
  O  O252  1  0.24795546  0.13572899  1.00042398  1
  O  O253  1  0.23048923  0.62090041  0.50626841  1
  O  O254  1  0.25223980  0.63406571  0.99000404  1
  O  O255  1  0.74369857  0.13952301  0.50152606  1
  O  O256  1  0.75105769  0.14049936  1.00598462  1
  O  O257  1  0.74234852  0.62455285  0.49260730  1
  O  O258  1  0.74495509  0.64408698  1.00623457  1
  O  O259  1  0.26070533  0.36180971  -0.00548250  1
  O  O260  1  0.25119995  0.36641478  0.50670947  1
  O  O261  1  0.25437354  0.86781891  0.00470029  1
  O  O262  1  0.27264131  0.88089728  0.49521441  1
  O  O263  1  0.75341532  0.36973860  0.01137724  1
  O  O264  1  0.75934021  0.36292216  0.49469986  1
  O  O265  1  0.74170068  0.85389519  0.00849922  1
  O  O266  1  0.74964474  0.87378934  0.50901046  1
  O  O267  1  0.13227058  0.49424493  0.24071273  1
  O  O268  1  0.12930694  0.49241383  0.74329961  1
  O  O269  1  0.13913287  0.99893510  0.24334050  1
  O  O270  1  0.11459400  0.98793075  0.75282057  1
  O  O271  1  0.63335753  0.49759181  0.24225190  1
  O  O272  1  0.63002970  0.49944489  0.74361136  1
  O  O273  1  0.63381003  0.99646952  0.24397668  1
  O  O274  1  0.62251104  0.99278163  0.74108863  1
  O  O275  1  0.36468028  0.00621655  0.24209984  1
  O  O276  1  0.38146918  0.01404333  0.74842743  1
  O  O277  1  0.36958609  0.50208691  0.25248550  1
  O  O278  1  0.36388571  0.50174184  0.75499900  1
  O  O279  1  0.86973959  0.00692377  0.25768428  1
  O  O280  1  0.87167736  0.00306462  0.77105111  1
  O  O281  1  0.87153487  0.50621912  0.25577527  1
  O  O282  1  0.86544417  0.50389537  0.75691668  1
  O  O283  1  0.12033405  0.36990093  0.36968338  1
  O  O284  1  0.11811716  0.36881614  0.87265192  1
  O  O285  1  0.11434070  0.87132947  0.37366214  1
  O  O286  1  0.11073488  0.86742877  0.86957066  1
  O  O287  1  0.61202423  0.38322779  0.37343687  1
  O  O288  1  0.61415430  0.38033574  0.86349220  1
  O  O289  1  0.62016539  0.87579211  0.36292167  1
  O  O290  1  0.62562413  0.87025497  0.86477193  1
  O  O291  1  0.38127503  0.13284615  0.13347047  1
  O  O292  1  0.38309674  0.13291275  0.62985627  1
  O  O293  1  0.37434724  0.63621534  0.12799702  1
  O  O294  1  0.38611344  0.61994372  0.62349508  1
  O  O295  1  0.88380285  0.13094481  0.13553333  1
  O  O296  1  0.88206345  0.13637517  0.62781277  1
  O  O297  1  0.87193532  0.63151345  0.13588419  1
  O  O298  1  0.88464967  0.62157386  0.63090505  1
  O  O299  1  0.26565100  0.24689949  0.11944411  1
  O  O300  1  0.25480192  0.25456848  0.61910147  1
  O  O301  1  0.25426116  0.75327288  0.11720533  1
  O  O302  1  0.24360550  0.76097070  0.61259441  1
  O  O303  1  0.75772447  0.25879903  0.12241776  1
  O  O304  1  0.76231455  0.25141213  0.61546184  1
  O  O305  1  0.76071907  0.75253403  0.11892126  1
  O  O306  1  0.74532183  0.76385966  0.62685856  1
  O  O307  1  0.24562366  0.24635551  0.38316699  1
  O  O308  1  0.24531757  0.24372401  0.88339191  1
  O  O309  1  0.24841897  0.74793909  0.38522833  1
  O  O310  1  0.23881561  0.74237963  0.88031775  1
  O  O311  1  0.75370196  0.25073678  0.38455083  1
  O  O312  1  0.75700569  0.25936850  0.89455096  1
  O  O313  1  0.74970602  0.73681556  0.37341893  1
  O  O314  1  0.73900577  0.75198883  0.88454345  1
  O  O315  1  0.00482600  0.11553880  0.01405567  1
  O  O316  1  0.00074407  0.12753266  0.51734358  1
  O  O317  1  0.00078247  0.61235734  -0.00119996  1
  O  O318  1  0.00485606  0.61915567  0.51437529  1
  O  O319  1  0.48582673  0.11184655  0.01553341  1
  O  O320  1  0.50538694  0.12050759  0.50446562  1
  O  O321  1  0.49098376  0.61178347  -0.00089566  1
  O  O322  1  0.50698910  0.62179486  0.50399836  1
  O  O323  1  0.49971663  0.38204710  0.49366924  1
  O  O324  1  0.49627846  0.38437224  0.98839882  1
  O  O325  1  0.49586896  0.88217457  0.49207083  1
  O  O326  1  0.48839864  0.88349205  1.00452344  1
  O  O327  1  0.99105886  0.36747688  0.48623234  1
  O  O328  1  0.99891116  0.38030999  0.99047970  1
  O  O329  1  0.99490763  0.87468142  0.49222244  1
  O  O330  1  1.00416687  0.88689803  0.99644865  1
  O  O331  1  0.49184714  0.49456831  0.37973781  1
  O  O332  1  0.49246529  0.49623112  0.87978173  1
  O  O333  1  0.50583658  0.99119420  0.38220308  1
  O  O334  1  0.50163540  0.99903913  0.88670129  1
  O  O335  1  0.98844547  0.49144554  0.37285633  1
  O  O336  1  0.99694166  0.49327994  0.88303055  1
  O  O337  1  0.99268984  0.98988054  0.37213977  1
  O  O338  1  0.99028852  0.99281803  0.88694235  1
  O  O339  1  0.00579994  0.00392416  0.12187078  1
  O  O340  1  -0.01302441  0.01637284  0.62732283  1
  O  O341  1  0.01437634  0.49469625  0.11823869  1
  O  O342  1  0.00947803  0.50180173  0.62863742  1
  O  O343  1  0.50814656  0.00687058  0.12462733  1
  O  O344  1  0.51157443  0.00860387  0.61476119  1
  O  O345  1  0.50958576  0.49960689  0.11511157  1
  O  O346  1  0.50852694  0.50942094  0.61838632  1
  O  O347  1  0.24376000  0.38592031  0.25402339  1
  O  O348  1  0.24377994  0.37875126  0.74615275  1
  O  O349  1  0.25267744  0.88181846  0.24359537  1
  O  O350  1  0.22510313  0.87335559  0.75223180  1
  O  O351  1  0.75033114  0.38045240  0.24089853  1
  O  O352  1  0.73456945  0.38743115  0.75358419  1
  O  O353  1  0.74361979  0.88289587  0.24660267  1
  O  O354  1  0.73921186  0.88232661  0.74397337  1
  O  O355  1  0.25721861  0.11838316  0.25682514  1
  O  O356  1  0.26791618  0.12621812  0.74966399  1
  O  O357  1  0.26395692  0.61043941  0.24550977  1
  O  O358  1  0.24675262  0.61925914  0.75451480  1
  O  O359  1  0.76219443  0.11658264  0.24520991  1
  O  O360  1  0.75066484  0.12003822  0.75063413  1
  O  O361  1  0.75860567  0.61966885  0.25701638  1
  O  O362  1  0.75717786  0.61286964  0.74382681  1
  O  O363  1  0.36331038  0.13207883  0.36866927  1
  O  O364  1  0.38422460  0.13464777  0.85583492  1
  O  O365  1  0.38146596  0.61415281  0.36502016  1
  O  O366  1  0.35943294  0.61983579  0.87028173  1
  O  O367  1  0.88645277  0.11943452  0.36321618  1
  O  O368  1  0.88138168  0.11126234  0.87911959  1
  O  O369  1  0.87043560  0.61762399  0.37070101  1
  O  O370  1  0.88224185  0.61226431  0.86590819  1
  O  O371  1  0.12189208  0.37740601  0.13822832  1
  O  O372  1  0.12618392  0.37884700  0.62868736  1
  O  O373  1  0.13399160  0.88050019  0.12755160  1
  O  O374  1  0.11062551  0.87171394  0.64029966  1
  O  O375  1  0.63373047  0.38459600  0.12838330  1
  O  O376  1  0.61671321  0.38694673  0.63774687  1
  O  O377  1  0.62236545  0.88641115  0.13507597  1
  O  O378  1  0.62922591  0.88446178  0.63007658  1
  O  O379  1  0.13585802  0.25934307  0.25938508  1
  O  O380  1  0.11843401  0.25539103  0.75732709  1
  O  O381  1  0.11867453  0.74709535  0.25260917  1
  O  O382  1  0.12149009  0.75400689  0.76138386  1
  O  O383  1  0.61196133  0.24978029  0.24267009  1
  O  O384  1  0.62862409  0.26790621  0.73951479  1
  O  O385  1  0.62539236  0.76005162  0.24760485  1
  O  O386  1  0.61899742  0.75602503  0.76246724  1
  O  O387  1  0.38398854  0.24715852  0.24201485  1
  O  O388  1  0.37208516  0.24577353  0.73692136  1
  O  O389  1  0.37465261  0.74174579  0.24074621  1
  O  O390  1  0.38622378  0.75181929  0.75584967  1
  O  O391  1  0.87316188  0.24223077  0.24019393  1
  O  O392  1  0.87777989  0.25589885  0.74293275  1
  O  O393  1  0.88110149  0.74244220  0.24200987  1
  O  O394  1  0.86531944  0.73546320  0.75084809  1
  O  O395  1  0.37942569  0.49899852  0.49148626  1
  O  O396  1  0.37879671  0.49204852  0.99590760  1
  O  O397  1  0.39025297  0.99551390  0.50239101  1
  O  O398  1  0.38280585  0.98718149  1.00577502  1
  O  O399  1  0.86736316  0.48922805  0.49100034  1
  O  O400  1  0.88226868  0.50020392  0.99460076  1
  O  O401  1  0.87536256  1.00355347  0.48661218  1
  O  O402  1  0.88313578  1.00283334  0.99563900  1
  O  O403  1  0.11823423  0.00553127  0.00754916  1
  O  O404  1  0.12042790  0.00732996  0.49284062  1
  O  O405  1  0.12036488  0.49417882  0.01428333  1
  O  O406  1  0.12570461  0.50623700  0.50936137  1
  O  O407  1  0.61721849  0.00014451  0.00744319  1
  O  O408  1  0.61984160  0.00887954  0.50470498  1
  O  O409  1  0.61623200  0.49551607  0.00716305  1
  O  O410  1  0.62245392  0.50926954  0.50660528  1
  O  O411  1  0.38502391  0.36806052  0.11046207  1
  O  O412  1  0.37027682  0.36944078  0.62403105  1
  O  O413  1  0.36829191  0.86227905  0.12009337  1
  O  O414  1  0.38410584  0.87488181  0.60972766  1
  O  O415  1  0.87040210  0.36825947  0.12756557  1
  O  O416  1  0.88237352  0.36967463  0.61178070  1
  O  O417  1  0.87673892  0.86288854  0.13039410  1
  O  O418  1  0.86343465  0.87643368  0.62725693  1
  O  O419  1  0.13906770  0.13412333  0.37196154  1
  O  O420  1  0.11754302  0.13353075  0.88519165  1
  O  O421  1  0.11740732  0.61523789  0.38929006  1
  O  O422  1  0.13175588  0.63093488  0.87092004  1
  O  O423  1  0.62110792  0.12418626  0.38677320  1
  O  O424  1  0.58815755  0.13956216  0.88585824  1
  O  O425  1  0.63305962  0.62297404  0.38153884  1
  O  O426  1  0.62543242  0.63478134  0.87009130  1
