# generated using pymatgen
data_V85Zn86O256
_symmetry_space_group_name_H-M   'P 1'
_cell_length_a   16.92208775
_cell_length_b   16.93897959
_cell_length_c   16.94589047
_cell_angle_alpha   89.99400094
_cell_angle_beta   89.99455505
_cell_angle_gamma   90.06853645
_symmetry_Int_Tables_number   1
_chemical_formula_structural   V85Zn86O256
_chemical_formula_sum   'V85 Zn86 O256'
_cell_volume   4857.41564695
_cell_formula_units_Z   1
loop_
 _symmetry_equiv_pos_site_id
 _symmetry_equiv_pos_as_xyz
  1  'x, y, z'
loop_
 _atom_site_type_symbol
 _atom_site_label
 _atom_site_symmetry_multiplicity
 _atom_site_fract_x
 _atom_site_fract_y
 _atom_site_fract_z
 _atom_site_occupancy
  V  V0  1  0.74453849  0.49761002  0.25190600  1
  V  V1  1  0.50040352  0.25609531  0.74947170  1
  V  V2  1  0.12344353  0.25244934  0.87303854  1
  V  V3  1  0.87413852  0.37743786  0.00291643  1
  V  V4  1  0.74751815  0.25281502  0.00339774  1
  V  V5  1  0.62661289  0.74837610  0.87366639  1
  V  V6  1  0.49991749  0.87344132  0.37147093  1
  V  V7  1  0.87320388  0.87435622  0.00023391  1
  V  V8  1  0.24623438  0.74839224  0.49949234  1
  V  V9  1  0.00116882  0.37593170  0.87540670  1
  V  V10  1  0.37718339  0.12747878  0.74487976  1
  V  V11  1  0.63005683  0.25949652  0.37157371  1
  V  V12  1  0.61978026  0.12593622  0.00251801  1
  V  V13  1  0.62916724  0.87339211  0.25027889  1
  V  V14  1  0.13036496  0.74784974  0.88085245  1
  V  V15  1  0.13039193  0.37845460  0.25104976  1
  V  V16  1  0.87419836  0.25166234  0.12898059  1
  V  V17  1  0.68169238  0.07063765  0.44316522  1
  V  V18  1  0.37885198  0.36115597  0.50423071  1
  V  V19  1  0.37077761  0.61982597  0.25053898  1
  V  V20  1  0.49775516  0.62480883  0.12574634  1
  V  V21  1  0.37471711  0.00781145  0.36983539  1
  V  V22  1  0.62782334  0.00573164  0.62603646  1
  V  V23  1  0.74887428  0.25115388  0.50104718  1
  V  V24  1  0.63372321  0.49961206  0.62875994  1
  V  V25  1  0.74134284  0.37520706  0.13190674  1
  V  V26  1  0.49774598  0.00325724  0.49943307  1
  V  V27  1  -0.00600244  0.87814007  0.87094445  1
  V  V28  1  0.88557109  0.74022705  0.12789611  1
  V  V29  1  0.25222998  0.12467055  0.87423659  1
  V  V30  1  -0.00710698  0.00432031  -0.00540243  1
  V  V31  1  0.49249360  0.12295389  0.13197689  1
  V  V32  1  0.11935223  0.87484108  0.25300718  1
  V  V33  1  0.87089726  0.62062553  0.74746199  1
  V  V34  1  0.75509824  0.87197211  0.62498651  1
  V  V35  1  0.49952835  0.87441540  0.87413600  1
  V  V36  1  0.61955714  0.25394695  0.87612177  1
  V  V37  1  0.62457426  0.62256140  0.00206618  1
  V  V38  1  0.37720122  0.37738185  -0.01236464  1
  V  V39  1  0.00177489  0.37729156  0.38310919  1
  V  V40  1  0.86615903  0.11096734  0.26296058  1
  V  V41  1  0.25588853  0.62015383  0.88145862  1
  V  V42  1  0.87892079  0.74877502  0.61917426  1
  V  V43  1  0.77309918  0.03503059  0.72996673  1
  V  V44  1  0.49646963  -0.00227444  -0.00101505  1
  V  V45  1  0.87209872  0.49790949  0.87058454  1
  V  V46  1  0.25192369  0.01040634  0.24958358  1
  V  V47  1  0.24844296  0.86610327  0.12056297  1
  V  V48  1  0.49940870  0.37773199  0.36465957  1
  V  V49  1  0.00155275  0.74764103  0.74765847  1
  V  V50  1  0.75123467  0.62540683  0.37079837  1
  V  V51  1  0.63190848  -0.00357476  0.12766864  1
  V  V52  1  0.12582062  0.87428407  0.74964859  1
  V  V53  1  0.11471543  0.00726317  0.62594866  1
  V  V54  1  0.25279062  0.38571204  0.12704081  1
  V  V55  1  0.49418000  0.49858243  -0.01383973  1
  V  V56  1  0.62503888  0.62472426  0.49884541  1
  V  V57  1  0.24993847  0.87940662  0.62453471  1
  V  V58  1  0.49901375  0.62389005  0.62448625  1
  V  V59  1  0.75887827  0.11603914  0.88437123  1
  V  V60  1  -0.00166823  0.12702124  0.12550484  1
  V  V61  1  0.24817118  0.61841711  0.36726704  1
  V  V62  1  0.87959876  0.50082762  0.38014784  1
  V  V63  1  0.25128945  0.36134796  0.61975723  1
  V  V64  1  0.75288588  0.75586719  0.49534272  1
  V  V65  1  0.74919570  0.61889263  0.87239076  1
  V  V66  1  0.63192095  0.37743931  0.75277608  1
  V  V67  1  0.12468177  0.60991813  0.50598710  1
  V  V68  1  0.11920923  0.75133489  0.37265161  1
  V  V69  1  0.12486285  0.38291837  0.74514286  1
  V  V70  1  0.63217853  0.87737277  0.75063820  1
  V  V71  1  0.13163044  0.24718409  0.38344079  1
  V  V72  1  -0.00559358  0.00080365  0.49091610  1
  V  V73  1  0.50169953  0.13179689  0.62234199  1
  V  V74  1  0.11597565  0.50703960  0.12696203  1
  V  V75  1  0.00449898  0.60899868  0.62246265  1
  V  V76  1  0.12400367  0.12776676  -0.00064327  1
  V  V77  1  0.25916848  0.50074603  0.74146062  1
  V  V78  1  -0.01296824  0.24203427  0.73725015  1
  V  V79  1  0.12550695  0.00276535  0.12544331  1
  V  V80  1  0.37276212  0.24881494  0.13325313  1
  V  V81  1  -0.00148966  0.24971558  0.25383298  1
  V  V82  1  0.25099051  0.25224470  0.00142949  1
  V  V83  1  0.37601898  0.75109173  0.62595931  1
  V  V84  1  0.87647629  0.37100141  0.50642118  1
  Zn  Zn85  1  0.37383445  0.87607609  0.49639036  1
  Zn  Zn86  1  0.12736473  0.12886560  0.50720775  1
  Zn  Zn87  1  0.49526702  0.74956827  0.24884173  1
  Zn  Zn88  1  0.62071175  0.74824808  0.37142369  1
  Zn  Zn89  1  -0.01294231  0.87297333  0.37589904  1
  Zn  Zn90  1  0.89083505  0.62337366  0.24828299  1
  Zn  Zn91  1  0.12447899  0.63249843  0.00686009  1
  Zn  Zn92  1  0.37970525  0.62095095  0.75423418  1
  Zn  Zn93  1  0.50219598  0.24913420  0.24968633  1
  Zn  Zn94  1  0.49661615  0.49726145  0.49993347  1
  Zn  Zn95  1  0.62013051  0.49660095  0.12936058  1
  Zn  Zn96  1  0.37486233  -0.00047162  0.87264487  1
  Zn  Zn97  1  0.75446228  0.87264837  0.12864129  1
  Zn  Zn98  1  0.50109553  0.75129098  0.74745966  1
  Zn  Zn99  1  0.75318629  0.74752914  0.00117555  1
  Zn  Zn100  1  0.36593673  0.74475553  0.11977703  1
  Zn  Zn101  1  -0.00260055  0.50789285  0.00447759  1
  Zn  Zn102  1  0.25139491  0.00145121  0.74874292  1
  Zn  Zn103  1  0.75549791  0.37599298  0.62915708  1
  Zn  Zn104  1  0.25867415  0.13237753  0.38159432  1
  Zn  Zn105  1  0.36271309  0.86782716  -0.00724311  1
  Zn  Zn106  1  0.37135511  0.49672678  0.37726410  1
  Zn  Zn107  1  0.18753040  0.19113143  0.19059240  1
  Zn  Zn108  1  0.18371331  0.18984095  0.69288086  1
  Zn  Zn109  1  0.06449091  0.68924410  0.19152016  1
  Zn  Zn110  1  0.18814311  0.68596535  0.68870234  1
  Zn  Zn111  1  0.68711579  0.18450741  0.19165634  1
  Zn  Zn112  1  0.70036903  0.18802891  0.68582533  1
  Zn  Zn113  1  0.69034673  0.69174370  0.18547221  1
  Zn  Zn114  1  0.68804142  0.68800957  0.68765855  1
  Zn  Zn115  1  0.31409151  0.31564612  0.31211378  1
  Zn  Zn116  1  0.31271999  0.30961662  0.80736402  1
  Zn  Zn117  1  0.30951595  0.81262570  0.30643958  1
  Zn  Zn118  1  0.31298361  0.80899059  0.81087619  1
  Zn  Zn119  1  0.81393411  0.31236185  0.31549588  1
  Zn  Zn120  1  0.80923726  0.30791661  0.81580053  1
  Zn  Zn121  1  0.81241466  0.80898661  0.30544469  1
  Zn  Zn122  1  0.81389829  0.80803353  0.81190081  1
  Zn  Zn123  1  0.19097554  0.43369606  0.44175936  1
  Zn  Zn124  1  0.18967316  0.44275536  0.93833957  1
  Zn  Zn125  1  0.18668801  0.94114013  0.43939787  1
  Zn  Zn126  1  0.18171827  0.94072111  0.93670709  1
  Zn  Zn127  1  0.68749391  0.43782679  0.43911579  1
  Zn  Zn128  1  0.68463683  0.43823451  0.93822663  1
  Zn  Zn129  1  0.81758177  0.93636708  0.43780832  1
  Zn  Zn130  1  0.68786949  0.94012773  0.93820483  1
  Zn  Zn131  1  0.31299533  0.05981538  0.06121004  1
  Zn  Zn132  1  0.31159091  0.06836432  0.55867274  1
  Zn  Zn133  1  0.31175629  0.56143983  0.06138766  1
  Zn  Zn134  1  0.31398870  0.55784538  0.55994977  1
  Zn  Zn135  1  0.81427573  0.06364509  0.06774027  1
  Zn  Zn136  1  0.82595815  0.07413892  0.56572940  1
  Zn  Zn137  1  0.81189202  0.56152145  0.06159482  1
  Zn  Zn138  1  0.81339722  0.56219088  0.55868623  1
  Zn  Zn139  1  0.43396214  0.44248804  0.18536062  1
  Zn  Zn140  1  0.43918438  0.43599984  0.68328034  1
  Zn  Zn141  1  0.43487764  0.93626980  0.18736817  1
  Zn  Zn142  1  0.43810710  0.94049102  0.68836706  1
  Zn  Zn143  1  0.93490984  0.43766897  0.19541748  1
  Zn  Zn144  1  0.93699322  0.43374497  0.69127783  1
  Zn  Zn145  1  0.93834241  0.93618030  0.18570934  1
  Zn  Zn146  1  0.93625358  0.93679490  0.68555318  1
  Zn  Zn147  1  0.06013796  0.06388984  0.31178552  1
  Zn  Zn148  1  0.06051823  0.06395748  0.81042258  1
  Zn  Zn149  1  0.06722462  0.55760375  0.31837344  1
  Zn  Zn150  1  0.06390759  0.56238104  0.81425468  1
  Zn  Zn151  1  0.56095601  0.05872069  0.30763394  1
  Zn  Zn152  1  0.56846653  0.06344525  0.81093438  1
  Zn  Zn153  1  0.56047736  0.56137018  0.31243635  1
  Zn  Zn154  1  0.56191288  0.56124416  0.80925046  1
  Zn  Zn155  1  0.44442767  0.18745771  0.43600117  1
  Zn  Zn156  1  0.43581744  0.19016925  0.93859108  1
  Zn  Zn157  1  0.43395546  0.68846281  0.43927899  1
  Zn  Zn158  1  0.43485352  0.69181539  0.94054073  1
  Zn  Zn159  1  0.94085190  0.18466657  0.44236298  1
  Zn  Zn160  1  0.93665504  0.19355645  0.93624127  1
  Zn  Zn161  1  0.94091379  0.68389308  0.43828049  1
  Zn  Zn162  1  0.94282360  0.68788637  0.93964283  1
  Zn  Zn163  1  0.06269299  0.31716458  0.06337217  1
  Zn  Zn164  1  0.06296471  0.31619826  0.56614425  1
  Zn  Zn165  1  0.06274602  0.81806107  0.05893283  1
  Zn  Zn166  1  0.06169096  0.81471739  0.55882739  1
  Zn  Zn167  1  0.55724650  0.31465248  0.06362687  1
  Zn  Zn168  1  0.56791104  0.31188907  0.55872925  1
  Zn  Zn169  1  0.55978654  0.80890232  0.06148015  1
  Zn  Zn170  1  0.56462400  0.81534348  0.55899068  1
  O  O171  1  0.11866407  0.12416153  0.11913577  1
  O  O172  1  0.13021466  0.10944865  0.63050759  1
  O  O173  1  0.12871938  0.60976745  0.12824902  1
  O  O174  1  0.11649271  0.62944536  0.61810776  1
  O  O175  1  0.61869613  0.11861536  0.11769758  1
  O  O176  1  0.62020630  0.11159933  0.63338494  1
  O  O177  1  0.61922490  0.62316272  0.11657996  1
  O  O178  1  0.61993327  0.62090564  0.61959398  1
  O  O179  1  0.38109833  0.37465688  0.38474661  1
  O  O180  1  0.36943392  0.36716830  0.88861305  1
  O  O181  1  0.38377962  0.88297823  0.37340769  1
  O  O182  1  0.38476864  0.87781419  0.87194348  1
  O  O183  1  0.88389934  0.38116562  0.38197006  1
  O  O184  1  0.87863706  0.38143133  0.87926282  1
  O  O185  1  0.87443163  0.86625219  0.37570459  1
  O  O186  1  0.88756005  0.86675932  0.88057278  1
  O  O187  1  0.25872862  -0.00159614  0.36679241  1
  O  O188  1  0.24845594  0.01335903  0.87311513  1
  O  O189  1  0.24843511  0.51443435  0.37971435  1
  O  O190  1  0.24582786  0.51274839  0.86259059  1
  O  O191  1  0.73652533  0.00663547  0.39204454  1
  O  O192  1  0.74961404  0.01385935  0.87434221  1
  O  O193  1  0.75494284  0.50603637  0.37035560  1
  O  O194  1  0.75592320  0.51039079  0.87721424  1
  O  O195  1  0.24077914  0.48918792  0.12324305  1
  O  O196  1  0.25248460  0.49136999  0.63780327  1
  O  O197  1  0.24223503  1.00094225  0.13222080  1
  O  O198  1  0.24276156  0.98911332  0.62461857  1
  O  O199  1  0.75053344  0.49262543  0.13371533  1
  O  O200  1  0.73772062  0.50078295  0.62186880  1
  O  O201  1  0.73550909  0.99533692  0.11667381  1
  O  O202  1  0.74466984  0.98633032  0.62501995  1
  O  O203  1  0.00581155  0.36794420  0.26127654  1
  O  O204  1  0.00868747  0.36960166  0.75583610  1
  O  O205  1  0.01504572  0.88296112  0.25366830  1
  O  O206  1  0.00387918  0.87032189  0.75543883  1
  O  O207  1  0.49285607  0.37449634  0.26106914  1
  O  O208  1  0.50711237  0.36060536  0.74238645  1
  O  O209  1  0.50384086  0.87166972  0.25451619  1
  O  O210  1  0.51290042  0.87926425  0.75877294  1
  O  O211  1  0.50039221  0.12442599  0.23503768  1
  O  O212  1  0.49727522  0.13143385  0.74358281  1
  O  O213  1  0.49159751  0.62516613  0.24286716  1
  O  O214  1  0.49951964  0.62791907  0.73694484  1
  O  O215  1  0.99447025  0.13366370  0.24406506  1
  O  O216  1  1.00077201  0.14347936  0.75738144  1
  O  O217  1  1.00298499  0.62510821  0.25859763  1
  O  O218  1  0.99062725  0.62816141  0.74520056  1
  O  O219  1  0.37015429  0.25751658  0.00952734  1
  O  O220  1  0.37823467  0.26170928  0.49588780  1
  O  O221  1  0.37551154  0.75684878  0.00699823  1
  O  O222  1  0.36359067  0.75220465  0.50982953  1
  O  O223  1  0.86828637  0.25766566  0.00837606  1
  O  O224  1  0.86504119  0.25852561  0.49171065  1
  O  O225  1  0.87754297  0.75789345  0.00727919  1
  O  O226  1  0.86754049  0.74028987  0.51204086  1
  O  O227  1  0.12017554  0.25222330  0.48577223  1
  O  O228  1  0.12999854  0.24746829  0.99391152  1
  O  O229  1  0.13599991  0.74561525  0.49711122  1
  O  O230  1  0.12402781  0.75392334  0.98444423  1
  O  O231  1  0.63153349  0.24895432  0.48359128  1
  O  O232  1  0.62526163  0.24424077  0.99682084  1
  O  O233  1  0.63440034  0.73996951  0.50016180  1
  O  O234  1  0.62538277  0.73699393  0.99278723  1
  O  O235  1  0.49186474  0.24169303  0.12606334  1
  O  O236  1  0.51157927  0.23700318  0.63116233  1
  O  O237  1  0.49833056  0.73409621  0.12420561  1
  O  O238  1  0.49270561  0.74573202  0.62215972  1
  O  O239  1  0.99620745  0.24843980  0.13380155  1
  O  O240  1  1.00273365  0.25137658  0.63786971  1
  O  O241  1  0.99232253  0.75153152  0.12162017  1
  O  O242  1  0.99293415  0.74595291  0.62842377  1
  O  O243  1  0.00806887  0.25703640  0.36924339  1
  O  O244  1  0.00347623  0.26327907  0.87201788  1
  O  O245  1  0.01603740  0.75381431  0.38681377  1
  O  O246  1  0.00779533  0.75795327  0.86569722  1
  O  O247  1  0.51117929  0.25674906  0.37194717  1
  O  O248  1  0.51178075  0.24314784  0.86666593  1
  O  O249  1  0.49879488  0.75911788  0.37592393  1
  O  O250  1  0.50734338  0.75815965  0.87090576  1
  O  O251  1  0.24106022  0.12193755  0.49321268  1
  O  O252  1  0.24574384  0.13096949  0.99299497  1
  O  O253  1  0.24462941  0.63188429  0.49703917  1
  O  O254  1  0.24313001  0.61728051  0.98504601  1
  O  O255  1  0.74916341  0.13089544  0.49610698  1
  O  O256  1  0.74089968  0.12965142  0.99824235  1
  O  O257  1  0.74437762  0.63185848  0.49062240  1
  O  O258  1  0.74064226  0.62293543  0.99170519  1
  O  O259  1  0.25526108  0.37093176  0.00704130  1
  O  O260  1  0.25889597  0.37322211  0.51267028  1
  O  O261  1  0.24577330  0.88787199  0.01560976  1
  O  O262  1  0.25031102  0.86753694  0.50836747  1
  O  O263  1  0.75449226  0.37189899  0.00796697  1
  O  O264  1  0.75862497  0.36857954  0.49912830  1
  O  O265  1  0.76496884  0.87525390  -0.00455868  1
  O  O266  1  0.74986398  0.86188634  0.50860077  1
  O  O267  1  0.12314142  0.48650288  0.24126083  1
  O  O268  1  0.13497406  0.48782922  0.75348390  1
  O  O269  1  0.13113737  0.99684534  0.24539725  1
  O  O270  1  0.12527491  0.99363363  0.74050282  1
  O  O271  1  0.63974921  0.50508601  0.24908575  1
  O  O272  1  0.62000941  0.48936924  0.74229832  1
  O  O273  1  0.61737653  0.98913831  0.23731412  1
  O  O274  1  0.63994358  0.99513534  0.74210754  1
  O  O275  1  0.36508329  -0.00299015  0.25738858  1
  O  O276  1  0.37453125  0.01312986  0.75281346  1
  O  O277  1  0.37464907  0.51383385  0.25561256  1
  O  O278  1  0.36362269  0.49828702  0.74833163  1
  O  O279  1  0.87915695  0.01203264  0.24626607  1
  O  O280  1  0.86058419  -0.00835745  0.75235548  1
  O  O281  1  0.86510077  0.50318948  0.26212417  1
  O  O282  1  0.87542936  0.50464460  0.76190765  1
  O  O283  1  0.12135721  0.36896643  0.37063146  1
  O  O284  1  0.11854489  0.37374868  0.86999937  1
  O  O285  1  0.12976226  0.86695408  0.36782712  1
  O  O286  1  0.11796455  0.86966938  0.86818293  1
  O  O287  1  0.61653113  0.36716646  0.37741657  1
  O  O288  1  0.62773543  0.36571810  0.86837633  1
  O  O289  1  0.60842708  0.87401761  0.36403619  1
  O  O290  1  0.62283275  0.87151347  0.86776581  1
  O  O291  1  0.38164428  0.13462135  0.11691320  1
  O  O292  1  0.38811940  0.11894264  0.63324245  1
  O  O293  1  0.37849539  0.62277232  0.13252356  1
  O  O294  1  0.38331545  0.63190741  0.62353790  1
  O  O295  1  0.88159194  0.13409253  0.13098213  1
  O  O296  1  0.80718941  0.11653867  0.66553051  1
  O  O297  1  0.87582380  0.63656896  0.12197160  1
  O  O298  1  0.88042612  0.62762893  0.63068253  1
  O  O299  1  0.25474142  0.25791559  0.12030200  1
  O  O300  1  0.25162084  0.26333948  0.63397554  1
  O  O301  1  0.24213439  0.76849741  0.12492000  1
  O  O302  1  0.25499841  0.75846355  0.62021835  1
  O  O303  1  0.75237395  0.25673014  0.12273396  1
  O  O304  1  0.73813325  0.25834666  0.60548896  1
  O  O305  1  0.76350346  0.75249778  0.11843423  1
  O  O306  1  0.75626353  0.75339601  0.61743974  1
  O  O307  1  0.23468472  0.25143306  0.36703325  1
  O  O308  1  0.24456961  0.24092416  0.87843888  1
  O  O309  1  0.24406544  0.74304617  0.38346795  1
  O  O310  1  0.24178794  0.73488164  0.86411479  1
  O  O311  1  0.73798295  0.25619046  0.38128356  1
  O  O312  1  0.73837709  0.24352192  0.88641306  1
  O  O313  1  0.74708919  0.74142199  0.38092015  1
  O  O314  1  0.74607698  0.73698113  0.87794792  1
  O  O315  1  0.00190216  0.12146070  0.00249300  1
  O  O316  1  0.00726269  0.10950934  0.50098621  1
  O  O317  1  0.01289879  0.61856762  -0.01137386  1
  O  O318  1  0.01139029  0.62681164  0.51072119  1
  O  O319  1  0.50368237  0.11842563  0.00746183  1
  O  O320  1  0.49744183  0.11350192  0.50846594  1
  O  O321  1  0.50488502  0.61786734  0.00449456  1
  O  O322  1  0.50784255  0.62632642  0.50862167  1
  O  O323  1  0.49077408  0.37351612  0.49469572  1
  O  O324  1  0.49082256  0.38690436  1.00461045  1
  O  O325  1  0.50144295  0.88755100  0.49241028  1
  O  O326  1  0.50452313  0.88187823  0.98685030  1
  O  O327  1  0.99380729  0.36972764  0.49065552  1
  O  O328  1  0.99242227  0.37781890  0.99192720  1
  O  O329  1  1.00478052  0.89353640  0.49907302  1
  O  O330  1  0.99213876  0.88402942  0.99150567  1
  O  O331  1  0.49913297  0.49076601  0.37923456  1
  O  O332  1  0.49928869  0.50538604  0.88686402  1
  O  O333  1  0.49427027  0.99554936  0.38080412  1
  O  O334  1  0.50288938  0.99398948  0.88154930  1
  O  O335  1  0.99231850  0.48882057  0.37409058  1
  O  O336  1  0.99284569  0.48781005  0.87174381  1
  O  O337  1  1.00569280  0.99665196  0.38781538  1
  O  O338  1  1.00479011  0.99117765  0.88239116  1
  O  O339  1  0.00656628  0.00701945  0.11635352  1
  O  O340  1  0.01073737  -0.00387758  0.62119229  1
  O  O341  1  0.01243297  0.49137916  0.12679198  1
  O  O342  1  -0.00180892  0.51025508  0.63084502  1
  O  O343  1  0.50319263  0.00463522  0.11615463  1
  O  O344  1  0.50967387  0.00393129  0.61806568  1
  O  O345  1  0.50144557  0.51071821  0.11826235  1
  O  O346  1  0.50934855  0.50877502  0.62186246  1
  O  O347  1  0.24124508  0.37085740  0.24094269  1
  O  O348  1  0.24723437  0.38264533  0.74288068  1
  O  O349  1  0.23973776  0.88545677  0.24005360  1
  O  O350  1  0.24523655  0.87746494  0.74184577  1
  O  O351  1  0.75587964  0.38349547  0.24281492  1
  O  O352  1  0.73695068  0.36773265  0.74736866  1
  O  O353  1  0.73367857  0.87141013  0.24725479  1
  O  O354  1  0.74087812  0.86753374  0.74254821  1
  O  O355  1  0.24489309  0.11405769  0.25548825  1
  O  O356  1  0.25893808  0.12635116  0.75657908  1
  O  O357  1  0.25243498  0.62699938  0.26753071  1
  O  O358  1  0.25305383  0.61173594  0.75124317  1
  O  O359  1  0.76731563  0.12728960  0.24724262  1
  O  O360  1  0.72755370  0.12763789  0.78211630  1
  O  O361  1  0.75250140  0.62139629  0.26151722  1
  O  O362  1  0.76255974  0.62834899  0.75552428  1
  O  O363  1  0.37877638  0.11253380  0.37598884  1
  O  O364  1  0.36735086  0.12437264  0.86991103  1
  O  O365  1  0.36279356  0.62507769  0.37252203  1
  O  O366  1  0.36006671  0.63053463  0.87151696  1
  O  O367  1  0.88132970  0.12631311  0.36150524  1
  O  O368  1  0.85756007  0.13015695  0.88362581  1
  O  O369  1  0.86786352  0.61803695  0.37642321  1
  O  O370  1  0.86924406  0.61879540  0.86779155  1
  O  O371  1  0.13218451  0.37890310  0.13405660  1
  O  O372  1  0.14019296  0.37379445  0.63079956  1
  O  O373  1  0.12992994  0.88367585  0.13053278  1
  O  O374  1  0.13178822  0.88113306  0.63074037  1
  O  O375  1  0.63701897  0.37614931  0.12184717  1
  O  O376  1  0.62532163  0.38450593  0.63166409  1
  O  O377  1  0.62322461  0.88094041  0.12902583  1
  O  O378  1  0.63132671  0.88300205  0.63119093  1
  O  O379  1  0.11476164  0.25955136  0.25560645  1
  O  O380  1  0.11948686  0.26288935  0.75754142  1
  O  O381  1  0.12732983  0.76039350  0.26082188  1
  O  O382  1  0.11992662  0.75589249  0.75537523  1
  O  O383  1  0.62347104  0.24417689  0.26633092  1
  O  O384  1  0.62048782  0.25470696  0.75842128  1
  O  O385  1  0.61890297  0.75715167  0.25034143  1
  O  O386  1  0.62332443  0.75861143  0.75473207  1
  O  O387  1  0.37615708  0.25217495  0.23684899  1
  O  O388  1  0.38638095  0.23816389  0.75396187  1
  O  O389  1  0.37334650  0.73663079  0.24415702  1
  O  O390  1  0.37821294  0.74726403  0.73587882  1
  O  O391  1  0.88657467  0.24924729  0.24795338  1
  O  O392  1  0.88804742  0.25857373  0.75104920  1
  O  O393  1  0.87403951  0.74527912  0.23119581  1
  O  O394  1  0.87991583  0.74051880  0.73909085  1
  O  O395  1  0.37710761  0.48638177  0.49731242  1
  O  O396  1  0.38272432  0.49110718  1.00278627  1
  O  O397  1  0.38342625  0.99613338  0.49316236  1
  O  O398  1  0.38685091  0.99483600  0.99617316  1
  O  O399  1  0.86865005  0.49147568  0.48625657  1
  O  O400  1  0.87587769  0.49527821  0.98875700  1
  O  O401  1  0.88686101  1.00251793  0.50627550  1
  O  O402  1  0.88633506  0.99428944  1.00630899  1
  O  O403  1  0.11281700  0.00894532  0.00429100  1
  O  O404  1  0.11770845  0.00015330  0.51337921  1
  O  O405  1  0.12291988  0.49418115  0.01901646  1
  O  O406  1  0.12853736  0.51059537  0.49936115  1
  O  O407  1  0.61431819  0.00617564  0.00552226  1
  O  O408  1  0.62038045  0.01017584  0.50648671  1
  O  O409  1  0.61642972  0.50947581  0.00139173  1
  O  O410  1  0.62415131  0.51205650  0.50637162  1
  O  O411  1  0.36720659  0.36970845  0.11980399  1
  O  O412  1  0.36729006  0.37417969  0.61391979  1
  O  O413  1  0.35723467  0.87628665  0.12596567  1
  O  O414  1  0.36833630  0.86968541  0.62413644  1
  O  O415  1  0.86664326  0.37067186  0.12321639  1
  O  O416  1  0.87435392  0.38269556  0.61072760  1
  O  O417  1  0.87660437  0.86598981  0.11634339  1
  O  O418  1  0.86396900  0.86345035  0.63009091  1
  O  O419  1  0.12201043  0.14288799  0.37189121  1
  O  O420  1  0.13159117  0.13146505  0.87966451  1
  O  O421  1  0.13512717  0.63115660  0.38430824  1
  O  O422  1  0.13645193  0.63330493  0.86997883  1
  O  O423  1  0.62519625  0.12763554  0.37763974  1
  O  O424  1  0.62468667  0.13001839  0.89235059  1
  O  O425  1  0.63133797  0.62559054  0.38313214  1
  O  O426  1  0.63202989  0.62655389  0.87814005  1
