# generated using pymatgen
data_V85Zn86O256
_symmetry_space_group_name_H-M   'P 1'
_cell_length_a   16.92637904
_cell_length_b   16.92659083
_cell_length_c   16.93304201
_cell_angle_alpha   89.95933841
_cell_angle_beta   89.92766444
_cell_angle_gamma   89.96179365
_symmetry_Int_Tables_number   1
_chemical_formula_structural   V85Zn86O256
_chemical_formula_sum   'V85 Zn86 O256'
_cell_volume   4851.41014606
_cell_formula_units_Z   1
loop_
 _symmetry_equiv_pos_site_id
 _symmetry_equiv_pos_as_xyz
  1  'x, y, z'
loop_
 _atom_site_type_symbol
 _atom_site_label
 _atom_site_symmetry_multiplicity
 _atom_site_fract_x
 _atom_site_fract_y
 _atom_site_fract_z
 _atom_site_occupancy
  V  V0  1  0.00147634  0.12223110  0.62195811  1
  V  V1  1  0.37554733  0.75297145  0.62662704  1
  V  V2  1  0.49739327  0.87382807  0.87661946  1
  V  V3  1  0.47988112  0.50045892  0.49553002  1
  V  V4  1  0.12577675  0.74925678  0.37227492  1
  V  V5  1  0.12329338  0.12961207  0.49801336  1
  V  V6  1  0.37210491  0.87444605  0.01305125  1
  V  V7  1  0.87525117  0.50255779  0.37444304  1
  V  V8  1  0.86948174  -0.00690816  0.38039520  1
  V  V9  1  0.49914566  0.37052606  0.87231726  1
  V  V10  1  0.62012788  0.11969232  0.00990537  1
  V  V11  1  -0.00002203  0.49964776  0.50052582  1
  V  V12  1  0.86748665  0.25474354  0.62720983  1
  V  V13  1  0.62562109  0.87037409  0.74948398  1
  V  V14  1  0.00650219  0.24900362  0.25394128  1
  V  V15  1  0.12578952  0.87506115  0.24678644  1
  V  V16  1  0.87760975  0.75457215  0.62126997  1
  V  V17  1  0.75550490  0.86444803  0.12320823  1
  V  V18  1  -0.00020435  -0.00624902  0.50192080  1
  V  V19  1  0.49940067  0.25138378  0.24637245  1
  V  V20  1  0.24174497  0.74753202  0.00395364  1
  V  V21  1  0.87571855  0.62933761  0.24091122  1
  V  V22  1  0.25964258  0.50065389  0.25084121  1
  V  V23  1  0.75113009  0.62854433  0.37233937  1
  V  V24  1  0.00200776  0.12183580  0.12650629  1
  V  V25  1  0.61792881  0.50193684  0.12427268  1
  V  V26  1  0.61411900  -0.00076282  0.62229808  1
  V  V27  1  0.00309171  0.50187335  -0.00113233  1
  V  V28  1  0.24405447  0.13515292  0.37482646  1
  V  V29  1  0.37333171  0.00386366  0.37955559  1
  V  V30  1  0.74645823  0.12435564  0.87554796  1
  V  V31  1  0.62325155  0.75431497  0.37107305  1
  V  V32  1  0.48722862  0.37844882  0.37774394  1
  V  V33  1  0.63539761  0.75205574  0.87798828  1
  V  V34  1  0.12869006  0.50071611  0.12362850  1
  V  V35  1  0.37842526  0.87803653  0.50153015  1
  V  V36  1  0.36315646  0.37305527  0.00764479  1
  V  V37  1  0.87283397  -0.00087512  0.88652725  1
  V  V38  1  0.37502050  0.73241070  0.12639986  1
  V  V39  1  0.62257303  0.62453275  0.49789223  1
  V  V40  1  0.25671048  0.25825471  0.50742913  1
  V  V41  1  0.05587897  0.05540574  -0.04181879  1
  V  V42  1  0.61851429  0.88186858  0.23675214  1
  V  V43  1  0.24869628  -0.00179662  0.25149224  1
  V  V44  1  0.37510068  0.62574665  0.75200485  1
  V  V45  1  0.00751027  0.87342016  0.87660174  1
  V  V46  1  0.75242262  0.62473655  0.88390474  1
  V  V47  1  0.24009917  0.22934967  0.00234155  1
  V  V48  1  0.00180799  0.37082421  0.37688695  1
  V  V49  1  0.74646350  0.00425698  0.24565211  1
  V  V50  1  0.49489848  0.13750866  0.62932485  1
  V  V51  1  0.75080719  0.87401088  0.62136669  1
  V  V52  1  0.00006624  0.25168080  0.74894561  1
  V  V53  1  0.49834832  0.88024731  0.37439042  1
  V  V54  1  0.37352716  0.00539298  0.87517450  1
  V  V55  1  0.87459924  0.86086542  0.00279037  1
  V  V56  1  0.49748342  0.62553651  0.62411255  1
  V  V57  1  0.87419098  0.25056209  0.12687602  1
  V  V58  1  0.00235309  0.37341471  0.87703633  1
  V  V59  1  -0.00337394  0.75288626  0.24299056  1
  V  V60  1  0.24334613  0.62337475  0.87825493  1
  V  V61  1  0.13101451  0.62292374  0.49712307  1
  V  V62  1  0.87787791  0.62700798  0.75402837  1
  V  V63  1  0.12535090  -0.00035518  0.12636483  1
  V  V64  1  0.13321269  0.49312751  0.62392951  1
  V  V65  1  0.13359890  0.37175281  0.74877413  1
  V  V66  1  0.61812467  0.62966399  0.00428859  1
  V  V67  1  0.74562540  0.24642479  0.49483015  1
  V  V68  1  0.86476943  0.37808768  0.50501683  1
  V  V69  1  0.00444273  0.62894979  0.11825418  1
  V  V70  1  0.26279387  0.62310126  0.37011505  1
  V  V71  1  0.61962276  0.24896878  0.86791893  1
  V  V72  1  0.87134121  0.12412197  0.74907109  1
  V  V73  1  0.61998662  0.12095447  0.49232507  1
  V  V74  1  0.24085369  0.87876314  0.63025490  1
  V  V75  1  0.49533403  0.73923408  0.24578480  1
  V  V76  1  0.86990400  0.12641066  0.26092999  1
  V  V77  1  0.74620168  0.25254131  0.00100759  1
  V  V78  1  0.37662508  0.49861199  0.87666120  1
  V  V79  1  0.74908242  -0.00150107  0.74805739  1
  V  V80  1  0.24039896  0.00310829  0.74990687  1
  V  V81  1  0.75056867  0.49879583  0.24648855  1
  V  V82  1  0.12739710  0.37494812  0.24691307  1
  V  V83  1  0.00423776  0.62700364  0.62575160  1
  V  V84  1  0.75534999  0.75665963  0.49645524  1
  Zn  Zn85  1  0.87526666  0.49816463  0.87460375  1
  Zn  Zn86  1  0.37157859  0.27626862  0.64358048  1
  Zn  Zn87  1  0.25828738  0.49277491  0.74275729  1
  Zn  Zn88  1  0.49700715  0.50036999  0.00584355  1
  Zn  Zn89  1  0.62449624  0.37554499  0.25216863  1
  Zn  Zn90  1  0.12515436  0.23200262  0.87849698  1
  Zn  Zn91  1  0.01155863  0.75955880  0.74490970  1
  Zn  Zn92  1  0.24993021  0.75259502  0.49825766  1
  Zn  Zn93  1  0.36731154  0.24861192  0.12792767  1
  Zn  Zn94  1  0.37304632  0.12794646  0.75377717  1
  Zn  Zn95  1  0.49837999  0.11348996  0.13345479  1
  Zn  Zn96  1  0.37385231  0.12796951  0.25003275  1
  Zn  Zn97  1  0.87561307  0.37610180  0.00108757  1
  Zn  Zn98  1  -0.00346590  0.87361994  0.37776544  1
  Zn  Zn99  1  0.74857625  0.37683096  0.12388066  1
  Zn  Zn100  1  0.74802454  0.49654701  0.74645680  1
  Zn  Zn101  1  0.50275983  -0.00508805  0.00967959  1
  Zn  Zn102  1  0.63122822  0.37364317  0.74125380  1
  Zn  Zn103  1  0.63153036  0.48948473  0.62331232  1
  Zn  Zn104  1  0.50365603  0.74902171  0.75152914  1
  Zn  Zn105  1  0.62469027  0.25358212  0.37457999  1
  Zn  Zn106  1  0.12869246  0.74947987  0.86881587  1
  Zn  Zn107  1  0.18826210  0.18678305  0.18375645  1
  Zn  Zn108  1  0.18726353  0.18710737  0.68545305  1
  Zn  Zn109  1  0.18902813  0.68464626  0.18526069  1
  Zn  Zn110  1  0.19005502  0.68784931  0.68882137  1
  Zn  Zn111  1  0.68595066  0.19038041  0.19054662  1
  Zn  Zn112  1  0.68527667  0.18862484  0.68250777  1
  Zn  Zn113  1  0.68397205  0.68898121  0.18613593  1
  Zn  Zn114  1  0.69665006  0.66397594  0.68039820  1
  Zn  Zn115  1  0.31204646  0.31416446  0.31315596  1
  Zn  Zn116  1  0.31057519  0.30330853  0.82201786  1
  Zn  Zn117  1  0.31198605  0.81247104  0.30848679  1
  Zn  Zn118  1  0.31144125  0.81335643  0.81459195  1
  Zn  Zn119  1  0.81410616  0.31443143  0.31547530  1
  Zn  Zn120  1  0.80973291  0.31667690  0.81411547  1
  Zn  Zn121  1  0.81242821  0.81646592  0.30757834  1
  Zn  Zn122  1  0.81655506  0.81148964  0.81072950  1
  Zn  Zn123  1  0.18501138  0.43712529  0.42765928  1
  Zn  Zn124  1  0.18649220  0.43724430  0.93521118  1
  Zn  Zn125  1  0.18541320  0.94018283  0.44051644  1
  Zn  Zn126  1  0.19730744  0.93423781  0.93636054  1
  Zn  Zn127  1  0.68216635  0.43798960  0.43482355  1
  Zn  Zn128  1  0.68682523  0.43901998  0.93459850  1
  Zn  Zn129  1  0.68635265  0.94062441  0.43303224  1
  Zn  Zn130  1  0.68900066  0.93599048  0.94078723  1
  Zn  Zn131  1  0.31643015  0.06112121  0.06769385  1
  Zn  Zn132  1  0.31036519  0.06203169  0.56167321  1
  Zn  Zn133  1  0.30895929  0.56009040  0.06199138  1
  Zn  Zn134  1  0.31218652  0.43578822  0.55393405  1
  Zn  Zn135  1  0.80888036  0.06393437  0.06778539  1
  Zn  Zn136  1  0.80914801  0.06423538  0.56068750  1
  Zn  Zn137  1  0.81290742  0.56450533  0.06085282  1
  Zn  Zn138  1  0.81270856  0.56828254  0.56338075  1
  Zn  Zn139  1  0.43932724  0.43413450  0.18752673  1
  Zn  Zn140  1  0.44993630  0.44161449  0.68926174  1
  Zn  Zn141  1  0.43465624  0.93914899  0.18818338  1
  Zn  Zn142  1  0.43507358  0.93947438  0.69198233  1
  Zn  Zn143  1  0.93883178  0.43797582  0.18521623  1
  Zn  Zn144  1  0.93949312  0.43969357  0.68853605  1
  Zn  Zn145  1  0.93588682  0.93963477  0.18730523  1
  Zn  Zn146  1  0.93562137  0.93790475  0.68923538  1
  Zn  Zn147  1  0.06020929  0.06272098  0.31743109  1
  Zn  Zn148  1  0.05831640  0.05363781  0.79219306  1
  Zn  Zn149  1  0.06319923  0.56246932  0.30997342  1
  Zn  Zn150  1  0.06357682  0.56098709  0.80905869  1
  Zn  Zn151  1  0.56046401  0.06232420  0.31116761  1
  Zn  Zn152  1  0.56037719  0.06068971  0.81304301  1
  Zn  Zn153  1  0.56189205  0.55950023  0.31409051  1
  Zn  Zn154  1  0.56354106  0.56027788  0.81420062  1
  Zn  Zn155  1  0.43854114  0.18909675  0.43805806  1
  Zn  Zn156  1  0.43612335  0.19028793  0.94163695  1
  Zn  Zn157  1  0.43716665  0.69311395  0.43781990  1
  Zn  Zn158  1  0.43845609  0.68953077  0.93868179  1
  Zn  Zn159  1  0.93479964  0.18809398  0.43901835  1
  Zn  Zn160  1  0.93213057  0.19356876  0.93505522  1
  Zn  Zn161  1  0.94018583  0.68803294  0.43523074  1
  Zn  Zn162  1  0.94120281  0.68953484  0.93826674  1
  Zn  Zn163  1  0.06642573  0.31155079  0.06379310  1
  Zn  Zn164  1  0.06213475  0.30914158  0.56147403  1
  Zn  Zn165  1  0.06142308  0.81844622  0.06013717  1
  Zn  Zn166  1  0.06439497  0.81211352  0.56021991  1
  Zn  Zn167  1  0.56042708  0.31658159  0.06137573  1
  Zn  Zn168  1  0.55744765  0.31564133  0.56031265  1
  Zn  Zn169  1  0.56003409  0.81066726  0.06235141  1
  Zn  Zn170  1  0.56204621  0.81232627  0.55997695  1
  O  O171  1  0.10968699  0.11805254  0.13078251  1
  O  O172  1  0.10800134  0.12905093  0.61931966  1
  O  O173  1  0.11349510  0.61539607  0.13032581  1
  O  O174  1  0.12367909  0.61830378  0.61524959  1
  O  O175  1  0.62456963  0.12975348  0.11194420  1
  O  O176  1  0.61397752  0.11863335  0.61887724  1
  O  O177  1  0.63241139  0.61830769  0.11444468  1
  O  O178  1  0.60521561  0.64497390  0.61214883  1
  O  O179  1  0.38755686  0.37753425  0.37407134  1
  O  O180  1  0.37884543  0.38135357  0.88347168  1
  O  O181  1  0.37817843  0.87929629  0.38147738  1
  O  O182  1  0.38320877  0.87972954  0.88187995  1
  O  O183  1  0.88332093  0.38300994  0.38315696  1
  O  O184  1  0.88997145  0.37475154  0.87804182  1
  O  O185  1  0.87784653  0.88812271  0.37021260  1
  O  O186  1  0.87868353  0.88191674  0.88418767  1
  O  O187  1  0.25377712  0.00965161  0.37112805  1
  O  O188  1  0.25909842  -0.00865424  0.85901288  1
  O  O189  1  0.24590124  0.50877756  0.36076457  1
  O  O190  1  0.26171746  0.50575603  0.87383430  1
  O  O191  1  0.75830780  -0.00450920  0.36162495  1
  O  O192  1  0.75510060  0.00398352  0.86933622  1
  O  O193  1  0.75535000  0.50874103  0.36752846  1
  O  O194  1  0.75617855  0.51121138  0.87580959  1
  O  O195  1  0.23694257  0.50568835  0.13505281  1
  O  O196  1  0.23652656  0.49752551  0.62226531  1
  O  O197  1  0.23498779  1.00812492  0.13712638  1
  O  O198  1  0.25668909  0.98696266  0.63427412  1
  O  O199  1  0.74578760  0.49943947  0.13216044  1
  O  O200  1  0.73252739  0.54886732  0.63785442  1
  O  O201  1  0.75427225  0.99126481  0.13972363  1
  O  O202  1  0.74363074  0.99323506  0.62892191  1
  O  O203  1  0.00203516  0.36759821  0.25678713  1
  O  O204  1  0.00553089  0.36942196  0.75713547  1
  O  O205  1  0.00507928  0.86735387  0.25118539  1
  O  O206  1  -0.00900560  0.87844159  0.77107691  1
  O  O207  1  0.50126118  0.37112000  0.26076539  1
  O  O208  1  0.50515995  0.38045359  0.76900196  1
  O  O209  1  0.50548475  0.86927739  0.25508625  1
  O  O210  1  0.50762101  0.87383842  0.75858896  1
  O  O211  1  0.49770261  0.13675753  0.25308722  1
  O  O212  1  0.50174878  0.11948602  0.73229505  1
  O  O213  1  0.50490240  0.64044395  0.25672396  1
  O  O214  1  0.49164821  0.62698803  0.74318470  1
  O  O215  1  0.99277904  0.13214595  0.24640383  1
  O  O216  1  0.99087378  0.12960944  0.74058811  1
  O  O217  1  0.99406059  0.63230333  0.24203758  1
  O  O218  1  0.99497898  0.62741835  0.74286861  1
  O  O219  1  0.36224643  0.25898204  0.00018282  1
  O  O220  1  0.35756593  0.24535599  0.50203477  1
  O  O221  1  0.37177011  0.75391618  0.01150265  1
  O  O222  1  0.37070594  0.75898350  0.50824188  1
  O  O223  1  0.86520558  0.24941922  0.01012555  1
  O  O224  1  0.86824523  0.25773337  0.50707663  1
  O  O225  1  0.87373654  0.76151636  -0.00153511  1
  O  O226  1  0.86722830  0.74544712  0.50606285  1
  O  O227  1  0.13318337  0.23849754  0.50281914  1
  O  O228  1  0.13420085  0.24591278  1.00079542  1
  O  O229  1  0.12615804  0.74290653  0.48925563  1
  O  O230  1  0.13885271  0.75569559  0.99898970  1
  O  O231  1  0.63004719  0.23996990  0.49944878  1
  O  O232  1  0.63106204  0.24181175  0.99487966  1
  O  O233  1  0.62973038  0.74430685  0.49011444  1
  O  O234  1  0.62227093  0.74310952  0.99191182  1
  O  O235  1  0.50053605  0.25325514  0.13938493  1
  O  O236  1  0.49152386  0.23962513  0.62139590  1
  O  O237  1  0.48602402  0.75305263  0.13211215  1
  O  O238  1  0.48760586  0.75028744  0.62593378  1
  O  O239  1  0.99332869  0.24328203  0.13256858  1
  O  O240  1  0.98749438  0.24326506  0.62806031  1
  O  O241  1  1.00691686  0.74335770  0.13342373  1
  O  O242  1  0.99404030  0.74684115  0.62300330  1
  O  O243  1  -0.00812582  0.25886796  0.36613314  1
  O  O244  1  0.00410030  0.25598594  0.86951095  1
  O  O245  1  0.01040917  0.75075572  0.36485734  1
  O  O246  1  0.00479820  0.76308844  0.87582755  1
  O  O247  1  0.49866757  0.26210562  0.36945871  1
  O  O248  1  0.50882572  0.25647028  0.88076339  1
  O  O249  1  0.50105043  0.76258140  0.36688992  1
  O  O250  1  0.50788386  0.76085424  0.87419510  1
  O  O251  1  0.24118568  0.13163656  0.49629661  1
  O  O252  1  0.25001262  0.13058971  1.00084339  1
  O  O253  1  0.23550008  0.62807891  0.48710965  1
  O  O254  1  0.25686417  0.63373482  0.98979997  1
  O  O255  1  0.73397408  0.13436326  0.50657244  1
  O  O256  1  0.74142207  0.13342982  0.99811947  1
  O  O257  1  0.74339481  0.63852385  0.49041158  1
  O  O258  1  0.74421441  0.62568059  0.99022326  1
  O  O259  1  0.26144068  0.37584102  -0.00198768  1
  O  O260  1  0.24411844  0.36334812  0.49208136  1
  O  O261  1  0.26254050  0.86106711  -0.00531366  1
  O  O262  1  0.25943667  0.87614586  0.50928727  1
  O  O263  1  0.75227147  0.36270293  -0.00064763  1
  O  O264  1  0.76074913  0.37334332  0.49725392  1
  O  O265  1  0.75545581  0.87980314  0.01613671  1
  O  O266  1  0.74310261  0.86313455  0.50222861  1
  O  O267  1  0.12739089  0.49250032  0.24249892  1
  O  O268  1  0.12682256  0.49095527  0.73972475  1
  O  O269  1  0.12740084  0.99359122  0.24782785  1
  O  O270  1  0.14093201  0.99206485  0.74835415  1
  O  O271  1  0.63563447  0.50401383  0.24242749  1
  O  O272  1  0.62687587  0.49948439  0.74637666  1
  O  O273  1  0.63258124  0.99107461  0.25610334  1
  O  O274  1  0.63053485  0.99233735  0.74243586  1
  O  O275  1  0.36364439  -0.00134028  0.26204836  1
  O  O276  1  0.36832606  0.00426050  0.75899327  1
  O  O277  1  0.35794798  0.49580430  0.24061727  1
  O  O278  1  0.37673434  0.50837555  0.75876121  1
  O  O279  1  0.86955417  0.00873598  0.25714788  1
  O  O280  1  0.86846554  0.00552799  0.76093827  1
  O  O281  1  0.87036407  0.50835212  0.25265513  1
  O  O282  1  0.87600255  0.51622048  0.74923414  1
  O  O283  1  0.10871750  0.37926996  0.36362825  1
  O  O284  1  0.11344507  0.37701305  0.86646356  1
  O  O285  1  0.12282929  0.86785645  0.36601240  1
  O  O286  1  0.10952265  0.87936476  0.88225321  1
  O  O287  1  0.61485613  0.37355485  0.37172340  1
  O  O288  1  0.61625392  0.36398393  0.88121180  1
  O  O289  1  0.61542056  0.87291088  0.36689333  1
  O  O290  1  0.62042113  0.86951075  0.87300369  1
  O  O291  1  0.37979210  0.12941095  0.13113734  1
  O  O292  1  0.39357114  0.11458120  0.62086128  1
  O  O293  1  0.37806613  0.63387695  0.12164151  1
  O  O294  1  0.38622924  0.63606277  0.63312998  1
  O  O295  1  0.88242204  0.13311697  0.13416842  1
  O  O296  1  0.88049339  0.13329607  0.62811041  1
  O  O297  1  0.88411523  0.62201381  0.13522551  1
  O  O298  1  0.88349716  0.63752714  0.63096832  1
  O  O299  1  0.24885700  0.24868581  0.11007385  1
  O  O300  1  0.24999700  0.25011756  0.61076017  1
  O  O301  1  0.26226491  0.74303501  0.11816532  1
  O  O302  1  0.26133213  0.75987152  0.62379536  1
  O  O303  1  0.75741079  0.25156611  0.11970772  1
  O  O304  1  0.76198366  0.24634773  0.61567271  1
  O  O305  1  0.75393334  0.76549319  0.13435349  1
  O  O306  1  0.75774748  0.75109585  0.61510184  1
  O  O307  1  0.25279523  0.23932668  0.38347800  1
  O  O308  1  0.23986937  0.25082651  0.89520241  1
  O  O309  1  0.23878489  0.74450898  0.37113461  1
  O  O310  1  0.25176357  0.74096671  0.88381963  1
  O  O311  1  0.75112096  0.25360382  0.39031750  1
  O  O312  1  0.74608534  0.24216752  0.88479739  1
  O  O313  1  0.74623203  0.74869296  0.37742024  1
  O  O314  1  0.74042366  0.74938622  0.87551384  1
  O  O315  1  -0.00816319  0.12322199  0.00966940  1
  O  O316  1  0.00379663  0.12101096  0.50437207  1
  O  O317  1  -0.00155687  0.61906581  0.00971639  1
  O  O318  1  0.01045841  0.62052152  0.50325571  1
  O  O319  1  0.51345783  0.12557969  0.00234944  1
  O  O320  1  0.51272470  0.12805488  0.50979670  1
  O  O321  1  0.51396207  0.62154335  -0.00519070  1
  O  O322  1  0.50391378  0.62219794  0.50186662  1
  O  O323  1  0.50054356  0.38647241  0.48651329  1
  O  O324  1  0.48797653  0.37679116  0.99108195  1
  O  O325  1  0.48757906  0.87095560  0.49031784  1
  O  O326  1  0.49117638  0.87405840  0.99321908  1
  O  O327  1  0.99251853  0.37833774  0.49262438  1
  O  O328  1  1.00068996  0.38040620  0.99345151  1
  O  O329  1  1.00455842  0.88957974  0.49933429  1
  O  O330  1  0.98855418  0.87596872  0.98981966  1
  O  O331  1  0.50187390  0.49070907  0.38212688  1
  O  O332  1  0.48802766  0.49616465  0.88083711  1
  O  O333  1  0.48935045  0.98821469  0.36885614  1
  O  O334  1  0.49533021  0.98748110  0.87956250  1
  O  O335  1  0.99344211  0.49518070  0.38040931  1
  O  O336  1  1.00024804  0.49446995  0.88320528  1
  O  O337  1  0.98966889  0.99906847  0.38355762  1
  O  O338  1  0.99348720  0.99700135  0.88222999  1
  O  O339  1  0.01024582  0.00798034  0.12885962  1
  O  O340  1  -0.01095047  0.00972897  0.61615352  1
  O  O341  1  0.00713810  0.50772304  0.11976188  1
  O  O342  1  0.00848351  0.50725976  0.61771525  1
  O  O343  1  0.50216247  -0.00128295  0.12384443  1
  O  O344  1  0.51239207  -0.00331539  0.62447183  1
  O  O345  1  0.51360564  0.49959936  0.12715632  1
  O  O346  1  0.50544595  0.51366259  0.61192591  1
  O  O347  1  0.23828917  0.38663036  0.25874007  1
  O  O348  1  0.23632899  0.37452630  0.75835974  1
  O  O349  1  0.24028405  0.88896550  0.25622612  1
  O  O350  1  0.25849573  0.88192496  0.73621388  1
  O  O351  1  0.75295723  0.38963240  0.25116504  1
  O  O352  1  0.74743835  0.38213415  0.75296128  1
  O  O353  1  0.74258791  0.88167158  0.23993720  1
  O  O354  1  0.74509114  0.87859677  0.74349443  1
  O  O355  1  0.24652484  0.11653253  0.25941100  1
  O  O356  1  0.24903769  0.10707137  0.74072671  1
  O  O357  1  0.24362973  0.61076371  0.25701238  1
  O  O358  1  0.26403971  0.62091259  0.75486017  1
  O  O359  1  0.75838457  0.11856651  0.24529617  1
  O  O360  1  0.75275860  0.11920990  0.75351471  1
  O  O361  1  0.75783492  0.62001369  0.25209486  1
  O  O362  1  0.76289005  0.63335399  0.76935512  1
  O  O363  1  0.36736042  0.11756952  0.37533425  1
  O  O364  1  0.38440256  0.10829875  0.87878092  1
  O  O365  1  0.36126263  0.63669088  0.37432941  1
  O  O366  1  0.37227376  0.61921981  0.86926597  1
  O  O367  1  0.87738944  0.11882144  0.36469771  1
  O  O368  1  0.86753506  0.11841304  0.87083036  1
  O  O369  1  0.87250513  0.62102945  0.36411314  1
  O  O370  1  0.87198725  0.62636264  0.87006507  1
  O  O371  1  0.11609207  0.38478081  0.13904167  1
  O  O372  1  0.11456791  0.38183080  0.63510122  1
  O  O373  1  0.11988099  0.88331529  0.13841015  1
  O  O374  1  0.14268542  0.87163487  0.61947140  1
  O  O375  1  0.62936727  0.38554200  0.12814017  1
  O  O376  1  0.62129119  0.37655766  0.62552534  1
  O  O377  1  0.63483529  0.87059888  0.13197953  1
  O  O378  1  0.63029301  0.87985959  0.62736523  1
  O  O379  1  0.11356798  0.25705946  0.24486043  1
  O  O380  1  0.11848407  0.25385381  0.75298336  1
  O  O381  1  0.12034083  0.75693593  0.25279719  1
  O  O382  1  0.12434827  0.74814251  0.75423268  1
  O  O383  1  0.61726189  0.25305735  0.25539314  1
  O  O384  1  0.63106078  0.24786326  0.76512519  1
  O  O385  1  0.61691966  0.76009070  0.25296997  1
  O  O386  1  0.62565151  0.75546764  0.75871171  1
  O  O387  1  0.38190070  0.25081994  0.24819118  1
  O  O388  1  0.36409303  0.23987052  0.74913940  1
  O  O389  1  0.37911441  0.75467181  0.23442133  1
  O  O390  1  0.37735421  0.74399997  0.74471685  1
  O  O391  1  0.88070641  0.24443710  0.24586217  1
  O  O392  1  0.87872194  0.24457835  0.74400618  1
  O  O393  1  0.88616456  0.74269177  0.25482721  1
  O  O394  1  0.88159744  0.74205746  0.74198525  1
  O  O395  1  0.38120483  0.50957206  0.49712657  1
  O  O396  1  0.37452732  0.49007412  0.99600240  1
  O  O397  1  0.36981806  0.99312284  0.48737815  1
  O  O398  1  0.37161407  0.98888620  0.99395277  1
  O  O399  1  0.87757051  0.49612894  0.49832917  1
  O  O400  1  0.88935024  0.49681903  1.00178092  1
  O  O401  1  0.88125536  1.00948294  0.48869205  1
  O  O402  1  0.86644315  0.99786591  0.98955632  1
  O  O403  1  0.12790676  -0.00482954  0.00963912  1
  O  O404  1  0.11334470  0.01439543  0.49616647  1
  O  O405  1  0.11440901  0.49353492  0.00983032  1
  O  O406  1  0.12000084  0.50429844  0.50280413  1
  O  O407  1  0.62650237  0.01691538  -0.00531962  1
  O  O408  1  0.63119371  0.01241022  0.50701650  1
  O  O409  1  0.62511967  0.50811654  0.00836108  1
  O  O410  1  0.62497513  0.51822219  0.49925841  1
  O  O411  1  0.37820974  0.37273888  0.10995880  1
  O  O412  1  0.38279017  0.38472901  0.62199395  1
  O  O413  1  0.37356206  0.86960578  0.11506969  1
  O  O414  1  0.37264518  0.87124231  0.61805349  1
  O  O415  1  0.87461595  0.36141507  0.12531212  1
  O  O416  1  0.88246876  0.36791625  0.61568357  1
  O  O417  1  0.86525417  0.87907707  0.11833270  1
  O  O418  1  0.86890302  0.86215867  0.62939062  1
  O  O419  1  0.13224464  0.12441268  0.38329570  1
  O  O420  1  0.10466791  0.11176922  0.88400603  1
  O  O421  1  0.12670152  0.63237116  0.37820234  1
  O  O422  1  0.14049284  0.62029813  0.87193119  1
  O  O423  1  0.61937476  0.12603148  0.38975051  1
  O  O424  1  0.62821504  0.13071889  0.88271030  1
  O  O425  1  0.62995050  0.63363943  0.37967221  1
  O  O426  1  0.63305438  0.63316175  0.88162227  1
