# generated using pymatgen
data_V85Zn86O256
_symmetry_space_group_name_H-M   'P 1'
_cell_length_a   16.92711280
_cell_length_b   16.93487112
_cell_length_c   16.93652436
_cell_angle_alpha   89.98360178
_cell_angle_beta   89.99659155
_cell_angle_gamma   90.00074345
_symmetry_Int_Tables_number   1
_chemical_formula_structural   V85Zn86O256
_chemical_formula_sum   'V85 Zn86 O256'
_cell_volume   4854.99801487
_cell_formula_units_Z   1
loop_
 _symmetry_equiv_pos_site_id
 _symmetry_equiv_pos_as_xyz
  1  'x, y, z'
loop_
 _atom_site_type_symbol
 _atom_site_label
 _atom_site_symmetry_multiplicity
 _atom_site_fract_x
 _atom_site_fract_y
 _atom_site_fract_z
 _atom_site_occupancy
  V  V0  1  0.12365469  -0.00402533  0.12992854  1
  V  V1  1  0.75142685  0.50228712  0.75061918  1
  V  V2  1  0.43352629  0.69258741  0.18652514  1
  V  V3  1  0.87055584  0.00099613  0.87312862  1
  V  V4  1  0.25005282  0.75199141  0.49922624  1
  V  V5  1  0.25918324  0.62662179  0.37081391  1
  V  V6  1  0.74955827  0.75007943  0.00110121  1
  V  V7  1  0.89404625  0.50104468  0.38177214  1
  V  V8  1  0.87977429  -0.00048565  0.38381883  1
  V  V9  1  0.49628269  0.74798800  0.74764125  1
  V  V10  1  0.87688360  0.62297405  0.25138704  1
  V  V11  1  0.25230855  0.50412233  0.24258809  1
  V  V12  1  0.62207569  -0.00239537  0.61390493  1
  V  V13  1  0.37630907  0.87245885  0.00466190  1
  V  V14  1  0.87528664  0.12452768  0.25040962  1
  V  V15  1  0.00873465  0.62077680  0.12615108  1
  V  V16  1  -0.00076572  0.12793932  0.62389626  1
  V  V17  1  0.49824224  0.48810695  0.49832292  1
  V  V18  1  0.87643533  0.13516790  0.74862399  1
  V  V19  1  0.25275349  0.74855503  0.00160400  1
  V  V20  1  0.12350557  0.87427628  0.75091954  1
  V  V21  1  0.38093285  0.12428476  0.24302986  1
  V  V22  1  0.62639261  0.75490336  0.36500557  1
  V  V23  1  0.11570507  -0.00276290  0.62157916  1
  V  V24  1  0.37469256  0.48826862  0.37390885  1
  V  V25  1  0.87661675  0.25323089  0.61862150  1
  V  V26  1  0.24825812  0.87238976  0.13049476  1
  V  V27  1  0.90043933  0.37766811  0.49625725  1
  V  V28  1  0.62454947  0.74356790  0.87482120  1
  V  V29  1  0.50522866  0.36466671  0.87780716  1
  V  V30  1  0.12334123  0.12669983  -0.00237923  1
  V  V31  1  0.38530397  0.87758435  0.50147748  1
  V  V32  1  0.87400756  0.75430452  0.63267484  1
  V  V33  1  0.75137735  0.62532930  0.87281464  1
  V  V34  1  0.74952304  -0.00000834  0.74211118  1
  V  V35  1  0.62342373  0.13083110  -0.00484602  1
  V  V36  1  0.00392316  0.75841431  0.25069504  1
  V  V37  1  0.14329702  0.37641048  0.74705814  1
  V  V38  1  0.49434437  0.12585663  0.61839396  1
  V  V39  1  0.12336247  0.12333070  0.49966029  1
  V  V40  1  0.75113421  0.37449664  0.61233050  1
  V  V41  1  0.87919373  0.50694610  0.87364537  1
  V  V42  1  0.37438624  0.38495824  -0.00663933  1
  V  V43  1  0.37383642  0.74796263  0.62700795  1
  V  V44  1  0.25100476  0.12898583  0.37461352  1
  V  V45  1  0.74952528  0.12753865  0.38081406  1
  V  V46  1  0.50431012  0.87334679  0.36413868  1
  V  V47  1  0.50038040  0.87361934  0.87589464  1
  V  V48  1  0.12194861  0.38029570  0.25547369  1
  V  V49  1  0.00364159  0.25306816  0.25593476  1
  V  V50  1  0.38241024  0.00049701  0.37802473  1
  V  V51  1  0.25126258  0.00001321  0.75025992  1
  V  V52  1  0.75262296  0.62410643  0.37817633  1
  V  V53  1  -0.00241925  -0.00031197  -0.00017707  1
  V  V54  1  0.50331589  0.25720982  0.24716266  1
  V  V55  1  0.38026164  0.24813832  0.12024648  1
  V  V56  1  0.26245461  0.25467053  0.50931980  1
  V  V57  1  0.75182304  0.76029193  0.50434263  1
  V  V58  1  0.63120326  0.36408955  0.75439213  1
  V  V59  1  0.49542803  0.62134765  0.62374616  1
  V  V60  1  0.62756607  0.49839556  0.62516671  1
  V  V61  1  0.50819091  0.50490624  0.00118892  1
  V  V62  1  -0.00140376  0.87364991  0.87582633  1
  V  V63  1  0.24980786  0.87475856  0.62404051  1
  V  V64  1  0.12386706  0.74554695  0.87739142  1
  V  V65  1  -0.00233560  0.36804053  0.86245906  1
  V  V66  1  0.62184511  0.13500488  0.49831764  1
  V  V67  1  -0.00469186  0.61626932  0.62978345  1
  V  V68  1  0.00558446  0.87942775  0.38338886  1
  V  V69  1  0.24058473  0.37855340  0.12131870  1
  V  V70  1  0.37453633  0.13197678  0.74734807  1
  V  V71  1  0.00348160  0.49631956  0.00500254  1
  V  V72  1  0.25975985  0.61483094  0.87141150  1
  V  V73  1  0.74404027  0.87381888  0.12876354  1
  V  V74  1  0.12085195  0.61661007  0.49950679  1
  V  V75  1  0.24902811  0.00041338  0.24923818  1
  V  V76  1  0.62970813  0.25840728  0.37088166  1
  V  V77  1  0.24858991  0.24950778  -0.00260394  1
  V  V78  1  0.61964881  0.00344764  0.12814983  1
  V  V79  1  -0.00118428  0.12518572  0.12578249  1
  V  V80  1  0.87494014  0.75103224  0.12668268  1
  V  V81  1  0.12791836  0.75488612  0.37201893  1
  V  V82  1  0.74510642  -0.00371645  0.25228743  1
  V  V83  1  0.49883715  0.00376753  0.00291765  1
  V  V84  1  0.62945029  0.87534527  0.74438886  1
  Zn  Zn85  1  -0.00572248  0.74252043  0.75518377  1
  Zn  Zn86  1  0.87804538  0.87994755  0.50716869  1
  Zn  Zn87  1  0.50367692  0.24644641  0.74836078  1
  Zn  Zn88  1  0.31944742  0.55295421  0.71808656  1
  Zn  Zn89  1  0.37466017  -0.00053881  0.87400841  1
  Zn  Zn90  1  0.12866703  0.61798165  0.00309990  1
  Zn  Zn91  1  0.87487995  0.37064247  -0.00082692  1
  Zn  Zn92  1  0.86919766  0.25372973  0.12610020  1
  Zn  Zn93  1  0.13632951  0.50332575  0.62958863  1
  Zn  Zn94  1  0.24936113  0.12390217  0.87334762  1
  Zn  Zn95  1  0.62385381  0.50029622  0.14336166  1
  Zn  Zn96  1  0.74848719  0.37648792  0.12703571  1
  Zn  Zn97  1  0.12287617  0.25647992  0.38180713  1
  Zn  Zn98  1  0.50803154  0.38038884  0.36743354  1
  Zn  Zn99  1  0.87239202  0.87722383  0.00186500  1
  Zn  Zn100  1  0.62562391  0.62706322  0.50006724  1
  Zn  Zn101  1  0.26852560  0.38737612  0.62187207  1
  Zn  Zn102  1  0.73887563  0.48512729  0.25765179  1
  Zn  Zn103  1  0.11912054  0.24538702  0.86426177  1
  Zn  Zn104  1  0.75226620  0.25522825  -0.00399523  1
  Zn  Zn105  1  0.62148326  0.62807744  0.01450721  1
  Zn  Zn106  1  0.73819371  0.13248944  0.86748734  1
  Zn  Zn107  1  0.18703014  0.18964829  0.18582822  1
  Zn  Zn108  1  0.18640442  0.18971952  0.68772117  1
  Zn  Zn109  1  0.19200648  0.69024641  0.18942733  1
  Zn  Zn110  1  0.18262224  0.68786647  0.68957609  1
  Zn  Zn111  1  0.68710088  0.18804574  0.18382323  1
  Zn  Zn112  1  0.69183191  0.18745970  0.67863316  1
  Zn  Zn113  1  0.68541737  0.67803433  0.18969504  1
  Zn  Zn114  1  0.68746852  0.68515462  0.68739114  1
  Zn  Zn115  1  0.30984645  0.31161296  0.30874599  1
  Zn  Zn116  1  0.31515608  0.31044896  0.81629124  1
  Zn  Zn117  1  0.31591289  0.81442728  0.31056079  1
  Zn  Zn118  1  0.31225032  0.81083955  0.81599673  1
  Zn  Zn119  1  0.81720941  0.31157939  0.31804608  1
  Zn  Zn120  1  0.80909203  0.31400062  0.81643908  1
  Zn  Zn121  1  0.81447834  0.81372160  0.31509131  1
  Zn  Zn122  1  0.81040946  0.81428285  0.81005000  1
  Zn  Zn123  1  0.18954027  0.43728331  0.43642772  1
  Zn  Zn124  1  0.18184615  0.43719006  0.93393590  1
  Zn  Zn125  1  0.19094175  0.93948549  0.43728588  1
  Zn  Zn126  1  0.18643656  0.93682632  0.93909030  1
  Zn  Zn127  1  0.68957188  0.44288668  0.43479729  1
  Zn  Zn128  1  0.68744168  0.43449849  0.94049278  1
  Zn  Zn129  1  0.68901972  0.93696726  0.43766555  1
  Zn  Zn130  1  0.68625611  0.93802047  0.93691607  1
  Zn  Zn131  1  0.31191168  0.06154798  0.06103795  1
  Zn  Zn132  1  0.31051409  0.06146103  0.56197914  1
  Zn  Zn133  1  0.31586553  0.56497208  0.06290335  1
  Zn  Zn134  1  0.31382505  0.56348346  0.55013396  1
  Zn  Zn135  1  0.80775925  0.06630062  0.06265412  1
  Zn  Zn136  1  0.80896470  0.06338711  0.56202565  1
  Zn  Zn137  1  0.81117483  0.55761685  0.06303191  1
  Zn  Zn138  1  0.81748139  0.56351472  0.55994291  1
  Zn  Zn139  1  0.43181558  0.43841683  0.18237620  1
  Zn  Zn140  1  0.44119255  0.43198977  0.69327187  1
  Zn  Zn141  1  0.43630618  0.93189732  0.18616296  1
  Zn  Zn142  1  0.44069405  0.93978484  0.68658852  1
  Zn  Zn143  1  0.92743443  0.43572332  0.19108293  1
  Zn  Zn144  1  0.93549990  0.44118445  0.68841430  1
  Zn  Zn145  1  0.93434564  0.93724954  0.19182980  1
  Zn  Zn146  1  0.93806491  0.93632522  0.68967299  1
  Zn  Zn147  1  0.06332992  0.06280630  0.31355878  1
  Zn  Zn148  1  0.05979342  0.06215630  0.81019941  1
  Zn  Zn149  1  0.06938375  0.56610054  0.30946752  1
  Zn  Zn150  1  0.06740500  0.55971773  0.81172867  1
  Zn  Zn151  1  0.56138995  0.06481197  0.31127379  1
  Zn  Zn152  1  0.55857700  0.06037513  0.81118916  1
  Zn  Zn153  1  0.55803362  0.57361739  0.30770939  1
  Zn  Zn154  1  0.52456583  0.54468587  0.79985213  1
  Zn  Zn155  1  0.44332635  0.18440471  0.43095750  1
  Zn  Zn156  1  0.43715099  0.18551819  0.93405080  1
  Zn  Zn157  1  0.44147965  0.68704526  0.43515580  1
  Zn  Zn158  1  0.43527499  0.68771924  0.94120140  1
  Zn  Zn159  1  0.93880621  0.18926094  0.43992713  1
  Zn  Zn160  1  0.93258687  0.18787539  0.93519183  1
  Zn  Zn161  1  0.93963269  0.68985225  0.44271535  1
  Zn  Zn162  1  0.93599246  0.68468972  0.94200270  1
  Zn  Zn163  1  0.05458215  0.31283609  0.06385703  1
  Zn  Zn164  1  0.07161754  0.30833841  0.57266948  1
  Zn  Zn165  1  0.06302538  0.81198188  0.06151083  1
  Zn  Zn166  1  0.05954127  0.80545826  0.56201626  1
  Zn  Zn167  1  0.56617501  0.31921246  0.06956332  1
  Zn  Zn168  1  0.44258771  0.30741750  0.56156491  1
  Zn  Zn169  1  0.56334805  0.81188511  0.06715681  1
  Zn  Zn170  1  0.56429915  0.81197781  0.55911064  1
  O  O171  1  0.12013608  0.11719092  0.11772466  1
  O  O172  1  0.11782896  0.11874615  0.62105657  1
  O  O173  1  0.11194897  0.63243913  0.12507345  1
  O  O174  1  0.11588178  0.62655384  0.61729419  1
  O  O175  1  0.62623685  0.10906866  0.11413953  1
  O  O176  1  0.62087032  0.11914698  0.61504394  1
  O  O177  1  0.62067490  0.61736136  0.12694131  1
  O  O178  1  0.62111828  0.61362687  0.62304659  1
  O  O179  1  0.37418898  0.38562734  0.37152925  1
  O  O180  1  0.38516873  0.36789443  0.88506195  1
  O  O181  1  0.38058964  0.88095153  0.38151962  1
  O  O182  1  0.38041342  0.87636990  0.88598483  1
  O  O183  1  0.88112824  0.38283719  0.39064463  1
  O  O184  1  0.88620944  0.38665571  0.87257231  1
  O  O185  1  0.88486752  0.88379826  0.37719296  1
  O  O186  1  0.87872870  0.88642831  0.87364714  1
  O  O187  1  0.25888040  0.00923086  0.36938830  1
  O  O188  1  0.24684737  -0.00128866  0.86086033  1
  O  O189  1  0.25755182  0.50765160  0.36935219  1
  O  O190  1  0.24742629  0.51542182  0.88013619  1
  O  O191  1  0.75634547  0.00478356  0.36844649  1
  O  O192  1  0.75590330  0.00288723  0.86329950  1
  O  O193  1  0.76373863  0.51132521  0.37699587  1
  O  O194  1  0.75591584  0.50759849  0.87004860  1
  O  O195  1  0.25330429  0.49167552  0.12991581  1
  O  O196  1  0.25704723  0.50588299  0.63026167  1
  O  O197  1  0.24171239  0.99323676  0.12732970  1
  O  O198  1  0.24020791  0.99438802  0.63408310  1
  O  O199  1  0.75156484  0.50283888  0.13768557  1
  O  O200  1  0.74775168  0.49877469  0.63157983  1
  O  O201  1  0.74455377  0.99350943  0.13325105  1
  O  O202  1  0.74152946  1.00338273  0.63516865  1
  O  O203  1  0.01064609  0.36632034  0.24452938  1
  O  O204  1  0.00178126  0.37823689  0.76061139  1
  O  O205  1  -0.00357872  0.86353965  0.25887671  1
  O  O206  1  0.00618023  0.87251894  0.76009642  1
  O  O207  1  0.48998393  0.36075288  0.24958519  1
  O  O208  1  0.51439367  0.36842091  0.75946535  1
  O  O209  1  0.49441583  0.87402627  0.26485572  1
  O  O210  1  0.50950523  0.86770500  0.75412041  1
  O  O211  1  0.48526825  0.13345524  0.25370755  1
  O  O212  1  0.49143448  0.12436689  0.74294981  1
  O  O213  1  0.48644907  0.64361472  0.25909024  1
  O  O214  1  0.51527454  0.64162444  0.73573530  1
  O  O215  1  0.99377648  0.12710870  0.24525675  1
  O  O216  1  0.99056627  0.11710448  0.73426494  1
  O  O217  1  0.99743255  0.63673524  0.24550334  1
  O  O218  1  1.00773258  0.62643597  0.73469880  1
  O  O219  1  0.36647152  0.25197368  0.00468566  1
  O  O220  1  0.36671198  0.24555869  0.49471554  1
  O  O221  1  0.36480833  0.75988404  -0.00317146  1
  O  O222  1  0.36997599  0.75791514  0.50516376  1
  O  O223  1  0.87608441  0.24864734  0.00697576  1
  O  O224  1  0.87977324  0.26599194  0.50476227  1
  O  O225  1  0.86759185  0.75229709  0.00865224  1
  O  O226  1  0.86933984  0.75339287  0.51107177  1
  O  O227  1  0.13562481  0.23767687  0.50058144  1
  O  O228  1  0.12845111  0.23819492  1.00147677  1
  O  O229  1  0.13118164  0.74476972  0.49005840  1
  O  O230  1  0.13051404  0.74943417  0.98922881  1
  O  O231  1  0.62464203  0.23571488  0.48602795  1
  O  O232  1  0.61459148  0.23055037  1.00686395  1
  O  O233  1  0.63763395  0.74819716  0.49796553  1
  O  O234  1  0.62999112  0.75010921  0.99178077  1
  O  O235  1  0.48632391  0.25189506  0.12929608  1
  O  O236  1  0.50186794  0.23104331  0.62675748  1
  O  O237  1  0.49170862  0.75701086  0.13112315  1
  O  O238  1  0.49546753  0.74389997  0.62907717  1
  O  O239  1  1.00182747  0.23870835  0.13768365  1
  O  O240  1  0.98937580  0.24168012  0.62392433  1
  O  O241  1  0.99559549  0.74842154  0.13321569  1
  O  O242  1  0.98916071  0.74246948  0.62937709  1
  O  O243  1  0.00535925  0.24091568  0.36108814  1
  O  O244  1  -0.00072222  0.26482675  0.87469184  1
  O  O245  1  0.00825529  0.75664982  0.36987868  1
  O  O246  1  0.00471291  0.75400577  0.87621551  1
  O  O247  1  0.50965395  0.25314730  0.36536878  1
  O  O248  1  0.50017089  0.25874330  0.87190945  1
  O  O249  1  0.51786826  0.75780747  0.38369553  1
  O  O250  1  0.50584445  0.75219456  0.86715504  1
  O  O251  1  0.24660037  0.13221027  0.49290560  1
  O  O252  1  0.24092117  0.13084592  0.99841032  1
  O  O253  1  0.24261885  0.63535072  0.49100655  1
  O  O254  1  0.24776445  0.63308069  0.99431983  1
  O  O255  1  0.74252929  0.12111160  0.48742345  1
  O  O256  1  0.73145795  0.11906031  0.99533924  1
  O  O257  1  0.75400035  0.63466663  0.48998970  1
  O  O258  1  0.74838336  0.63111427  0.98816395  1
  O  O259  1  0.25301833  0.36929655  0.00192396  1
  O  O260  1  0.24569303  0.35760894  0.50157463  1
  O  O261  1  0.25612974  0.86980187  0.00555166  1
  O  O262  1  0.25881932  0.87041333  0.50535639  1
  O  O263  1  0.75665007  0.37478791  0.00277666  1
  O  O264  1  0.75524757  0.38191486  0.51158969  1
  O  O265  1  0.75121213  0.86920990  0.00843609  1
  O  O266  1  0.75521893  0.86417585  0.49930361  1
  O  O267  1  0.13774286  0.49217796  0.25219544  1
  O  O268  1  0.12258996  0.48166668  0.74826861  1
  O  O269  1  0.13159757  1.00643850  0.23731311  1
  O  O270  1  0.13018785  0.99439773  0.74178357  1
  O  O271  1  0.62649248  0.50177503  0.26235886  1
  O  O272  1  0.63248479  0.49424517  0.74373403  1
  O  O273  1  0.63367846  1.00526237  0.24301125  1
  O  O274  1  0.63140258  0.99457616  0.74273170  1
  O  O275  1  0.36945022  0.00666978  0.25417506  1
  O  O276  1  0.36517871  0.00267703  0.75049583  1
  O  O277  1  0.36133887  0.49600309  0.25595189  1
  O  O278  1  0.41678137  0.51922566  0.75614070  1
  O  O279  1  0.87000765  0.00895796  0.26085874  1
  O  O280  1  0.86661019  0.00521938  0.75217909  1
  O  O281  1  0.88356273  0.51610784  0.26184941  1
  O  O282  1  0.86009597  0.49873758  0.75659332  1
  O  O283  1  0.13214474  0.37263168  0.36081453  1
  O  O284  1  0.11504145  0.37230156  0.86338206  1
  O  O285  1  0.12080760  0.86812091  0.37892168  1
  O  O286  1  0.11811228  0.86781022  0.87311638  1
  O  O287  1  0.62994068  0.36150770  0.37764806  1
  O  O288  1  0.62070008  0.37673271  0.86468823  1
  O  O289  1  0.61844447  0.86603814  0.38085324  1
  O  O290  1  0.62052800  0.86544798  0.86770238  1
  O  O291  1  0.36668379  0.13395793  0.13252250  1
  O  O292  1  0.38377846  0.11303541  0.63262678  1
  O  O293  1  0.38449752  0.62758848  0.12455948  1
  O  O294  1  0.38253783  0.63135486  0.62445695  1
  O  O295  1  0.88122257  0.11957805  0.13609583  1
  O  O296  1  0.87988889  0.13225519  0.62521731  1
  O  O297  1  0.88355814  0.63288472  0.13510275  1
  O  O298  1  0.88916659  0.63340878  0.62022334  1
  O  O299  1  0.25508728  0.25511731  0.11340808  1
  O  O300  1  0.25332521  0.24541931  0.60976703  1
  O  O301  1  0.23830211  0.75972232  0.11088701  1
  O  O302  1  0.25361352  0.75579044  0.62158373  1
  O  O303  1  0.75156398  0.24752711  0.11635887  1
  O  O304  1  0.76577452  0.26049220  0.62571288  1
  O  O305  1  0.75342007  0.75704077  0.12402737  1
  O  O306  1  0.76493320  0.74042081  0.61929242  1
  O  O307  1  0.25072054  0.23879146  0.38134250  1
  O  O308  1  0.24475233  0.24797117  0.88795447  1
  O  O309  1  0.24517595  0.74662491  0.37720433  1
  O  O310  1  0.24189788  0.74641336  0.88481736  1
  O  O311  1  0.74368678  0.23736456  0.36749879  1
  O  O312  1  0.75547398  0.24266919  0.88058681  1
  O  O313  1  0.74512179  0.74895662  0.38457842  1
  O  O314  1  0.74514650  0.74514712  0.87835938  1
  O  O315  1  0.00611623  0.11854177  0.00439193  1
  O  O316  1  0.00942223  0.12689974  0.51081395  1
  O  O317  1  0.00181050  0.61846758  0.01055881  1
  O  O318  1  0.01150705  0.63313091  0.51316763  1
  O  O319  1  0.50457620  0.11031079  -0.00315931  1
  O  O320  1  0.50787173  0.12253793  0.50488663  1
  O  O321  1  0.50025666  0.60827428  -0.01072029  1
  O  O322  1  0.50247915  0.62056642  0.51194122  1
  O  O323  1  0.50263394  0.38552549  0.49507194  1
  O  O324  1  0.49158580  0.37433706  0.99456666  1
  O  O325  1  0.48870781  0.87334523  0.49315394  1
  O  O326  1  0.49287600  0.88076795  0.99694487  1
  O  O327  1  0.99874287  0.37315260  0.50507674  1
  O  O328  1  1.00153116  0.38191096  0.98684266  1
  O  O329  1  0.99933429  0.87149882  0.48725271  1
  O  O330  1  0.99611499  0.88167567  0.99314145  1
  O  O331  1  0.49147397  0.50091145  0.38097031  1
  O  O332  1  0.50192414  0.47960557  0.89153151  1
  O  O333  1  0.48879256  0.99414353  0.37142750  1
  O  O334  1  0.49935843  0.98891301  0.88343301  1
  O  O335  1  0.99336903  0.51090982  0.37716161  1
  O  O336  1  0.99387163  0.49506140  0.87868747  1
  O  O337  1  0.99294253  0.99139544  0.36949003  1
  O  O338  1  0.99257118  0.99345728  0.87908584  1
  O  O339  1  0.00557861  0.00263387  0.12154061  1
  O  O340  1  0.01085470  0.00289756  0.62519088  1
  O  O341  1  -0.00634266  0.51054242  0.11819850  1
  O  O342  1  0.00110866  0.51388241  0.62581121  1
  O  O343  1  0.50825387  -0.00902159  0.11717219  1
  O  O344  1  0.51287219  0.01057549  0.62992020  1
  O  O345  1  0.49723966  0.48927803  0.10404242  1
  O  O346  1  0.50971753  0.50585316  0.61651591  1
  O  O347  1  0.24320048  0.38007881  0.23951457  1
  O  O348  1  0.24571210  0.37684327  0.75251730  1
  O  O349  1  0.25310230  0.88270104  0.23730388  1
  O  O350  1  0.24420161  0.87954466  0.74421367  1
  O  O351  1  0.77895915  0.38033036  0.24235851  1
  O  O352  1  0.74765407  0.38365593  0.74243767  1
  O  O353  1  0.75679307  0.88830069  0.24504528  1
  O  O354  1  0.73730478  0.88292034  0.75189358  1
  O  O355  1  0.25730009  0.12265507  0.25719697  1
  O  O356  1  0.25510239  0.11643374  0.74815822  1
  O  O357  1  0.24272379  0.61576333  0.25862070  1
  O  O358  1  0.24746128  0.62972467  0.76489873  1
  O  O359  1  0.75760133  0.11476764  0.25708083  1
  O  O360  1  0.75803765  0.11744405  0.74777963  1
  O  O361  1  0.76397390  0.63278433  0.26597512  1
  O  O362  1  0.74383300  0.61860598  0.76421421  1
  O  O363  1  0.36959363  0.11719854  0.36797244  1
  O  O364  1  0.37091989  0.11870537  0.86457675  1
  O  O365  1  0.36208853  0.62145160  0.38128666  1
  O  O366  1  0.35839049  0.63081227  0.87735502  1
  O  O367  1  0.86917176  0.11945601  0.37208434  1
  O  O368  1  0.88050186  0.11267483  0.86271352  1
  O  O369  1  0.87336209  0.62224229  0.37319017  1
  O  O370  1  0.86862634  0.61544447  0.87512407  1
  O  O371  1  0.13638515  0.36835914  0.13025785  1
  O  O372  1  0.13620312  0.37904045  0.63618381  1
  O  O373  1  0.13315352  0.88614574  0.11799737  1
  O  O374  1  0.12725872  0.88028104  0.62716428  1
  O  O375  1  0.63097624  0.38535912  0.12650204  1
  O  O376  1  0.63732041  0.38932682  0.63332454  1
  O  O377  1  0.63778483  0.88473977  0.12232008  1
  O  O378  1  0.61807642  0.88404683  0.63272693  1
  O  O379  1  0.12056075  0.25755781  0.25259878  1
  O  O380  1  0.12756864  0.26715513  0.74842891  1
  O  O381  1  0.11923755  0.74739791  0.26352735  1
  O  O382  1  0.12285876  0.75743022  0.76296976  1
  O  O383  1  0.61292127  0.23715576  0.25738498  1
  O  O384  1  0.63032041  0.26150201  0.74208879  1
  O  O385  1  0.63755132  0.75453268  0.26713959  1
  O  O386  1  0.62157311  0.75899668  0.75370355  1
  O  O387  1  0.37732346  0.24258542  0.24092373  1
  O  O388  1  0.37375713  0.23465813  0.75128318  1
  O  O389  1  0.36093891  0.74662065  0.23548679  1
  O  O390  1  0.38737969  0.75898021  0.74357710  1
  O  O391  1  0.88425231  0.23529129  0.25248228  1
  O  O392  1  0.87309127  0.23838524  0.74232829  1
  O  O393  1  0.88446693  0.74253164  0.24929523  1
  O  O394  1  0.87376111  0.75046818  0.73759636  1
  O  O395  1  0.38609467  0.50305810  0.48715295  1
  O  O396  1  0.37912143  0.48747826  1.00086205  1
  O  O397  1  0.36728085  0.99016423  0.48921601  1
  O  O398  1  0.38155311  0.99381796  0.99798534  1
  O  O399  1  0.87900424  0.48669951  0.49682560  1
  O  O400  1  0.88665443  0.50235721  0.98928982  1
  O  O401  1  0.87114679  0.99950127  0.48827073  1
  O  O402  1  0.87782176  1.00180257  0.98993098  1
  O  O403  1  0.12068556  0.00968641  0.00720656  1
  O  O404  1  0.13539676  0.01300624  0.50952491  1
  O  O405  1  0.10952716  0.50126426  -0.00314194  1
  O  O406  1  0.13446536  0.51366803  0.50314587  1
  O  O407  1  0.61610059  0.00213454  0.00706324  1
  O  O408  1  0.63195454  0.00629861  0.51050016  1
  O  O409  1  0.61353370  0.50439458  -0.00233309  1
  O  O410  1  0.61865119  0.50342235  0.50615753  1
  O  O411  1  0.36183959  0.36496734  0.11536688  1
  O  O412  1  0.37940773  0.36989546  0.62811764  1
  O  O413  1  0.36264848  0.88206309  0.11228726  1
  O  O414  1  0.37202381  0.87154303  0.61783870  1
  O  O415  1  0.88111903  0.37009524  0.11580041  1
  O  O416  1  0.87425778  0.37135535  0.61539381  1
  O  O417  1  0.86396427  0.87030388  0.12604852  1
  O  O418  1  0.88098405  0.86004447  0.62464112  1
  O  O419  1  0.13461403  0.12336474  0.38343909  1
  O  O420  1  0.12419916  0.12655022  0.88213149  1
  O  O421  1  0.13338704  0.63330459  0.38257972  1
  O  O422  1  0.13137668  0.63311643  0.87798374  1
  O  O423  1  0.63201919  0.12714446  0.37984487  1
  O  O424  1  0.62114375  0.11663822  0.88986122  1
  O  O425  1  0.63509383  0.63965476  0.37896822  1
  O  O426  1  0.63021317  0.63893062  0.87544806  1
