# generated using pymatgen
data_V85Zn86O256
_symmetry_space_group_name_H-M   'P 1'
_cell_length_a   16.94899968
_cell_length_b   16.95116850
_cell_length_c   16.95190023
_cell_angle_alpha   90.03418132
_cell_angle_beta   89.96088422
_cell_angle_gamma   89.91078563
_symmetry_Int_Tables_number   1
_chemical_formula_structural   V85Zn86O256
_chemical_formula_sum   'V85 Zn86 O256'
_cell_volume   4870.36371215
_cell_formula_units_Z   1
loop_
 _symmetry_equiv_pos_site_id
 _symmetry_equiv_pos_as_xyz
  1  'x, y, z'
loop_
 _atom_site_type_symbol
 _atom_site_label
 _atom_site_symmetry_multiplicity
 _atom_site_fract_x
 _atom_site_fract_y
 _atom_site_fract_z
 _atom_site_occupancy
  V  V0  1  0.23842175  0.74062895  -0.00307036  1
  V  V1  1  0.88294044  0.87034759  0.50016879  1
  V  V2  1  0.75098489  0.26813682  0.50602554  1
  V  V3  1  0.37732307  0.37631966  -0.00012355  1
  V  V4  1  0.00240391  0.25046717  0.24853767  1
  V  V5  1  0.37455771  0.87249837  -0.00098766  1
  V  V6  1  0.49701543  0.75037882  0.73980373  1
  V  V7  1  0.12857199  0.87118795  0.75392414  1
  V  V8  1  0.51445897  0.76237575  0.26223390  1
  V  V9  1  0.37251957  0.86926167  0.50593106  1
  V  V10  1  0.37644473  -0.00225047  0.87301136  1
  V  V11  1  0.74990606  0.24746270  -0.00347478  1
  V  V12  1  0.12764820  0.25123790  0.37784326  1
  V  V13  1  0.12985924  0.74366173  0.37756826  1
  V  V14  1  0.87471677  0.25048365  0.12562597  1
  V  V15  1  0.87746252  0.74802049  0.62329163  1
  V  V16  1  0.64020000  0.38230065  0.74805077  1
  V  V17  1  0.74075722  -0.01126493  0.25740399  1
  V  V18  1  0.50055182  0.50255492  -0.00332843  1
  V  V19  1  0.36104694  0.25577432  0.62006252  1
  V  V20  1  0.36539723  0.62679174  0.74964828  1
  V  V21  1  -0.00092388  0.25541596  0.75578065  1
  V  V22  1  0.62578992  0.12955860  0.50328628  1
  V  V23  1  0.00302725  0.00444951  0.50095775  1
  V  V24  1  0.87239072  0.61159493  0.25053412  1
  V  V25  1  0.49691109  0.62391435  0.62429113  1
  V  V26  1  0.49924902  0.12817033  0.62585926  1
  V  V27  1  0.37891248  0.74958441  0.12644136  1
  V  V28  1  0.00127063  0.12270900  0.12607912  1
  V  V29  1  0.12565941  0.87499630  0.25181878  1
  V  V30  1  0.62513304  -0.00066635  0.62686089  1
  V  V31  1  0.12494802  0.37749704  0.25220754  1
  V  V32  1  0.12460263  0.12120452  0.00041611  1
  V  V33  1  -0.00259061  0.12419403  0.62339214  1
  V  V34  1  0.80497896  0.06484866  0.91784896  1
  V  V35  1  0.36223387  0.50655557  0.87147545  1
  V  V36  1  0.87050558  0.12088268  0.74829879  1
  V  V37  1  0.25097646  0.24902731  0.00138305  1
  V  V38  1  0.62591381  0.37947324  0.25037526  1
  V  V39  1  0.71862709  0.77373445  0.47316009  1
  V  V40  1  0.87106587  0.26659697  0.62623664  1
  V  V41  1  0.62512781  0.61826451  0.49359469  1
  V  V42  1  0.00555057  0.62461379  0.12363830  1
  V  V43  1  0.24920269  0.87308116  0.12463108  1
  V  V44  1  0.62964155  0.62506438  -0.00358711  1
  V  V45  1  0.37836028  0.62463851  0.25808911  1
  V  V46  1  0.87726933  0.60962137  0.74287112  1
  V  V47  1  0.49417146  0.49573871  0.50781265  1
  V  V48  1  0.87572702  0.75623712  0.12269888  1
  V  V49  1  0.74998457  0.13091068  0.37748049  1
  V  V50  1  0.00418160  0.87572868  0.37575651  1
  V  V51  1  0.50337467  0.62763078  0.12621382  1
  V  V52  1  0.62718306  0.24386408  0.87174360  1
  V  V53  1  0.24860600  0.12103676  0.87514223  1
  V  V54  1  0.49959853  0.26091039  0.74635567  1
  V  V55  1  0.00502634  0.74303339  0.76311603  1
  V  V56  1  0.37833474  0.12392061  0.24397507  1
  V  V57  1  0.35526772  0.37845829  0.49843311  1
  V  V58  1  0.75134790  0.86914485  0.62602887  1
  V  V59  1  0.49676035  -0.00273939  0.49432091  1
  V  V60  1  0.87996298  0.37707276  -0.00606869  1
  V  V61  1  0.62501551  0.74643535  0.86595493  1
  V  V62  1  0.12280664  -0.00298277  0.12139278  1
  V  V63  1  0.75313314  -0.00397250  0.75114735  1
  V  V64  1  0.25420066  0.12467162  0.37712851  1
  V  V65  1  -0.00163856  0.48661620  0.49130062  1
  V  V66  1  0.49464493  0.38170646  0.37675995  1
  V  V67  1  0.00781902  0.49964968  -0.00820268  1
  V  V68  1  0.49662677  0.00199570  0.00925376  1
  V  V69  1  0.25051768  -0.00321142  0.74196026  1
  V  V70  1  0.25190151  0.37679257  0.12671459  1
  V  V71  1  0.87754297  0.00430564  0.37702553  1
  V  V72  1  0.01169519  0.62863872  0.60874989  1
  V  V73  1  0.25624830  0.50126238  0.25974708  1
  V  V74  1  0.75126915  0.38391355  0.12492404  1
  V  V75  1  -0.01491935  0.88526541  0.87669895  1
  V  V76  1  0.74919534  0.60892853  0.37143990  1
  V  V77  1  0.62807463  0.50043495  0.12403053  1
  V  V78  1  0.12374715  0.25984716  0.87511430  1
  V  V79  1  0.49943230  0.24973679  0.24505681  1
  V  V80  1  0.13093083  0.12908765  0.50261095  1
  V  V81  1  0.75584440  0.61505471  0.86862383  1
  V  V82  1  0.24749058  0.75196315  0.51469527  1
  V  V83  1  0.75849790  0.75441099  -0.00457271  1
  V  V84  1  0.61721010  0.12438377  0.00573288  1
  Zn  Zn85  1  0.37898305  -0.00541105  0.37281634  1
  Zn  Zn86  1  0.62174993  0.25339935  0.37867079  1
  Zn  Zn87  1  0.74686866  0.87280921  0.12434825  1
  Zn  Zn88  1  0.87374451  0.12401901  0.25245164  1
  Zn  Zn89  1  0.13813813  0.49383868  0.62021207  1
  Zn  Zn90  1  0.62372929  0.87314383  0.74901479  1
  Zn  Zn91  1  0.25334883  -0.00047070  0.25065735  1
  Zn  Zn92  1  0.14516320  0.37932092  0.74111024  1
  Zn  Zn93  1  0.12895100  0.50684624  0.12229275  1
  Zn  Zn94  1  0.37522580  0.12620162  0.74771252  1
  Zn  Zn95  1  0.12854540  -0.00281714  0.62458518  1
  Zn  Zn96  1  0.61708527  -0.00391560  0.13573173  1
  Zn  Zn97  1  0.64614509  0.49208948  0.62295087  1
  Zn  Zn98  1  0.50153132  0.37720343  0.87342192  1
  Zn  Zn99  1  0.87801525  0.49017553  0.86467658  1
  Zn  Zn100  1  -0.02080138  -0.00323854  -0.00088529  1
  Zn  Zn101  1  -0.03504719  0.39664245  0.36177016  1
  Zn  Zn102  1  -0.00196017  0.74929178  0.24999570  1
  Zn  Zn103  1  0.25169379  0.62597988  0.38006914  1
  Zn  Zn104  1  0.21313337  0.62899421  0.87420308  1
  Zn  Zn105  1  0.50014576  0.87229545  0.87201547  1
  Zn  Zn106  1  0.38114000  0.24498249  0.12068010  1
  Zn  Zn107  1  0.19204167  0.18765592  0.18900387  1
  Zn  Zn108  1  0.18491583  0.18605082  0.69177379  1
  Zn  Zn109  1  0.18981083  0.68978713  0.18968033  1
  Zn  Zn110  1  0.18519893  0.68584337  0.69108603  1
  Zn  Zn111  1  0.68625372  0.18845830  0.18867249  1
  Zn  Zn112  1  0.69098385  0.18839498  0.68886740  1
  Zn  Zn113  1  0.69078540  0.68773095  0.18791505  1
  Zn  Zn114  1  0.70900769  0.65307385  0.66116662  1
  Zn  Zn115  1  0.31284314  0.30917033  0.31525999  1
  Zn  Zn116  1  0.31737561  0.30742683  0.81755882  1
  Zn  Zn117  1  0.31770658  0.81503305  0.31655262  1
  Zn  Zn118  1  0.31181749  0.80870129  0.81294017  1
  Zn  Zn119  1  0.80483517  0.31384342  0.30872252  1
  Zn  Zn120  1  0.81288458  0.30696411  0.81314725  1
  Zn  Zn121  1  0.81896474  0.80990936  0.31058419  1
  Zn  Zn122  1  0.81418121  0.80532723  0.80977207  1
  Zn  Zn123  1  0.17683820  0.44491263  0.43745816  1
  Zn  Zn124  1  0.18942186  0.43867599  0.93672562  1
  Zn  Zn125  1  0.19327631  0.93775585  0.43983658  1
  Zn  Zn126  1  0.18508509  0.92986463  0.93477674  1
  Zn  Zn127  1  0.68430043  0.43934778  0.43384035  1
  Zn  Zn128  1  0.68948532  0.43365704  0.93348879  1
  Zn  Zn129  1  0.68852098  0.94515287  0.44200929  1
  Zn  Zn130  1  0.67666179  0.92702439  0.94707146  1
  Zn  Zn131  1  0.31123744  0.05969432  0.06457875  1
  Zn  Zn132  1  0.31553170  0.06476046  0.56134417  1
  Zn  Zn133  1  0.31314977  0.56420469  0.06525298  1
  Zn  Zn134  1  0.31273251  0.56921081  0.55977206  1
  Zn  Zn135  1  0.80481042  0.06583709  0.08134674  1
  Zn  Zn136  1  0.81281033  0.06276418  0.56266258  1
  Zn  Zn137  1  0.81884678  0.56621240  0.05877647  1
  Zn  Zn138  1  0.82243578  0.55077708  0.55389545  1
  Zn  Zn139  1  0.43853533  0.43935444  0.18609117  1
  Zn  Zn140  1  0.31432700  0.44136621  0.68879488  1
  Zn  Zn141  1  0.43800925  0.93492919  0.19032260  1
  Zn  Zn142  1  0.43690010  0.93499936  0.68370609  1
  Zn  Zn143  1  0.94070927  0.43839278  0.17958879  1
  Zn  Zn144  1  0.98996532  0.44030699  0.68864634  1
  Zn  Zn145  1  0.93437232  0.93726028  0.19055862  1
  Zn  Zn146  1  0.94062043  0.93582147  0.69112003  1
  Zn  Zn147  1  0.06517562  0.06434762  0.31252640  1
  Zn  Zn148  1  0.06114596  0.06075506  0.81257067  1
  Zn  Zn149  1  0.06320150  0.56343553  0.30782375  1
  Zn  Zn150  1  0.06740693  0.56136975  0.80873626  1
  Zn  Zn151  1  0.56264873  0.06883670  0.31549391  1
  Zn  Zn152  1  0.56313607  0.06425836  0.81290301  1
  Zn  Zn153  1  0.55979673  0.56160470  0.31253572  1
  Zn  Zn154  1  0.55888364  0.56252534  0.80961618  1
  Zn  Zn155  1  0.43655905  0.19355156  0.43690104  1
  Zn  Zn156  1  0.43883926  0.18645777  0.93413493  1
  Zn  Zn157  1  0.43721816  0.69255531  0.43840798  1
  Zn  Zn158  1  0.43767528  0.68826723  0.93559145  1
  Zn  Zn159  1  0.92230177  0.22297021  0.42360360  1
  Zn  Zn160  1  0.94306509  0.18876953  0.94204253  1
  Zn  Zn161  1  0.93503302  0.68712773  0.43023131  1
  Zn  Zn162  1  0.94839878  0.67962944  0.93293979  1
  Zn  Zn163  1  0.06487650  0.31473268  0.06280194  1
  Zn  Zn164  1  0.05826848  0.31030297  0.55906495  1
  Zn  Zn165  1  0.05620919  0.81515378  0.05844370  1
  Zn  Zn166  1  0.06886051  0.81269656  0.56813476  1
  Zn  Zn167  1  0.56314473  0.31242757  0.06210633  1
  Zn  Zn168  1  0.56272034  0.31710636  0.56705208  1
  Zn  Zn169  1  0.56517250  0.81356654  0.06127575  1
  Zn  Zn170  1  0.56531569  0.81665345  0.55063500  1
  O  O171  1  0.12245558  0.11612973  0.12233400  1
  O  O172  1  0.11702711  0.12563706  0.61877948  1
  O  O173  1  0.10944703  0.62727088  0.13500005  1
  O  O174  1  0.11196444  0.62426903  0.62816231  1
  O  O175  1  0.63347072  0.12003662  0.10949208  1
  O  O176  1  0.61947345  0.12153170  0.62209319  1
  O  O177  1  0.62419621  0.61809322  0.11796470  1
  O  O178  1  0.60707174  0.61529837  0.61895765  1
  O  O179  1  0.38020448  0.36682928  0.39041502  1
  O  O180  1  0.37692430  0.38433412  0.88771994  1
  O  O181  1  0.37014567  0.88115795  0.39286395  1
  O  O182  1  0.37547108  0.88254550  0.88064408  1
  O  O183  1  0.88388370  0.32732738  0.38231888  1
  O  O184  1  0.86890194  0.37210989  0.89051676  1
  O  O185  1  0.88378303  0.88054184  0.38296226  1
  O  O186  1  0.88635770  0.87694311  0.86569947  1
  O  O187  1  0.24998511  0.01381847  0.37188509  1
  O  O188  1  0.25923085  0.00369589  0.87142679  1
  O  O189  1  0.24511671  0.50507619  0.36301797  1
  O  O190  1  0.25823150  0.51455582  0.88630931  1
  O  O191  1  0.75387999  0.00805016  0.37173429  1
  O  O192  1  0.74282884  -0.00468692  0.86885834  1
  O  O193  1  0.75377076  0.50992280  0.37399649  1
  O  O194  1  0.75625631  0.51082242  0.87902961  1
  O  O195  1  0.24928799  0.48945142  0.12995759  1
  O  O196  1  0.25017443  0.50618866  0.62458337  1
  O  O197  1  0.24062800  0.99117923  0.12730480  1
  O  O198  1  0.25067218  1.00830151  0.63963092  1
  O  O199  1  0.74859581  0.48908519  0.11714242  1
  O  O200  1  0.74592506  0.54410545  0.62933172  1
  O  O201  1  0.74859102  0.99682281  0.14812941  1
  O  O202  1  0.74683050  0.99159073  0.63212848  1
  O  O203  1  0.00855945  0.37145600  0.24957991  1
  O  O204  1  -0.01946271  0.35270895  0.76407826  1
  O  O205  1  0.00831096  0.87462191  0.25658716  1
  O  O206  1  0.00624865  0.86949300  0.76002826  1
  O  O207  1  0.50233255  0.37147127  0.25705237  1
  O  O208  1  0.50936681  0.36232274  0.75198335  1
  O  O209  1  0.50074050  0.86192007  0.24903412  1
  O  O210  1  0.50165989  0.86588824  0.74985092  1
  O  O211  1  0.49209903  0.13678473  0.25583186  1
  O  O212  1  0.50046257  0.13261466  0.73816421  1
  O  O213  1  0.49475546  0.62944889  0.24276771  1
  O  O214  1  0.49406171  0.63063154  0.74185017  1
  O  O215  1  0.99927024  0.13011965  0.24172905  1
  O  O216  1  0.98884837  0.12695504  0.74479249  1
  O  O217  1  0.98793984  0.62679966  0.24392966  1
  O  O218  1  0.99185861  0.63400070  0.73606844  1
  O  O219  1  0.37089149  0.25830855  -0.00059320  1
  O  O220  1  0.37613945  0.26119117  0.51215688  1
  O  O221  1  0.37266800  0.75269107  0.01140679  1
  O  O222  1  0.36746409  0.76202904  0.50066267  1
  O  O223  1  0.87360379  0.25514162  0.00936726  1
  O  O224  1  0.86419195  0.24249411  0.52072241  1
  O  O225  1  0.86889151  0.73672742  0.00907625  1
  O  O226  1  0.87996333  0.76163764  0.50369656  1
  O  O227  1  0.11933327  0.24134659  0.49033331  1
  O  O228  1  0.13045368  0.24311288  0.99469511  1
  O  O229  1  0.13906424  0.76069320  0.49170556  1
  O  O230  1  0.14100166  0.75544723  1.00895756  1
  O  O231  1  0.63393656  0.24571744  0.50566224  1
  O  O232  1  0.62766788  0.24315922  0.99389562  1
  O  O233  1  0.62536447  0.72259171  0.51572363  1
  O  O234  1  0.63202496  0.74098706  0.98735622  1
  O  O235  1  0.49858871  0.25739571  0.13946611  1
  O  O236  1  0.49350413  0.24531914  0.63003012  1
  O  O237  1  0.49447222  0.74496070  0.12682851  1
  O  O238  1  0.50620217  0.74377591  0.63505507  1
  O  O239  1  0.99444719  0.24514765  0.12826450  1
  O  O240  1  0.98805641  0.23829502  0.63277259  1
  O  O241  1  0.99202912  0.74349002  0.12320576  1
  O  O242  1  0.99628232  0.74453510  0.63111634  1
  O  O243  1  0.01905155  0.23915380  0.36186671  1
  O  O244  1  0.01421229  0.23702730  0.86836483  1
  O  O245  1  0.00970910  0.76015767  0.37376683  1
  O  O246  1  -0.00952961  0.76205859  0.86467402  1
  O  O247  1  0.50200474  0.26269005  0.36702872  1
  O  O248  1  0.50540000  0.25106647  0.86412564  1
  O  O249  1  0.50136748  0.74688262  0.36090749  1
  O  O250  1  0.50990759  0.74715074  0.86615837  1
  O  O251  1  0.23898749  0.12241094  0.49452881  1
  O  O252  1  0.24520402  0.12829082  0.99519973  1
  O  O253  1  0.26082024  0.64714895  0.49444864  1
  O  O254  1  0.24945153  0.63745872  1.00380651  1
  O  O255  1  0.74485001  0.12752478  0.49236861  1
  O  O256  1  0.74608952  0.12549158  0.99250903  1
  O  O257  1  0.74279847  0.63022667  0.48037496  1
  O  O258  1  0.74730308  0.63054346  0.98975151  1
  O  O259  1  0.25707020  0.37134742  0.00734377  1
  O  O260  1  0.25723539  0.37811677  0.49143894  1
  O  O261  1  0.25632112  0.86730214  0.00568668  1
  O  O262  1  0.25824755  0.86490412  0.50066283  1
  O  O263  1  0.75595332  0.36776749  0.00792519  1
  O  O264  1  0.74470728  0.36744359  0.49951337  1
  O  O265  1  0.75563703  0.85719808  -0.00673969  1
  O  O266  1  0.76948673  0.87605063  0.50760482  1
  O  O267  1  0.13434208  0.49227684  0.24558014  1
  O  O268  1  0.09243596  0.48418834  0.73700311  1
  O  O269  1  0.12491530  0.99082154  0.23941493  1
  O  O270  1  0.13454740  0.99385460  0.75063879  1
  O  O271  1  0.61680649  0.48716637  0.24005092  1
  O  O272  1  0.62208098  0.48363425  0.75417993  1
  O  O273  1  0.63598782  1.00364706  0.25491809  1
  O  O274  1  0.63583784  1.00026830  0.74557161  1
  O  O275  1  0.37652391  0.00858158  0.25383338  1
  O  O276  1  0.36903710  0.00078971  0.75721381  1
  O  O277  1  0.36814715  0.51070416  0.24335280  1
  O  O278  1  0.37662850  0.51111796  0.76240641  1
  O  O279  1  0.86387299  0.00234007  0.26057767  1
  O  O280  1  0.86199773  0.00391796  0.74776948  1
  O  O281  1  0.87746504  0.51207625  0.24500001  1
  O  O282  1  0.89025746  0.50856676  0.74571798  1
  O  O283  1  0.13166648  0.36641985  0.36155955  1
  O  O284  1  0.12975002  0.36144170  0.87625131  1
  O  O285  1  0.12300734  0.87397188  0.36708050  1
  O  O286  1  0.11244425  0.88012502  0.86072052  1
  O  O287  1  0.61688521  0.37487963  0.36500166  1
  O  O288  1  0.62281543  0.36373941  0.86718128  1
  O  O289  1  0.64164269  0.84387254  0.44357590  1
  O  O290  1  0.62121789  0.86093069  0.87084634  1
  O  O291  1  0.36825187  0.12689358  0.13915920  1
  O  O292  1  0.38314900  0.13725534  0.62407238  1
  O  O293  1  0.38235009  0.63342434  0.13154652  1
  O  O294  1  0.38772088  0.62258438  0.63509804  1
  O  O295  1  0.88184441  0.13464779  0.12877234  1
  O  O296  1  0.88114622  0.12505816  0.63353602  1
  O  O297  1  0.88108442  0.63065277  0.13526285  1
  O  O298  1  0.88372928  0.63838324  0.62557266  1
  O  O299  1  0.25370986  0.26130237  0.11965568  1
  O  O300  1  0.26346930  0.24330390  0.62982199  1
  O  O301  1  0.25970043  0.75444114  0.11971062  1
  O  O302  1  0.24276391  0.74987170  0.61329491  1
  O  O303  1  0.75789825  0.25519129  0.11851716  1
  O  O304  1  0.76206093  0.25028344  0.62154592  1
  O  O305  1  0.75803799  0.74780776  0.11413433  1
  O  O306  1  0.75933331  0.75409116  0.61059496  1
  O  O307  1  0.23826460  0.23740495  0.36944190  1
  O  O308  1  0.24496209  0.23857705  0.88207482  1
  O  O309  1  0.24204638  0.75124988  0.37807793  1
  O  O310  1  0.25508533  0.74714958  0.89404969  1
  O  O311  1  0.74340321  0.24375157  0.38602868  1
  O  O312  1  0.74017579  0.25066715  0.88394835  1
  O  O313  1  0.75493588  0.74471704  0.38160378  1
  O  O314  1  0.74502531  0.73991060  0.87831728  1
  O  O315  1  0.00763515  0.11789861  0.00780493  1
  O  O316  1  0.00880463  0.12150834  0.50913303  1
  O  O317  1  -0.00606542  0.60850661  0.00984098  1
  O  O318  1  0.00458719  0.64053624  0.50883885  1
  O  O319  1  0.50552901  0.11772959  -0.00144697  1
  O  O320  1  0.50425968  0.12494980  0.51018172  1
  O  O321  1  0.50773788  0.61918037  0.00475069  1
  O  O322  1  0.50227848  0.61701887  0.50128720  1
  O  O323  1  0.49725723  0.38023165  0.49397611  1
  O  O324  1  0.49354074  0.38305055  0.99937159  1
  O  O325  1  0.48676243  0.88620889  0.50529010  1
  O  O326  1  0.49104596  0.88340221  0.99448921  1
  O  O327  1  0.99525866  0.38455748  0.49162712  1
  O  O328  1  0.99163099  0.38675966  1.00979911  1
  O  O329  1  0.99804862  0.88280769  0.49808608  1
  O  O330  1  0.99924406  0.87890616  0.98288903  1
  O  O331  1  0.50139146  0.48743183  0.38287812  1
  O  O332  1  0.49419208  0.49962893  0.88680062  1
  O  O333  1  0.50262234  1.00710815  0.39161877  1
  O  O334  1  0.48646340  1.00206091  0.87828663  1
  O  O335  1  1.00944362  0.49770547  0.38260123  1
  O  O336  1  0.99629284  0.49809320  0.89046226  1
  O  O337  1  0.99681486  0.99632005  0.38008889  1
  O  O338  1  0.99569212  0.99061596  0.87643966  1
  O  O339  1  0.00378826  0.00260448  0.12110014  1
  O  O340  1  -0.00055598  0.01192048  0.62267840  1
  O  O341  1  0.00459987  0.50853706  0.11728031  1
  O  O342  1  -0.00883284  0.52109058  0.60486774  1
  O  O343  1  0.49781725  -0.00079722  0.11305693  1
  O  O344  1  0.50412385  0.01070326  0.61933243  1
  O  O345  1  0.50506589  0.50604464  0.11332099  1
  O  O346  1  0.49983281  0.50531955  0.61016446  1
  O  O347  1  0.24931730  0.38108925  0.24430515  1
  O  O348  1  0.25515989  0.37505029  0.75724831  1
  O  O349  1  0.24281655  0.87622591  0.24311955  1
  O  O350  1  0.23807520  0.88081967  0.75833950  1
  O  O351  1  0.73858373  0.37058572  0.23825548  1
  O  O352  1  0.73892045  0.37300785  0.75515818  1
  O  O353  1  0.74860486  0.88705693  0.25942923  1
  O  O354  1  0.74946427  0.87876361  0.74271901  1
  O  O355  1  0.25909663  0.12322816  0.25799949  1
  O  O356  1  0.25117388  0.11615110  0.76030243  1
  O  O357  1  0.26043119  0.61748244  0.24743942  1
  O  O358  1  0.26179873  0.63660937  0.75899993  1
  O  O359  1  0.74862751  0.12105765  0.26460037  1
  O  O360  1  0.76152756  0.11525040  0.74855180  1
  O  O361  1  0.75964389  0.62644119  0.25928130  1
  O  O362  1  0.76652001  0.63628166  0.76029688  1
  O  O363  1  0.36805651  0.12721143  0.36847017  1
  O  O364  1  0.36373029  0.11844522  0.87339960  1
  O  O365  1  0.37491784  0.63029714  0.36070489  1
  O  O366  1  0.38175325  0.61684024  0.86569713  1
  O  O367  1  0.86661891  0.12440031  0.37598650  1
  O  O368  1  0.87267694  0.12930557  0.86795624  1
  O  O369  1  0.86554264  0.62975293  0.35875124  1
  O  O370  1  0.87248639  0.62060407  0.86179552  1
  O  O371  1  0.13525907  0.37365740  0.13668763  1
  O  O372  1  0.09477876  0.38052426  0.63514055  1
  O  O373  1  0.12575938  0.88030703  0.13148809  1
  O  O374  1  0.11561511  0.88285153  0.64671700  1
  O  O375  1  0.63311419  0.38020449  0.12802413  1
  O  O376  1  0.62675336  0.37696337  0.64201715  1
  O  O377  1  0.63577635  0.88732804  0.10384206  1
  O  O378  1  0.63271864  0.88200942  0.62518550  1
  O  O379  1  0.12259595  0.25753630  0.25292249  1
  O  O380  1  0.11572804  0.24990008  0.75861617  1
  O  O381  1  0.12397704  0.76306314  0.25543159  1
  O  O382  1  0.11740177  0.76306731  0.74593150  1
  O  O383  1  0.61740996  0.26106647  0.24968392  1
  O  O384  1  0.62140553  0.25398719  0.75591700  1
  O  O385  1  0.61276592  0.74735287  0.24454202  1
  O  O386  1  0.61812167  0.74598369  0.75934206  1
  O  O387  1  0.38253415  0.24384974  0.24811103  1
  O  O388  1  0.38416948  0.24881112  0.73920557  1
  O  O389  1  0.38172308  0.74528432  0.23983185  1
  O  O390  1  0.38662172  0.74174952  0.75628480  1
  O  O391  1  0.87911703  0.24869749  0.23520725  1
  O  O392  1  0.87485310  0.23857761  0.74169433  1
  O  O393  1  0.87699365  0.74109001  0.23888515  1
  O  O394  1  0.88583467  0.74502626  0.73888319  1
  O  O395  1  0.37877759  0.48440533  0.50074288  1
  O  O396  1  0.38218342  0.49585141  0.99671445  1
  O  O397  1  0.38237070  0.99727038  0.49718136  1
  O  O398  1  0.37906843  0.99563886  0.99339261  1
  O  O399  1  0.89848314  0.51548036  0.48395893  1
  O  O400  1  0.88489715  0.49051661  1.00015761  1
  O  O401  1  0.88249497  0.99297550  0.49560017  1
  O  O402  1  0.86115203  1.01496871  0.99250162  1
  O  O403  1  0.12738783  0.00115697  0.01178763  1
  O  O404  1  0.12075571  0.00815645  0.50332415  1
  O  O405  1  0.11220872  0.49268438  0.00380860  1
  O  O406  1  0.10703901  0.50261474  0.50377076  1
  O  O407  1  0.61045965  0.01015692  -0.00859040  1
  O  O408  1  0.61806507  0.01068998  0.50919552  1
  O  O409  1  0.61868778  0.50324591  0.00191004  1
  O  O410  1  0.61704274  0.50501760  0.50204387  1
  O  O411  1  0.36993629  0.37532681  0.11375921  1
  O  O412  1  0.37114342  0.36426174  0.61225485  1
  O  O413  1  0.36991337  0.86747945  0.12040053  1
  O  O414  1  0.37041230  0.88531929  0.60642147  1
  O  O415  1  0.86817784  0.36886502  0.11858042  1
  O  O416  1  0.88397374  0.36228854  0.63088288  1
  O  O417  1  0.86969310  0.86106043  0.13019261  1
  O  O418  1  0.87610016  0.86510444  0.62042339  1
  O  O419  1  0.13292612  0.12924262  0.38284150  1
  O  O420  1  0.13564322  0.12550315  0.88045878  1
  O  O421  1  0.12751294  0.64145758  0.36508262  1
  O  O422  1  0.10291285  0.64482131  0.86553836  1
  O  O423  1  0.63183169  0.13076113  0.38588179  1
  O  O424  1  0.62001386  0.13739353  0.88363458  1
  O  O425  1  0.63700759  0.61720997  0.37813109  1
  O  O426  1  0.63441443  0.62733566  0.87601194  1
