# generated using pymatgen
data_V85Zn86O256
_symmetry_space_group_name_H-M   'P 1'
_cell_length_a   16.94274490
_cell_length_b   16.94371335
_cell_length_c   16.93745719
_cell_angle_alpha   89.98634753
_cell_angle_beta   90.01030717
_cell_angle_gamma   90.01386584
_symmetry_Int_Tables_number   1
_chemical_formula_structural   V85Zn86O256
_chemical_formula_sum   'V85 Zn86 O256'
_cell_volume   4862.28651097
_cell_formula_units_Z   1
loop_
 _symmetry_equiv_pos_site_id
 _symmetry_equiv_pos_as_xyz
  1  'x, y, z'
loop_
 _atom_site_type_symbol
 _atom_site_label
 _atom_site_symmetry_multiplicity
 _atom_site_fract_x
 _atom_site_fract_y
 _atom_site_fract_z
 _atom_site_occupancy
  V  V0  1  -0.01192578  0.38509303  0.39130903  1
  V  V1  1  0.37382043  0.74449676  0.13046853  1
  V  V2  1  0.87095974  0.86807277  0.50201686  1
  V  V3  1  0.63178578  0.74771599  0.39067840  1
  V  V4  1  0.75315989  0.12683858  0.87127805  1
  V  V5  1  0.62922768  0.12943136  0.49866172  1
  V  V6  1  0.86970193  0.25690841  0.12341358  1
  V  V7  1  0.49997125  0.13063917  0.13212547  1
  V  V8  1  0.62353492  0.12790514  -0.00039759  1
  V  V9  1  -0.00466894  0.37527020  0.87382057  1
  V  V10  1  0.87284427  0.00081307  0.37502329  1
  V  V11  1  0.11509209  0.62015003  0.49998587  1
  V  V12  1  0.86702592  0.23499464  0.60668407  1
  V  V13  1  0.49781793  0.87821480  0.37254228  1
  V  V14  1  0.87959023  0.00220620  0.86873557  1
  V  V15  1  0.62599832  -0.00092061  0.12512540  1
  V  V16  1  0.74827043  0.25783889  -0.00137540  1
  V  V17  1  0.00004323  0.12594950  0.12429067  1
  V  V18  1  0.49911625  0.12697394  0.62970495  1
  V  V19  1  0.74879573  0.74858256  0.00187510  1
  V  V20  1  0.37721015  0.25200923  0.13306518  1
  V  V21  1  0.13243243  0.12318780  0.49994102  1
  V  V22  1  0.50045201  0.37232722  0.86027331  1
  V  V23  1  0.37550939  0.37499801  0.00055685  1
  V  V24  1  0.00482025  0.00157297  0.50223496  1
  V  V25  1  0.12131549  0.74972974  0.37473878  1
  V  V26  1  0.25449770  0.00456784  0.26135961  1
  V  V27  1  0.37379656  0.12436940  0.26218291  1
  V  V28  1  0.87569707  0.74855870  0.12462108  1
  V  V29  1  0.75100392  0.86075304  0.62290395  1
  V  V30  1  0.87374286  0.12475729  0.24877700  1
  V  V31  1  -0.00177973  0.74971451  0.24921155  1
  V  V32  1  0.24882467  0.62637980  0.87345869  1
  V  V33  1  0.12708535  0.25141621  0.37289767  1
  V  V34  1  0.87130446  0.62181920  0.25745616  1
  V  V35  1  0.49617890  -0.00065283  -0.00144443  1
  V  V36  1  0.24324456  0.88181776  0.62639549  1
  V  V37  1  0.87629939  0.87454205  -0.00546677  1
  V  V38  1  -0.00236050  0.87521131  0.37436769  1
  V  V39  1  0.62053318  0.25311713  0.86014670  1
  V  V40  1  0.38671497  0.38398354  0.49316238  1
  V  V41  1  0.61118196  0.37112002  0.25281214  1
  V  V42  1  0.25018898  0.37800780  0.62140543  1
  V  V43  1  0.49668007  0.62098443  0.13567025  1
  V  V44  1  0.25266991  0.25094969  0.49172254  1
  V  V45  1  0.79078213  0.40161472  0.61196748  1
  V  V46  1  0.37618871  0.12865780  0.75109625  1
  V  V47  1  0.00082516  0.25381850  0.25077620  1
  V  V48  1  0.75105088  0.13370349  0.37724549  1
  V  V49  1  0.12429631  0.87685619  0.24909765  1
  V  V50  1  0.74865874  0.62098437  0.87372639  1
  V  V51  1  0.11775791  0.49964558  0.62280488  1
  V  V52  1  0.61477115  0.48431696  0.62020035  1
  V  V53  1  0.37839437  0.25358655  0.62528851  1
  V  V54  1  0.12461824  0.37146688  0.74920335  1
  V  V55  1  0.87680363  0.63254454  0.75185084  1
  V  V56  1  0.62627174  0.00092098  0.62422052  1
  V  V57  1  0.62656126  0.86997402  0.24965425  1
  V  V58  1  0.75057731  -0.00121838  0.74778649  1
  V  V59  1  0.24885521  0.24977562  0.00108432  1
  V  V60  1  0.49467328  0.00218003  0.49714549  1
  V  V61  1  0.62361111  0.62298035  0.00252331  1
  V  V62  1  0.38528161  0.50414805  0.36883764  1
  V  V63  1  0.11475095  0.75726459  0.87018344  1
  V  V64  1  0.49957242  0.74912240  0.75031660  1
  V  V65  1  0.37436775  0.62442668  0.74631120  1
  V  V66  1  0.25010449  0.12396263  0.87527781  1
  V  V67  1  0.37327555  0.87729908  0.49534330  1
  V  V68  1  0.25314292  0.87639793  0.12355783  1
  V  V69  1  0.00333576  0.61219713  0.12720078  1
  V  V70  1  -0.00251570  0.64129599  0.63332611  1
  V  V71  1  0.50908981  0.62615978  0.60886333  1
  V  V72  1  0.12435464  0.61868575  0.00140307  1
  V  V73  1  -0.01229929  0.24653900  0.74837032  1
  V  V74  1  0.00062211  -0.00379442  -0.00266097  1
  V  V75  1  0.24092725  0.38294726  0.12776748  1
  V  V76  1  0.24887585  0.74769042  0.50011523  1
  V  V77  1  0.62421599  0.75093369  0.87688299  1
  V  V78  1  0.50051747  0.49651885  0.00018805  1
  V  V79  1  0.12570497  0.00128502  0.12568304  1
  V  V80  1  0.61238466  0.25271878  0.37264166  1
  V  V81  1  0.25051315  0.62136331  0.36983627  1
  V  V82  1  0.75390985  0.48819532  0.26492319  1
  V  V83  1  0.63634205  0.49482723  0.12745150  1
  V  V84  1  0.00703371  0.12137460  0.63060583  1
  Zn  Zn85  1  0.10778517  0.87937861  0.74501663  1
  Zn  Zn86  1  0.37467774  0.49994546  0.87345464  1
  Zn  Zn87  1  0.24690109  0.00404227  0.74276640  1
  Zn  Zn88  1  -0.00073590  0.49372470  0.00264598  1
  Zn  Zn89  1  0.12439660  0.12494383  -0.00139092  1
  Zn  Zn90  1  0.24912177  0.75020650  0.00004970  1
  Zn  Zn91  1  0.11951149  0.38835963  0.25127625  1
  Zn  Zn92  1  0.24832359  0.50842821  0.24662305  1
  Zn  Zn93  1  0.12444707  0.24872445  0.87307954  1
  Zn  Zn94  1  0.37618921  0.87142857  -0.00253734  1
  Zn  Zn95  1  0.74863901  0.00008917  0.25076123  1
  Zn  Zn96  1  0.37512044  0.74950725  0.62245750  1
  Zn  Zn97  1  0.74118482  0.61836058  0.38962899  1
  Zn  Zn98  1  0.87174372  0.37775607  -0.00062920  1
  Zn  Zn99  1  0.62299902  0.87588775  0.75029099  1
  Zn  Zn100  1  0.49738321  0.74567006  0.25347473  1
  Zn  Zn101  1  0.49734582  0.87482092  0.87450229  1
  Zn  Zn102  1  0.25002174  0.50011146  0.74869136  1
  Zn  Zn103  1  0.87234464  0.49697304  0.87404013  1
  Zn  Zn104  1  0.37651610  -0.00401745  0.86948958  1
  Zn  Zn105  1  0.75072912  0.87484302  0.12470827  1
  Zn  Zn106  1  0.73880208  0.49384455  0.75099038  1
  Zn  Zn107  1  0.18926573  0.18833689  0.18862779  1
  Zn  Zn108  1  0.18942578  0.18989393  0.68432076  1
  Zn  Zn109  1  0.18478085  0.68780104  0.18627760  1
  Zn  Zn110  1  0.18556909  0.69224682  0.68798966  1
  Zn  Zn111  1  0.68856196  0.19035249  0.18903398  1
  Zn  Zn112  1  0.68801685  0.18376485  0.68897793  1
  Zn  Zn113  1  0.68900048  0.68294040  0.19218651  1
  Zn  Zn114  1  0.68444494  0.68333978  0.69150360  1
  Zn  Zn115  1  0.31592342  0.31631304  0.31171421  1
  Zn  Zn116  1  0.31450562  0.31175905  0.81156560  1
  Zn  Zn117  1  0.31207239  0.81246788  0.31097213  1
  Zn  Zn118  1  0.31269214  0.80987781  0.81353812  1
  Zn  Zn119  1  0.81206775  0.31217738  0.31696094  1
  Zn  Zn120  1  0.81009806  0.31515746  0.79917393  1
  Zn  Zn121  1  0.81026714  0.81232086  0.31236607  1
  Zn  Zn122  1  0.93640898  0.81261410  0.81205529  1
  Zn  Zn123  1  0.18503054  0.43761086  0.43428520  1
  Zn  Zn124  1  0.18605564  0.43877331  0.93501740  1
  Zn  Zn125  1  0.18679746  0.93736151  0.43766450  1
  Zn  Zn126  1  0.18883341  0.93981885  0.93596459  1
  Zn  Zn127  1  0.68355624  0.43044835  0.44708875  1
  Zn  Zn128  1  0.68206328  0.43496545  0.93456894  1
  Zn  Zn129  1  0.68695500  0.93945859  0.43816464  1
  Zn  Zn130  1  0.68722080  0.93587746  0.93681148  1
  Zn  Zn131  1  0.31384186  0.06411171  0.06686157  1
  Zn  Zn132  1  0.31339754  0.06396189  0.55810225  1
  Zn  Zn133  1  0.31441374  0.56393492  0.05876960  1
  Zn  Zn134  1  0.31124552  0.56309786  0.56120751  1
  Zn  Zn135  1  0.81191147  0.06679986  0.05860520  1
  Zn  Zn136  1  0.81588981  0.06264061  0.56122079  1
  Zn  Zn137  1  0.81594564  0.55974033  0.06296664  1
  Zn  Zn138  1  0.80553775  0.56818852  0.57292065  1
  Zn  Zn139  1  0.43451075  0.44004907  0.18881447  1
  Zn  Zn140  1  0.43841710  0.44355587  0.68202693  1
  Zn  Zn141  1  0.43683401  0.93932385  0.18768533  1
  Zn  Zn142  1  0.43280069  0.93742348  0.68498852  1
  Zn  Zn143  1  0.93367561  0.43483083  0.19264842  1
  Zn  Zn144  1  0.93438138  0.44601496  0.68500411  1
  Zn  Zn145  1  0.93550485  0.93731346  0.18443760  1
  Zn  Zn146  1  0.93327093  0.94242168  0.68258899  1
  Zn  Zn147  1  0.06504677  0.06583930  0.31495620  1
  Zn  Zn148  1  0.06892820  0.05732213  0.81108829  1
  Zn  Zn149  1  0.06237626  0.55920173  0.31231910  1
  Zn  Zn150  1  0.06392929  0.55996769  0.81100779  1
  Zn  Zn151  1  0.56219950  0.06143594  0.31168280  1
  Zn  Zn152  1  0.56368327  0.06425237  0.81259331  1
  Zn  Zn153  1  0.56838339  0.56195538  0.31650915  1
  Zn  Zn154  1  0.56125949  0.56082054  0.80908658  1
  Zn  Zn155  1  0.43882967  0.19051589  0.43988686  1
  Zn  Zn156  1  0.43800111  0.18963888  0.93987569  1
  Zn  Zn157  1  0.43542212  0.69119957  0.43122477  1
  Zn  Zn158  1  0.43509324  0.68626708  0.94116088  1
  Zn  Zn159  1  0.94422542  0.18665929  0.43506674  1
  Zn  Zn160  1  0.93723520  0.18730358  0.93612160  1
  Zn  Zn161  1  0.90522442  0.66137584  0.46509574  1
  Zn  Zn162  1  0.93643562  0.68061342  0.94066284  1
  Zn  Zn163  1  0.06236947  0.31138561  0.06043664  1
  Zn  Zn164  1  0.06032976  0.30938262  0.56321994  1
  Zn  Zn165  1  0.06370518  0.80880818  0.05910111  1
  Zn  Zn166  1  0.06106344  0.81315216  0.55990670  1
  Zn  Zn167  1  0.56488643  0.31387039  0.06397858  1
  Zn  Zn168  1  0.56295995  0.30915839  0.55806174  1
  Zn  Zn169  1  0.55848239  0.81175005  0.06440630  1
  Zn  Zn170  1  0.56134673  0.81404797  0.56542180  1
  O  O171  1  0.11756580  0.11984922  0.12410747  1
  O  O172  1  0.12074392  0.13032292  0.61051774  1
  O  O173  1  0.11466349  0.63168195  0.11495442  1
  O  O174  1  0.11989289  0.62122602  0.62038443  1
  O  O175  1  0.61790325  0.12029446  0.12286066  1
  O  O176  1  0.61638637  0.12299697  0.61692126  1
  O  O177  1  0.61830202  0.61598546  0.12122554  1
  O  O178  1  0.61089853  0.62947052  0.62123250  1
  O  O179  1  0.37028109  0.38842618  0.38462139  1
  O  O180  1  0.38076487  0.37490542  0.88395265  1
  O  O181  1  0.38253697  0.87057885  0.38529527  1
  O  O182  1  0.37691978  0.87775245  0.87880625  1
  O  O183  1  0.88873538  0.36949356  0.37602977  1
  O  O184  1  0.88164233  0.37280848  0.87268852  1
  O  O185  1  0.87749801  0.88290794  0.37919941  1
  O  O186  1  0.87709885  0.88425279  0.88837774  1
  O  O187  1  0.24795036  -0.00466297  0.36055678  1
  O  O188  1  0.25753104  0.01547951  0.88114932  1
  O  O189  1  0.25686100  0.50939883  0.37714722  1
  O  O190  1  0.25062373  0.51275334  0.87121078  1
  O  O191  1  0.75642813  0.00950668  0.37337799  1
  O  O192  1  0.75492519  0.00521037  0.86933392  1
  O  O193  1  0.74323222  0.49802596  0.36765356  1
  O  O194  1  0.74309375  0.51003331  0.87307420  1
  O  O195  1  0.25758574  0.48532592  0.12335476  1
  O  O196  1  0.24000402  0.49545011  0.62612856  1
  O  O197  1  0.24380362  0.99374482  0.13040971  1
  O  O198  1  0.25358166  0.98496655  0.61900715  1
  O  O199  1  0.73880608  0.50509925  0.13512165  1
  O  O200  1  0.72923104  0.49956501  0.62812782  1
  O  O201  1  0.73549884  1.00285899  0.12227041  1
  O  O202  1  0.74263910  1.00847664  0.63338895  1
  O  O203  1  0.00103920  0.36279243  0.25226993  1
  O  O204  1  0.00462763  0.36641257  0.75219500  1
  O  O205  1  0.00349977  0.87122476  0.25335114  1
  O  O206  1  -0.00498156  0.87925417  0.74759697  1
  O  O207  1  0.51263859  0.38035964  0.25162717  1
  O  O208  1  0.48616910  0.37699941  0.76206302  1
  O  O209  1  0.50614379  0.87577301  0.25790996  1
  O  O210  1  0.49860005  0.86171054  0.74791761  1
  O  O211  1  0.49310965  0.11779773  0.23786134  1
  O  O212  1  0.49399067  0.12148090  0.73651481  1
  O  O213  1  0.50598445  0.62345254  0.23851684  1
  O  O214  1  0.49237435  0.63577310  0.74557841  1
  O  O215  1  0.99524557  0.13569939  0.24627741  1
  O  O216  1  1.01316327  0.13162361  0.73814178  1
  O  O217  1  0.99754584  0.63117707  0.24162341  1
  O  O218  1  0.99524011  0.62354854  0.74211180  1
  O  O219  1  0.36590391  0.25422658  0.01041142  1
  O  O220  1  0.36867753  0.26056388  0.50127432  1
  O  O221  1  0.37184189  0.75087550  0.01358650  1
  O  O222  1  0.36480029  0.75816147  0.49814062  1
  O  O223  1  0.86590760  0.24901525  0.00639951  1
  O  O224  1  0.87390686  0.23865994  0.50732490  1
  O  O225  1  0.87135061  0.75647975  0.00415846  1
  O  O226  1  0.88933426  0.77135764  0.49827834  1
  O  O227  1  0.13412671  0.24531598  0.49394804  1
  O  O228  1  0.13868487  0.24777055  0.99938770  1
  O  O229  1  0.12959317  0.74197630  0.49436870  1
  O  O230  1  0.12652203  0.73917251  0.98970759  1
  O  O231  1  0.62139659  0.23753235  0.49079585  1
  O  O232  1  0.63217833  0.24492010  0.99607603  1
  O  O233  1  0.62522414  0.75747241  0.48869941  1
  O  O234  1  0.62634023  0.74398745  0.99601282  1
  O  O235  1  0.49096120  0.24169951  0.11979976  1
  O  O236  1  0.48613752  0.24098605  0.61591422  1
  O  O237  1  0.49304822  0.73831002  0.12612113  1
  O  O238  1  0.49812319  0.74275090  0.63233728  1
  O  O239  1  0.99465269  0.24435201  0.13079024  1
  O  O240  1  0.99574342  0.23769509  0.62977474  1
  O  O241  1  0.99176274  0.74468382  0.12949942  1
  O  O242  1  1.00977798  0.73965571  0.63132987  1
  O  O243  1  0.00723603  0.25586282  0.36687602  1
  O  O244  1  0.00226692  0.25658870  0.86673484  1
  O  O245  1  0.00688550  0.75981956  0.36586447  1
  O  O246  1  0.01047923  0.74777656  0.87991477  1
  O  O247  1  0.51285159  0.24528106  0.37217865  1
  O  O248  1  0.50894000  0.25994570  0.88230408  1
  O  O249  1  0.50895943  0.76152773  0.37306418  1
  O  O250  1  0.50860434  0.74713785  0.87017544  1
  O  O251  1  0.24457039  0.13588159  0.50135805  1
  O  O252  1  0.25212001  0.13391136  0.99537187  1
  O  O253  1  0.24132647  0.63314093  0.49364079  1
  O  O254  1  0.24246652  0.62586214  0.99231269  1
  O  O255  1  0.73824905  0.11628251  0.49076408  1
  O  O256  1  0.74315652  0.13182560  0.98822320  1
  O  O257  1  0.79679298  0.62993488  0.48513507  1
  O  O258  1  0.74327176  0.62839341  0.99599199  1
  O  O259  1  0.25376980  0.36999363  0.00737446  1
  O  O260  1  0.25508309  0.36808195  0.50441741  1
  O  O261  1  0.25042853  0.87584815  0.01385708  1
  O  O262  1  0.25473502  0.86958368  0.50434676  1
  O  O263  1  0.74919389  0.36117229  -0.00550839  1
  O  O264  1  0.74473103  0.36996652  0.52835305  1
  O  O265  1  0.75730958  0.86699802  0.00172281  1
  O  O266  1  0.75591982  0.88197849  0.51276138  1
  O  O267  1  0.13508234  0.50014850  0.25208007  1
  O  O268  1  0.12780307  0.48687522  0.74318193  1
  O  O269  1  0.13032725  0.99682713  0.24506162  1
  O  O270  1  0.13760028  0.98810523  0.75995534  1
  O  O271  1  0.63437990  0.49037176  0.24832532  1
  O  O272  1  0.62246025  0.50923692  0.73085811  1
  O  O273  1  0.62459089  0.98946195  0.24193667  1
  O  O274  1  0.63073094  0.99831376  0.74396837  1
  O  O275  1  0.36603409  0.01073334  0.24412154  1
  O  O276  1  0.36965602  0.01454375  0.74727383  1
  O  O277  1  0.36736904  0.49626405  0.26472499  1
  O  O278  1  0.37328731  0.51313309  0.75093937  1
  O  O279  1  0.87515647  0.00635569  0.25729822  1
  O  O280  1  0.86591176  0.00002148  0.76188975  1
  O  O281  1  0.85895120  0.50467455  0.24503422  1
  O  O282  1  0.86862099  0.51376813  0.75559163  1
  O  O283  1  0.11657133  0.36375025  0.37432019  1
  O  O284  1  0.11984231  0.37053618  0.86505795  1
  O  O285  1  0.11879303  0.87060169  0.36883761  1
  O  O286  1  0.12987845  0.85820673  0.88081722  1
  O  O287  1  0.63014158  0.36603649  0.36461178  1
  O  O288  1  0.61384508  0.36536686  0.87463032  1
  O  O289  1  0.61953459  0.86869538  0.36852287  1
  O  O290  1  0.62202327  0.86413147  0.87273740  1
  O  O291  1  0.38271154  0.13405251  0.13154498  1
  O  O292  1  0.37985203  0.13308884  0.62822684  1
  O  O293  1  0.38385991  0.63032304  0.12290711  1
  O  O294  1  0.38219631  0.62713958  0.63057433  1
  O  O295  1  0.88132335  0.13159900  0.12921988  1
  O  O296  1  0.89257601  0.12665340  0.62144775  1
  O  O297  1  0.88278297  0.63022835  0.13319914  1
  O  O298  1  0.89086926  0.63000302  0.63619995  1
  O  O299  1  0.25680790  0.25789250  0.11848852  1
  O  O300  1  0.26167565  0.25591482  0.61414370  1
  O  O301  1  0.25596987  0.75798007  0.12537187  1
  O  O302  1  0.25061362  0.75638673  0.61182591  1
  O  O303  1  0.75853516  0.24056866  0.11219920  1
  O  O304  1  0.76798862  0.22743729  0.62410540  1
  O  O305  1  0.75850706  0.74701763  0.11984591  1
  O  O306  1  0.74542548  0.76309705  0.63014957  1
  O  O307  1  0.24388194  0.25758087  0.38353512  1
  O  O308  1  0.25226283  0.24146425  0.88368358  1
  O  O309  1  0.24345953  0.74719563  0.38409913  1
  O  O310  1  0.24262674  0.73897608  0.87748160  1
  O  O311  1  0.74161168  0.23707248  0.37039759  1
  O  O312  1  0.74405153  0.24410414  0.87637921  1
  O  O313  1  0.73357852  0.75234011  0.37213135  1
  O  O314  1  0.73372016  0.73534042  0.88395454  1
  O  O315  1  -0.00008586  0.11632134  0.00740458  1
  O  O316  1  0.01080712  0.11915726  0.50523892  1
  O  O317  1  0.00596073  0.62137328  0.01046764  1
  O  O318  1  0.00524524  0.62889460  0.51672611  1
  O  O319  1  0.50435021  0.11977895  0.01075150  1
  O  O320  1  0.50366674  0.11819968  0.50744887  1
  O  O321  1  0.50456384  0.61194125  0.00616280  1
  O  O322  1  0.49485186  0.63420483  0.51167655  1
  O  O323  1  0.48434409  0.37175712  0.49700757  1
  O  O324  1  0.49621529  0.38502983  0.99909320  1
  O  O325  1  0.49244698  0.88164457  0.49506388  1
  O  O326  1  0.49946449  0.88591532  0.99926296  1
  O  O327  1  1.00162804  0.37247293  0.49036710  1
  O  O328  1  0.99836323  0.37270398  0.98877988  1
  O  O329  1  0.99741816  0.88576231  0.49554569  1
  O  O330  1  0.99279691  0.88820016  1.00735253  1
  O  O331  1  0.48437007  0.50746276  0.37209328  1
  O  O332  1  0.50077054  0.49196229  0.88377596  1
  O  O333  1  0.50666740  0.98714290  0.38282052  1
  O  O334  1  0.49864077  1.00052966  0.88414956  1
  O  O335  1  1.00115409  0.48391379  0.37404228  1
  O  O336  1  1.00095423  0.48365468  0.87234277  1
  O  O337  1  0.99415544  0.99682248  0.38142284  1
  O  O338  1  0.99016417  1.01026638  0.88555850  1
  O  O339  1  0.00469608  0.00679537  0.11928288  1
  O  O340  1  -0.00138451  0.00758591  0.61069243  1
  O  O341  1  -0.00411468  0.50927438  0.12756568  1
  O  O342  1  0.01611436  0.51117118  0.63119294  1
  O  O343  1  0.51024431  0.00643279  0.11925983  1
  O  O344  1  0.50501665  0.00596658  0.61729656  1
  O  O345  1  0.50587022  0.50420592  0.11989013  1
  O  O346  1  0.50426642  0.51720636  0.62474902  1
  O  O347  1  0.24908171  0.37220381  0.23350722  1
  O  O348  1  0.24286317  0.37353096  0.74145456  1
  O  O349  1  0.24606724  0.88216547  0.24062673  1
  O  O350  1  0.25869839  0.87196366  0.72961663  1
  O  O351  1  0.74600215  0.38599186  0.25244907  1
  O  O352  1  0.76135908  0.37985083  0.71720261  1
  O  O353  1  0.74117351  0.87943230  0.24534801  1
  O  O354  1  0.74623700  0.88985125  0.73382837  1
  O  O355  1  0.26032260  0.11651588  0.24482250  1
  O  O356  1  0.25708050  0.12759606  0.75728643  1
  O  O357  1  0.24600127  0.63221821  0.26670566  1
  O  O358  1  0.25683849  0.62652196  0.75477129  1
  O  O359  1  0.75602066  0.12191864  0.25721728  1
  O  O360  1  0.74363395  0.11386440  0.76410014  1
  O  O361  1  0.75572709  0.61339631  0.25890393  1
  O  O362  1  0.75529279  0.62353333  0.75939897  1
  O  O363  1  0.38143298  0.13039675  0.36146398  1
  O  O364  1  0.37196739  0.12780743  0.86516905  1
  O  O365  1  0.36543510  0.61307801  0.38250954  1
  O  O366  1  0.36674843  0.62527283  0.86737003  1
  O  O367  1  0.86894191  0.12116891  0.37044807  1
  O  O368  1  0.86411394  0.11453012  0.88198744  1
  O  O369  1  0.88999710  0.62771235  0.35540364  1
  O  O370  1  0.86356633  0.62097161  0.87400316  1
  O  O371  1  0.13864801  0.37116071  0.12459123  1
  O  O372  1  0.12819108  0.38124942  0.62835657  1
  O  O373  1  0.13160548  0.87902346  0.13045841  1
  O  O374  1  0.14035293  0.87039576  0.62312641  1
  O  O375  1  0.62234326  0.38234818  0.13948347  1
  O  O376  1  0.60287363  0.38517027  0.63062725  1
  O  O377  1  0.62493748  0.88247874  0.13138234  1
  O  O378  1  0.63553464  0.88275208  0.62363522  1
  O  O379  1  0.11770041  0.25102641  0.25706103  1
  O  O380  1  0.11821219  0.26119101  0.74544356  1
  O  O381  1  0.11925791  0.75815622  0.25414205  1
  O  O382  1  0.12841879  0.75600901  0.76618880  1
  O  O383  1  0.62832823  0.26436184  0.25397757  1
  O  O384  1  0.62443293  0.24470814  0.76076646  1
  O  O385  1  0.62159196  0.76166207  0.24952737  1
  O  O386  1  0.61654500  0.75048300  0.75979780  1
  O  O387  1  0.37022695  0.24399648  0.23939483  1
  O  O388  1  0.37133130  0.23985266  0.73805003  1
  O  O389  1  0.37855815  0.75455133  0.23689670  1
  O  O390  1  0.38131067  0.73985196  0.74764778  1
  O  O391  1  0.88004317  0.24442280  0.24303998  1
  O  O392  1  0.88685018  0.23885666  0.75097705  1
  O  O393  1  0.87706033  0.74451644  0.24236551  1
  O  O394  1  0.87161330  0.73273609  0.76444775  1
  O  O395  1  0.37144383  0.48911251  0.49257490  1
  O  O396  1  0.38448480  0.49398184  0.99683998  1
  O  O397  1  0.38673452  0.99508142  0.50018881  1
  O  O398  1  0.38907137  1.00181833  1.00376542  1
  O  O399  1  0.86549869  0.46995329  0.58332318  1
  O  O400  1  0.87896907  0.49482753  0.99515030  1
  O  O401  1  0.88434038  0.99571454  0.49070386  1
  O  O402  1  0.87955367  0.99346919  0.99464889  1
  O  O403  1  0.11620042  0.00147181  0.00554405  1
  O  O404  1  0.11751032  0.01087653  0.49133632  1
  O  O405  1  0.12054281  0.51377293  -0.00572282  1
  O  O406  1  0.12980374  0.51331126  0.50642755  1
  O  O407  1  0.61694780  0.00591409  0.00559915  1
  O  O408  1  0.61387124  0.00916425  0.50275298  1
  O  O409  1  0.61981717  0.50019753  0.01067662  1
  O  O410  1  0.62289570  0.49703998  0.51805340  1
  O  O411  1  0.36911321  0.36830121  0.12063775  1
  O  O412  1  0.37253579  0.37177029  0.61396557  1
  O  O413  1  0.36774974  0.86911645  0.12362160  1
  O  O414  1  0.36832368  0.87181040  0.60994964  1
  O  O415  1  0.87788420  0.35993175  0.12289695  1
  O  O416  1  0.88135059  0.33922745  0.63227038  1
  O  O417  1  0.87239618  0.86862834  0.11418168  1
  O  O418  1  0.85769738  0.88399625  0.61620185  1
  O  O419  1  0.12012010  0.14067971  0.38535375  1
  O  O420  1  0.13609409  0.13007590  0.87816608  1
  O  O421  1  0.12721397  0.63045777  0.38469565  1
  O  O422  1  0.12984423  0.63248094  0.87831894  1
  O  O423  1  0.63063192  0.12920629  0.37916795  1
  O  O424  1  0.62903820  0.13309858  0.88167828  1
  O  O425  1  0.62471690  0.64232402  0.37492060  1
  O  O426  1  0.62690210  0.62886292  0.88288792  1
