# generated using pymatgen
data_V85Zn86O256
_symmetry_space_group_name_H-M   'P 1'
_cell_length_a   16.94977586
_cell_length_b   16.94542145
_cell_length_c   16.94170957
_cell_angle_alpha   89.95281785
_cell_angle_beta   90.09657606
_cell_angle_gamma   89.91224821
_symmetry_Int_Tables_number   1
_chemical_formula_structural   V85Zn86O256
_chemical_formula_sum   'V85 Zn86 O256'
_cell_volume   4866.00210077
_cell_formula_units_Z   1
loop_
 _symmetry_equiv_pos_site_id
 _symmetry_equiv_pos_as_xyz
  1  'x, y, z'
loop_
 _atom_site_type_symbol
 _atom_site_label
 _atom_site_symmetry_multiplicity
 _atom_site_fract_x
 _atom_site_fract_y
 _atom_site_fract_z
 _atom_site_occupancy
  V  V0  1  0.87355378  0.25791411  0.62452536  1
  V  V1  1  0.25418696  0.76423107  0.49751451  1
  V  V2  1  0.25489600  0.38027733  0.62241919  1
  V  V3  1  0.50124283  0.75213141  0.24810137  1
  V  V4  1  -0.00063502  -0.00146875  0.50380266  1
  V  V5  1  0.62820075  -0.00677329  0.11668269  1
  V  V6  1  0.87806171  0.87149964  -0.00506931  1
  V  V7  1  0.24938165  0.49970908  0.24595507  1
  V  V8  1  0.62384877  0.87688890  0.74859280  1
  V  V9  1  0.75853363  0.36996076  0.12435200  1
  V  V10  1  0.24798799  0.87103677  0.11963906  1
  V  V11  1  0.75080232  0.75182854  0.50577318  1
  V  V12  1  0.35682711  0.12518579  0.74559655  1
  V  V13  1  0.12072507  0.87067682  0.24894025  1
  V  V14  1  0.24901701  0.87993500  0.63158341  1
  V  V15  1  0.49715648  -0.00548942  0.50344043  1
  V  V16  1  0.38047502  0.75710069  0.62058418  1
  V  V17  1  0.12990800  0.12469596  -0.00530805  1
  V  V18  1  0.12334983  0.74625564  0.37391496  1
  V  V19  1  0.62610529  0.49905335  0.12429042  1
  V  V20  1  0.61977045  0.24747814  0.37303559  1
  V  V21  1  0.14028805  0.24746173  0.87098647  1
  V  V22  1  0.88789743  0.62446777  0.25739194  1
  V  V23  1  0.88117125  0.49863753  0.88681934  1
  V  V24  1  0.62775887  0.62549618  0.50218706  1
  V  V25  1  0.37978136  0.25358957  0.61847789  1
  V  V26  1  0.12678904  0.50429542  0.62727692  1
  V  V27  1  0.12758245  0.37698503  0.75294141  1
  V  V28  1  0.50205419  0.00295994  -0.01425622  1
  V  V29  1  0.50108364  0.62594313  0.12333717  1
  V  V30  1  -0.00080920  0.12296968  0.62715366  1
  V  V31  1  0.49459652  0.25006606  0.24074982  1
  V  V32  1  0.00010247  -0.00559487  -0.00704119  1
  V  V33  1  0.50265584  0.37910951  0.86866483  1
  V  V34  1  0.87024992  0.00049411  0.37059237  1
  V  V35  1  0.74903383  0.62916779  0.87813890  1
  V  V36  1  0.75312496  0.62558176  0.37662442  1
  V  V37  1  0.25532769  0.62175049  0.37840595  1
  V  V38  1  0.74943592  0.25416216  0.49863372  1
  V  V39  1  0.62555710  0.37280770  0.24807124  1
  V  V40  1  0.87164179  0.75458643  0.63092787  1
  V  V41  1  0.37754300  0.36870216  0.00265492  1
  V  V42  1  0.86894918  0.87525720  0.50506000  1
  V  V43  1  0.25643094  0.63503053  0.88345805  1
  V  V44  1  0.62467407  0.62892346  -0.00312489  1
  V  V45  1  0.25598999  0.24613148  0.01111154  1
  V  V46  1  -0.00007383  0.25215656  0.75425834  1
  V  V47  1  0.62397787  0.11777278  0.49982626  1
  V  V48  1  0.74864080  0.37495419  0.62870913  1
  V  V49  1  0.49500321  0.49905513  -0.00616288  1
  V  V50  1  -0.00032594  0.25239516  0.27512088  1
  V  V51  1  0.87386832  0.48484890  0.38597419  1
  V  V52  1  -0.00582848  0.13733862  0.12303022  1
  V  V53  1  0.36961045  0.75022623  0.11952885  1
  V  V54  1  0.12239571  -0.00019042  0.12459268  1
  V  V55  1  0.50254509  0.63071660  0.62715807  1
  V  V56  1  0.49491603  0.50106215  0.49444051  1
  V  V57  1  -0.00208689  0.61550960  0.12012788  1
  V  V58  1  0.75086246  0.24286879  0.00413623  1
  V  V59  1  0.37749323  0.62224211  0.25386566  1
  V  V60  1  0.87550695  0.62470209  0.75439485  1
  V  V61  1  0.00127687  0.62825033  0.62738557  1
  V  V62  1  0.50857409  0.25136729  0.74860790  1
  V  V63  1  0.37708481  0.87511978  -0.00787677  1
  V  V64  1  0.50538076  0.75493249  0.76873580  1
  V  V65  1  0.87659263  0.75654571  0.13619696  1
  V  V66  1  0.74750154  -0.00548108  0.73481169  1
  V  V67  1  0.50385615  0.12590943  0.11470368  1
  V  V68  1  0.00555133  0.75719470  0.76207246  1
  V  V69  1  0.35778525  0.00569191  0.86831119  1
  V  V70  1  0.62475850  0.49570887  0.63028665  1
  V  V71  1  0.00511326  0.37769842  0.88758094  1
  V  V72  1  0.73699528  0.12181190  0.87518923  1
  V  V73  1  0.74713145  0.49303369  0.75657639  1
  V  V74  1  0.74679624  0.75767762  0.00572253  1
  V  V75  1  -0.00554340  0.48827848  0.50514986  1
  V  V76  1  0.62674357  0.75230658  0.37472664  1
  V  V77  1  0.37429269  0.12472585  0.24187038  1
  V  V78  1  -0.00310570  0.86858843  0.37138241  1
  V  V79  1  0.49690026  0.87394162  0.37635157  1
  V  V80  1  0.26078893  0.50358477  0.76016304  1
  V  V81  1  0.75158615  0.49923804  0.25299724  1
  V  V82  1  0.50214167  0.11923932  0.62605863  1
  V  V83  1  0.37548009  -0.00056222  0.37209014  1
  V  V84  1  0.87183911  0.12609531  0.75560460  1
  Zn  Zn85  1  0.12817738  0.88272852  0.76402484  1
  Zn  Zn86  1  0.24069129  0.13841710  0.36822480  1
  Zn  Zn87  1  0.12698344  0.62648690  0.50085081  1
  Zn  Zn88  1  0.63059866  0.87384636  0.24267636  1
  Zn  Zn89  1  0.74869034  0.12383216  0.36838722  1
  Zn  Zn90  1  0.12415510  0.61999228  -0.00099152  1
  Zn  Zn91  1  0.62541361  0.25418666  0.87563601  1
  Zn  Zn92  1  0.88191749  0.37046232  0.00847319  1
  Zn  Zn93  1  0.87325342  -0.00597007  0.87380080  1
  Zn  Zn94  1  0.13584232  0.00220094  0.63240457  1
  Zn  Zn95  1  0.75151750  -0.00372780  0.23962440  1
  Zn  Zn96  1  0.13088004  0.35764045  0.26296898  1
  Zn  Zn97  1  0.12158540  0.13477712  0.48739213  1
  Zn  Zn98  1  0.25101210  -0.00051762  0.24828965  1
  Zn  Zn99  1  0.86935870  0.12724333  0.24279064  1
  Zn  Zn100  1  0.49754611  0.38210576  0.36806299  1
  Zn  Zn101  1  0.12978230  0.75716084  -0.10653291  1
  Zn  Zn102  1  0.37224724  0.38144677  0.49052763  1
  Zn  Zn103  1  0.25346175  0.37325698  0.12792469  1
  Zn  Zn104  1  0.11661320  0.48858228  0.12038109  1
  Zn  Zn105  1  0.37936716  0.62648744  0.75232964  1
  Zn  Zn106  1  0.24438112  0.25256126  0.48822037  1
  Zn  Zn107  1  0.18297096  0.18545169  0.19028356  1
  Zn  Zn108  1  0.17962361  0.19937166  0.66070458  1
  Zn  Zn109  1  0.18472068  0.68609575  0.18799781  1
  Zn  Zn110  1  0.19002779  0.69164308  0.69056906  1
  Zn  Zn111  1  0.68457004  0.18056277  0.18385905  1
  Zn  Zn112  1  0.68578207  0.18317221  0.68546884  1
  Zn  Zn113  1  0.69122704  0.68711124  0.18793181  1
  Zn  Zn114  1  0.68597126  0.68844802  0.69198094  1
  Zn  Zn115  1  0.31772469  0.31291466  0.32011629  1
  Zn  Zn116  1  0.32191887  0.31480743  0.81188811  1
  Zn  Zn117  1  0.31188569  0.81268421  0.30856473  1
  Zn  Zn118  1  0.31834989  0.81335483  0.81097764  1
  Zn  Zn119  1  0.81422272  0.30628357  0.31083804  1
  Zn  Zn120  1  0.81353440  0.31204788  0.81957898  1
  Zn  Zn121  1  0.80714676  0.81707043  0.31145429  1
  Zn  Zn122  1  0.80674112  0.81325922  0.81493962  1
  Zn  Zn123  1  0.18724951  0.43503456  0.43581718  1
  Zn  Zn124  1  0.18968038  0.44019388  0.94385890  1
  Zn  Zn125  1  0.17227956  0.96674202  0.42348829  1
  Zn  Zn126  1  0.18888955  0.93539718  0.93741973  1
  Zn  Zn127  1  0.68359329  0.43530243  0.43881069  1
  Zn  Zn128  1  0.68559107  0.43482158  0.93990238  1
  Zn  Zn129  1  0.68597855  0.93588576  0.43616563  1
  Zn  Zn130  1  0.68500094  0.93537108  0.93082576  1
  Zn  Zn131  1  0.31278199  0.06037484  0.06123291  1
  Zn  Zn132  1  0.31338561  0.06539887  0.55380604  1
  Zn  Zn133  1  0.31623832  0.55979633  0.06194378  1
  Zn  Zn134  1  0.31390053  0.57139616  0.56573217  1
  Zn  Zn135  1  0.81324299  0.06162960  0.05804887  1
  Zn  Zn136  1  0.81542734  0.06873803  0.55999332  1
  Zn  Zn137  1  0.81333707  0.56298885  0.06655093  1
  Zn  Zn138  1  0.81325877  0.56366450  0.56727473  1
  Zn  Zn139  1  0.43516961  0.43823160  0.18435871  1
  Zn  Zn140  1  0.44062285  0.43786886  0.68489053  1
  Zn  Zn141  1  0.44275858  0.93848717  0.18300682  1
  Zn  Zn142  1  0.43566860  0.93578346  0.69044148  1
  Zn  Zn143  1  0.93784998  0.43392209  0.19905266  1
  Zn  Zn144  1  0.93737201  0.43821028  0.69530410  1
  Zn  Zn145  1  0.93891236  0.93730159  0.18562577  1
  Zn  Zn146  1  0.93576418  0.93715053  0.69131683  1
  Zn  Zn147  1  0.05606481  0.06125480  0.30846593  1
  Zn  Zn148  1  0.06532176  0.06100644  0.81232501  1
  Zn  Zn149  1  0.07634014  0.52915364  0.32926385  1
  Zn  Zn150  1  0.06780833  0.56586455  0.81634566  1
  Zn  Zn151  1  0.56278439  0.06133408  0.30635622  1
  Zn  Zn152  1  0.56136973  0.06007383  0.80595362  1
  Zn  Zn153  1  0.56651256  0.56612905  0.31205069  1
  Zn  Zn154  1  0.56328465  0.56474763  0.81380725  1
  Zn  Zn155  1  0.43513652  0.18535388  0.43370653  1
  Zn  Zn156  1  0.43555750  0.18619034  0.92995789  1
  Zn  Zn157  1  0.43809038  0.68922108  0.43988734  1
  Zn  Zn158  1  0.43103383  0.68470891  0.93785894  1
  Zn  Zn159  1  0.93153505  0.18521777  0.44083321  1
  Zn  Zn160  1  0.93755736  0.18979508  0.93872417  1
  Zn  Zn161  1  0.93925515  0.68497871  0.44188906  1
  Zn  Zn162  1  0.93595860  0.68751247  0.94270735  1
  Zn  Zn163  1  0.07413819  0.31386467  0.06727601  1
  Zn  Zn164  1  0.06345294  0.31313690  0.56420521  1
  Zn  Zn165  1  0.05810538  0.80369775  0.06200295  1
  Zn  Zn166  1  0.06362760  0.81360447  0.56202881  1
  Zn  Zn167  1  0.56858861  0.31099052  0.05961777  1
  Zn  Zn168  1  0.56513821  0.31413048  0.56191553  1
  Zn  Zn169  1  0.55693352  0.81446319  0.05495567  1
  Zn  Zn170  1  0.56888696  0.81909710  0.56744868  1
  O  O171  1  0.11617691  0.11608230  0.11787385  1
  O  O172  1  0.10418515  0.11728657  0.63314365  1
  O  O173  1  0.10150399  0.63026962  0.13260893  1
  O  O174  1  0.11934417  0.62091043  0.62726825  1
  O  O175  1  0.61048788  0.11305654  0.12172702  1
  O  O176  1  0.61090089  0.12889878  0.61491336  1
  O  O177  1  0.62089648  0.62007490  0.11635056  1
  O  O178  1  0.62277338  0.61746543  0.62118580  1
  O  O179  1  0.38681575  0.37712141  0.37939897  1
  O  O180  1  0.39046932  0.37148370  0.88673011  1
  O  O181  1  0.39097443  0.87747011  0.36694854  1
  O  O182  1  0.36795547  0.89019385  0.88052935  1
  O  O183  1  0.86576362  0.38626425  0.37771175  1
  O  O184  1  0.88764136  0.38281453  0.87558614  1
  O  O185  1  0.88167044  0.87646666  0.38286744  1
  O  O186  1  0.87227847  0.87253787  0.89035720  1
  O  O187  1  0.27165061  -0.01470239  0.36965504  1
  O  O188  1  0.25962333  0.00752813  0.87738984  1
  O  O189  1  0.25277106  0.51724027  0.36503771  1
  O  O190  1  0.24939659  0.50531310  0.86214322  1
  O  O191  1  0.76232521  -0.00062525  0.37825766  1
  O  O192  1  0.75375248  0.00930302  0.86875552  1
  O  O193  1  0.75403402  0.50636882  0.37558616  1
  O  O194  1  0.75529614  0.50627077  0.87228194  1
  O  O195  1  0.25716567  0.49929344  0.13765463  1
  O  O196  1  0.24588019  0.49727505  0.63123306  1
  O  O197  1  0.23647471  0.99283016  0.12378929  1
  O  O198  1  0.25534957  0.98267397  0.61556566  1
  O  O199  1  0.74499778  0.49302424  0.13169318  1
  O  O200  1  0.74483550  0.49602109  0.63509371  1
  O  O201  1  0.73107830  1.00514960  0.11511207  1
  O  O202  1  0.75307987  1.00847859  0.63702621  1
  O  O203  1  -0.00274950  0.35410437  0.25391627  1
  O  O204  1  0.00879458  0.36980359  0.75822602  1
  O  O205  1  0.00719912  0.87561226  0.25951019  1
  O  O206  1  -0.00536961  0.85829556  0.75030764  1
  O  O207  1  0.50701550  0.36729043  0.24413213  1
  O  O208  1  0.49362411  0.36618464  0.75678935  1
  O  O209  1  0.50428293  0.86626353  0.25521898  1
  O  O210  1  0.50937276  0.86497646  0.74894075  1
  O  O211  1  0.49508535  0.13163424  0.23883058  1
  O  O212  1  0.49500062  0.13081409  0.73958541  1
  O  O213  1  0.49540622  0.63109852  0.24531259  1
  O  O214  1  0.50229414  0.63822525  0.74611505  1
  O  O215  1  0.99858803  0.13173503  0.23719828  1
  O  O216  1  0.98833908  0.13185935  0.74709961  1
  O  O217  1  0.98775935  0.61921609  0.25274447  1
  O  O218  1  0.99674266  0.63246612  0.74312180  1
  O  O219  1  0.36544157  0.25347861  -0.00684408  1
  O  O220  1  0.37626874  0.25046077  0.51100429  1
  O  O221  1  0.38041700  0.76118018  0.00790090  1
  O  O222  1  0.36757652  0.74838583  0.50840010  1
  O  O223  1  0.85826161  0.25490464  -0.00703572  1
  O  O224  1  0.86188383  0.24464945  0.51189827  1
  O  O225  1  0.86892626  0.75426566  0.01126996  1
  O  O226  1  0.87153030  0.75608014  0.51030301  1
  O  O227  1  0.13914740  0.23743097  0.53958023  1
  O  O228  1  0.13517893  0.24338328  0.99134592  1
  O  O229  1  0.13192428  0.74976250  0.48840042  1
  O  O230  1  0.11997722  0.73385825  1.00423064  1
  O  O231  1  0.62586592  0.24113424  0.49153776  1
  O  O232  1  0.64407257  0.25325877  0.99467680  1
  O  O233  1  0.63203389  0.74552582  0.49702182  1
  O  O234  1  0.63305192  0.74089953  1.00822826  1
  O  O235  1  0.50794518  0.24070849  0.12995849  1
  O  O236  1  0.49575414  0.24618738  0.62844530  1
  O  O237  1  0.49173002  0.74539768  0.12829930  1
  O  O238  1  0.49528594  0.74592970  0.62289966  1
  O  O239  1  1.00116907  0.23690016  0.11742415  1
  O  O240  1  0.98925712  0.24501642  0.63290315  1
  O  O241  1  0.98074445  0.73714565  0.12831372  1
  O  O242  1  0.99158054  0.74459771  0.63236884  1
  O  O243  1  0.00453627  0.24321037  0.37495449  1
  O  O244  1  0.00900739  0.25844097  0.87075853  1
  O  O245  1  0.00800914  0.75979897  0.38292040  1
  O  O246  1  0.00019690  0.73972490  0.86322112  1
  O  O247  1  0.51028886  0.24738396  0.36586754  1
  O  O248  1  0.50288709  0.25584991  0.86467146  1
  O  O249  1  0.50589846  0.75558850  0.37067607  1
  O  O250  1  0.49825845  0.74869163  0.86668530  1
  O  O251  1  0.24529322  0.12857090  0.49173037  1
  O  O252  1  0.23807005  0.12976102  1.00399618  1
  O  O253  1  0.24943892  0.63424347  0.49230696  1
  O  O254  1  0.25851206  0.62185808  0.98511975  1
  O  O255  1  0.73913022  0.13564873  0.50057716  1
  O  O256  1  0.75454504  0.13458248  0.99056958  1
  O  O257  1  0.74671151  0.63086916  0.49661284  1
  O  O258  1  0.74329998  0.62991699  0.99678975  1
  O  O259  1  0.26087307  0.36472185  -0.00069918  1
  O  O260  1  0.25266377  0.37916733  0.50916368  1
  O  O261  1  0.26144829  0.88138302  0.01325537  1
  O  O262  1  0.24707585  0.86462200  0.50523247  1
  O  O263  1  0.75287094  0.36713013  0.00879699  1
  O  O264  1  0.73987455  0.36075736  0.50901270  1
  O  O265  1  0.75386477  0.86151095  -0.00249074  1
  O  O266  1  0.76145486  0.86925835  0.49697180  1
  O  O267  1  0.14800311  0.51941797  0.23728230  1
  O  O268  1  0.13539834  0.49830068  0.74225340  1
  O  O269  1  0.12360798  0.98714304  0.23972963  1
  O  O270  1  0.11013199  0.99164070  0.74124646  1
  O  O271  1  0.63159885  0.49502432  0.24560186  1
  O  O272  1  0.63543356  0.50799232  0.74248338  1
  O  O273  1  0.61993135  0.99779844  0.22956422  1
  O  O274  1  0.63705246  0.99264658  0.74864338  1
  O  O275  1  0.37917572  0.00667004  0.25357273  1
  O  O276  1  0.37649501  0.00762185  0.76063880  1
  O  O277  1  0.37065649  0.51578433  0.24517388  1
  O  O278  1  0.36294083  0.50335349  0.74238978  1
  O  O279  1  0.87672589  0.00198755  0.25787689  1
  O  O280  1  0.86463210  0.00749668  0.75240906  1
  O  O281  1  0.86919786  0.50587114  0.26505543  1
  O  O282  1  0.86636965  0.50705312  0.75982079  1
  O  O283  1  0.11420993  0.42031150  0.35620227  1
  O  O284  1  0.12221082  0.36928716  0.87116442  1
  O  O285  1  0.11679143  0.87290785  0.36752692  1
  O  O286  1  0.12883275  0.86829493  0.87608422  1
  O  O287  1  0.61917181  0.36663179  0.36718677  1
  O  O288  1  0.60965429  0.37460789  0.87752509  1
  O  O289  1  0.61448362  0.86837968  0.37292167  1
  O  O290  1  0.64142798  0.86742218  0.85113997  1
  O  O291  1  0.38499385  0.11675060  0.13459601  1
  O  O292  1  0.38500880  0.13254015  0.62696566  1
  O  O293  1  0.38179206  0.63380217  0.12867658  1
  O  O294  1  0.38305802  0.63890065  0.63029635  1
  O  O295  1  0.89167629  0.11800439  0.12228845  1
  O  O296  1  0.87862896  0.13607571  0.63560706  1
  O  O297  1  0.88121399  0.62747028  0.13735358  1
  O  O298  1  0.88306094  0.63071887  0.63510218  1
  O  O299  1  0.24706363  0.24859095  0.11416022  1
  O  O300  1  0.26520616  0.27145078  0.63174587  1
  O  O301  1  0.26143998  0.75519879  0.12964919  1
  O  O302  1  0.25894139  0.75542976  0.61751483  1
  O  O303  1  0.74632957  0.25418573  0.11410350  1
  O  O304  1  0.75340145  0.25474766  0.62127007  1
  O  O305  1  0.76493978  0.73965217  0.11660317  1
  O  O306  1  0.76481456  0.74042766  0.62363291  1
  O  O307  1  0.24064674  0.25344454  0.37296196  1
  O  O308  1  0.24232287  0.25463335  0.87699243  1
  O  O309  1  0.24467530  0.74568064  0.37998932  1
  O  O310  1  0.25218797  0.73754614  0.86824196  1
  O  O311  1  0.73771738  0.24886222  0.38199081  1
  O  O312  1  0.74607236  0.24202734  0.88075090  1
  O  O313  1  0.74619934  0.74434064  0.38380952  1
  O  O314  1  0.75754113  0.73486245  0.88639494  1
  O  O315  1  0.00774751  0.12057003  0.00795902  1
  O  O316  1  -0.00018300  0.11636576  0.50879946  1
  O  O317  1  -0.00979308  0.61892500  0.01817271  1
  O  O318  1  0.00134964  0.62163131  0.51778722  1
  O  O319  1  0.49198457  0.11778968  0.00487362  1
  O  O320  1  0.50545114  0.11820801  0.50509432  1
  O  O321  1  0.50606110  0.61885796  0.00143497  1
  O  O322  1  0.50766687  0.61859443  0.50650437  1
  O  O323  1  0.50450386  0.39437622  0.50279859  1
  O  O324  1  0.49767992  0.38065129  0.99473502  1
  O  O325  1  0.50783956  0.88473011  0.49233831  1
  O  O326  1  0.48429843  0.88657128  1.00072316  1
  O  O327  1  0.99904250  0.38865982  0.51246857  1
  O  O328  1  1.00251181  0.36945474  0.99099954  1
  O  O329  1  0.98806594  0.87827508  0.49581285  1
  O  O330  1  0.99042331  0.88290854  1.00868004  1
  O  O331  1  0.50942702  0.50530777  0.39171039  1
  O  O332  1  0.50351046  0.49425239  0.88203187  1
  O  O333  1  0.49502869  0.99235093  0.37775440  1
  O  O334  1  0.49363882  1.00684628  0.88253759  1
  O  O335  1  0.98357925  0.51263281  0.39556113  1
  O  O336  1  0.99290428  0.49155655  0.86821523  1
  O  O337  1  0.98798119  0.98833078  0.38339345  1
  O  O338  1  0.99304581  1.00875306  0.89054409  1
  O  O339  1  0.00989919  0.00476883  0.11686264  1
  O  O340  1  -0.01627584  0.01038609  0.61711580  1
  O  O341  1  -0.00306279  0.51125152  0.13612923  1
  O  O342  1  0.00659529  0.50836389  0.62790111  1
  O  O343  1  0.50481685  0.00685861  0.10995288  1
  O  O344  1  0.49368106  0.00647566  0.61632618  1
  O  O345  1  0.50683054  0.50732336  0.11793561  1
  O  O346  1  0.50928034  0.50935031  0.62137332  1
  O  O347  1  0.25731104  0.39288635  0.25191014  1
  O  O348  1  0.25031001  0.38834096  0.74659659  1
  O  O349  1  0.24294759  0.87681283  0.23673675  1
  O  O350  1  0.25029895  0.86861243  0.73438866  1
  O  O351  1  0.74514262  0.37710353  0.24433564  1
  O  O352  1  0.75353169  0.38736597  0.74999069  1
  O  O353  1  0.74363324  0.88261623  0.25014200  1
  O  O354  1  0.75257107  0.89002187  0.74779440  1
  O  O355  1  0.25936695  0.11956801  0.24864330  1
  O  O356  1  0.25965656  0.13434129  0.72890621  1
  O  O357  1  0.26083556  0.62372002  0.25521880  1
  O  O358  1  0.25283828  0.61539607  0.75435508  1
  O  O359  1  0.75183339  0.11614266  0.24969549  1
  O  O360  1  0.75326276  0.11700265  0.75494001  1
  O  O361  1  0.75663224  0.61682748  0.25851763  1
  O  O362  1  0.75385074  0.61864272  0.76166252  1
  O  O363  1  0.37735269  0.11521013  0.36007241  1
  O  O364  1  0.37369762  0.11565545  0.86031945  1
  O  O365  1  0.36896403  0.63509481  0.36434289  1
  O  O366  1  0.36280583  0.62469212  0.86875420  1
  O  O367  1  0.87080379  0.11208360  0.37630122  1
  O  O368  1  0.86797042  0.12734240  0.86337103  1
  O  O369  1  0.86693398  0.62441090  0.37322980  1
  O  O370  1  0.86931631  0.61691147  0.87411553  1
  O  O371  1  0.13396408  0.37492996  0.14044707  1
  O  O372  1  0.13554400  0.38565031  0.63402359  1
  O  O373  1  0.12875598  0.87657751  0.12958091  1
  O  O374  1  0.14198110  0.86984494  0.62620175  1
  O  O375  1  0.63580642  0.38007495  0.12982331  1
  O  O376  1  0.63023150  0.38858548  0.62506505  1
  O  O377  1  0.61530016  0.88923751  0.12155297  1
  O  O378  1  0.63547528  0.86551033  0.64541290  1
  O  O379  1  0.10596791  0.24309976  0.25131297  1
  O  O380  1  0.12184044  0.25619007  0.75420607  1
  O  O381  1  0.13062479  0.76047102  0.26226318  1
  O  O382  1  0.11012290  0.75245313  0.74973213  1
  O  O383  1  0.61744452  0.25122957  0.25550962  1
  O  O384  1  0.61200504  0.24732158  0.74778829  1
  O  O385  1  0.61832999  0.74753382  0.25521717  1
  O  O386  1  0.61081647  0.75314799  0.74979155  1
  O  O387  1  0.38882123  0.24223211  0.25065864  1
  O  O388  1  0.38487820  0.24337005  0.73911384  1
  O  O389  1  0.38207902  0.74293578  0.24090464  1
  O  O390  1  0.39271906  0.75251643  0.74314866  1
  O  O391  1  0.89071024  0.24091473  0.25854758  1
  O  O392  1  0.87690156  0.24410431  0.74588156  1
  O  O393  1  0.86732523  0.74119827  0.24171214  1
  O  O394  1  0.88087682  0.74498599  0.74756811  1
  O  O395  1  0.39285577  0.50643525  0.50818042  1
  O  O396  1  0.39023351  0.49278341  1.00191482  1
  O  O397  1  0.39024724  1.00501174  0.48797528  1
  O  O398  1  0.37877157  0.99776206  0.98623243  1
  O  O399  1  0.88087128  0.50239932  0.49871610  1
  O  O400  1  0.86939165  0.49519066  0.98915386  1
  O  O401  1  0.87939251  0.99265064  0.49551166  1
  O  O402  1  0.88175271  0.98804283  1.00197674  1
  O  O403  1  0.11924840  0.00679512  0.00453048  1
  O  O404  1  0.10459812  -0.01042214  0.51489254  1
  O  O405  1  0.13127895  0.50708210  0.00961094  1
  O  O406  1  0.11806559  0.50437684  0.51624175  1
  O  O407  1  0.61432693  -0.00680367  0.00312594  1
  O  O408  1  0.61645112  0.01139374  0.49337486  1
  O  O409  1  0.61722751  0.50670241  0.00602890  1
  O  O410  1  0.62060868  0.50751454  0.50975055  1
  O  O411  1  0.37602330  0.37483464  0.10865853  1
  O  O412  1  0.37239780  0.37131816  0.61779712  1
  O  O413  1  0.36809636  0.86930659  0.11945247  1
  O  O414  1  0.36629032  0.86474106  0.62750907  1
  O  O415  1  0.86193038  0.38078039  0.12760302  1
  O  O416  1  0.86800040  0.36421944  0.63426335  1
  O  O417  1  0.87776623  0.86028177  0.12121324  1
  O  O418  1  0.87777188  0.86550414  0.61779360  1
  O  O419  1  0.13657147  0.08065089  0.38400460  1
  O  O420  1  0.11875386  0.13577205  0.88393420  1
  O  O421  1  0.13315578  0.63216559  0.37638821  1
  O  O422  1  0.14249331  0.62873389  0.87467126  1
  O  O423  1  0.62489805  0.13056939  0.38049777  1
  O  O424  1  0.63469729  0.12690344  0.86796579  1
  O  O425  1  0.63408972  0.63237369  0.38133592  1
  O  O426  1  0.63392674  0.62063113  0.88903586  1
