# generated using pymatgen
data_V85Zn86O256
_symmetry_space_group_name_H-M   'P 1'
_cell_length_a   16.96672010
_cell_length_b   16.95738946
_cell_length_c   16.94439573
_cell_angle_alpha   90.05529799
_cell_angle_beta   89.94559058
_cell_angle_gamma   90.06469097
_symmetry_Int_Tables_number   1
_chemical_formula_structural   V85Zn86O256
_chemical_formula_sum   'V85 Zn86 O256'
_cell_volume   4875.08622306
_cell_formula_units_Z   1
loop_
 _symmetry_equiv_pos_site_id
 _symmetry_equiv_pos_as_xyz
  1  'x, y, z'
loop_
 _atom_site_type_symbol
 _atom_site_label
 _atom_site_symmetry_multiplicity
 _atom_site_fract_x
 _atom_site_fract_y
 _atom_site_fract_z
 _atom_site_occupancy
  V  V0  1  0.00199710  0.11347007  0.11179065  1
  V  V1  1  0.24204289  0.49390202  0.75097237  1
  V  V2  1  0.75733400  0.24853181  -0.00497371  1
  V  V3  1  0.12724004  0.50502768  0.12248192  1
  V  V4  1  0.75363792  0.62769825  0.37610126  1
  V  V5  1  0.14268996  0.88016131  0.24890698  1
  V  V6  1  0.37213384  0.25823577  0.62255844  1
  V  V7  1  0.87139376  0.12392115  0.25559880  1
  V  V8  1  0.37171013  0.11965036  0.24944576  1
  V  V9  1  0.00196927  0.37402408  0.86772120  1
  V  V10  1  0.12386492  0.37736167  0.24590317  1
  V  V11  1  0.37648668  0.62548407  0.75077774  1
  V  V12  1  0.13173646  -0.01193525  0.61860936  1
  V  V13  1  0.02773443  -0.01963818  -0.03254902  1
  V  V14  1  0.74982116  0.49751259  0.74819775  1
  V  V15  1  0.37909230  -0.00113466  0.87341704  1
  V  V16  1  0.75158840  0.49835863  0.25004293  1
  V  V17  1  0.24255708  0.12370523  0.88032585  1
  V  V18  1  0.75590789  0.37229699  0.12102977  1
  V  V19  1  0.87531647  0.24295068  0.62953744  1
  V  V20  1  0.50100999  0.62483851  0.62714411  1
  V  V21  1  0.36750525  -0.00165302  0.37048463  1
  V  V22  1  0.25166010  -0.00606939  0.74270789  1
  V  V23  1  -0.00029835  0.48940972  0.00334480  1
  V  V24  1  0.12311854  0.25123895  0.87589710  1
  V  V25  1  0.00320442  0.62972104  0.12624313  1
  V  V26  1  0.86350394  0.00829436  0.86014812  1
  V  V27  1  0.49849952  0.25302793  0.74801562  1
  V  V28  1  0.73918134  0.62380064  0.88386463  1
  V  V29  1  0.37392268  0.87489485  0.50226534  1
  V  V30  1  0.37939470  0.62036264  0.25214769  1
  V  V31  1  0.25294965  0.63237089  0.88980573  1
  V  V32  1  0.50372051  0.49939982  0.00112606  1
  V  V33  1  0.62623706  -0.00353630  0.63717300  1
  V  V34  1  0.62712347  0.75489519  0.37371930  1
  V  V35  1  0.62590912  0.62548780  0.50048958  1
  V  V36  1  0.62485048  0.37497056  0.74709399  1
  V  V37  1  -0.00124214  0.00438065  0.49715230  1
  V  V38  1  0.75036260  0.75409382  0.50458048  1
  V  V39  1  -0.00117080  0.37567042  0.37274743  1
  V  V40  1  0.00243582  0.12214478  0.63717020  1
  V  V41  1  0.62547630  0.12373326  0.00481603  1
  V  V42  1  0.37428239  0.37178200  0.00146513  1
  V  V43  1  0.49752664  0.49911237  0.48490532  1
  V  V44  1  0.62797612  0.50120581  0.11973239  1
  V  V45  1  0.86849052  0.88190941  0.50129103  1
  V  V46  1  0.36515955  0.87099169  -0.00076373  1
  V  V47  1  -0.00413823  0.87868052  0.37240058  1
  V  V48  1  0.86122755  0.88770722  -0.00342501  1
  V  V49  1  0.25254315  0.74956709  0.50297512  1
  V  V50  1  0.25282745  0.62352336  0.37486767  1
  V  V51  1  0.87842712  0.24865462  0.11856669  1
  V  V52  1  0.61747304  0.75821824  0.87143037  1
  V  V53  1  0.14047649  0.00598189  0.13165063  1
  V  V54  1  0.86718850  0.76101041  0.12283825  1
  V  V55  1  0.49921322  0.12640120  0.62052316  1
  V  V56  1  0.74571764  0.87478426  0.64137777  1
  V  V57  1  0.00088626  0.24559533  0.24272916  1
  V  V58  1  0.25416954  0.49809437  0.25395626  1
  V  V59  1  0.74109924  0.00360909  0.24288530  1
  V  V60  1  0.07798898  0.68671412  -0.05276903  1
  V  V61  1  0.62560924  0.24996367  0.87557429  1
  V  V62  1  0.50516412  0.62691342  0.11894086  1
  V  V63  1  0.87298795  0.49305239  0.88109013  1
  V  V64  1  0.12661084  0.24780304  0.37431677  1
  V  V65  1  0.64167352  0.12303475  0.49401496  1
  V  V66  1  0.38033896  0.24798709  0.12433314  1
  V  V67  1  0.37330781  0.12944028  0.74920352  1
  V  V68  1  -0.00249663  0.75787372  0.25163506  1
  V  V69  1  0.50612611  -0.00561288  0.00634274  1
  V  V70  1  0.50265896  0.75165736  0.24637952  1
  V  V71  1  0.87314513  0.36939698  0.49794812  1
  V  V72  1  0.37465183  0.49785467  0.87545284  1
  V  V73  1  0.87627345  0.62846683  0.74720946  1
  V  V74  1  0.75004366  0.36917368  0.61777586  1
  V  V75  1  0.50064733  0.37431148  0.87517199  1
  V  V76  1  0.37515537  0.37933091  0.48243314  1
  V  V77  1  0.37936220  0.75379056  0.63026746  1
  V  V78  1  0.87380045  0.63091326  0.24943343  1
  V  V79  1  0.36413026  0.75302275  0.12236253  1
  V  V80  1  0.64002573  0.25142112  0.37954549  1
  V  V81  1  0.50076524  0.00043938  0.49775082  1
  V  V82  1  0.50451409  0.87721897  0.37317779  1
  V  V83  1  0.62788033  0.87894288  0.22822113  1
  V  V84  1  0.49953280  0.25337373  0.26304520  1
  Zn  Zn85  1  0.11990924  0.49385172  0.62282469  1
  Zn  Zn86  1  0.12629343  0.62292118  0.50551491  1
  Zn  Zn87  1  0.87339939  0.49973255  0.37733277  1
  Zn  Zn88  1  0.24809073  0.25065851  0.49936739  1
  Zn  Zn89  1  0.24011998  0.37078390  0.62817921  1
  Zn  Zn90  1  0.73954080  0.75172632  0.00614460  1
  Zn  Zn91  1  0.24490138  0.24293183  0.00528267  1
  Zn  Zn92  1  0.25012154  0.37290432  0.12328853  1
  Zn  Zn93  1  0.24521882  0.11974087  0.37198456  1
  Zn  Zn94  1  0.49391100  0.86888746  0.86064123  1
  Zn  Zn95  1  0.50545982  0.12103680  0.12927404  1
  Zn  Zn96  1  0.00187453  0.50129449  0.50363037  1
  Zn  Zn97  1  0.01000175  0.62653961  0.63788466  1
  Zn  Zn98  1  0.86104811  0.00918421  0.37900121  1
  Zn  Zn99  1  0.10478521  0.85515495  0.74070882  1
  Zn  Zn100  1  0.12861128  0.12583227  0.49999471  1
  Zn  Zn101  1  0.74426030  0.12359583  0.85462402  1
  Zn  Zn102  1  0.62279012  0.37497921  0.25475218  1
  Zn  Zn103  1  0.00496142  0.25015106  0.74877598  1
  Zn  Zn104  1  0.92248882  0.77981026  0.66225774  1
  Zn  Zn105  1  0.12796236  0.75413744  0.37564308  1
  Zn  Zn106  1  0.62244828  0.49708540  0.62071131  1
  Zn  Zn107  1  0.19091499  0.18692350  0.18724208  1
  Zn  Zn108  1  0.18466719  0.18519874  0.68906300  1
  Zn  Zn109  1  0.18588180  0.68881813  0.19123694  1
  Zn  Zn110  1  0.18768944  0.68549591  0.69022573  1
  Zn  Zn111  1  0.68769213  0.18716255  0.18810746  1
  Zn  Zn112  1  0.68115900  0.19269859  0.67841636  1
  Zn  Zn113  1  0.68623417  0.68741408  0.18706415  1
  Zn  Zn114  1  0.69312531  0.68426202  0.68846590  1
  Zn  Zn115  1  0.31053982  0.31049985  0.30839612  1
  Zn  Zn116  1  0.30956336  0.31115480  0.81501279  1
  Zn  Zn117  1  0.31879719  0.80797625  0.31439838  1
  Zn  Zn118  1  0.27805884  0.79552889  0.79694821  1
  Zn  Zn119  1  0.81331834  0.31015836  0.30778128  1
  Zn  Zn120  1  0.81559323  0.31073971  0.80990935  1
  Zn  Zn121  1  0.80916605  0.82137224  0.31139337  1
  Zn  Zn122  1  0.81339311  0.81107279  0.82310596  1
  Zn  Zn123  1  0.18825314  0.43679672  0.43902504  1
  Zn  Zn124  1  0.18733949  0.43679464  0.93762223  1
  Zn  Zn125  1  0.18744543  0.93417865  0.43732655  1
  Zn  Zn126  1  0.19507147  0.94205398  0.94103191  1
  Zn  Zn127  1  0.68565789  0.43652971  0.43692906  1
  Zn  Zn128  1  0.68934757  0.43309593  0.93938609  1
  Zn  Zn129  1  0.68868589  0.94280812  0.43409799  1
  Zn  Zn130  1  0.68581254  0.93711581  0.93281985  1
  Zn  Zn131  1  0.31847086  0.06125610  0.06202217  1
  Zn  Zn132  1  0.31131319  0.06884098  0.55749851  1
  Zn  Zn133  1  0.31791018  0.55951598  0.06850421  1
  Zn  Zn134  1  0.31259854  0.55956518  0.56366929  1
  Zn  Zn135  1  0.80879746  0.06464657  0.06456586  1
  Zn  Zn136  1  0.80929670  0.06428865  0.67845851  1
  Zn  Zn137  1  0.81684097  0.56461036  0.06430437  1
  Zn  Zn138  1  0.81517459  0.55613491  0.56204983  1
  Zn  Zn139  1  0.44010011  0.43487364  0.18968535  1
  Zn  Zn140  1  0.43562880  0.44169695  0.68420596  1
  Zn  Zn141  1  0.43669602  0.93513545  0.18506218  1
  Zn  Zn142  1  0.43390192  0.94050476  0.68533805  1
  Zn  Zn143  1  0.93646497  0.43838685  0.18722625  1
  Zn  Zn144  1  0.93767969  0.44044672  0.68449823  1
  Zn  Zn145  1  0.93207901  0.94194842  0.18572909  1
  Zn  Zn146  1  0.94234231  0.94077525  0.68599641  1
  Zn  Zn147  1  0.05945040  0.06168242  0.30754415  1
  Zn  Zn148  1  0.06979124  0.04329676  0.81221308  1
  Zn  Zn149  1  0.04671523  0.58165446  0.34173646  1
  Zn  Zn150  1  0.06132749  0.56206066  0.81399363  1
  Zn  Zn151  1  0.56354784  0.06505863  0.31211473  1
  Zn  Zn152  1  0.55961613  0.06722723  0.81518691  1
  Zn  Zn153  1  0.56811861  0.56440418  0.30894091  1
  Zn  Zn154  1  0.56208977  0.56197426  0.81054325  1
  Zn  Zn155  1  0.43460391  0.18628996  0.43717260  1
  Zn  Zn156  1  0.43893950  0.18391013  0.93777277  1
  Zn  Zn157  1  0.44006943  0.68761914  0.43668936  1
  Zn  Zn158  1  0.43768422  0.68776670  0.93754222  1
  Zn  Zn159  1  0.93830944  0.19030130  0.43980759  1
  Zn  Zn160  1  0.93990327  0.17532336  0.93446924  1
  Zn  Zn161  1  0.94776912  0.69904142  0.46535194  1
  Zn  Zn162  1  0.91582642  0.68648500  0.93814283  1
  Zn  Zn163  1  0.06520637  0.30932363  0.05684777  1
  Zn  Zn164  1  0.06275526  0.31491445  0.56229906  1
  Zn  Zn165  1  0.05745619  0.82489808  0.07171653  1
  Zn  Zn166  1  0.06213086  0.80892557  0.55918527  1
  Zn  Zn167  1  0.56523547  0.31156062  0.06623518  1
  Zn  Zn168  1  0.56016224  0.31323253  0.55497756  1
  Zn  Zn169  1  0.55825795  0.80759369  0.05084637  1
  Zn  Zn170  1  0.56439356  0.80878743  0.69185516  1
  O  O171  1  0.11749239  0.11327692  0.13610925  1
  O  O172  1  0.11754123  0.11556980  0.62085606  1
  O  O173  1  0.11630258  0.61616234  0.13493963  1
  O  O174  1  0.12552233  0.61931525  0.62529827  1
  O  O175  1  0.62238362  0.13221377  0.10971571  1
  O  O176  1  0.61687410  0.12131552  0.60898316  1
  O  O177  1  0.61720178  0.61494125  0.12854652  1
  O  O178  1  0.61826367  0.62340683  0.61933826  1
  O  O179  1  0.37524065  0.37086588  0.38402360  1
  O  O180  1  0.38169520  0.37632265  0.88327667  1
  O  O181  1  0.38529278  0.88063798  0.37749333  1
  O  O182  1  0.37542693  0.88473587  0.88642568  1
  O  O183  1  0.88051219  0.37007184  0.38000961  1
  O  O184  1  0.87807378  0.38760745  0.87507685  1
  O  O185  1  0.88074483  0.88087954  0.38110368  1
  O  O186  1  0.87260287  0.88719872  0.88698391  1
  O  O187  1  0.26466670  -0.00275626  0.37673248  1
  O  O188  1  0.26197241  0.00985645  0.86893809  1
  O  O189  1  0.24803848  0.50582968  0.36066650  1
  O  O190  1  0.25677721  0.50288826  0.86896038  1
  O  O191  1  0.74877350  -0.00069389  0.35647083  1
  O  O192  1  0.75913908  0.00156152  0.87260923  1
  O  O193  1  0.74929026  0.50728834  0.36585346  1
  O  O194  1  0.75366745  0.50469716  0.87221967  1
  O  O195  1  0.24275816  0.49916736  0.13476212  1
  O  O196  1  0.25471317  0.49934507  0.64336035  1
  O  O197  1  0.23971609  1.01084826  0.12937208  1
  O  O198  1  0.24230450  1.00959383  0.62985426  1
  O  O199  1  0.74656590  0.49491704  0.12799966  1
  O  O200  1  0.74831831  0.48907794  0.63346292  1
  O  O201  1  0.75253530  1.00143103  0.14180936  1
  O  O202  1  0.74073454  0.98401107  0.62578051  1
  O  O203  1  0.00641253  0.36595619  0.24838272  1
  O  O204  1  -0.00567559  0.37690266  0.76513355  1
  O  O205  1  -0.00119135  0.87333444  0.25695378  1
  O  O206  1  -0.00279404  0.84970811  0.71537698  1
  O  O207  1  0.50415148  0.35837544  0.24688384  1
  O  O208  1  0.50468535  0.37305363  0.75339561  1
  O  O209  1  0.50895698  0.87168802  0.25328328  1
  O  O210  1  0.49661220  0.87588797  0.74863949  1
  O  O211  1  0.49319943  0.13598951  0.24847105  1
  O  O212  1  0.49343095  0.13480361  0.74289024  1
  O  O213  1  0.49680066  0.62866911  0.24082115  1
  O  O214  1  0.48620942  0.61605116  0.74310221  1
  O  O215  1  0.99188182  0.12993566  0.24038128  1
  O  O216  1  1.00763600  0.11834010  0.73890578  1
  O  O217  1  0.99188503  0.63798010  0.25093682  1
  O  O218  1  0.98156505  0.62122059  0.75538882  1
  O  O219  1  0.37817155  0.25529596  0.00826573  1
  O  O220  1  0.37682230  0.26219306  0.50528144  1
  O  O221  1  0.38399656  0.76439153  0.00623629  1
  O  O222  1  0.37657788  0.75801690  0.50556058  1
  O  O223  1  0.86722824  0.23991416  0.00446431  1
  O  O224  1  0.88065037  0.26164514  0.51060770  1
  O  O225  1  0.86960924  0.76531432  0.00556000  1
  O  O226  1  0.85774234  0.76461841  0.48932398  1
  O  O227  1  0.12259092  0.24817701  0.48646893  1
  O  O228  1  0.12923253  0.24655405  0.98622053  1
  O  O229  1  0.14011592  0.74719094  0.49505909  1
  O  O230  1  0.12231583  0.75236146  1.00812368  1
  O  O231  1  0.62097012  0.23856956  0.48777917  1
  O  O232  1  0.63032942  0.24450752  0.99371959  1
  O  O233  1  0.63912868  0.74160042  0.48871199  1
  O  O234  1  0.62643383  0.74716360  0.98157476  1
  O  O235  1  0.49200725  0.24783026  0.13351867  1
  O  O236  1  0.49347481  0.24687358  0.62761358  1
  O  O237  1  0.49634732  0.74095842  0.12717487  1
  O  O238  1  0.49180995  0.73490311  0.62716761  1
  O  O239  1  0.99685059  0.23945743  0.12260881  1
  O  O240  1  0.99538185  0.23826697  0.62565830  1
  O  O241  1  0.98906821  0.74904326  0.13175966  1
  O  O242  1  0.98550102  0.72638926  0.58263319  1
  O  O243  1  0.00768025  0.25824044  0.36496623  1
  O  O244  1  0.00382956  0.25570992  0.87660345  1
  O  O245  1  0.00158913  0.76684722  0.37291344  1
  O  O246  1  0.01224693  0.73539855  0.89116619  1
  O  O247  1  0.50481389  0.24672819  0.36496402  1
  O  O248  1  0.50455272  0.25557643  0.86922944  1
  O  O249  1  0.50706013  0.75552715  0.36711796  1
  O  O250  1  0.51316413  0.74720031  0.87475468  1
  O  O251  1  0.24749149  0.13246055  0.48953860  1
  O  O252  1  0.25979411  0.12378707  0.98361316  1
  O  O253  1  0.25585387  0.62901373  0.48920372  1
  O  O254  1  0.25631056  0.61060296  0.98754139  1
  O  O255  1  0.73624935  0.11941109  0.50027920  1
  O  O256  1  0.74139735  0.13504041  0.99928348  1
  O  O257  1  0.74928645  0.63068939  0.49446241  1
  O  O258  1  0.75606063  0.62510354  0.98618864  1
  O  O259  1  0.26424925  0.37230493  0.00076646  1
  O  O260  1  0.26501167  0.37289870  0.50092559  1
  O  O261  1  0.26622284  0.87940972  0.00101285  1
  O  O262  1  0.26581529  0.86588913  0.49158075  1
  O  O263  1  0.74755385  0.35989447  0.00739835  1
  O  O264  1  0.75778119  0.37981428  0.50763251  1
  O  O265  1  0.75833988  0.87401342  -0.00103616  1
  O  O266  1  0.75309842  0.87126577  0.50389350  1
  O  O267  1  0.13030963  0.48835724  0.24019885  1
  O  O268  1  0.14036543  0.50415571  0.75514776  1
  O  O269  1  0.12829859  0.98937156  0.24626163  1
  O  O270  1  0.13606060  0.98410610  0.73661896  1
  O  O271  1  0.63622657  0.49827434  0.24018419  1
  O  O272  1  0.63564646  0.49383222  0.74799291  1
  O  O273  1  0.63119303  0.99495712  0.24771051  1
  O  O274  1  0.61670426  1.00940310  0.73537512  1
  O  O275  1  0.38450688  0.00759783  0.25756950  1
  O  O276  1  0.37518620  0.01398846  0.75626317  1
  O  O277  1  0.36754609  0.50779821  0.24214383  1
  O  O278  1  0.36996151  0.50551373  0.75835840  1
  O  O279  1  0.86472269  0.00881454  0.25232581  1
  O  O280  1  0.87285956  -0.00159456  0.75624711  1
  O  O281  1  0.86286083  0.50748992  0.24815953  1
  O  O282  1  0.86316705  0.50335667  0.75892312  1
  O  O283  1  0.11779371  0.36998726  0.36411184  1
  O  O284  1  0.11403834  0.36622701  0.88042944  1
  O  O285  1  0.11789319  0.87676310  0.36254355  1
  O  O286  1  0.09636895  0.94281698  0.88930331  1
  O  O287  1  0.62811434  0.35720874  0.37508140  1
  O  O288  1  0.61976960  0.36965859  0.86883658  1
  O  O289  1  0.61863921  0.87044950  0.37087465  1
  O  O290  1  0.62304739  0.86122141  0.87130878  1
  O  O291  1  0.38098771  0.13102473  0.13113499  1
  O  O292  1  0.38054776  0.13727770  0.62792605  1
  O  O293  1  0.38463368  0.63027589  0.13384072  1
  O  O294  1  0.38177824  0.62902752  0.63218223  1
  O  O295  1  0.88521259  0.12795687  0.13057412  1
  O  O296  1  0.88648315  0.13180961  0.62244138  1
  O  O297  1  0.88348366  0.63440930  0.13084915  1
  O  O298  1  0.86627888  0.61895526  0.64529874  1
  O  O299  1  0.26515005  0.25059568  0.12373071  1
  O  O300  1  0.25875416  0.24988338  0.62445552  1
  O  O301  1  0.26549211  0.74236935  0.12878834  1
  O  O302  1  0.26682564  0.74072944  0.60911375  1
  O  O303  1  0.75623235  0.25573915  0.11848320  1
  O  O304  1  0.75855883  0.26237839  0.62478300  1
  O  O305  1  0.76319169  0.74261147  0.12315235  1
  O  O306  1  0.74377300  0.76170789  0.61635676  1
  O  O307  1  0.23477250  0.25256209  0.37176343  1
  O  O308  1  0.24511562  0.23769916  0.87643439  1
  O  O309  1  0.25717271  0.74182291  0.38576275  1
  O  O310  1  0.26460067  0.73096479  0.89160096  1
  O  O311  1  0.73814289  0.24631112  0.36938478  1
  O  O312  1  0.74508846  0.25061172  0.88067145  1
  O  O313  1  0.74521563  0.74496469  0.37678725  1
  O  O314  1  0.74147666  0.73634008  0.87745347  1
  O  O315  1  0.00019629  0.10274098  0.00786644  1
  O  O316  1  -0.00028553  0.11222053  0.50245680  1
  O  O317  1  0.00820165  0.62311940  0.00235280  1
  O  O318  1  0.01448919  0.61047730  0.45472324  1
  O  O319  1  0.50621273  0.11267913  0.00058756  1
  O  O320  1  0.49799797  0.11373283  0.50289406  1
  O  O321  1  0.49347224  0.61610796  0.01240065  1
  O  O322  1  0.50459207  0.61950391  0.50596953  1
  O  O323  1  0.48653082  0.38538663  0.50273388  1
  O  O324  1  0.49286939  0.37815537  0.99727327  1
  O  O325  1  0.48959966  0.88979484  0.49142309  1
  O  O326  1  0.49575715  0.88642832  0.99032940  1
  O  O327  1  0.99238667  0.37596292  0.48664484  1
  O  O328  1  0.99956942  0.38622711  0.99467371  1
  O  O329  1  0.99217980  0.88431172  0.49333372  1
  O  O330  1  0.98758747  0.89146138  1.00467559  1
  O  O331  1  0.50414540  0.50775529  0.38512742  1
  O  O332  1  0.49578250  0.49388215  0.88114880  1
  O  O333  1  0.49453920  0.99658695  0.38029976  1
  O  O334  1  0.48807923  1.00340407  0.88165848  1
  O  O335  1  0.99267554  0.48049550  0.35832774  1
  O  O336  1  0.99451875  0.49401584  0.88340827  1
  O  O337  1  0.99817651  0.99230191  0.38012468  1
  O  O338  1  0.97498421  1.01768277  0.87780059  1
  O  O339  1  0.01111500  0.00733921  0.13227581  1
  O  O340  1  0.00917887  0.00548208  0.61498209  1
  O  O341  1  0.00429935  0.50749647  0.11933071  1
  O  O342  1  -0.00108733  0.51029824  0.62169120  1
  O  O343  1  0.49806530  0.00076701  0.10916518  1
  O  O344  1  0.50499615  0.00578244  0.61450933  1
  O  O345  1  0.51016738  0.50441221  0.12314200  1
  O  O346  1  0.50036099  0.51135260  0.61589902  1
  O  O347  1  0.24321634  0.38179376  0.24648155  1
  O  O348  1  0.25653209  0.39060865  0.75312437  1
  O  O349  1  0.24048960  0.87003923  0.25503243  1
  O  O350  1  0.27616315  0.89760089  0.74785620  1
  O  O351  1  0.74846321  0.38342920  0.24303783  1
  O  O352  1  0.74534829  0.38066367  0.74345788  1
  O  O353  1  0.73742796  0.88635642  0.24841547  1
  O  O354  1  0.75523193  0.86700784  0.73923622  1
  O  O355  1  0.26785673  0.13191719  0.25413138  1
  O  O356  1  0.25606504  0.11760618  0.75875442  1
  O  O357  1  0.26147952  0.61828479  0.25238893  1
  O  O358  1  0.26190229  0.61369553  0.76335188  1
  O  O359  1  0.75732743  0.11690283  0.24520185  1
  O  O360  1  0.74447894  0.12883295  0.74176369  1
  O  O361  1  0.75346308  0.61897338  0.25595391  1
  O  O362  1  0.75482405  0.61389010  0.76033306  1
  O  O363  1  0.37593231  0.11461474  0.36741165  1
  O  O364  1  0.36883251  0.12079463  0.86805294  1
  O  O365  1  0.37049435  0.63023160  0.35969656  1
  O  O366  1  0.37112153  0.61789989  0.87083269  1
  O  O367  1  0.88212252  0.12875551  0.35955968  1
  O  O368  1  0.86180325  0.11264295  0.87575329  1
  O  O369  1  0.86134417  0.62577620  0.36867285  1
  O  O370  1  0.86216197  0.61351048  0.86690326  1
  O  O371  1  0.12645974  0.37964788  0.13054490  1
  O  O372  1  0.12733443  0.37870606  0.62517603  1
  O  O373  1  0.12447736  0.88878657  0.14194696  1
  O  O374  1  0.12875930  0.88535590  0.61324577  1
  O  O375  1  0.63794973  0.38058915  0.12928321  1
  O  O376  1  0.63252762  0.37382850  0.62687869  1
  O  O377  1  0.61842980  0.86810345  0.13015201  1
  O  O378  1  0.63627007  0.88147140  0.62842685  1
  O  O379  1  0.12130103  0.25989547  0.25044400  1
  O  O380  1  0.12238858  0.24305192  0.76788107  1
  O  O381  1  0.11742832  0.76591207  0.24906787  1
  O  O382  1  0.17115480  0.76995652  0.76068666  1
  O  O383  1  0.61620403  0.24617951  0.26224441  1
  O  O384  1  0.61642353  0.25783870  0.75359031  1
  O  O385  1  0.62191099  0.75922102  0.25333141  1
  O  O386  1  0.62743365  0.74081427  0.76381425  1
  O  O387  1  0.38561763  0.24535077  0.24596897  1
  O  O388  1  0.37879524  0.24807880  0.74300063  1
  O  O389  1  0.38493701  0.74439241  0.24127925  1
  O  O390  1  0.36599062  0.73936452  0.73961564  1
  O  O391  1  0.87977066  0.24293555  0.23839306  1
  O  O392  1  0.88257781  0.25601255  0.73421152  1
  O  O393  1  0.87761348  0.75246794  0.24262911  1
  O  O394  1  0.86684752  0.73262283  0.75447861  1
  O  O395  1  0.38087402  0.48722992  0.50040546  1
  O  O396  1  0.38312011  0.48943697  0.99754258  1
  O  O397  1  0.38050916  0.99420506  0.49375483  1
  O  O398  1  0.38487967  0.99235848  0.99472124  1
  O  O399  1  0.87837141  0.48639501  0.49531449  1
  O  O400  1  0.88748909  0.50773110  0.99294408  1
  O  O401  1  0.88269384  0.98919463  0.49566588  1
  O  O402  1  0.86882232  0.99260190  0.99431409  1
  O  O403  1  0.12565624  -0.00396334  0.02447727  1
  O  O404  1  0.11784279  0.00129710  0.50133727  1
  O  O405  1  0.11918288  0.49458835  0.01507795  1
  O  O406  1  0.12347904  0.50385743  0.50005161  1
  O  O407  1  0.61321577  0.00661684  -0.00914797  1
  O  O408  1  0.61783345  0.00912081  0.50305726  1
  O  O409  1  0.62156866  0.49344991  0.01233145  1
  O  O410  1  0.61745163  0.50698606  0.49989693  1
  O  O411  1  0.37611807  0.36704972  0.11778095  1
  O  O412  1  0.37323042  0.36453847  0.62276385  1
  O  O413  1  0.38128584  0.86696292  0.11135896  1
  O  O414  1  0.38078210  0.86464529  0.61337590  1
  O  O415  1  0.86313415  0.36913190  0.12804217  1
  O  O416  1  0.86917459  0.36960216  0.61706093  1
  O  O417  1  0.87608505  0.87147708  0.11141046  1
  O  O418  1  0.86116700  0.87473005  0.61629566  1
  O  O419  1  0.12387322  0.13428040  0.37018315  1
  O  O420  1  0.13956394  0.12324714  0.87193719  1
  O  O421  1  0.14758141  0.63462905  0.36134907  1
  O  O422  1  0.13676411  0.62626036  0.88119114  1
  O  O423  1  0.62120755  0.13317873  0.38723662  1
  O  O424  1  0.62582628  0.13323297  0.88472151  1
  O  O425  1  0.63707629  0.63200799  0.37686644  1
  O  O426  1  0.63682038  0.62369160  0.87262678  1
