# generated using pymatgen
data_V85Zn86O256
_symmetry_space_group_name_H-M   'P 1'
_cell_length_a   16.95024441
_cell_length_b   16.94110960
_cell_length_c   16.94055717
_cell_angle_alpha   90.03190284
_cell_angle_beta   89.97292941
_cell_angle_gamma   90.00897406
_symmetry_Int_Tables_number   1
_chemical_formula_structural   V85Zn86O256
_chemical_formula_sum   'V85 Zn86 O256'
_cell_volume   4864.58040197
_cell_formula_units_Z   1
loop_
 _symmetry_equiv_pos_site_id
 _symmetry_equiv_pos_as_xyz
  1  'x, y, z'
loop_
 _atom_site_type_symbol
 _atom_site_label
 _atom_site_symmetry_multiplicity
 _atom_site_fract_x
 _atom_site_fract_y
 _atom_site_fract_z
 _atom_site_occupancy
  V  V0  1  0.87801315  0.24431506  0.62758508  1
  V  V1  1  0.87496626  0.11494849  0.26716745  1
  V  V2  1  0.00036555  0.24885638  0.75282383  1
  V  V3  1  0.51425779  0.75711269  0.25271741  1
  V  V4  1  0.38942108  0.13075237  0.74516310  1
  V  V5  1  0.75735702  0.89280297  0.13968410  1
  V  V6  1  0.37796895  -0.00104414  0.87301155  1
  V  V7  1  0.87223677  0.50142459  0.37523385  1
  V  V8  1  0.37457562  0.25096534  0.12337031  1
  V  V9  1  0.24768934  0.12617730  0.37455058  1
  V  V10  1  0.37402399  0.50232754  0.87577242  1
  V  V11  1  0.49532116  0.00563353  0.50570012  1
  V  V12  1  0.75298767  0.77119042  0.01630686  1
  V  V13  1  0.63023714  0.24237571  0.37091189  1
  V  V14  1  0.87009299  0.75091655  0.61327840  1
  V  V15  1  0.75149212  -0.00705122  0.74653511  1
  V  V16  1  0.00188355  0.75427103  0.76263795  1
  V  V17  1  -0.00204247  0.25299705  0.24924648  1
  V  V18  1  0.37560079  0.37655281  -0.00150614  1
  V  V19  1  0.87359555  0.62417910  0.74944197  1
  V  V20  1  0.50011413  0.12388843  0.12187191  1
  V  V21  1  0.75325755  0.24163566  0.49608789  1
  V  V22  1  0.87494955  0.87956034  0.50052086  1
  V  V23  1  0.74908375  0.24298302  0.00051932  1
  V  V24  1  0.50339393  0.50987569  0.49732282  1
  V  V25  1  0.50357099  0.87787822  0.37300070  1
  V  V26  1  0.88100776  0.37138799  0.49707083  1
  V  V27  1  0.74876377  0.37076425  0.12607120  1
  V  V28  1  0.24956326  0.37743296  0.12412724  1
  V  V29  1  0.12479223  0.37620482  0.75217696  1
  V  V30  1  0.23355229  -0.00062903  0.24526169  1
  V  V31  1  0.37515600  0.50525989  0.37414255  1
  V  V32  1  0.87515802  -0.02075175  0.87648124  1
  V  V33  1  0.12463770  0.75866573  0.35954493  1
  V  V34  1  -0.01410374  0.63787564  0.13928306  1
  V  V35  1  -0.00124758  0.50102544  0.00475784  1
  V  V36  1  0.00432842  0.12105299  0.62895935  1
  V  V37  1  0.12022357  0.37779452  0.25314492  1
  V  V38  1  0.74177835  0.62493044  0.88351063  1
  V  V39  1  0.12053066  0.25309839  0.37737253  1
  V  V40  1  0.62775732  0.11922414  -0.00638596  1
  V  V41  1  0.24953011  0.12406509  0.87028258  1
  V  V42  1  0.00095428  0.88185952  0.36590380  1
  V  V43  1  -0.00152474  0.11708887  0.12477926  1
  V  V44  1  0.87486859  0.37106513  0.00099579  1
  V  V45  1  -0.00165740  -0.01339667  -0.00409409  1
  V  V46  1  0.24735339  0.75733854  0.50908466  1
  V  V47  1  0.23738546  0.87817694  0.12910683  1
  V  V48  1  0.62529254  0.50238258  0.62351594  1
  V  V49  1  0.13069034  0.86952695  0.76866465  1
  V  V50  1  0.63220008  -0.00210986  0.62156648  1
  V  V51  1  0.75138550  0.50993889  0.25372024  1
  V  V52  1  0.24956062  0.24900247  -0.00078536  1
  V  V53  1  0.25196877  0.37415798  0.62851066  1
  V  V54  1  0.50576336  0.37523199  0.87526776  1
  V  V55  1  0.50303149  -0.00273601  -0.00028934  1
  V  V56  1  0.75148039  0.37168471  0.62915912  1
  V  V57  1  0.87450094  0.12015581  0.76011592  1
  V  V58  1  0.36993356  0.87761872  0.50470679  1
  V  V59  1  0.50009262  0.37779487  0.36989378  1
  V  V60  1  0.24335564  0.63088827  0.87636566  1
  V  V61  1  0.25205171  0.25110478  0.50119297  1
  V  V62  1  -0.00068200  0.37464858  0.87718427  1
  V  V63  1  0.37425888  0.37814628  0.50120562  1
  V  V64  1  0.62753985  0.37310041  0.24871787  1
  V  V65  1  0.11889813  0.63337724  -0.00076859  1
  V  V66  1  0.63729185  0.64489926  0.48834706  1
  V  V67  1  0.62721467  0.50550093  0.11929982  1
  V  V68  1  0.49943531  0.24949214  0.24910473  1
  V  V69  1  0.37199177  0.75205888  0.13123081  1
  V  V70  1  0.12991697  -0.01515138  0.62477465  1
  V  V71  1  0.37725572  0.87274665  0.00305590  1
  V  V72  1  0.25039694  0.50327326  0.24943111  1
  V  V73  1  0.12387581  0.11868762  0.00412387  1
  V  V74  1  0.37992894  0.63305167  0.74895162  1
  V  V75  1  0.74816017  0.49828260  0.74663154  1
  V  V76  1  0.61484733  0.12757757  0.50858726  1
  V  V77  1  0.50468669  0.63030739  0.11985057  1
  V  V78  1  0.12384356  0.62995609  0.49752529  1
  V  V79  1  0.00253566  0.49651075  0.49434121  1
  V  V80  1  0.56777621  0.31729163  0.70702460  1
  V  V81  1  0.62017504  0.86240227  0.74322786  1
  V  V82  1  0.62623757  0.24832314  0.87266459  1
  V  V83  1  0.37236810  0.12296185  0.24845910  1
  V  V84  1  0.00345263  0.62641604  0.62374391  1
  Zn  Zn85  1  0.87104478  0.24507625  0.12904499  1
  Zn  Zn86  1  0.62001905  0.74344184  0.88248264  1
  Zn  Zn87  1  0.49838671  0.86515384  0.86616361  1
  Zn  Zn88  1  0.24974847  0.63086449  0.37424712  1
  Zn  Zn89  1  0.12662059  0.50020212  0.62384812  1
  Zn  Zn90  1  0.37714393  0.62873435  0.25096304  1
  Zn  Zn91  1  0.12191985  0.50416605  0.12689743  1
  Zn  Zn92  1  0.74084104  0.00846126  0.29253005  1
  Zn  Zn93  1  0.50585139  0.63608666  0.62887816  1
  Zn  Zn94  1  0.87214535  0.49806821  0.87398100  1
  Zn  Zn95  1  0.39128488  0.25013599  0.62792631  1
  Zn  Zn96  1  0.25516311  -0.00832416  0.74607180  1
  Zn  Zn97  1  0.76570520  0.66892508  0.36328906  1
  Zn  Zn98  1  0.37571479  0.76168293  0.63188767  1
  Zn  Zn99  1  0.50591404  0.50657102  -0.00208391  1
  Zn  Zn100  1  0.24730641  0.50325941  0.75063622  1
  Zn  Zn101  1  0.62137446  -0.00886012  0.14386282  1
  Zn  Zn102  1  0.12474735  0.24870063  0.87743969  1
  Zn  Zn103  1  0.37006856  -0.00024967  0.37510216  1
  Zn  Zn104  1  -0.00023097  0.00102484  0.49861106  1
  Zn  Zn105  1  0.24292439  0.75352517  0.00136233  1
  Zn  Zn106  1  0.12727761  0.12342843  0.50495187  1
  Zn  Zn107  1  0.18414043  0.18704471  0.18546506  1
  Zn  Zn108  1  0.18953546  0.18847075  0.69011384  1
  Zn  Zn109  1  0.18422551  0.68471751  0.18148613  1
  Zn  Zn110  1  0.18789616  0.69008986  0.68940487  1
  Zn  Zn111  1  0.68459589  0.16381858  0.19187351  1
  Zn  Zn112  1  0.69612683  0.17595370  0.68376916  1
  Zn  Zn113  1  0.69222594  0.69210250  0.18371110  1
  Zn  Zn114  1  0.69014177  0.68370458  0.68002818  1
  Zn  Zn115  1  0.31048101  0.31480747  0.31220755  1
  Zn  Zn116  1  0.31508893  0.31064640  0.81215107  1
  Zn  Zn117  1  0.31100639  0.81752407  0.31626897  1
  Zn  Zn118  1  0.31021677  0.81066922  0.81754098  1
  Zn  Zn119  1  0.81412122  0.31476417  0.31393698  1
  Zn  Zn120  1  0.81127914  0.30972330  0.81421507  1
  Zn  Zn121  1  0.81846051  0.82030584  0.30700705  1
  Zn  Zn122  1  0.80601589  0.80719250  0.80438882  1
  Zn  Zn123  1  0.18786299  0.43839932  0.43604690  1
  Zn  Zn124  1  0.18541126  0.44305716  0.93824603  1
  Zn  Zn125  1  0.18481033  0.93813635  0.43620127  1
  Zn  Zn126  1  0.19066955  0.94024415  0.94213142  1
  Zn  Zn127  1  0.68984030  0.43243074  0.43819035  1
  Zn  Zn128  1  0.68932330  0.43579609  0.93609538  1
  Zn  Zn129  1  0.70632835  0.87254577  0.41979180  1
  Zn  Zn130  1  0.68952412  0.93585363  0.92850023  1
  Zn  Zn131  1  0.31094662  0.05928812  0.06170525  1
  Zn  Zn132  1  0.31062851  0.06405936  0.56630639  1
  Zn  Zn133  1  0.31275956  0.56705099  0.06192307  1
  Zn  Zn134  1  0.30825788  0.56487417  0.56330615  1
  Zn  Zn135  1  0.81796339  0.06079969  0.06051815  1
  Zn  Zn136  1  0.77890266  0.02990872  0.49474525  1
  Zn  Zn137  1  0.81480304  0.55984116  0.06348930  1
  Zn  Zn138  1  0.81334999  0.56571709  0.55571261  1
  Zn  Zn139  1  0.43894673  0.44131290  0.18536003  1
  Zn  Zn140  1  0.43275323  0.44958483  0.68504376  1
  Zn  Zn141  1  0.43404580  0.93831047  0.18715898  1
  Zn  Zn142  1  0.44070266  0.94063399  0.68438609  1
  Zn  Zn143  1  0.93408773  0.43905037  0.18752770  1
  Zn  Zn144  1  0.93846179  0.43858842  0.68326837  1
  Zn  Zn145  1  0.93398063  0.93845305  0.18543821  1
  Zn  Zn146  1  0.94205110  0.93353998  0.68725672  1
  Zn  Zn147  1  0.06019268  0.06534540  0.31384203  1
  Zn  Zn148  1  0.06294179  0.05579130  0.81487152  1
  Zn  Zn149  1  0.06145203  0.56452664  0.31633108  1
  Zn  Zn150  1  0.06025822  0.56122818  0.81503383  1
  Zn  Zn151  1  0.56091286  0.06042171  0.31831371  1
  Zn  Zn152  1  0.56581287  0.05755725  0.81238197  1
  Zn  Zn153  1  0.56750829  0.57002013  0.30796976  1
  Zn  Zn154  1  0.56165849  0.56010651  0.80962956  1
  Zn  Zn155  1  0.43553567  0.18960585  0.43558631  1
  Zn  Zn156  1  0.44050721  0.18832486  0.93240314  1
  Zn  Zn157  1  0.43865228  0.69358571  0.43906924  1
  Zn  Zn158  1  0.43786480  0.69080350  0.93830785  1
  Zn  Zn159  1  0.94495014  0.18617882  0.44129000  1
  Zn  Zn160  1  0.93791094  0.18459625  0.93846920  1
  Zn  Zn161  1  0.92531069  0.70378592  0.40643160  1
  Zn  Zn162  1  0.92861453  0.68455975  0.94032178  1
  Zn  Zn163  1  0.06356840  0.30909241  0.06621492  1
  Zn  Zn164  1  0.06484529  0.31208056  0.56533178  1
  Zn  Zn165  1  0.05599087  0.80862476  0.06820133  1
  Zn  Zn166  1  0.05661020  0.81141889  0.56079711  1
  Zn  Zn167  1  0.56339975  0.31285007  0.06031175  1
  Zn  Zn168  1  0.56517693  0.32116178  0.54385267  1
  Zn  Zn169  1  0.57262519  0.81378309  0.06350740  1
  Zn  Zn170  1  0.55584803  0.81606332  0.56462955  1
  O  O171  1  0.11616955  0.12819476  0.11422540  1
  O  O172  1  0.11669933  0.11945660  0.63133279  1
  O  O173  1  0.11228434  0.62254455  0.11586096  1
  O  O174  1  0.12001078  0.62221911  0.61978780  1
  O  O175  1  0.61508456  0.12857774  0.10539484  1
  O  O176  1  0.62198438  0.12232099  0.61467328  1
  O  O177  1  0.61888020  0.61718175  0.12989887  1
  O  O178  1  0.62512410  0.61733683  0.60955432  1
  O  O179  1  0.37873621  0.38681076  0.37836976  1
  O  O180  1  0.38406968  0.38137184  0.87738731  1
  O  O181  1  0.37985907  0.88048061  0.38589645  1
  O  O182  1  0.37517749  0.88193131  0.88333470  1
  O  O183  1  0.87324578  0.37930586  0.39175212  1
  O  O184  1  0.88143671  0.37462034  0.88221406  1
  O  O185  1  0.89135419  0.87344093  0.39065499  1
  O  O186  1  0.87347534  0.88096783  0.86756067  1
  O  O187  1  0.24817476  0.00982928  0.36588636  1
  O  O188  1  0.26296740  0.00680435  0.87456317  1
  O  O189  1  0.25882300  0.50225187  0.36779373  1
  O  O190  1  0.25875172  0.50881791  0.87560341  1
  O  O191  1  0.74610371  -0.02013868  0.39998523  1
  O  O192  1  0.76586610  -0.00276897  0.86258782  1
  O  O193  1  0.75698038  0.48804831  0.36495709  1
  O  O194  1  0.74956059  0.50429305  0.86367702  1
  O  O195  1  0.24906864  0.49569850  0.13276430  1
  O  O196  1  0.24831127  0.48671010  0.62691451  1
  O  O197  1  0.25338576  0.99184012  0.13353072  1
  O  O198  1  0.23307427  1.00655043  0.63144095  1
  O  O199  1  0.74463094  0.49374655  0.13329065  1
  O  O200  1  0.74381114  0.49074261  0.62360154  1
  O  O201  1  0.74539111  0.99585926  0.11902178  1
  O  O202  1  0.73545821  1.00509970  0.62195821  1
  O  O203  1  0.01003123  0.36766199  0.24362164  1
  O  O204  1  0.00578989  0.37079150  0.75419820  1
  O  O205  1  -0.00889256  0.88043676  0.26637701  1
  O  O206  1  0.00961782  0.85996523  0.75094011  1
  O  O207  1  0.50589813  0.36938043  0.25165719  1
  O  O208  1  0.50055453  0.38230978  0.75671335  1
  O  O209  1  0.49177570  0.86531676  0.25534639  1
  O  O210  1  0.51591900  0.88063462  0.74830717  1
  O  O211  1  0.48892752  0.13188137  0.24598752  1
  O  O212  1  0.48760770  0.12173795  0.75509901  1
  O  O213  1  0.49865706  0.63984235  0.24230876  1
  O  O214  1  0.48351603  0.61950869  0.74889277  1
  O  O215  1  0.99367891  0.13160940  0.24373216  1
  O  O216  1  0.99871108  0.13003950  0.74900201  1
  O  O217  1  1.00208018  0.61697748  0.23648800  1
  O  O218  1  0.99415793  0.62855209  0.74347804  1
  O  O219  1  0.37023204  0.25510634  0.00329040  1
  O  O220  1  0.37161665  0.25952533  0.50463595  1
  O  O221  1  0.37300580  0.75870513  0.01284327  1
  O  O222  1  0.36276765  0.76009303  0.49531427  1
  O  O223  1  0.86523603  0.25281488  0.00001171  1
  O  O224  1  0.87083820  0.25177111  0.50498291  1
  O  O225  1  0.84653593  0.73926159  -0.00583143  1
  O  O226  1  0.88866664  0.75287435  0.51005140  1
  O  O227  1  0.13207696  0.25156361  0.49222847  1
  O  O228  1  0.13197368  0.23962637  0.99884852  1
  O  O229  1  0.13081749  0.74456799  0.49842152  1
  O  O230  1  0.12141569  0.73711590  1.00139070  1
  O  O231  1  0.63324127  0.24727192  0.49217305  1
  O  O232  1  0.63049101  0.24417103  0.99160249  1
  O  O233  1  0.62253716  0.74269495  0.50029811  1
  O  O234  1  0.64788103  0.75060907  0.99956505  1
  O  O235  1  0.49380276  0.24520629  0.12904742  1
  O  O236  1  0.50971098  0.26924378  0.63256601  1
  O  O237  1  0.49528094  0.74884783  0.13354324  1
  O  O238  1  0.48587156  0.74477377  0.61341860  1
  O  O239  1  0.99918512  0.23927376  0.13435759  1
  O  O240  1  0.99833599  0.24341693  0.63364827  1
  O  O241  1  0.99380606  0.73813253  0.12956621  1
  O  O242  1  0.99818605  0.73661520  0.63359765  1
  O  O243  1  0.01423363  0.24794840  0.36903852  1
  O  O244  1  0.00192683  0.25668319  0.87019216  1
  O  O245  1  0.01929570  0.76484866  0.37981910  1
  O  O246  1  -0.00595710  0.73939662  0.86013090  1
  O  O247  1  0.50533890  0.25825349  0.36801576  1
  O  O248  1  0.51322925  0.25973450  0.87558675  1
  O  O249  1  0.49376299  0.75900102  0.35950473  1
  O  O250  1  0.50761731  0.75345470  0.88120225  1
  O  O251  1  0.24948667  0.13374682  0.49361323  1
  O  O252  1  0.24404026  0.12636456  0.99161906  1
  O  O253  1  0.23801061  0.63032652  0.49765061  1
  O  O254  1  0.23740694  0.62475323  0.99589766  1
  O  O255  1  0.73892353  0.13791377  0.50340028  1
  O  O256  1  0.74302931  0.13512496  1.00167352  1
  O  O257  1  0.73913649  0.62892448  0.49584121  1
  O  O258  1  0.75027393  0.61188690  0.98245759  1
  O  O259  1  0.25504168  0.37104363  0.00362889  1
  O  O260  1  0.25556613  0.37216547  0.50712265  1
  O  O261  1  0.26171936  0.87670927  0.00784784  1
  O  O262  1  0.25537037  0.86828102  0.49584204  1
  O  O263  1  0.75395675  0.36484962  0.00569172  1
  O  O264  1  0.75591059  0.36305427  0.51148375  1
  O  O265  1  0.75438024  0.87208981  -0.00001458  1
  O  O266  1  0.77639629  0.86835420  0.51405991  1
  O  O267  1  0.13191109  0.49315038  0.25187101  1
  O  O268  1  0.12459764  0.48762080  0.74917817  1
  O  O269  1  0.13508993  1.01005904  0.24591948  1
  O  O270  1  0.12561782  0.98304838  0.74591601  1
  O  O271  1  0.63142377  0.49282343  0.24254552  1
  O  O272  1  0.62960891  0.50527744  0.73151629  1
  O  O273  1  0.64217752  1.04653995  0.24327087  1
  O  O274  1  0.63436938  0.99748711  0.74158028  1
  O  O275  1  0.36931234  0.01486474  0.24959769  1
  O  O276  1  0.37385578  0.00740764  0.75632096  1
  O  O277  1  0.36837400  0.50156543  0.25733301  1
  O  O278  1  0.37025613  0.50757372  0.76323760  1
  O  O279  1  0.87442055  0.01418969  0.25435785  1
  O  O280  1  0.87343124  0.00041232  0.75549896  1
  O  O281  1  0.86519639  0.49197911  0.26293809  1
  O  O282  1  0.87063714  0.50964567  0.74661932  1
  O  O283  1  0.13203222  0.36780206  0.36178754  1
  O  O284  1  0.11882663  0.37403616  0.86917078  1
  O  O285  1  0.11855350  0.86648158  0.37378785  1
  O  O286  1  0.12782554  0.87597173  0.86729178  1
  O  O287  1  0.61914947  0.36477990  0.36949448  1
  O  O288  1  0.61353971  0.37021874  0.87494981  1
  O  O289  1  0.60176245  0.88638581  0.37429045  1
  O  O290  1  0.62588304  0.87303343  0.85484667  1
  O  O291  1  0.37896496  0.13071772  0.12927815  1
  O  O292  1  0.37239817  0.12892102  0.64087192  1
  O  O293  1  0.38187822  0.63491751  0.12818793  1
  O  O294  1  0.37128257  0.61824464  0.64390355  1
  O  O295  1  0.88461114  0.12780663  0.13217565  1
  O  O296  1  0.89364666  0.12997251  0.63949995  1
  O  O297  1  0.88724414  0.61922098  0.12480204  1
  O  O298  1  0.88358304  0.63080027  0.62816376  1
  O  O299  1  0.25560135  0.25597396  0.11964538  1
  O  O300  1  0.25095486  0.26185152  0.62116571  1
  O  O301  1  0.25654778  0.75675965  0.12371935  1
  O  O302  1  0.25528912  0.74563370  0.61280210  1
  O  O303  1  0.74692234  0.25240901  0.11663083  1
  O  O304  1  0.75759922  0.25386004  0.61915676  1
  O  O305  1  0.75296186  0.76711545  0.12280577  1
  O  O306  1  0.77230789  0.74388635  0.62638866  1
  O  O307  1  0.24165451  0.24667529  0.37840289  1
  O  O308  1  0.25074788  0.24138612  0.88228579  1
  O  O309  1  0.23782813  0.75141162  0.38274605  1
  O  O310  1  0.25431608  0.73519368  0.88384922  1
  O  O311  1  0.74135948  0.25749040  0.38424294  1
  O  O312  1  0.73495505  0.25763015  0.88388184  1
  O  O313  1  0.73058099  0.77576335  0.36963015  1
  O  O314  1  0.74464699  0.73285744  0.87052397  1
  O  O315  1  0.00705565  0.12106751  0.00696132  1
  O  O316  1  0.00630432  0.12191199  0.51371310  1
  O  O317  1  0.00165690  0.61723810  0.00314149  1
  O  O318  1  0.01227062  0.61900138  0.50636467  1
  O  O319  1  0.50448630  0.11678426  0.00116349  1
  O  O320  1  0.50267553  0.12082659  0.49772224  1
  O  O321  1  0.49584593  0.62471585  0.01594770  1
  O  O322  1  0.50945935  0.61686831  0.49428852  1
  O  O323  1  0.49312690  0.39058795  0.48966933  1
  O  O324  1  0.49284322  0.37783976  0.99190216  1
  O  O325  1  0.49073673  0.88562010  0.49190077  1
  O  O326  1  0.49022874  0.88132492  1.00491297  1
  O  O327  1  0.99281955  0.38273396  0.50853765  1
  O  O328  1  0.99601920  0.37802399  0.99780025  1
  O  O329  1  0.99633952  0.87880116  0.49329249  1
  O  O330  1  1.00537523  0.88786307  1.00426765  1
  O  O331  1  0.49483411  0.49843043  0.37617380  1
  O  O332  1  0.49449315  0.49371096  0.87822594  1
  O  O333  1  0.49174263  0.99810296  0.38401391  1
  O  O334  1  0.48974432  0.99481948  0.87978604  1
  O  O335  1  0.99372862  0.50034631  0.38797026  1
  O  O336  1  0.99628087  0.49280491  0.88677129  1
  O  O337  1  1.01322227  0.98677232  0.38104320  1
  O  O338  1  0.98582577  1.00022590  0.88051732  1
  O  O339  1  -0.00584644  0.01059063  0.11481129  1
  O  O340  1  0.01443846  0.00611393  0.63019185  1
  O  O341  1  -0.00028052  0.49966750  0.11345366  1
  O  O342  1  0.00143257  0.51044118  0.61504390  1
  O  O343  1  0.50341979  0.00628252  0.12005829  1
  O  O344  1  0.50800038  -0.00047042  0.61112021  1
  O  O345  1  0.50927693  0.51122858  0.12680821  1
  O  O346  1  0.50716380  0.50602289  0.61401458  1
  O  O347  1  0.24500319  0.38564292  0.24526071  1
  O  O348  1  0.24341539  0.37533350  0.74547446  1
  O  O349  1  0.25521928  0.88933759  0.24274266  1
  O  O350  1  0.23575903  0.87144423  0.75348635  1
  O  O351  1  0.74449597  0.37748377  0.24264799  1
  O  O352  1  0.75829361  0.37970468  0.73638078  1
  O  O353  1  0.75785077  0.89549358  0.24379266  1
  O  O354  1  0.74174828  0.88490372  0.74469790  1
  O  O355  1  0.25499096  0.12235852  0.25268319  1
  O  O356  1  0.25600908  0.12399007  0.76253488  1
  O  O357  1  0.25011680  0.61289997  0.25017927  1
  O  O358  1  0.25504486  0.62337369  0.75942320  1
  O  O359  1  0.77409908  0.13415630  0.25658395  1
  O  O360  1  0.76350371  0.10732563  0.74326797  1
  O  O361  1  0.74064908  0.61234893  0.25426932  1
  O  O362  1  0.75815807  0.61723560  0.75011625  1
  O  O363  1  0.36452175  0.12872992  0.36459651  1
  O  O364  1  0.37020608  0.11856124  0.86818876  1
  O  O365  1  0.37340602  0.61589811  0.37370590  1
  O  O366  1  0.36950414  0.61896754  0.86872973  1
  O  O367  1  0.88591561  0.12453474  0.36696145  1
  O  O368  1  0.87894477  0.12108286  0.86244369  1
  O  O369  1  0.86756677  0.59988159  0.40216943  1
  O  O370  1  0.86406920  0.62009481  0.86254582  1
  O  O371  1  0.13254947  0.37605999  0.13632996  1
  O  O372  1  0.13279842  0.37654678  0.63467804  1
  O  O373  1  0.13876493  0.86986524  0.11987709  1
  O  O374  1  0.12110911  0.88343788  0.63157497  1
  O  O375  1  0.62916442  0.37987771  0.13112672  1
  O  O376  1  0.63003449  0.37672324  0.63084220  1
  O  O377  1  0.64453951  0.88084585  0.12243781  1
  O  O378  1  0.62221982  0.88457970  0.63280965  1
  O  O379  1  0.11727955  0.25607476  0.25562087  1
  O  O380  1  0.12069539  0.26149541  0.75352977  1
  O  O381  1  0.13135191  0.74850802  0.26188762  1
  O  O382  1  0.11499515  0.75936436  0.74929267  1
  O  O383  1  0.62128372  0.24921162  0.25573936  1
  O  O384  1  0.63188188  0.24681328  0.75471699  1
  O  O385  1  0.61167032  0.75286553  0.24412002  1
  O  O386  1  0.63011066  0.76136965  0.74069561  1
  O  O387  1  0.37632683  0.24282030  0.24404494  1
  O  O388  1  0.37706728  0.23593131  0.75033112  1
  O  O389  1  0.37481013  0.75103898  0.24000558  1
  O  O390  1  0.36957354  0.73664265  0.75096300  1
  O  O391  1  0.88973084  0.25006221  0.25374261  1
  O  O392  1  0.87917741  0.24111139  0.74751401  1
  O  O393  1  0.86418025  0.71932539  0.31211659  1
  O  O394  1  0.88559640  0.74252175  0.74079549  1
  O  O395  1  0.38223574  0.50005104  0.49343137  1
  O  O396  1  0.37672369  0.49660221  0.98977296  1
  O  O397  1  0.37810443  0.99822332  0.49964020  1
  O  O398  1  0.38203039  0.99456124  0.99316292  1
  O  O399  1  0.88229143  0.48689536  0.50199800  1
  O  O400  1  0.88095302  0.48817181  0.99774669  1
  O  O401  1  0.88257118  0.98316564  0.51690728  1
  O  O402  1  0.88178200  1.00341790  0.98236329  1
  O  O403  1  0.11540220  0.01185968  -0.00793092  1
  O  O404  1  0.12583648  0.00127307  0.51544497  1
  O  O405  1  0.11430814  0.50734555  0.00352615  1
  O  O406  1  0.11876216  0.50649133  0.49865729  1
  O  O407  1  0.61823065  0.00671741  -0.00929289  1
  O  O408  1  0.61333119  0.01435159  0.50648466  1
  O  O409  1  0.62520932  0.49204735  0.01564588  1
  O  O410  1  0.61857117  0.49565014  0.50759146  1
  O  O411  1  0.37022892  0.37165172  0.11902462  1
  O  O412  1  0.36885096  0.37454163  0.62149699  1
  O  O413  1  0.36828926  0.86969763  0.11898623  1
  O  O414  1  0.37491648  0.88025686  0.61085795  1
  O  O415  1  0.86696125  0.36861776  0.11838689  1
  O  O416  1  0.86996763  0.36601535  0.61751940  1
  O  O417  1  0.85765658  0.88344173  0.12189113  1
  O  O418  1  0.89126526  0.85704443  0.61737267  1
  O  O419  1  0.13209676  0.13537152  0.37703186  1
  O  O420  1  0.13445062  0.12519411  0.87985447  1
  O  O421  1  0.12484503  0.63808886  0.38186970  1
  O  O422  1  0.13277974  0.61730528  0.88401959  1
  O  O423  1  0.61706899  0.13980233  0.38865465  1
  O  O424  1  0.62002890  0.13327539  0.88431414  1
  O  O425  1  0.62963851  0.62328569  0.38764287  1
  O  O426  1  0.63814006  0.62141194  0.86811702  1
