# generated using pymatgen
data_V85Zn86O256
_symmetry_space_group_name_H-M   'P 1'
_cell_length_a   16.96823531
_cell_length_b   16.96801207
_cell_length_c   16.94915931
_cell_angle_alpha   90.10870152
_cell_angle_beta   89.91354912
_cell_angle_gamma   89.87638177
_symmetry_Int_Tables_number   1
_chemical_formula_structural   V85Zn86O256
_chemical_formula_sum   'V85 Zn86 O256'
_cell_volume   4879.92912932
_cell_formula_units_Z   1
loop_
 _symmetry_equiv_pos_site_id
 _symmetry_equiv_pos_as_xyz
  1  'x, y, z'
loop_
 _atom_site_type_symbol
 _atom_site_label
 _atom_site_symmetry_multiplicity
 _atom_site_fract_x
 _atom_site_fract_y
 _atom_site_fract_z
 _atom_site_occupancy
  V  V0  1  0.12257871  0.25041327  0.87783745  1
  V  V1  1  -0.00794576  0.25428913  0.24741747  1
  V  V2  1  0.75015183  0.12447059  0.87603255  1
  V  V3  1  0.62206326  0.36813546  0.24840363  1
  V  V4  1  0.87573858  0.87380583  0.00374957  1
  V  V5  1  0.24956820  0.12641746  0.87593922  1
  V  V6  1  0.12806462  0.12268693  0.49402838  1
  V  V7  1  0.57460697  -0.04639918  0.17875319  1
  V  V8  1  0.37249801  0.37946247  0.49638589  1
  V  V9  1  0.37447171  0.50783565  0.87667907  1
  V  V10  1  -0.00033510  0.38473171  0.37779522  1
  V  V11  1  0.00351814  -0.00190790  0.00193014  1
  V  V12  1  0.87087220  0.61934072  0.74356637  1
  V  V13  1  0.37305779  0.25031169  0.62721977  1
  V  V14  1  0.38057582  -0.00616692  0.87673966  1
  V  V15  1  0.12841397  0.12677188  0.00054122  1
  V  V16  1  0.87711089  -0.00967466  0.37608335  1
  V  V17  1  0.63475125  0.49781113  0.62764325  1
  V  V18  1  0.37349133  0.62754776  0.75063090  1
  V  V19  1  -0.00148389  0.37975249  0.87821997  1
  V  V20  1  0.11552174  0.50433059  0.62573003  1
  V  V21  1  0.11991183  0.62415223  0.50042989  1
  V  V22  1  0.87452721  0.12506531  0.74883857  1
  V  V23  1  0.87730269  0.74914344  0.61735081  1
  V  V24  1  0.50095102  0.12262755  0.62275972  1
  V  V25  1  0.62269086  0.11888425  0.00329824  1
  V  V26  1  0.88365428  0.74976513  0.12779690  1
  V  V27  1  0.13553774  -0.00455719  0.12423561  1
  V  V28  1  0.00323945  0.75150058  0.25397598  1
  V  V29  1  0.49921242  0.75673791  0.75410586  1
  V  V30  1  0.13135760  0.49716739  0.10965866  1
  V  V31  1  0.49708824  0.36899210  0.37290769  1
  V  V32  1  -0.00208844  0.74218623  0.74749529  1
  V  V33  1  0.76119095  0.49524477  0.25838618  1
  V  V34  1  0.50213837  0.14336670  0.13263332  1
  V  V35  1  0.24960004  0.24812493  0.49446306  1
  V  V36  1  0.49516894  0.50025959  0.50023985  1
  V  V37  1  0.37658620  0.75143981  0.62430670  1
  V  V38  1  0.25136189  0.87461141  0.62190184  1
  V  V39  1  0.75578861  0.00550113  0.23933603  1
  V  V40  1  0.62777003  0.87568796  0.75161936  1
  V  V41  1  0.25860453  0.62315433  0.37497188  1
  V  V42  1  0.12295163  0.87311883  0.75112073  1
  V  V43  1  0.13422366  0.87326618  0.24705531  1
  V  V44  1  0.49842929  0.25391249  0.75099455  1
  V  V45  1  0.74730239  0.62037596  0.87292291  1
  V  V46  1  0.87529357  0.37428528  0.00410969  1
  V  V47  1  0.24873178  0.49428736  0.25150150  1
  V  V48  1  0.85867391  0.25347749  0.61918415  1
  V  V49  1  0.38357408  0.62172436  0.24440967  1
  V  V50  1  -0.00454312  0.12978864  0.12495254  1
  V  V51  1  0.50308901  0.62613448  0.62235093  1
  V  V52  1  -0.00236369  -0.01210477  0.49460037  1
  V  V53  1  0.12272052  0.00023417  0.62326009  1
  V  V54  1  0.63366270  0.25213518  0.38145312  1
  V  V55  1  0.62055385  0.75167391  0.87703100  1
  V  V56  1  0.37437809  0.12941371  0.75098704  1
  V  V57  1  0.38315181  0.87546083  0.49245430  1
  V  V58  1  0.24941506  0.50713988  0.75283006  1
  V  V59  1  0.13395132  0.73389710  0.87718856  1
  V  V60  1  0.24738816  0.74353552  0.01434894  1
  V  V61  1  0.63633475  0.37944821  0.74728476  1
  V  V62  1  0.24874607  0.00100535  0.74874008  1
  V  V63  1  0.86364722  0.37856824  0.49963723  1
  V  V64  1  0.12399290  0.24976948  0.37210790  1
  V  V65  1  0.75492170  0.87554346  0.61580984  1
  V  V66  1  0.87406754  0.50146973  0.87849934  1
  V  V67  1  0.00735985  0.61875936  0.11106551  1
  V  V68  1  0.50049864  0.38063673  0.87587383  1
  V  V69  1  0.87619699  -0.00158725  0.87464930  1
  V  V70  1  0.75212902  0.75215417  -0.00152303  1
  V  V71  1  0.49919581  0.50759781  0.00732425  1
  V  V72  1  -0.00074298  0.12933134  0.62135371  1
  V  V73  1  0.70113442  0.82196950  0.17581180  1
  V  V74  1  0.75301223  0.24954942  0.00832643  1
  V  V75  1  0.39349272  0.75156188  0.13058246  1
  V  V76  1  0.36480311  0.13512073  0.25634341  1
  V  V77  1  0.24930729  0.37561285  0.62766268  1
  V  V78  1  0.00248012  0.87215803  0.87490510  1
  V  V79  1  0.12476704  0.75559025  0.37763494  1
  V  V80  1  0.35469653  0.25547956  0.11837603  1
  V  V81  1  0.63538147  0.12731510  0.50242357  1
  V  V82  1  0.12367898  0.37554709  0.74995295  1
  V  V83  1  0.62452301  0.25168280  0.87627630  1
  V  V84  1  0.62410129  0.50163817  0.12869414  1
  Zn  Zn85  1  0.50354713  0.00022440  0.49052485  1
  Zn  Zn86  1  0.62247744  0.62929818  0.01473673  1
  Zn  Zn87  1  0.37013942  0.00656943  0.37674927  1
  Zn  Zn88  1  0.12700600  0.37456352  0.24238176  1
  Zn  Zn89  1  0.37312791  0.87282937  0.00374238  1
  Zn  Zn90  1  0.51220587  0.87929569  0.35447331  1
  Zn  Zn91  1  0.62627505  0.62483381  0.48536250  1
  Zn  Zn92  1  -0.00512711  0.50255973  0.50051301  1
  Zn  Zn93  1  0.88644139  0.61316170  0.25339983  1
  Zn  Zn94  1  0.76295102  0.62468488  0.37873996  1
  Zn  Zn95  1  0.74933771  0.74608557  0.49561102  1
  Zn  Zn96  1  0.50231392  -0.00223711  -0.00138055  1
  Zn  Zn97  1  0.36431456  0.37880437  0.00942522  1
  Zn  Zn98  1  0.75803841  0.12840508  0.37753673  1
  Zn  Zn99  1  -0.00272753  0.25194830  0.74758536  1
  Zn  Zn100  1  0.24428359  0.00761650  0.26195679  1
  Zn  Zn101  1  0.75373697  0.37242359  0.12686334  1
  Zn  Zn102  1  0.75105700  -0.00251874  0.75038025  1
  Zn  Zn103  1  0.87659368  0.12915496  0.25265467  1
  Zn  Zn104  1  0.62472534  0.76097424  0.37906281  1
  Zn  Zn105  1  0.62641052  -0.00203514  0.62284806  1
  Zn  Zn106  1  0.25265743  0.74672858  0.49981617  1
  Zn  Zn107  1  0.18255925  0.18920808  0.18622909  1
  Zn  Zn108  1  0.18529743  0.18937076  0.68767559  1
  Zn  Zn109  1  0.18500246  0.67921195  0.19013811  1
  Zn  Zn110  1  0.18632105  0.68741063  0.68680939  1
  Zn  Zn111  1  0.68680850  0.18728488  0.19056173  1
  Zn  Zn112  1  0.68552605  0.18742308  0.69104618  1
  Zn  Zn113  1  0.65377778  0.65128884  0.23919541  1
  Zn  Zn114  1  0.68878746  0.68807198  0.68473376  1
  Zn  Zn115  1  0.31337618  0.31052181  0.31130457  1
  Zn  Zn116  1  0.29920935  0.32794503  0.84197809  1
  Zn  Zn117  1  0.31280527  0.80747944  0.31078166  1
  Zn  Zn118  1  0.30924561  0.81374920  0.81162911  1
  Zn  Zn119  1  0.81307969  0.31662620  0.31678857  1
  Zn  Zn120  1  0.81362319  0.30911462  0.81466150  1
  Zn  Zn121  1  0.81670278  0.80838832  0.31975614  1
  Zn  Zn122  1  0.81222671  0.80979277  0.81134162  1
  Zn  Zn123  1  0.18666517  0.43828001  0.43521447  1
  Zn  Zn124  1  0.19235930  0.43862057  0.93628081  1
  Zn  Zn125  1  0.19340029  0.93677820  0.43423818  1
  Zn  Zn126  1  0.19286309  0.93083585  0.93926463  1
  Zn  Zn127  1  0.68385843  0.43921003  0.43973919  1
  Zn  Zn128  1  0.68717594  0.43957899  0.94052307  1
  Zn  Zn129  1  0.68677230  0.94116503  0.43199159  1
  Zn  Zn130  1  0.68904128  0.93520055  0.93772132  1
  Zn  Zn131  1  0.31318628  0.07000601  0.06245053  1
  Zn  Zn132  1  0.31240618  0.06113958  0.55831926  1
  Zn  Zn133  1  0.30874334  0.56993566  0.06219785  1
  Zn  Zn134  1  0.30988425  0.56275621  0.56490775  1
  Zn  Zn135  1  0.81563546  0.06412515  0.06104948  1
  Zn  Zn136  1  0.81426529  0.05834179  0.56099580  1
  Zn  Zn137  1  0.81056733  0.56293030  0.06734870  1
  Zn  Zn138  1  0.81110044  0.56325622  0.56004910  1
  Zn  Zn139  1  0.43464833  0.43463065  0.18924548  1
  Zn  Zn140  1  0.43906245  0.43758442  0.68805280  1
  Zn  Zn141  1  0.40976835  0.94475760  0.18022059  1
  Zn  Zn142  1  0.43748854  0.93902268  0.68825639  1
  Zn  Zn143  1  0.94572801  0.43562000  0.18235245  1
  Zn  Zn144  1  0.93206803  0.43582576  0.68958899  1
  Zn  Zn145  1  0.94357560  0.93571827  0.19036824  1
  Zn  Zn146  1  0.93717057  0.93680522  0.68606379  1
  Zn  Zn147  1  0.06022249  0.06265812  0.31196877  1
  Zn  Zn148  1  0.05931760  0.06213329  0.81074881  1
  Zn  Zn149  1  0.06778049  0.56695988  0.30960460  1
  Zn  Zn150  1  0.05614019  0.56025945  0.81271918  1
  Zn  Zn151  1  0.55431121  0.07064974  0.32008464  1
  Zn  Zn152  1  0.56262488  0.06415074  0.81091656  1
  Zn  Zn153  1  0.56006237  0.54960869  0.31917630  1
  Zn  Zn154  1  0.56263303  0.56647162  0.81125990  1
  Zn  Zn155  1  0.44294124  0.19211811  0.44003927  1
  Zn  Zn156  1  0.43753840  0.18785937  0.94144836  1
  Zn  Zn157  1  0.44571266  0.69682090  0.42994861  1
  Zn  Zn158  1  0.43550572  0.68721328  0.94185113  1
  Zn  Zn159  1  0.93767937  0.18855213  0.43614637  1
  Zn  Zn160  1  0.93900049  0.18911685  0.93787804  1
  Zn  Zn161  1  0.93819799  0.68283233  0.43283258  1
  Zn  Zn162  1  0.93828225  0.68645094  0.93447290  1
  Zn  Zn163  1  0.06319608  0.31438353  0.06039680  1
  Zn  Zn164  1  0.06033027  0.31424099  0.56042429  1
  Zn  Zn165  1  0.06732393  0.81087977  0.06198613  1
  Zn  Zn166  1  0.06282262  0.80822161  0.56402723  1
  Zn  Zn167  1  0.56169604  0.31702343  0.05928655  1
  Zn  Zn168  1  0.56399936  0.31255787  0.56338094  1
  Zn  Zn169  1  0.55340104  0.81388482  0.04930375  1
  Zn  Zn170  1  0.56701337  0.81142502  0.55971195  1
  O  O171  1  0.11844277  0.11977253  0.11556584  1
  O  O172  1  0.11717932  0.11944141  0.61946477  1
  O  O173  1  0.11518382  0.61473616  0.12313098  1
  O  O174  1  0.13227700  0.61560655  0.61489476  1
  O  O175  1  0.61144396  0.13362428  0.11855348  1
  O  O176  1  0.61797908  0.12535352  0.62055886  1
  O  O177  1  0.62280888  0.60598605  0.13468865  1
  O  O178  1  0.61310295  0.61510664  0.63022715  1
  O  O179  1  0.38170174  0.36676576  0.38697418  1
  O  O180  1  0.39412628  0.39422912  0.85856529  1
  O  O181  1  0.37207888  0.87159905  0.38744439  1
  O  O182  1  0.37100191  0.89276685  0.86736968  1
  O  O183  1  0.88425809  0.36898177  0.39197304  1
  O  O184  1  0.87965480  0.38235233  0.87818378  1
  O  O185  1  0.87785062  0.89085098  0.37120249  1
  O  O186  1  0.88283257  0.87631328  0.88136155  1
  O  O187  1  0.25552669  0.00592021  0.37600225  1
  O  O188  1  0.25376115  0.00928753  0.86813691  1
  O  O189  1  0.24487189  0.50824822  0.36173874  1
  O  O190  1  0.25950796  0.50372656  0.86046852  1
  O  O191  1  0.76437905  0.00398843  0.36579734  1
  O  O192  1  0.75868423  0.00613273  0.87515244  1
  O  O193  1  0.74679540  0.49494001  0.36022108  1
  O  O194  1  0.75191403  0.51439916  0.87894117  1
  O  O195  1  0.23782313  0.50754416  0.13225080  1
  O  O196  1  0.24426188  0.49351549  0.63592580  1
  O  O197  1  0.23763810  1.00763351  0.12672649  1
  O  O198  1  0.24409436  0.99381375  0.62923379  1
  O  O199  1  0.74138804  0.49249826  0.13180018  1
  O  O200  1  0.73259842  0.50365601  0.62603303  1
  O  O201  1  0.75845902  1.00276806  0.13858418  1
  O  O202  1  0.75110954  0.98815561  0.62981729  1
  O  O203  1  0.00440052  0.36970362  0.25713922  1
  O  O204  1  0.00486065  0.37442681  0.76042751  1
  O  O205  1  0.01402741  0.85903172  0.24395616  1
  O  O206  1  0.00396054  0.86701917  0.75585610  1
  O  O207  1  0.50680944  0.38247845  0.26307143  1
  O  O208  1  0.50945014  0.37037844  0.75438313  1
  O  O209  1  0.50924870  0.89647078  0.23014267  1
  O  O210  1  0.50788074  0.86300325  0.74343614  1
  O  O211  1  0.49095052  0.12668665  0.23574350  1
  O  O212  1  0.49560844  0.13460353  0.74471930  1
  O  O213  1  0.48079507  0.60851725  0.25578395  1
  O  O214  1  0.49405747  0.63510141  0.74205706  1
  O  O215  1  1.00231493  0.13506102  0.24062437  1
  O  O216  1  0.99268271  0.12550372  0.73925095  1
  O  O217  1  1.00525477  0.63639008  0.23887828  1
  O  O218  1  0.98767947  0.63403038  0.75519176  1
  O  O219  1  0.37685646  0.24992486  0.01596057  1
  O  O220  1  0.36629808  0.25510895  0.50654745  1
  O  O221  1  0.36964286  0.74586586  0.01717620  1
  O  O222  1  0.37458928  0.75793244  0.50877609  1
  O  O223  1  0.86392357  0.25943392  -0.00919901  1
  O  O224  1  0.87928976  0.25870415  0.51303656  1
  O  O225  1  0.87008533  0.75107949  0.00874186  1
  O  O226  1  0.88052414  0.74407988  0.51512312  1
  O  O227  1  0.13071305  0.24342767  0.49490710  1
  O  O228  1  0.12002890  0.24172493  0.98620455  1
  O  O229  1  0.12798507  0.74250038  0.49502746  1
  O  O230  1  0.13588408  0.75239584  0.98678264  1
  O  O231  1  0.62232728  0.24245238  0.49410145  1
  O  O232  1  0.63045824  0.24299019  0.99375607  1
  O  O233  1  0.62901074  0.74092496  0.50053788  1
  O  O234  1  0.63173623  0.74857695  0.99435047  1
  O  O235  1  0.49594300  0.24375265  0.12284101  1
  O  O236  1  0.49455768  0.24132253  0.62990595  1
  O  O237  1  0.49181161  0.74888930  0.12514073  1
  O  O238  1  0.49712258  0.74210571  0.63258091  1
  O  O239  1  1.01042938  0.24289896  0.13480991  1
  O  O240  1  0.99903596  0.23805373  0.62564123  1
  O  O241  1  0.99942534  0.73913153  0.12740737  1
  O  O242  1  0.99277736  0.75524036  0.63863946  1
  O  O243  1  0.00732535  0.25830796  0.36801854  1
  O  O244  1  0.00708684  0.25521729  0.86944270  1
  O  O245  1  0.01170670  0.74520172  0.36564219  1
  O  O246  1  0.00852384  0.75395262  0.86834021  1
  O  O247  1  0.51171972  0.26371114  0.38138874  1
  O  O248  1  0.50374439  0.26000413  0.87288500  1
  O  O249  1  0.50749900  0.76592806  0.37148969  1
  O  O250  1  0.50804725  0.74472080  0.86707882  1
  O  O251  1  0.23622526  0.13387236  0.50788685  1
  O  O252  1  0.23618228  0.12187337  0.99073822  1
  O  O253  1  0.24428526  0.62335617  0.49147744  1
  O  O254  1  0.25590845  0.64487864  0.99218124  1
  O  O255  1  0.73859658  0.12240141  0.50083461  1
  O  O256  1  0.74398080  0.13076036  0.99656923  1
  O  O257  1  0.74410900  0.62397137  0.49550214  1
  O  O258  1  0.74709578  0.63684274  0.99685685  1
  O  O259  1  0.27017688  0.36258946  -0.04961346  1
  O  O260  1  0.25596871  0.36990723  0.50474946  1
  O  O261  1  0.25928289  0.85094810  -0.01345265  1
  O  O262  1  0.25672536  0.87309271  0.51240668  1
  O  O263  1  0.75655052  0.36567533  -0.00172035  1
  O  O264  1  0.76462408  0.37792010  0.49650831  1
  O  O265  1  0.75825187  0.86094792  -0.00494378  1
  O  O266  1  0.74867249  0.87622402  0.51445765  1
  O  O267  1  0.13712854  0.50017412  0.24077951  1
  O  O268  1  0.13163988  0.49825348  0.74586606  1
  O  O269  1  0.12386152  0.99209593  0.24261693  1
  O  O270  1  0.12762488  0.99430347  0.74260913  1
  O  O271  1  0.63206709  0.48586944  0.24633291  1
  O  O272  1  0.61668405  0.49355210  0.73688744  1
  O  O273  1  0.63090352  1.00897586  0.24473478  1
  O  O274  1  0.62482573  0.98563483  0.75285263  1
  O  O275  1  0.36540099  0.02197526  0.24679191  1
  O  O276  1  0.37001286  0.00885384  0.75870531  1
  O  O277  1  0.35908099  0.51037742  0.23932224  1
  O  O278  1  0.36950320  0.50815082  0.75270631  1
  O  O279  1  0.87350661  0.00232477  0.25767580  1
  O  O280  1  0.87590429  0.00666073  0.75744167  1
  O  O281  1  0.86367168  0.48926294  0.24379524  1
  O  O282  1  0.87614098  0.50890639  0.76048951  1
  O  O283  1  0.11799491  0.36298958  0.37728949  1
  O  O284  1  0.11592186  0.36851848  0.87139625  1
  O  O285  1  0.12908150  0.86087841  0.37134144  1
  O  O286  1  0.11973202  0.86863305  0.86748908  1
  O  O287  1  0.61815955  0.36951093  0.37179061  1
  O  O288  1  0.61571442  0.37491603  0.86980195  1
  O  O289  1  0.62658907  0.87640325  0.36713619  1
  O  O290  1  0.63175640  0.86016187  0.86840823  1
  O  O291  1  0.38229545  0.13732391  0.12934927  1
  O  O292  1  0.38060806  0.13071525  0.62953918  1
  O  O293  1  0.37284235  0.63470145  0.13700087  1
  O  O294  1  0.38551530  0.63035836  0.62872962  1
  O  O295  1  0.89245605  0.12354827  0.12366289  1
  O  O296  1  0.88029492  0.13483650  0.62503923  1
  O  O297  1  0.88908672  0.62937444  0.12872735  1
  O  O298  1  0.86857724  0.63208221  0.63682450  1
  O  O299  1  0.25553084  0.24921941  0.11959626  1
  O  O300  1  0.25117503  0.25658242  0.61555966  1
  O  O301  1  0.24398123  0.74515752  0.11570086  1
  O  O302  1  0.25646773  0.75898949  0.62537849  1
  O  O303  1  0.74718246  0.25075163  0.11196500  1
  O  O304  1  0.76072769  0.24747114  0.62549644  1
  O  O305  1  0.76101517  0.75508414  0.12022756  1
  O  O306  1  0.75882780  0.75976377  0.62423672  1
  O  O307  1  0.24257704  0.25522501  0.38794128  1
  O  O308  1  0.23709078  0.23131574  0.86293117  1
  O  O309  1  0.24275853  0.74079972  0.37766244  1
  O  O310  1  0.23464673  0.74689187  0.86585352  1
  O  O311  1  0.73798663  0.24919032  0.37344880  1
  O  O312  1  0.74340770  0.24231920  0.88292283  1
  O  O313  1  0.74728001  0.74534677  0.37692326  1
  O  O314  1  0.74592538  0.74083403  0.88258333  1
  O  O315  1  0.01037633  0.12036212  0.00349852  1
  O  O316  1  0.01153212  0.12086734  0.50588569  1
  O  O317  1  -0.00133593  0.62787818  0.01261307  1
  O  O318  1  0.01584321  0.62033239  0.49595964  1
  O  O319  1  0.50575160  0.12194466  0.01182842  1
  O  O320  1  0.50674311  0.12412636  0.50945544  1
  O  O321  1  0.50457981  0.61205276  -0.00226966  1
  O  O322  1  0.49918806  0.61686992  0.50520761  1
  O  O323  1  0.48983442  0.38016727  0.49928087  1
  O  O324  1  0.49463660  0.38522824  0.98942184  1
  O  O325  1  0.48819404  0.88126397  0.51385153  1
  O  O326  1  0.48663301  0.88628694  1.00219663  1
  O  O327  1  0.99417041  0.37800433  0.49260336  1
  O  O328  1  0.99104060  0.36768542  0.98583403  1
  O  O329  1  1.00600353  0.88974858  0.50740272  1
  O  O330  1  0.99793875  0.87770717  0.99272860  1
  O  O331  1  0.50246277  0.48579793  0.39338478  1
  O  O332  1  0.49732027  0.49756176  0.88140410  1
  O  O333  1  0.48884216  0.99437036  0.37312693  1
  O  O334  1  0.48252695  1.01040846  0.87483491  1
  O  O335  1  1.01131634  0.48723418  0.37421773  1
  O  O336  1  0.98894883  0.49117042  0.87493527  1
  O  O337  1  0.98999842  1.00334705  0.38193503  1
  O  O338  1  0.99619524  0.99313906  0.88149452  1
  O  O339  1  0.01050958  0.00792638  0.11898414  1
  O  O340  1  0.00107352  0.01065712  0.61750547  1
  O  O341  1  0.01360698  0.51146467  0.12680076  1
  O  O342  1  0.01350451  0.49588566  0.62873979  1
  O  O343  1  0.50424599  0.01086184  0.12578117  1
  O  O344  1  0.50259362  0.01549791  0.63106261  1
  O  O345  1  0.50695651  0.48876467  0.11577934  1
  O  O346  1  0.50241708  0.50743662  0.61700488  1
  O  O347  1  0.24881404  0.39042250  0.25663059  1
  O  O348  1  0.24210909  0.38357147  0.74888365  1
  O  O349  1  0.23748871  0.87625940  0.25351109  1
  O  O350  1  0.24409821  0.88087517  0.73960458  1
  O  O351  1  0.74369500  0.37936594  0.24759443  1
  O  O352  1  0.73515525  0.37118927  0.75809196  1
  O  O353  1  0.75576704  0.87916150  0.24059743  1
  O  O354  1  0.74198332  0.87398570  0.74453064  1
  O  O355  1  0.26090436  0.13125488  0.24805128  1
  O  O356  1  0.25349318  0.11818164  0.75322126  1
  O  O357  1  0.25523028  0.61602949  0.25758023  1
  O  O358  1  0.26082913  0.61820273  0.74136623  1
  O  O359  1  0.75554784  0.11924656  0.25204434  1
  O  O360  1  0.75540741  0.12216898  0.75782404  1
  O  O361  1  0.75813633  0.60163170  0.24576155  1
  O  O362  1  0.75881201  0.63284559  0.76089019  1
  O  O363  1  0.38315252  0.13647692  0.35786272  1
  O  O364  1  0.36533984  0.12222378  0.87150675  1
  O  O365  1  0.36401424  0.63262256  0.36451477  1
  O  O366  1  0.38277454  0.61443409  0.86732289  1
  O  O367  1  0.87613567  0.11789293  0.37255542  1
  O  O368  1  0.87104988  0.12022031  0.87037659  1
  O  O369  1  0.87725308  0.62095414  0.36541036  1
  O  O370  1  0.86813386  0.61852698  0.87015273  1
  O  O371  1  0.12018122  0.39226245  0.12346823  1
  O  O372  1  0.13037676  0.38112513  0.63034180  1
  O  O373  1  0.12311455  0.88415541  0.13188063  1
  O  O374  1  0.13220414  0.87912998  0.63047168  1
  O  O375  1  0.62573265  0.37924458  0.13336300  1
  O  O376  1  0.62001488  0.38858761  0.63177766  1
  O  O377  1  0.63192859  0.88313034  0.11793145  1
  O  O378  1  0.63792849  0.87500516  0.63385325  1
  O  O379  1  0.11930602  0.25400927  0.25806033  1
  O  O380  1  0.12173540  0.25632055  0.75914804  1
  O  O381  1  0.12273576  0.75405498  0.25682231  1
  O  O382  1  0.11634410  0.75184500  0.75634654  1
  O  O383  1  0.62736175  0.26224711  0.25821842  1
  O  O384  1  0.61846203  0.25787288  0.75658466  1
  O  O385  1  0.64017110  0.76461891  0.22870706  1
  O  O386  1  0.61887602  0.75740203  0.75562615  1
  O  O387  1  0.36978301  0.24299988  0.23577159  1
  O  O388  1  0.37867691  0.24597775  0.74578597  1
  O  O389  1  0.37129576  0.73664399  0.23849725  1
  O  O390  1  0.38214114  0.74793722  0.74635478  1
  O  O391  1  0.88851002  0.25225804  0.25322042  1
  O  O392  1  0.87570642  0.24461074  0.73743101  1
  O  O393  1  0.88530785  0.75305771  0.23815995  1
  O  O394  1  0.88201381  0.74151805  0.74554572  1
  O  O395  1  0.37940876  0.48792577  0.50772689  1
  O  O396  1  0.37913630  0.50104865  0.99308026  1
  O  O397  1  0.37935820  0.99041506  0.50091114  1
  O  O398  1  0.36848105  1.00236227  0.98537635  1
  O  O399  1  0.87985690  0.48245196  0.51541806  1
  O  O400  1  0.86575604  0.49220892  0.98661968  1
  O  O401  1  0.88382564  1.00325967  0.48701024  1
  O  O402  1  0.88263032  0.99381633  0.99481231  1
  O  O403  1  0.12277629  0.00368409  0.00429103  1
  O  O404  1  0.12003339  0.00712671  0.50372588  1
  O  O405  1  0.13377202  0.50088671  0.00993596  1
  O  O406  1  0.12594385  0.50562725  0.50982177  1
  O  O407  1  0.62567907  0.01496882  -0.00671523  1
  O  O408  1  0.62216664  0.01163280  0.50321862  1
  O  O409  1  0.61803666  0.50142635  0.01094432  1
  O  O410  1  0.61517197  0.50161837  0.51195588  1
  O  O411  1  0.37314933  0.35992836  0.12578473  1
  O  O412  1  0.36931336  0.36887983  0.61911885  1
  O  O413  1  0.36923095  0.85483063  0.12787179  1
  O  O414  1  0.36680282  0.87164118  0.62312299  1
  O  O415  1  0.87804705  0.37898967  0.10730559  1
  O  O416  1  0.87898708  0.36006219  0.61815103  1
  O  O417  1  0.88869113  0.86327165  0.11500431  1
  O  O418  1  0.86235822  0.86557861  0.63355819  1
  O  O419  1  0.11855343  0.13804091  0.38275563  1
  O  O420  1  0.12728646  0.12942552  0.87985829  1
  O  O421  1  0.13565410  0.63306353  0.38128471  1
  O  O422  1  0.12010374  0.63627525  0.87136862  1
  O  O423  1  0.62463729  0.13532686  0.38482473  1
  O  O424  1  0.62880179  0.13147285  0.88170276  1
  O  O425  1  0.63022186  0.63083891  0.35535084  1
  O  O426  1  0.63212459  0.63634112  0.87405357  1
