# generated using pymatgen
data_V85Zn86O256
_symmetry_space_group_name_H-M   'P 1'
_cell_length_a   16.92529012
_cell_length_b   16.92033407
_cell_length_c   16.92718481
_cell_angle_alpha   89.95822503
_cell_angle_beta   89.94671632
_cell_angle_gamma   90.04961065
_symmetry_Int_Tables_number   1
_chemical_formula_structural   V85Zn86O256
_chemical_formula_sum   'V85 Zn86 O256'
_cell_volume   4847.62843835
_cell_formula_units_Z   1
loop_
 _symmetry_equiv_pos_site_id
 _symmetry_equiv_pos_as_xyz
  1  'x, y, z'
loop_
 _atom_site_type_symbol
 _atom_site_label
 _atom_site_symmetry_multiplicity
 _atom_site_fract_x
 _atom_site_fract_y
 _atom_site_fract_z
 _atom_site_occupancy
  V  V0  1  0.62599550  0.62647767  -0.00216543  1
  V  V1  1  0.62359050  0.12168156  0.49782924  1
  V  V2  1  -0.00075403  0.74822464  0.24881821  1
  V  V3  1  -0.00139613  0.62873460  0.61601212  1
  V  V4  1  0.36551593  0.75013974  0.13183511  1
  V  V5  1  0.00563837  0.25226539  0.25199118  1
  V  V6  1  -0.00742810  0.87209625  0.37874643  1
  V  V7  1  0.12592305  0.24515324  0.88759655  1
  V  V8  1  0.37320342  0.74513976  0.62401119  1
  V  V9  1  0.37506162  0.50821196  0.86626601  1
  V  V10  1  0.12681358  0.25747318  0.37616956  1
  V  V11  1  0.87838245  0.38071633  -0.00253710  1
  V  V12  1  0.37513936  0.12420343  0.24616814  1
  V  V13  1  0.48941248  -0.00529640  0.49956043  1
  V  V14  1  0.87595760  0.25012632  0.12532219  1
  V  V15  1  0.49764664  0.50383227  0.00194146  1
  V  V16  1  0.31282040  0.31168249  0.17370445  1
  V  V17  1  0.00295923  0.12201009  0.11825404  1
  V  V18  1  0.01464992  0.50579628  -0.00275562  1
  V  V19  1  0.12777149  0.74633821  0.88176943  1
  V  V20  1  0.62632573  0.25195243  0.87712923  1
  V  V21  1  0.62331972  0.24782941  0.36911595  1
  V  V22  1  0.49935064  0.87579271  0.87505363  1
  V  V23  1  0.76120682  0.50521513  0.74587227  1
  V  V24  1  0.25210388  0.75318480  0.50014476  1
  V  V25  1  0.62069391  -0.00850538  0.62238401  1
  V  V26  1  0.25054508  0.63029306  0.88586295  1
  V  V27  1  0.00760008  0.25291548  0.74509283  1
  V  V28  1  0.63234222  0.49971084  0.62454958  1
  V  V29  1  0.74756958  0.87582802  0.12517203  1
  V  V30  1  0.01153510  0.62957604  0.11508637  1
  V  V31  1  0.87431969  0.37410632  0.51414861  1
  V  V32  1  -0.00470877  0.12980763  0.62244200  1
  V  V33  1  0.87382263  0.61099302  0.24267910  1
  V  V34  1  0.76361743  0.75152222  0.50082888  1
  V  V35  1  0.62166307  0.00096518  0.12589455  1
  V  V36  1  0.49428694  0.74791393  0.75096133  1
  V  V37  1  0.12702775  0.49375010  0.61700259  1
  V  V38  1  0.24791357  0.00233193  0.74959739  1
  V  V39  1  0.12578120  -0.00322635  0.11971191  1
  V  V40  1  0.75284928  0.25326992  0.00138075  1
  V  V41  1  0.50147748  0.37032799  0.37230424  1
  V  V42  1  0.87309911  0.00325320  0.87195983  1
  V  V43  1  0.48972231  0.86909065  0.37732515  1
  V  V44  1  0.24547077  0.12651429  0.88860135  1
  V  V45  1  0.24772195  0.62094534  0.38049521  1
  V  V46  1  0.75832803  0.62829923  0.86883031  1
  V  V47  1  0.49781527  0.62161001  0.62950398  1
  V  V48  1  0.12491171  0.12351840  0.49896642  1
  V  V49  1  0.87343619  0.87880468  -0.00208301  1
  V  V50  1  0.63466130  0.37958490  0.75067458  1
  V  V51  1  0.74767468  0.75260192  -0.00246673  1
  V  V52  1  0.49695704  0.00118890  0.00271935  1
  V  V53  1  0.62055056  0.74770856  0.37543185  1
  V  V54  1  0.49974837  0.37562730  0.87599129  1
  V  V55  1  0.87583036  0.12202037  0.25174653  1
  V  V56  1  0.00690311  0.37716811  0.86866569  1
  V  V57  1  0.75074219  0.62014475  0.37132390  1
  V  V58  1  0.61632649  0.86978868  0.25009804  1
  V  V59  1  0.76448954  0.87228765  0.62210993  1
  V  V60  1  0.25515098  0.24963755  0.51574081  1
  V  V61  1  0.87273830  0.75071197  0.12532879  1
  V  V62  1  0.23932228  0.50067970  0.74702419  1
  V  V63  1  0.37765332  0.49915348  0.37908706  1
  V  V64  1  0.36056932  0.86837877  0.00519804  1
  V  V65  1  0.63217422  0.37783611  0.25082133  1
  V  V66  1  0.24880280  -0.00433449  0.24787714  1
  V  V67  1  0.12330687  0.74405908  0.38172073  1
  V  V68  1  0.86771667  0.13432447  0.74281941  1
  V  V69  1  -0.00683016  -0.00523897  0.50143207  1
  V  V70  1  0.37735116  0.36986359  0.51544956  1
  V  V71  1  0.49699293  0.13887226  0.12705748  1
  V  V72  1  0.75254966  0.25215520  0.51176629  1
  V  V73  1  0.63344874  0.50207908  0.12890713  1
  V  V74  1  0.25295339  0.87442415  0.62310767  1
  V  V75  1  0.12817373  0.86901226  0.24621744  1
  V  V76  1  0.00094411  0.87653562  0.86953196  1
  V  V77  1  0.37236137  0.00216337  0.87485980  1
  V  V78  1  -0.01001189  0.74032208  0.74802616  1
  V  V79  1  0.74954598  0.12470038  0.37475654  1
  V  V80  1  0.74891356  0.12718734  0.87265907  1
  V  V81  1  0.74810672  -0.00179642  0.25141443  1
  V  V82  1  0.36390032  0.36783567  0.00034346  1
  V  V83  1  0.87583773  0.49429014  0.37144035  1
  V  V84  1  0.38676320  0.62747238  0.25369974  1
  Zn  Zn85  1  0.37046460  -0.00397584  0.37532050  1
  Zn  Zn86  1  0.36985356  0.14138380  0.74389085  1
  Zn  Zn87  1  0.76064685  0.38363134  0.13249642  1
  Zn  Zn88  1  0.12605706  0.86932505  0.74704786  1
  Zn  Zn89  1  0.25156720  0.12169540  0.37606190  1
  Zn  Zn90  1  0.62417866  0.87402451  0.74766117  1
  Zn  Zn91  1  0.49159698  0.12961021  0.62539086  1
  Zn  Zn92  1  0.00346017  0.00446374  -0.00608420  1
  Zn  Zn93  1  0.62696056  0.62438037  0.50170618  1
  Zn  Zn94  1  0.00683795  0.50440216  0.49369477  1
  Zn  Zn95  1  0.12377075  -0.00417124  0.62386062  1
  Zn  Zn96  1  0.50318213  0.49784543  0.50410025  1
  Zn  Zn97  1  0.00476927  0.37793076  0.37632861  1
  Zn  Zn98  1  0.62358674  0.75095127  0.87154741  1
  Zn  Zn99  1  0.14721496  0.47571847  0.12585803  1
  Zn  Zn100  1  0.62379569  0.12663024  0.00117793  1
  Zn  Zn101  1  0.88305475  0.50664824  0.86942649  1
  Zn  Zn102  1  0.25211724  0.49100427  0.24703013  1
  Zn  Zn103  1  0.74615044  0.00144450  0.74617320  1
  Zn  Zn104  1  0.50429749  0.63383200  0.13152578  1
  Zn  Zn105  1  0.87049123  -0.00787810  0.37922795  1
  Zn  Zn106  1  0.49422092  0.25247771  0.73997928  1
  Zn  Zn107  1  0.18432721  0.18124378  0.18839977  1
  Zn  Zn108  1  0.18403794  0.18315025  0.69055499  1
  Zn  Zn109  1  0.18649998  0.66070653  0.19712798  1
  Zn  Zn110  1  0.18279990  0.68034932  0.69408736  1
  Zn  Zn111  1  0.68603333  0.18920523  0.18648604  1
  Zn  Zn112  1  0.66085047  0.19233389  0.67949595  1
  Zn  Zn113  1  0.68804339  0.68736469  0.18931044  1
  Zn  Zn114  1  0.68513450  0.68974025  0.68656694  1
  Zn  Zn115  1  0.31527990  0.30615461  0.33588808  1
  Zn  Zn116  1  0.30807446  0.31599885  0.81341326  1
  Zn  Zn117  1  0.30938755  0.80711947  0.30789223  1
  Zn  Zn118  1  0.31340644  0.81225474  0.81094272  1
  Zn  Zn119  1  0.81210747  0.30995027  0.31329384  1
  Zn  Zn120  1  0.81695962  0.31514132  0.81004465  1
  Zn  Zn121  1  0.81005511  0.80736237  0.31099371  1
  Zn  Zn122  1  0.81178060  0.81392335  0.80819565  1
  Zn  Zn123  1  0.19352023  0.43412427  0.44252815  1
  Zn  Zn124  1  0.18868753  0.43676195  0.93035317  1
  Zn  Zn125  1  0.18320731  0.93433369  0.43536840  1
  Zn  Zn126  1  0.18404571  0.93690696  0.93441434  1
  Zn  Zn127  1  0.69196537  0.43687495  0.44005389  1
  Zn  Zn128  1  0.69195260  0.44234897  0.93711399  1
  Zn  Zn129  1  0.68420137  0.93281597  0.43887384  1
  Zn  Zn130  1  0.68391490  0.94073512  0.93582551  1
  Zn  Zn131  1  0.31191151  0.06116798  0.06639821  1
  Zn  Zn132  1  0.31360198  0.06451791  0.56604891  1
  Zn  Zn133  1  0.31277819  0.56218738  0.06553701  1
  Zn  Zn134  1  0.31129470  0.56315909  0.56341002  1
  Zn  Zn135  1  0.81192927  0.06345725  0.06133253  1
  Zn  Zn136  1  0.81076306  0.06140564  0.56249252  1
  Zn  Zn137  1  0.81612356  0.56302981  0.05697160  1
  Zn  Zn138  1  0.81760568  0.56469527  0.56057577  1
  Zn  Zn139  1  0.44512125  0.44369656  0.19065737  1
  Zn  Zn140  1  0.44115132  0.43765510  0.69388062  1
  Zn  Zn141  1  0.43461992  0.93504403  0.18597490  1
  Zn  Zn142  1  0.43168402  0.93712048  0.68733146  1
  Zn  Zn143  1  0.97310943  0.42458181  0.17229502  1
  Zn  Zn144  1  0.94478092  0.44219791  0.68534664  1
  Zn  Zn145  1  0.93888760  0.93647339  0.18965223  1
  Zn  Zn146  1  0.93735648  0.94231674  0.69034373  1
  Zn  Zn147  1  0.06264474  0.06057533  0.31368226  1
  Zn  Zn148  1  0.06374810  0.06508444  0.80822973  1
  Zn  Zn149  1  0.06467248  0.56022715  0.30519055  1
  Zn  Zn150  1  0.06866231  0.56767873  0.80938548  1
  Zn  Zn151  1  0.55663084  0.05980963  0.31149052  1
  Zn  Zn152  1  0.56059789  0.06421438  0.80794256  1
  Zn  Zn153  1  0.56419205  0.55803485  0.31569006  1
  Zn  Zn154  1  0.56579123  0.56467884  0.81168744  1
  Zn  Zn155  1  0.43767561  0.18389430  0.43774412  1
  Zn  Zn156  1  0.43483686  0.18782841  0.93050737  1
  Zn  Zn157  1  0.43823173  0.68663267  0.44523520  1
  Zn  Zn158  1  0.43332980  0.68930805  0.94068246  1
  Zn  Zn159  1  0.93606056  0.18891573  0.43822144  1
  Zn  Zn160  1  0.93774532  0.19018791  0.93445170  1
  Zn  Zn161  1  0.93764402  0.68226230  0.43574093  1
  Zn  Zn162  1  0.93788804  0.69232967  0.93632466  1
  Zn  Zn163  1  0.06600423  0.31374821  0.06213193  1
  Zn  Zn164  1  0.06190647  0.31465863  0.56091988  1
  Zn  Zn165  1  0.06128126  0.81503213  0.06019571  1
  Zn  Zn166  1  0.06381860  0.81044157  0.56342071  1
  Zn  Zn167  1  0.56403934  0.31874825  0.06143722  1
  Zn  Zn168  1  0.56688164  0.31409531  0.56052222  1
  Zn  Zn169  1  0.55498101  0.81040682  0.06381103  1
  Zn  Zn170  1  0.56332457  0.80991569  0.55834942  1
  O  O171  1  0.11281045  0.11149753  0.13127629  1
  O  O172  1  0.11584782  0.12173011  0.61369153  1
  O  O173  1  0.10993533  0.64518836  0.11247177  1
  O  O174  1  0.11114668  0.61214933  0.63273886  1
  O  O175  1  0.61703750  0.11830660  0.12417885  1
  O  O176  1  0.63221880  0.10137480  0.61278374  1
  O  O177  1  0.62538480  0.62168360  0.11564071  1
  O  O178  1  0.61827814  0.61570973  0.62523044  1
  O  O179  1  0.38581272  0.38055969  0.38410854  1
  O  O180  1  0.38392764  0.38584285  0.88578453  1
  O  O181  1  0.38710886  0.87214654  0.36659506  1
  O  O182  1  0.38180252  0.87833736  0.88640815  1
  O  O183  1  0.87045393  0.38851609  0.37497797  1
  O  O184  1  0.88826456  0.37563503  0.88152195  1
  O  O185  1  0.88822672  0.87197800  0.36816673  1
  O  O186  1  0.87919160  0.88388369  0.87544245  1
  O  O187  1  0.24906646  0.00013368  0.36422574  1
  O  O188  1  0.25027495  0.00647603  0.86868711  1
  O  O189  1  0.25822441  0.50433763  0.37349713  1
  O  O190  1  0.25541035  0.51132450  0.87110389  1
  O  O191  1  0.74959117  0.00478853  0.37107456  1
  O  O192  1  0.75321508  0.00889795  0.87136468  1
  O  O193  1  0.75698555  0.51318032  0.37865550  1
  O  O194  1  0.75331410  0.51149818  0.86632023  1
  O  O195  1  0.25861033  0.49163941  0.13056219  1
  O  O196  1  0.23901723  0.50704821  0.63489063  1
  O  O197  1  0.23958739  1.00245170  0.13741151  1
  O  O198  1  0.24936495  0.99034117  0.63070720  1
  O  O199  1  0.73808362  0.50040314  0.11683706  1
  O  O200  1  0.74421298  0.50991815  0.63305530  1
  O  O201  1  0.74259265  0.99446719  0.12944170  1
  O  O202  1  0.74426941  0.98401503  0.62013586  1
  O  O203  1  -0.01631519  0.35346471  0.26262662  1
  O  O204  1  -0.00672280  0.36575715  0.75695113  1
  O  O205  1  0.00550278  0.86710874  0.25741870  1
  O  O206  1  -0.00039108  0.86840659  0.75692618  1
  O  O207  1  0.51124397  0.37917183  0.26449932  1
  O  O208  1  0.51441861  0.37773347  0.76379134  1
  O  O209  1  0.51143375  0.87989748  0.25627099  1
  O  O210  1  0.49699806  0.86979671  0.75993040  1
  O  O211  1  0.49027375  0.12035708  0.23892166  1
  O  O212  1  0.49450242  0.13031434  0.74773484  1
  O  O213  1  0.49137411  0.62260945  0.25411127  1
  O  O214  1  0.50399564  0.63278093  0.73983618  1
  O  O215  1  0.99141701  0.12850910  0.24540851  1
  O  O216  1  0.99250339  0.13074387  0.74008150  1
  O  O217  1  0.99135314  0.63161507  0.23668247  1
  O  O218  1  0.99847617  0.63564407  0.74596428  1
  O  O219  1  0.38110174  0.26947451  -0.00567693  1
  O  O220  1  0.36322997  0.25326152  0.49661569  1
  O  O221  1  0.37266336  0.76265910  0.00755509  1
  O  O222  1  0.36516345  0.74969596  0.51037505  1
  O  O223  1  0.87312547  0.25964642  0.00456843  1
  O  O224  1  0.86755838  0.26398269  0.49396136  1
  O  O225  1  0.86687429  0.75890575  0.00421251  1
  O  O226  1  0.86243525  0.74858645  0.49397623  1
  O  O227  1  0.13200501  0.24396996  0.49601154  1
  O  O228  1  0.11603012  0.24711273  0.98697834  1
  O  O229  1  0.13179002  0.75200729  0.48800684  1
  O  O230  1  0.11935585  0.75947250  0.98120391  1
  O  O231  1  0.63541701  0.24589695  0.48586228  1
  O  O232  1  0.63408292  0.25338886  0.99173931  1
  O  O233  1  0.63467425  0.74719502  0.48821722  1
  O  O234  1  0.62910176  0.74299058  0.99865591  1
  O  O235  1  0.50704197  0.23758388  0.11821229  1
  O  O236  1  0.54788297  0.23465493  0.63646334  1
  O  O237  1  0.48140123  0.74600923  0.11856551  1
  O  O238  1  0.49243721  0.74597664  0.62969933  1
  O  O239  1  0.99499476  0.23856440  0.13376179  1
  O  O240  1  1.00442935  0.23891902  0.62952279  1
  O  O241  1  0.98870404  0.74875482  0.12590577  1
  O  O242  1  1.00622628  0.73952188  0.63544901  1
  O  O243  1  0.00990618  0.24688754  0.37007652  1
  O  O244  1  0.00810757  0.25514043  0.86788336  1
  O  O245  1  0.00636101  0.75185630  0.37137710  1
  O  O246  1  0.00373615  0.75573595  0.86455018  1
  O  O247  1  0.51045963  0.25736106  0.38017305  1
  O  O248  1  0.51240821  0.26150127  0.88146815  1
  O  O249  1  0.50931818  0.75502178  0.38216814  1
  O  O250  1  0.49762768  0.75721503  0.86882755  1
  O  O251  1  0.24167460  0.13129873  0.49979253  1
  O  O252  1  0.25057385  0.11827988  0.98825198  1
  O  O253  1  0.25586897  0.63507404  0.48850446  1
  O  O254  1  0.25478246  0.62286115  0.98520771  1
  O  O255  1  0.74587048  0.12942189  0.49188723  1
  O  O256  1  0.74947442  0.13552221  0.99353012  1
  O  O257  1  0.75077131  0.63582911  0.49331336  1
  O  O258  1  0.74361088  0.63202523  0.99287619  1
  O  O259  1  0.26493663  0.37760753  -0.00533488  1
  O  O260  1  0.26183106  0.35909122  0.49880029  1
  O  O261  1  0.26294961  0.87916034  -0.00337228  1
  O  O262  1  0.24558254  0.86269080  0.50549365  1
  O  O263  1  0.76121122  0.37052100  -0.00007238  1
  O  O264  1  0.76385624  0.36659916  0.49700693  1
  O  O265  1  0.75238519  0.87222172  0.00404029  1
  O  O266  1  0.74971261  0.86236156  0.50705568  1
  O  O267  1  0.14441990  0.53864450  0.22982304  1
  O  O268  1  0.13319464  0.49907022  0.74225464  1
  O  O269  1  0.12892389  0.98989582  0.24470413  1
  O  O270  1  0.13589749  0.99733907  0.74657610  1
  O  O271  1  0.62349280  0.49295145  0.24079915  1
  O  O272  1  0.63585273  0.49650748  0.74608905  1
  O  O273  1  0.62958705  0.99161531  0.24555256  1
  O  O274  1  0.62610849  0.99469400  0.73873828  1
  O  O275  1  0.36546966  0.00449926  0.24956084  1
  O  O276  1  0.36136805  -0.00384969  0.75948976  1
  O  O277  1  0.37763010  0.50603500  0.26462971  1
  O  O278  1  0.37287424  0.50018711  0.76307454  1
  O  O279  1  0.86714587  0.00553317  0.25231966  1
  O  O280  1  0.87025612  0.01369106  0.75558173  1
  O  O281  1  0.88122882  0.50874738  0.25164913  1
  O  O282  1  0.86464034  0.49557676  0.75078944  1
  O  O283  1  0.12569034  0.36238305  0.37964322  1
  O  O284  1  0.11495910  0.36300460  0.87697233  1
  O  O285  1  0.11460209  0.86552451  0.36524044  1
  O  O286  1  0.11504275  0.87087319  0.86955804  1
  O  O287  1  0.62211827  0.36968353  0.37062862  1
  O  O288  1  0.62056472  0.37342193  0.87300322  1
  O  O289  1  0.61781761  0.86604716  0.36764266  1
  O  O290  1  0.61016623  0.87443699  0.87499429  1
  O  O291  1  0.38163389  0.12214694  0.13565505  1
  O  O292  1  0.37804305  0.12665489  0.62952623  1
  O  O293  1  0.37972467  0.63138052  0.13650489  1
  O  O294  1  0.38171765  0.63528628  0.62349032  1
  O  O295  1  0.87952192  0.12644765  0.13570273  1
  O  O296  1  0.88133557  0.12254829  0.63151217  1
  O  O297  1  0.87549124  0.63289023  0.12861953  1
  O  O298  1  0.89828236  0.61567186  0.62484830  1
  O  O299  1  0.24431888  0.25809659  0.12464350  1
  O  O300  1  0.24207229  0.24736561  0.61402006  1
  O  O301  1  0.26575873  0.73580847  0.13250885  1
  O  O302  1  0.25412219  0.75018166  0.62064751  1
  O  O303  1  0.75770541  0.25312983  0.11779295  1
  O  O304  1  0.74102687  0.24439296  0.61035159  1
  O  O305  1  0.75358877  0.75734938  0.11923547  1
  O  O306  1  0.74651539  0.75853125  0.61156715  1
  O  O307  1  0.23988611  0.24080471  0.38750573  1
  O  O308  1  0.23267371  0.24357098  0.87152321  1
  O  O309  1  0.24358662  0.74573798  0.38310235  1
  O  O310  1  0.24471008  0.73852754  0.86855886  1
  O  O311  1  0.74416006  0.24042119  0.37927434  1
  O  O312  1  0.74776032  0.24739431  0.88245299  1
  O  O313  1  0.74539681  0.74265852  0.38409031  1
  O  O314  1  0.74609489  0.74644254  0.87789710  1
  O  O315  1  -0.00992559  0.12315894  0.01431415  1
  O  O316  1  0.00385502  0.12036580  0.50574585  1
  O  O317  1  -0.00637301  0.61722476  0.00190272  1
  O  O318  1  0.00326418  0.62614783  0.51059113  1
  O  O319  1  0.49634925  0.11423672  0.00505706  1
  O  O320  1  0.50753488  0.11434694  0.50039685  1
  O  O321  1  0.50811756  0.61689857  -0.00274184  1
  O  O322  1  0.50437181  0.62241464  0.51573836  1
  O  O323  1  0.49632778  0.37422108  0.49145118  1
  O  O324  1  0.50010749  0.38832105  0.99151106  1
  O  O325  1  0.50290388  0.88101728  0.48884786  1
  O  O326  1  0.49241468  0.88524682  0.99463603  1
  O  O327  1  0.98602589  0.37552937  0.49439637  1
  O  O328  1  0.99432805  0.38418366  0.98921962  1
  O  O329  1  1.00554013  0.88195607  0.49240286  1
  O  O330  1  0.99056662  0.87646565  0.98474069  1
  O  O331  1  0.49439210  0.49187494  0.38262786  1
  O  O332  1  0.49492500  0.49748090  0.87986804  1
  O  O333  1  0.49811896  0.98816374  0.38219614  1
  O  O334  1  0.49421924  0.99444248  0.88234486  1
  O  O335  1  0.99392529  0.49982601  0.37386449  1
  O  O336  1  1.00362753  0.49502079  0.87714287  1
  O  O337  1  0.99860505  0.98876237  0.38165019  1
  O  O338  1  0.99422775  0.99420282  0.87228377  1
  O  O339  1  0.00580785  0.00575336  0.12483056  1
  O  O340  1  0.00161994  0.00843789  0.61871610  1
  O  O341  1  -0.00707599  0.51864386  0.10951922  1
  O  O342  1  0.01159871  0.50883652  0.62033136  1
  O  O343  1  0.50279522  0.00397792  0.11771056  1
  O  O344  1  0.50502302  -0.00662882  0.61590158  1
  O  O345  1  0.51138687  0.50622869  0.11673792  1
  O  O346  1  0.50768158  0.50775334  0.62782482  1
  O  O347  1  0.26521174  0.36767327  0.24613333  1
  O  O348  1  0.25326413  0.40119806  0.76216307  1
  O  O349  1  0.23845894  0.88009567  0.25389042  1
  O  O350  1  0.24839641  0.88139062  0.74294526  1
  O  O351  1  0.73783027  0.37254044  0.24947220  1
  O  O352  1  0.74168279  0.38636854  0.75740098  1
  O  O353  1  0.73973983  0.87840644  0.24601286  1
  O  O354  1  0.74650753  0.87339008  0.73362823  1
  O  O355  1  0.25630005  0.11491515  0.25173326  1
  O  O356  1  0.24916360  0.11654553  0.75883218  1
  O  O357  1  0.27084148  0.63147064  0.27136126  1
  O  O358  1  0.24925676  0.61046442  0.76188833  1
  O  O359  1  0.75598440  0.11910260  0.25398649  1
  O  O360  1  0.75390593  0.12842714  0.75311695  1
  O  O361  1  0.76137627  0.63117041  0.25932318  1
  O  O362  1  0.74438800  0.62016043  0.75816866  1
  O  O363  1  0.37578365  0.12324172  0.35947328  1
  O  O364  1  0.36402676  0.11695766  0.87471362  1
  O  O365  1  0.37483430  0.61588789  0.37608336  1
  O  O366  1  0.36541399  0.62034699  0.87747794  1
  O  O367  1  0.87041078  0.12291477  0.36398463  1
  O  O368  1  0.86805790  0.12202984  0.86790326  1
  O  O369  1  0.87073266  0.61469828  0.36638210  1
  O  O370  1  0.86218526  0.62604144  0.87890454  1
  O  O371  1  0.08120081  0.38642114  0.14173856  1
  O  O372  1  0.11689216  0.39358810  0.62476848  1
  O  O373  1  0.11598937  0.87951062  0.13855601  1
  O  O374  1  0.13804496  0.87399515  0.62650833  1
  O  O375  1  0.62643546  0.38413826  0.13392263  1
  O  O376  1  0.62293668  0.39050291  0.63700606  1
  O  O377  1  0.62653534  0.87801073  0.13201249  1
  O  O378  1  0.63173084  0.88119021  0.62152265  1
  O  O379  1  0.11590331  0.23993400  0.26240462  1
  O  O380  1  0.11104563  0.24446835  0.75836337  1
  O  O381  1  0.11982943  0.75215506  0.25766094  1
  O  O382  1  0.11400207  0.75066795  0.76053508  1
  O  O383  1  0.62865836  0.25675619  0.26176832  1
  O  O384  1  0.63369375  0.26300311  0.76811972  1
  O  O385  1  0.63033241  0.75732508  0.26250947  1
  O  O386  1  0.60987337  0.75446533  0.75019565  1
  O  O387  1  0.36242128  0.24653310  0.23991601  1
  O  O388  1  0.38387475  0.25517446  0.76406636  1
  O  O389  1  0.37880895  0.74559503  0.24027888  1
  O  O390  1  0.38641567  0.75267964  0.74220882  1
  O  O391  1  0.87777790  0.23899410  0.24459324  1
  O  O392  1  0.88573675  0.23907604  0.75489175  1
  O  O393  1  0.88043604  0.74203820  0.24359328  1
  O  O394  1  0.89123253  0.75230272  0.75212680  1
  O  O395  1  0.37420980  0.49027861  0.49365384  1
  O  O396  1  0.38494876  0.49507095  0.99315975  1
  O  O397  1  0.38554513  1.00195611  0.49549216  1
  O  O398  1  0.37972161  0.98952257  0.99813972  1
  O  O399  1  0.87695318  0.48928851  0.49054516  1
  O  O400  1  0.88095768  0.49034931  0.99359450  1
  O  O401  1  0.88866179  1.00484247  0.49658025  1
  O  O402  1  0.87544147  0.99554577  0.99043367  1
  O  O403  1  0.12124974  -0.01011318  0.01523410  1
  O  O404  1  0.11458409  0.00705836  0.49955616  1
  O  O405  1  0.11707496  0.49432604  0.00340573  1
  O  O406  1  0.12835458  0.49959663  0.51143621  1
  O  O407  1  0.61441116  0.00244218  0.00681278  1
  O  O408  1  0.61429966  0.00050417  0.50255917  1
  O  O409  1  0.61987701  0.50859784  0.00468488  1
  O  O410  1  0.62661258  0.50111330  0.51050211  1
  O  O411  1  0.38238136  0.37137723  0.11730477  1
  O  O412  1  0.38863372  0.37531848  0.61451151  1
  O  O413  1  0.37334188  0.86531894  0.11560475  1
  O  O414  1  0.36153321  0.86229865  0.62790672  1
  O  O415  1  0.87969617  0.36999386  0.11510103  1
  O  O416  1  0.87702869  0.37941089  0.61246951  1
  O  O417  1  0.86828031  0.87138364  0.12035033  1
  O  O418  1  0.86322064  0.87851986  0.62573749  1
  O  O419  1  0.12268771  0.12994396  0.38803418  1
  O  O420  1  0.12771563  0.13588207  0.87485553  1
  O  O421  1  0.13446468  0.63332392  0.37143090  1
  O  O422  1  0.13817929  0.63214068  0.87594420  1
  O  O423  1  0.62762569  0.13023841  0.37681620  1
  O  O424  1  0.63090305  0.13478336  0.87731653  1
  O  O425  1  0.63376725  0.62993474  0.37512496  1
  O  O426  1  0.63330883  0.62670267  0.88583483  1
