# generated using pymatgen
data_V85Zn86O256
_symmetry_space_group_name_H-M   'P 1'
_cell_length_a   16.91556321
_cell_length_b   16.91910730
_cell_length_c   16.91750425
_cell_angle_alpha   90.02918022
_cell_angle_beta   89.97256758
_cell_angle_gamma   90.07135349
_symmetry_Int_Tables_number   1
_chemical_formula_structural   V85Zn86O256
_chemical_formula_sum   'V85 Zn86 O256'
_cell_volume   4841.72098292
_cell_formula_units_Z   1
loop_
 _symmetry_equiv_pos_site_id
 _symmetry_equiv_pos_as_xyz
  1  'x, y, z'
loop_
 _atom_site_type_symbol
 _atom_site_label
 _atom_site_symmetry_multiplicity
 _atom_site_fract_x
 _atom_site_fract_y
 _atom_site_fract_z
 _atom_site_occupancy
  V  V0  1  0.50012235  0.12499212  0.12530758  1
  V  V1  1  0.88056441  0.24110905  0.62340877  1
  V  V2  1  0.75025201  0.87214086  0.61514647  1
  V  V3  1  0.74769492  0.86593877  0.12158425  1
  V  V4  1  0.49435957  0.37651028  0.87457565  1
  V  V5  1  0.50028474  0.24875274  0.25142909  1
  V  V6  1  0.36919920  0.61262115  0.75110075  1
  V  V7  1  0.24339340  0.64287172  0.37378238  1
  V  V8  1  0.35805677  0.25494099  0.62238497  1
  V  V9  1  0.75409554  0.12492564  0.87271557  1
  V  V10  1  0.24816781  -0.00168360  0.74872738  1
  V  V11  1  0.62558322  0.50213579  0.62447652  1
  V  V12  1  -0.00165377  0.24842703  0.25831325  1
  V  V13  1  0.49501560  0.50153350  -0.00369466  1
  V  V14  1  0.49638171  0.87522109  0.87495558  1
  V  V15  1  0.50308308  0.24536746  0.74092015  1
  V  V16  1  0.11898750  0.13705064  0.49889689  1
  V  V17  1  0.24381877  0.12745020  0.88278708  1
  V  V18  1  0.12466361  0.63148678  -0.00100640  1
  V  V19  1  0.62399343  0.87515522  0.74618803  1
  V  V20  1  0.11892420  0.00636019  0.62107626  1
  V  V21  1  0.12588671  0.64059870  0.50387750  1
  V  V22  1  0.87403465  -0.00766492  0.37478110  1
  V  V23  1  0.37291083  0.87188238  0.49864137  1
  V  V24  1  0.61920347  0.74861489  0.36787638  1
  V  V25  1  0.62593134  0.12352089  -0.00009267  1
  V  V26  1  0.74974377  0.37378601  0.12576138  1
  V  V27  1  0.74916569  0.12405110  0.37336563  1
  V  V28  1  0.37102014  0.25661274  0.11832625  1
  V  V29  1  -0.00081250  0.37582035  0.87006799  1
  V  V30  1  0.62482891  0.37257754  0.25207394  1
  V  V31  1  0.62566473  0.75151269  0.87551117  1
  V  V32  1  0.49484257  0.49947601  0.49979979  1
  V  V33  1  0.89152690  0.63279914  0.74788261  1
  V  V34  1  0.00156071  0.62144954  0.12917955  1
  V  V35  1  0.88130852  0.49973161  0.37679366  1
  V  V36  1  0.37746699  0.12261820  0.74276141  1
  V  V37  1  0.62264700  0.01254686  0.62151390  1
  V  V38  1  0.36056322  0.49902693  0.37061746  1
  V  V39  1  0.49964874  0.62644651  0.13401830  1
  V  V40  1  0.74976656  0.62554533  0.37657358  1
  V  V41  1  0.87931420  0.37477140  0.50180714  1
  V  V42  1  0.36655582  0.74765892  0.62335767  1
  V  V43  1  0.25376100  0.61105523  0.87275257  1
  V  V44  1  0.37355862  -0.00396502  0.87688617  1
  V  V45  1  0.38055731  0.75927557  0.13585089  1
  V  V46  1  0.00328729  0.00191211  -0.00009284  1
  V  V47  1  0.87906548  -0.00648888  0.87476883  1
  V  V48  1  0.24662107  0.87448771  0.61909490  1
  V  V49  1  0.13398878  0.49645777  0.61876121  1
  V  V50  1  0.49630670  0.62667442  0.62483882  1
  V  V51  1  0.49618708  0.74992411  0.74909520  1
  V  V52  1  0.49758429  0.87230355  0.37076460  1
  V  V53  1  0.62812101  0.62916233  0.00101332  1
  V  V54  1  0.62704808  0.37630061  0.75236727  1
  V  V55  1  0.12519860  0.87509916  0.24821027  1
  V  V56  1  0.75421209  0.00337809  0.24592216  1
  V  V57  1  0.50186294  0.01036870  0.50151421  1
  V  V58  1  0.74967045  0.25047885  -0.00036515  1
  V  V59  1  0.87390697  0.37586439  -0.00018391  1
  V  V60  1  0.24388944  0.13485806  0.38124917  1
  V  V61  1  0.75334834  0.37711270  0.62588533  1
  V  V62  1  0.00167951  0.24499289  0.74699519  1
  V  V63  1  0.75075195  -0.00123589  0.74711874  1
  V  V64  1  0.14368231  0.49555016  0.12977914  1
  V  V65  1  0.62452062  0.62768924  0.50019592  1
  V  V66  1  0.49884241  0.37451581  0.37910457  1
  V  V67  1  0.75026858  0.49751177  0.25123001  1
  V  V68  1  0.11012770  0.86988304  0.75054410  1
  V  V69  1  0.13612363  0.37286899  0.25236776  1
  V  V70  1  0.14313238  0.38125084  0.74984928  1
  V  V71  1  0.87507437  0.23952304  0.12792473  1
  V  V72  1  0.75288199  0.63344686  0.87725921  1
  V  V73  1  0.01411700  0.12853182  0.12191178  1
  V  V74  1  -0.00392895  -0.00323566  0.49938407  1
  V  V75  1  0.87405176  0.86665714  -0.00175248  1
  V  V76  1  0.74356552  0.24524768  0.50062532  1
  V  V77  1  0.88774842  0.75240937  0.62059320  1
  V  V78  1  0.49698771  -0.00416056  0.00003347  1
  V  V79  1  0.00140239  0.49786904  0.00288946  1
  V  V80  1  0.00440144  0.74923863  0.25609850  1
  V  V81  1  0.26236415  0.75532086  -0.00402247  1
  V  V82  1  0.37173636  0.12378851  0.25227334  1
  V  V83  1  0.75321641  0.50613276  0.75030321  1
  V  V84  1  0.87578927  0.62486327  0.25049016  1
  Zn  Zn85  1  0.62419417  0.49919725  0.12406029  1
  Zn  Zn86  1  0.61931444  0.23974577  0.38263167  1
  Zn  Zn87  1  0.75506765  0.75393285  0.49598072  1
  Zn  Zn88  1  0.88204155  0.12041428  0.74543783  1
  Zn  Zn89  1  0.35823624  0.37139341  0.50526751  1
  Zn  Zn90  1  0.36718760  0.62249650  0.24901475  1
  Zn  Zn91  1  0.87682907  0.50496585  0.87525536  1
  Zn  Zn92  1  0.23060751  0.25367105  0.01175690  1
  Zn  Zn93  1  0.00528583  0.37220973  0.37788764  1
  Zn  Zn94  1  -0.00131652  0.50866552  0.51322416  1
  Zn  Zn95  1  0.12060467  0.24710135  0.88062400  1
  Zn  Zn96  1  0.62175019  0.87393403  0.24804020  1
  Zn  Zn97  1  0.62448235  0.25064381  0.87368596  1
  Zn  Zn98  1  0.11987189  0.75060209  0.86399318  1
  Zn  Zn99  1  0.36490482  0.38267509  -0.00209369  1
  Zn  Zn100  1  0.24987576  0.87902001  0.12067785  1
  Zn  Zn101  1  0.87377699  0.74567316  0.12111075  1
  Zn  Zn102  1  0.00074640  0.87158137  0.37606830  1
  Zn  Zn103  1  0.24502419  0.00209557  0.24826699  1
  Zn  Zn104  1  0.62577799  -0.00164828  0.12703170  1
  Zn  Zn105  1  0.12777812  -0.00239624  0.11934499  1
  Zn  Zn106  1  0.37044981  0.00090860  0.37748902  1
  Zn  Zn107  1  0.18760609  0.19093256  0.19299193  1
  Zn  Zn108  1  0.18349828  0.18491693  0.69267540  1
  Zn  Zn109  1  0.18940158  0.69028857  0.18643683  1
  Zn  Zn110  1  0.18475516  0.68517330  0.68525967  1
  Zn  Zn111  1  0.68711000  0.18562007  0.19046190  1
  Zn  Zn112  1  0.69189278  0.18921558  0.68779305  1
  Zn  Zn113  1  0.68666468  0.68694729  0.18915119  1
  Zn  Zn114  1  0.69012163  0.69004376  0.68780589  1
  Zn  Zn115  1  0.31435182  0.31090791  0.31454442  1
  Zn  Zn116  1  0.31692311  0.30791295  0.81531279  1
  Zn  Zn117  1  0.30927575  0.81514968  0.30991554  1
  Zn  Zn118  1  0.30766473  0.81090105  0.80975927  1
  Zn  Zn119  1  0.81547460  0.30965900  0.31466986  1
  Zn  Zn120  1  0.81605160  0.31212392  0.81135109  1
  Zn  Zn121  1  0.81230382  0.81215543  0.30793847  1
  Zn  Zn122  1  0.81389487  0.81294564  0.80767152  1
  Zn  Zn123  1  0.18758449  0.43012735  0.43889607  1
  Zn  Zn124  1  0.18637880  0.43322548  0.94124629  1
  Zn  Zn125  1  0.18531793  0.94143912  0.43135516  1
  Zn  Zn126  1  0.18652804  0.93636415  0.93546578  1
  Zn  Zn127  1  0.68856594  0.43630477  0.43845700  1
  Zn  Zn128  1  0.68521772  0.44310258  0.93579318  1
  Zn  Zn129  1  0.68358438  0.93920086  0.43534035  1
  Zn  Zn130  1  0.68847343  0.93743919  0.93748232  1
  Zn  Zn131  1  0.31277338  0.06272850  0.06395186  1
  Zn  Zn132  1  0.30980669  0.06362333  0.56095544  1
  Zn  Zn133  1  0.31672337  0.56751606  0.06067625  1
  Zn  Zn134  1  0.30464731  0.55758148  0.55767765  1
  Zn  Zn135  1  0.81495940  0.05910610  0.06192432  1
  Zn  Zn136  1  0.81108539  0.06135609  0.55808464  1
  Zn  Zn137  1  0.81181565  0.56143026  0.06223288  1
  Zn  Zn138  1  0.81581119  0.56813510  0.56432513  1
  Zn  Zn139  1  0.43791325  0.43977308  0.18835595  1
  Zn  Zn140  1  0.43708723  0.43360539  0.68765694  1
  Zn  Zn141  1  0.43741955  0.93987179  0.18822784  1
  Zn  Zn142  1  0.43740669  0.93824068  0.68413043  1
  Zn  Zn143  1  0.93953722  0.43277220  0.18887857  1
  Zn  Zn144  1  0.94274317  0.44238875  0.68681306  1
  Zn  Zn145  1  0.93662380  0.93774601  0.18470765  1
  Zn  Zn146  1  0.93620418  0.93640155  0.68242372  1
  Zn  Zn147  1  0.06125931  0.06273416  0.31098254  1
  Zn  Zn148  1  0.06163568  0.05798194  0.81133390  1
  Zn  Zn149  1  0.07009046  0.56010125  0.31442414  1
  Zn  Zn150  1  0.06803958  0.55809161  0.81312865  1
  Zn  Zn151  1  0.56555302  0.05895386  0.31499842  1
  Zn  Zn152  1  0.56370902  0.06314016  0.81105414  1
  Zn  Zn153  1  0.56121365  0.55907879  0.31338538  1
  Zn  Zn154  1  0.56141723  0.56309068  0.81272466  1
  Zn  Zn155  1  0.43199722  0.18795796  0.43922677  1
  Zn  Zn156  1  0.43781712  0.18541421  0.93192860  1
  Zn  Zn157  1  0.43224900  0.68779374  0.43579775  1
  Zn  Zn158  1  0.43734512  0.68418759  0.93729119  1
  Zn  Zn159  1  0.93238641  0.17942961  0.43672530  1
  Zn  Zn160  1  0.94009272  0.18752358  0.93834654  1
  Zn  Zn161  1  0.94130046  0.68673840  0.43986835  1
  Zn  Zn162  1  0.94386927  0.69305102  0.93480608  1
  Zn  Zn163  1  0.06447700  0.31389746  0.06331232  1
  Zn  Zn164  1  0.06675470  0.31937472  0.56680758  1
  Zn  Zn165  1  0.05896981  0.80709248  0.04781236  1
  Zn  Zn166  1  0.06233122  0.81802509  0.56075624  1
  Zn  Zn167  1  0.56032918  0.31222593  0.06200509  1
  Zn  Zn168  1  0.56040846  0.31432792  0.56458104  1
  Zn  Zn169  1  0.56176520  0.81166867  0.06115097  1
  Zn  Zn170  1  0.56086042  0.81459842  0.55783225  1
  O  O171  1  0.11665419  0.12438932  0.12605664  1
  O  O172  1  0.13030625  0.11755967  0.61198332  1
  O  O173  1  0.12032098  0.61178570  0.12482629  1
  O  O174  1  0.13020887  0.61678215  0.61118640  1
  O  O175  1  0.61923626  0.12361094  0.11623518  1
  O  O176  1  0.63135251  0.11177343  0.62809784  1
  O  O177  1  0.61923891  0.62667313  0.11692991  1
  O  O178  1  0.61801974  0.62154428  0.62075658  1
  O  O179  1  0.38358228  0.38240209  0.37639616  1
  O  O180  1  0.39050691  0.37188540  0.87540095  1
  O  O181  1  0.37845868  0.87628284  0.38222388  1
  O  O182  1  0.37757199  0.88831367  0.86717754  1
  O  O183  1  0.87524775  0.38304418  0.38483806  1
  O  O184  1  0.88143270  0.37834669  0.88153512  1
  O  O185  1  0.87394755  0.88699081  0.37221956  1
  O  O186  1  0.86699391  0.88279791  0.88285534  1
  O  O187  1  0.25257829  0.01239186  0.36943674  1
  O  O188  1  0.25690841  0.00659514  0.87193173  1
  O  O189  1  0.25974336  0.50188968  0.37443353  1
  O  O190  1  0.24689730  0.51304661  0.87743311  1
  O  O191  1  0.75373549  0.00303336  0.36902561  1
  O  O192  1  0.75762127  0.00587423  0.86896220  1
  O  O193  1  0.75952065  0.50410422  0.37160451  1
  O  O194  1  0.75291602  0.51313499  0.86761527  1
  O  O195  1  0.24215261  0.50350828  0.12430480  1
  O  O196  1  0.23482938  0.50532449  0.63153454  1
  O  O197  1  0.24727382  0.99757198  0.12734553  1
  O  O198  1  0.23960743  0.99421871  0.62790033  1
  O  O199  1  0.74777763  0.49221742  0.13287027  1
  O  O200  1  0.74717135  0.49771816  0.63130227  1
  O  O201  1  0.74934635  0.99295965  0.13122814  1
  O  O202  1  0.74463721  0.99291460  0.62770555  1
  O  O203  1  0.00567487  0.36282375  0.25162198  1
  O  O204  1  -0.00195956  0.36879342  0.76113750  1
  O  O205  1  0.00573144  0.86540957  0.24659743  1
  O  O206  1  0.01142916  0.87815951  0.74902484  1
  O  O207  1  0.50551301  0.37032548  0.25860035  1
  O  O208  1  0.50801141  0.36970341  0.75599127  1
  O  O209  1  0.50078049  0.88283834  0.26586842  1
  O  O210  1  0.50387046  0.87055105  0.75457680  1
  O  O211  1  0.49469831  0.12986516  0.24867865  1
  O  O212  1  0.49123028  0.13301558  0.75587400  1
  O  O213  1  0.50222008  0.62141509  0.23661300  1
  O  O214  1  0.49216375  0.63033844  0.74398010  1
  O  O215  1  1.00549394  0.14061159  0.24130781  1
  O  O216  1  1.00103280  0.13979227  0.75456228  1
  O  O217  1  0.99832812  0.62808647  0.24606311  1
  O  O218  1  0.98975044  0.62786673  0.76095959  1
  O  O219  1  0.38323700  0.24812933  0.01464453  1
  O  O220  1  0.37890993  0.24815719  0.51968615  1
  O  O221  1  0.36564603  0.74597725  0.00618209  1
  O  O222  1  0.37896667  0.76304591  0.50888231  1
  O  O223  1  0.86857881  0.25626968  0.00680212  1
  O  O224  1  0.87014532  0.25670289  0.50570956  1
  O  O225  1  0.87284001  0.76258534  -0.00001104  1
  O  O226  1  0.87254233  0.74102148  0.51565761  1
  O  O227  1  0.11415558  0.23582871  0.50371281  1
  O  O228  1  0.11857148  0.24593730  0.99502064  1
  O  O229  1  0.12730466  0.73972469  0.50789085  1
  O  O230  1  0.15177611  0.72957493  1.02783387  1
  O  O231  1  0.63942127  0.25973330  0.50067352  1
  O  O232  1  0.62957636  0.23826341  0.99804543  1
  O  O233  1  0.62622745  0.74139407  0.49183560  1
  O  O234  1  0.61972848  0.73761032  0.99143241  1
  O  O235  1  0.49473551  0.24353910  0.13208023  1
  O  O236  1  0.49925960  0.25125566  0.63801673  1
  O  O237  1  0.48717037  0.74257981  0.11644486  1
  O  O238  1  0.48923732  0.74603224  0.62814082  1
  O  O239  1  0.99182460  0.24510944  0.13058907  1
  O  O240  1  0.99095130  0.25860173  0.63402796  1
  O  O241  1  0.99917156  0.73279288  0.12957040  1
  O  O242  1  0.98648428  0.75720723  0.62368499  1
  O  O243  1  -0.00915264  0.24874097  0.36135469  1
  O  O244  1  -0.00277726  0.25862596  0.86663454  1
  O  O245  1  -0.00652252  0.75145001  0.36034638  1
  O  O246  1  0.03502236  0.75615926  0.93736939  1
  O  O247  1  0.49896576  0.25773208  0.37251899  1
  O  O248  1  0.50328035  0.25667149  0.86446622  1
  O  O249  1  0.50666680  0.75788063  0.38106010  1
  O  O250  1  0.50268245  0.75597470  0.86994573  1
  O  O251  1  0.23761788  0.12172879  0.48943312  1
  O  O252  1  0.25715363  0.12837933  0.98484998  1
  O  O253  1  0.23755583  0.62116139  0.48728954  1
  O  O254  1  0.25017523  0.62997368  0.98762759  1
  O  O255  1  0.75225121  0.13622611  0.49323222  1
  O  O256  1  0.74405261  0.12778363  0.99407402  1
  O  O257  1  0.74195724  0.62392398  0.49272329  1
  O  O258  1  0.74222429  0.62126098  0.99032641  1
  O  O259  1  0.25489792  0.36355086  -0.00849493  1
  O  O260  1  0.24792020  0.37414249  0.50826542  1
  O  O261  1  0.24514869  0.85854642  0.00002335  1
  O  O262  1  0.25583212  0.88312943  0.51070791  1
  O  O263  1  0.75215796  0.37070685  0.00366295  1
  O  O264  1  0.76146855  0.37061403  0.50473581  1
  O  O265  1  0.75571923  0.88232030  0.01385949  1
  O  O266  1  0.74535302  0.87543338  0.51150441  1
  O  O267  1  0.12252693  0.48952104  0.23680561  1
  O  O268  1  0.12559697  0.48674753  0.74468015  1
  O  O269  1  0.12019788  0.98827140  0.24254982  1
  O  O270  1  0.12754739  0.99330122  0.73940896  1
  O  O271  1  0.63103524  0.48934802  0.25033519  1
  O  O272  1  0.63182257  0.49793851  0.74344667  1
  O  O273  1  0.63763735  0.99522846  0.24853459  1
  O  O274  1  0.62903701  0.99440635  0.74202423  1
  O  O275  1  0.37570876  0.01528819  0.25091237  1
  O  O276  1  0.37070999  0.00577582  0.75337350  1
  O  O277  1  0.38208104  0.50342512  0.26617431  1
  O  O278  1  0.37933748  0.51371944  0.74413993  1
  O  O279  1  0.86256355  -0.00407787  0.25606903  1
  O  O280  1  0.87097458  0.00041139  0.75587117  1
  O  O281  1  0.87025356  0.50273788  0.25792242  1
  O  O282  1  0.87144932  0.51552671  0.75042807  1
  O  O283  1  0.11999411  0.38569534  0.35671426  1
  O  O284  1  0.11589747  0.37579706  0.86318230  1
  O  O285  1  0.12130785  0.87859942  0.35555211  1
  O  O286  1  0.13330297  0.87717430  0.85201892  1
  O  O287  1  0.61225156  0.37506216  0.37216944  1
  O  O288  1  0.61955070  0.37398675  0.86739627  1
  O  O289  1  0.61602180  0.86528740  0.37612125  1
  O  O290  1  0.62026861  0.87113310  0.86790532  1
  O  O291  1  0.38256808  0.13258189  0.13263521  1
  O  O292  1  0.36999673  0.13120282  0.63650211  1
  O  O293  1  0.38346654  0.63352499  0.12864992  1
  O  O294  1  0.37478568  0.63155771  0.62752228  1
  O  O295  1  0.87789679  0.13712082  0.12211716  1
  O  O296  1  0.87160083  0.13745757  0.62455411  1
  O  O297  1  0.88228349  0.62280825  0.13200566  1
  O  O298  1  0.87437877  0.63672383  0.63874374  1
  O  O299  1  0.26763893  0.24141518  0.12472373  1
  O  O300  1  0.26016613  0.24692013  0.63247942  1
  O  O301  1  0.26906449  0.74870304  0.11779586  1
  O  O302  1  0.25994112  0.75738457  0.62790748  1
  O  O303  1  0.75604470  0.25369982  0.12077031  1
  O  O304  1  0.75895087  0.25736984  0.61922731  1
  O  O305  1  0.75070815  0.76228670  0.12749908  1
  O  O306  1  0.75546909  0.75825163  0.62207654  1
  O  O307  1  0.25257372  0.23443828  0.37423552  1
  O  O308  1  0.24969872  0.23270483  0.87023480  1
  O  O309  1  0.25404732  0.74112944  0.37967106  1
  O  O310  1  0.24611482  0.74565000  0.88728622  1
  O  O311  1  0.75129678  0.24218913  0.38345726  1
  O  O312  1  0.75041637  0.24166880  0.88040586  1
  O  O313  1  0.74346862  0.74327911  0.37623113  1
  O  O314  1  0.74310530  0.74034129  0.86820787  1
  O  O315  1  -0.00835234  0.11532183  0.01000712  1
  O  O316  1  0.01259479  0.11530007  0.49305700  1
  O  O317  1  0.00861777  0.61507910  0.00872527  1
  O  O318  1  0.02050403  0.62302308  0.49156987  1
  O  O319  1  0.50813511  0.11695964  0.00052557  1
  O  O320  1  0.49588335  0.10925715  0.49578293  1
  O  O321  1  0.50703236  0.61853411  0.00477536  1
  O  O322  1  0.50252571  0.61807639  0.50503058  1
  O  O323  1  0.49507368  0.38227037  0.49452213  1
  O  O324  1  0.50292041  0.38349658  0.99128883  1
  O  O325  1  0.49109345  0.88165819  0.49143169  1
  O  O326  1  0.50654017  0.88869065  0.99235602  1
  O  O327  1  0.98947763  0.37666070  0.49807556  1
  O  O328  1  0.99497339  0.37980286  0.99100096  1
  O  O329  1  1.00665258  0.89016488  0.49309309  1
  O  O330  1  0.98202414  0.89012661  1.01421380  1
  O  O331  1  0.49439290  0.49536711  0.38603408  1
  O  O332  1  0.50676144  0.49132792  0.88358140  1
  O  O333  1  0.49747241  0.99310773  0.38692978  1
  O  O334  1  0.49332799  0.99638587  0.87955141  1
  O  O335  1  0.98736552  0.49935365  0.37405638  1
  O  O336  1  0.99947644  0.49263096  0.88249885  1
  O  O337  1  0.98990518  1.00046630  0.37873070  1
  O  O338  1  0.98646089  1.00611905  0.88192916  1
  O  O339  1  -0.00358210  0.01373636  0.11840438  1
  O  O340  1  0.00968909  -0.00202632  0.61695440  1
  O  O341  1  0.00183414  0.50791212  0.12207719  1
  O  O342  1  0.01992892  0.49998168  0.62825052  1
  O  O343  1  0.50186363  0.00561028  0.11582494  1
  O  O344  1  0.50838043  -0.00494402  0.61232998  1
  O  O345  1  0.50347819  0.50841265  0.11776178  1
  O  O346  1  0.50240788  0.50376753  0.61489891  1
  O  O347  1  0.23547216  0.36566000  0.25026793  1
  O  O348  1  0.24061986  0.37331894  0.75851975  1
  O  O349  1  0.23807319  0.87609247  0.24443212  1
  O  O350  1  0.24853103  0.88147876  0.73545425  1
  O  O351  1  0.74427692  0.37689492  0.24800290  1
  O  O352  1  0.74767841  0.38421316  0.74678776  1
  O  O353  1  0.74800020  0.88046895  0.23603355  1
  O  O354  1  0.74353876  0.88083457  0.74014894  1
  O  O355  1  0.25519386  0.12583134  0.26007193  1
  O  O356  1  0.25695020  0.11612138  0.75719361  1
  O  O357  1  0.24784645  0.62955747  0.26677998  1
  O  O358  1  0.25458673  0.63210120  0.76458926  1
  O  O359  1  0.74935788  0.11580499  0.25644493  1
  O  O360  1  0.75403366  0.11843319  0.75770158  1
  O  O361  1  0.75436684  0.61768740  0.25626114  1
  O  O362  1  0.75615267  0.62158732  0.75750453  1
  O  O363  1  0.36442849  0.12475796  0.36977560  1
  O  O364  1  0.36821331  0.11558996  0.86440377  1
  O  O365  1  0.36195372  0.61733411  0.37613000  1
  O  O366  1  0.36313259  0.62768223  0.86630612  1
  O  O367  1  0.86016949  0.11068061  0.37755103  1
  O  O368  1  0.86436404  0.11826137  0.87518396  1
  O  O369  1  0.86980708  0.61800130  0.37153254  1
  O  O370  1  0.87093834  0.63154260  0.86732000  1
  O  O371  1  0.12131218  0.38928088  0.13296958  1
  O  O372  1  0.12675365  0.38320347  0.64015153  1
  O  O373  1  0.12358027  0.87391181  0.13246208  1
  O  O374  1  0.13091307  0.88208677  0.63153641  1
  O  O375  1  0.63155795  0.37365211  0.13311383  1
  O  O376  1  0.63229296  0.38309513  0.63144163  1
  O  O377  1  0.63430308  0.87546762  0.12449061  1
  O  O378  1  0.63093975  0.87902421  0.62958740  1
  O  O379  1  0.11240306  0.26394594  0.24225092  1
  O  O380  1  0.11745850  0.26227608  0.75187269  1
  O  O381  1  0.11609931  0.76024916  0.24318266  1
  O  O382  1  0.12482174  0.76396219  0.74616136  1
  O  O383  1  0.61876054  0.25704620  0.25511819  1
  O  O384  1  0.62120012  0.25649379  0.75040117  1
  O  O385  1  0.62619476  0.75143967  0.26353194  1
  O  O386  1  0.61614971  0.75439757  0.75443972  1
  O  O387  1  0.38096610  0.24155961  0.24296828  1
  O  O388  1  0.38258846  0.24206128  0.74189686  1
  O  O389  1  0.37577964  0.74771186  0.23857261  1
  O  O390  1  0.37879794  0.74389155  0.74139576  1
  O  O391  1  0.88726493  0.25604595  0.24057325  1
  O  O392  1  0.88190189  0.24799999  0.74024608  1
  O  O393  1  0.88170301  0.74069920  0.24476156  1
  O  O394  1  0.87349906  0.73974754  0.74067049  1
  O  O395  1  0.38114078  0.49854980  0.49077332  1
  O  O396  1  0.39009462  0.49965319  1.00378705  1
  O  O397  1  0.38448555  0.99008340  0.50374491  1
  O  O398  1  0.38552544  1.00642599  0.98938121  1
  O  O399  1  0.87790598  0.49511643  0.49576476  1
  O  O400  1  0.88155139  0.49303551  0.99841313  1
  O  O401  1  0.88515975  1.00318633  0.49266860  1
  O  O402  1  0.87802683  0.99273835  0.99075092  1
  O  O403  1  0.10785811  -0.00709276  -0.00245850  1
  O  O404  1  0.11818221  0.00728426  0.50546493  1
  O  O405  1  0.12280276  0.50857912  0.01197733  1
  O  O406  1  0.12183563  0.49953908  0.51107919  1
  O  O407  1  0.61929039  0.01110299  -0.00083310  1
  O  O408  1  0.61072915  -0.00424734  0.50685830  1
  O  O409  1  0.61777001  0.51293816  0.00159525  1
  O  O410  1  0.61691747  0.50608277  0.50425059  1
  O  O411  1  0.38325323  0.35958592  0.12457405  1
  O  O412  1  0.37744340  0.35846580  0.62805045  1
  O  O413  1  0.37664341  0.86280535  0.12670778  1
  O  O414  1  0.36781602  0.86827709  0.61897309  1
  O  O415  1  0.86888389  0.36707460  0.11847494  1
  O  O416  1  0.87090048  0.37138800  0.61903661  1
  O  O417  1  0.86267159  0.87246250  0.11809381  1
  O  O418  1  0.86531986  0.86085071  0.63090479  1
  O  O419  1  0.13361319  0.12322918  0.38481511  1
  O  O420  1  0.14111892  0.12134134  0.86813896  1
  O  O421  1  0.13676860  0.62267509  0.38443891  1
  O  O422  1  0.13546685  0.62665437  0.88274467  1
  O  O423  1  0.64027656  0.12437032  0.37420044  1
  O  O424  1  0.63783749  0.12435406  0.88073708  1
  O  O425  1  0.62773455  0.62956635  0.37990777  1
  O  O426  1  0.63251428  0.63057555  0.88003088  1
