# generated using pymatgen
data_V85Zn86O256
_symmetry_space_group_name_H-M   'P 1'
_cell_length_a   16.92945927
_cell_length_b   16.94635092
_cell_length_c   16.94304883
_cell_angle_alpha   89.99106904
_cell_angle_beta   89.97370381
_cell_angle_gamma   89.99452069
_symmetry_Int_Tables_number   1
_chemical_formula_structural   V85Zn86O256
_chemical_formula_sum   'V85 Zn86 O256'
_cell_volume   4860.83402015
_cell_formula_units_Z   1
loop_
 _symmetry_equiv_pos_site_id
 _symmetry_equiv_pos_as_xyz
  1  'x, y, z'
loop_
 _atom_site_type_symbol
 _atom_site_label
 _atom_site_symmetry_multiplicity
 _atom_site_fract_x
 _atom_site_fract_y
 _atom_site_fract_z
 _atom_site_occupancy
  V  V0  1  0.89239683  0.87865715  0.49728506  1
  V  V1  1  0.88000377  0.24736974  0.13819222  1
  V  V2  1  -0.00050913  0.00233050  -0.00362317  1
  V  V3  1  0.87492538  0.49919985  0.37617236  1
  V  V4  1  0.61839953  0.87858207  0.74280064  1
  V  V5  1  0.75176627  0.24969080  0.00063761  1
  V  V6  1  -0.00696742  0.25334758  0.75801966  1
  V  V7  1  0.12746572  0.00060070  0.62043965  1
  V  V8  1  0.76058413  0.10984978  0.36364082  1
  V  V9  1  0.74917933  0.62502204  0.37488024  1
  V  V10  1  0.37355280  0.37797098  0.00092501  1
  V  V11  1  0.24895305  0.25177015  0.50136627  1
  V  V12  1  0.25157831  0.12974507  0.37028295  1
  V  V13  1  0.87493781  0.49775487  0.87951425  1
  V  V14  1  0.87768800  0.37588350  0.50868769  1
  V  V15  1  0.12523250  0.12587904  -0.00043866  1
  V  V16  1  0.74747801  0.62745260  0.87513517  1
  V  V17  1  0.37222041  0.24593050  0.62789478  1
  V  V18  1  0.37333364  0.87275675  0.49800002  1
  V  V19  1  0.25965809  0.12532157  0.86906689  1
  V  V20  1  0.74708929  0.37466267  0.12616034  1
  V  V21  1  0.25500328  0.87181198  0.11820643  1
  V  V22  1  0.37621620  0.75076940  0.63467705  1
  V  V23  1  0.74895137  0.75104866  0.50031964  1
  V  V24  1  0.00168950  0.87424468  0.87392325  1
  V  V25  1  0.50750080  -0.00211955  0.50063066  1
  V  V26  1  0.37155511  0.00232254  0.37167263  1
  V  V27  1  0.49807831  0.62815964  0.63335662  1
  V  V28  1  0.37067004  0.51043064  0.37283687  1
  V  V29  1  0.88056285  0.74664027  0.12201276  1
  V  V30  1  0.87374440  0.00274767  0.86246448  1
  V  V31  1  0.88000205  0.74542562  0.62377059  1
  V  V32  1  0.61499753  0.75152087  0.86858790  1
  V  V33  1  0.00541266  0.74604655  0.74678419  1
  V  V34  1  0.49298093  0.24357690  0.75216921  1
  V  V35  1  -0.00810406  0.11780242  0.63644868  1
  V  V36  1  0.61928002  0.50619417  0.12742834  1
  V  V37  1  0.12135156  0.51605800  0.12522848  1
  V  V38  1  0.49676661  0.12265132  0.13137306  1
  V  V39  1  0.25038628  0.00454473  0.24517001  1
  V  V40  1  0.36962553  0.24615235  0.13520137  1
  V  V41  1  0.49587201  0.50466233  0.00263550  1
  V  V42  1  0.12650189  0.87286421  0.24952433  1
  V  V43  1  0.62343735  0.50168802  0.62638302  1
  V  V44  1  0.62050090  0.62666959  0.00102471  1
  V  V45  1  0.25700334  0.74434149  0.48915741  1
  V  V46  1  0.74792671  0.87868372  0.13915372  1
  V  V47  1  0.13471146  0.74826624  0.88767122  1
  V  V48  1  0.25141361  0.51374986  0.25416515  1
  V  V49  1  0.74761554  0.75290199  -0.00009035  1
  V  V50  1  0.00210760  0.50707900  0.50501654  1
  V  V51  1  0.12983504  0.62301871  0.49824329  1
  V  V52  1  0.49921959  0.25022148  0.25282656  1
  V  V53  1  0.00209327  0.74966360  0.25524905  1
  V  V54  1  0.87139253  0.87678363  -0.00276591  1
  V  V55  1  0.36563568  0.60752805  0.75279662  1
  V  V56  1  0.74869121  0.50064013  0.25052559  1
  V  V57  1  0.11354522  0.12515643  0.49841191  1
  V  V58  1  0.49412686  0.38051439  0.87470521  1
  V  V59  1  0.62954554  -0.00264669  0.14143233  1
  V  V60  1  0.74854369  0.88132397  0.62281571  1
  V  V61  1  0.62295175  0.37572887  0.75165547  1
  V  V62  1  0.49715694  0.49856143  0.50105790  1
  V  V63  1  0.24643715  0.25137139  0.00278003  1
  V  V64  1  0.11804641  0.37770178  0.25047268  1
  V  V65  1  0.25003494  0.61572688  0.88409898  1
  V  V66  1  0.88282223  0.62241152  0.24577446  1
  V  V67  1  0.37909727  0.87415692  -0.00134723  1
  V  V68  1  0.75115908  0.37535891  0.62562698  1
  V  V69  1  0.23667698  0.37941912  0.63874929  1
  V  V70  1  0.11597593  0.25343877  0.37358753  1
  V  V71  1  0.75142501  0.50027753  0.75087606  1
  V  V72  1  0.13129328  0.87581229  0.74776041  1
  V  V73  1  0.24619146  0.37669496  0.12973488  1
  V  V74  1  0.62345894  0.24959707  0.87649357  1
  V  V75  1  0.00232600  0.51197397  0.00725182  1
  V  V76  1  0.37666303  0.73502264  0.12240064  1
  V  V77  1  0.49896438  0.73301316  0.24340851  1
  V  V78  1  0.87610326  0.62746663  0.74995770  1
  V  V79  1  0.62571989  0.12009067  0.00246416  1
  V  V80  1  0.75154064  0.12568705  0.86368640  1
  V  V81  1  0.62388600  0.75405674  0.36829170  1
  V  V82  1  0.74834203  0.24782182  0.49698854  1
  V  V83  1  0.50106805  0.87728901  0.36082112  1
  V  V84  1  0.50290740  0.11958271  0.62648177  1
  Zn  Zn85  1  0.38448742  0.00614050  0.87073641  1
  Zn  Zn86  1  0.25856262  0.00913160  0.74437761  1
  Zn  Zn87  1  0.37127201  0.37628382  0.50051332  1
  Zn  Zn88  1  -0.01139292  0.12127666  0.13026803  1
  Zn  Zn89  1  0.87006732  0.23909781  0.63110975  1
  Zn  Zn90  1  0.12871738  0.25358781  0.86591133  1
  Zn  Zn91  1  0.62233600  0.37505479  0.25499095  1
  Zn  Zn92  1  0.01597927  0.38637896  0.87324582  1
  Zn  Zn93  1  0.74833557  0.00468515  0.74003872  1
  Zn  Zn94  1  0.12601550  -0.00441267  0.11947379  1
  Zn  Zn95  1  -0.04365992  0.93412458  0.34773852  1
  Zn  Zn96  1  -0.00331320  0.37368606  0.37497354  1
  Zn  Zn97  1  0.13115307  0.74556133  0.37157664  1
  Zn  Zn98  1  0.49754699  0.37447645  0.37526400  1
  Zn  Zn99  1  0.50136836  -0.00158832  0.00003784  1
  Zn  Zn100  1  0.49841278  0.87612048  0.87178660  1
  Zn  Zn101  1  0.12863430  0.51608604  0.64741722  1
  Zn  Zn102  1  0.62871882  0.12094470  0.50010566  1
  Zn  Zn103  1  0.87817640  0.37454938  0.00038789  1
  Zn  Zn104  1  0.62281567  0.62648875  0.50167667  1
  Zn  Zn105  1  0.62520108  0.24863592  0.37583699  1
  Zn  Zn106  1  0.25418338  0.87806957  0.62190791  1
  Zn  Zn107  1  0.15157999  0.17011925  0.20462957  1
  Zn  Zn108  1  0.18069583  0.19118748  0.68753527  1
  Zn  Zn109  1  0.19259553  0.68990043  0.18376748  1
  Zn  Zn110  1  0.19273791  0.68970957  0.68274222  1
  Zn  Zn111  1  0.68749135  0.18555521  0.19108934  1
  Zn  Zn112  1  0.68075747  0.19047968  0.68344396  1
  Zn  Zn113  1  0.68893335  0.68875136  0.18751833  1
  Zn  Zn114  1  0.68756342  0.69104210  0.68736546  1
  Zn  Zn115  1  0.31092222  0.32214822  0.31535374  1
  Zn  Zn116  1  0.31136151  0.31391513  0.81500094  1
  Zn  Zn117  1  0.31630122  0.81253690  0.30624426  1
  Zn  Zn118  1  0.31220487  0.81212729  0.81259205  1
  Zn  Zn119  1  0.81163177  0.31361110  0.31558512  1
  Zn  Zn120  1  0.81816774  0.31086318  0.80908083  1
  Zn  Zn121  1  0.81487040  0.81005220  0.31347895  1
  Zn  Zn122  1  0.80876661  0.81482312  0.81019187  1
  Zn  Zn123  1  0.18883961  0.43766200  0.44000026  1
  Zn  Zn124  1  0.18394451  0.43878350  0.93887337  1
  Zn  Zn125  1  0.14217479  0.96523153  0.40818215  1
  Zn  Zn126  1  0.19185407  0.93786577  0.93548539  1
  Zn  Zn127  1  0.68321184  0.43387799  0.43816315  1
  Zn  Zn128  1  0.68511595  0.43756338  0.93912554  1
  Zn  Zn129  1  0.69008280  0.93383830  0.43254653  1
  Zn  Zn130  1  0.68630186  0.93827914  0.93509962  1
  Zn  Zn131  1  0.31445596  0.06199469  0.05811464  1
  Zn  Zn132  1  0.31302817  0.06432238  0.55942653  1
  Zn  Zn133  1  0.30789737  0.56046897  0.06188438  1
  Zn  Zn134  1  0.30861216  0.56020585  0.56459864  1
  Zn  Zn135  1  0.81081574  0.06301091  0.06228074  1
  Zn  Zn136  1  0.81534415  0.05775353  0.54981936  1
  Zn  Zn137  1  0.80997836  0.56390473  0.06224139  1
  Zn  Zn138  1  0.81347384  0.56370728  0.56341639  1
  Zn  Zn139  1  0.43466487  0.43769920  0.18950848  1
  Zn  Zn140  1  0.43226698  0.43277864  0.68433689  1
  Zn  Zn141  1  0.43617641  0.93890931  0.18550085  1
  Zn  Zn142  1  0.43613063  0.93982632  0.68880349  1
  Zn  Zn143  1  0.93677940  0.43446901  0.18476765  1
  Zn  Zn144  1  0.96788163  0.45589050  0.70486409  1
  Zn  Zn145  1  0.93577516  0.93690825  0.17936684  1
  Zn  Zn146  1  0.94074844  0.93321901  0.68302836  1
  Zn  Zn147  1  0.01208129  0.06989124  0.29954308  1
  Zn  Zn148  1  0.07014972  0.06488391  0.81206261  1
  Zn  Zn149  1  0.06376238  0.56374683  0.31824036  1
  Zn  Zn150  1  0.06554253  0.56712421  0.81961918  1
  Zn  Zn151  1  0.56686134  0.06880067  0.31697087  1
  Zn  Zn152  1  0.56286326  0.05889109  0.81132355  1
  Zn  Zn153  1  0.56187907  0.56200832  0.31715566  1
  Zn  Zn154  1  0.55712964  0.56383583  0.81262047  1
  Zn  Zn155  1  0.43469338  0.18519294  0.44057948  1
  Zn  Zn156  1  0.43739425  0.19093313  0.94455493  1
  Zn  Zn157  1  0.44108162  0.68591531  0.43864538  1
  Zn  Zn158  1  0.43157080  0.68705711  0.93562920  1
  Zn  Zn159  1  0.93335043  0.18791445  0.44132929  1
  Zn  Zn160  1  0.93311676  0.18474202  0.93958059  1
  Zn  Zn161  1  0.93976407  0.68680288  0.43684229  1
  Zn  Zn162  1  0.93949411  0.68796085  0.93466358  1
  Zn  Zn163  1  0.06108337  0.32103115  0.05659024  1
  Zn  Zn164  1  0.05722491  0.30837491  0.56700595  1
  Zn  Zn165  1  0.06045472  0.81290507  0.06423546  1
  Zn  Zn166  1  0.06973065  0.80551943  0.56380298  1
  Zn  Zn167  1  0.56162242  0.31243534  0.06621911  1
  Zn  Zn168  1  0.56265616  0.31190665  0.56398353  1
  Zn  Zn169  1  0.56241145  0.81416572  0.06549086  1
  Zn  Zn170  1  0.56005596  0.81237410  0.56009160  1
  O  O171  1  0.13778655  0.11466781  0.10369569  1
  O  O172  1  0.11634279  0.11856366  0.61993644  1
  O  O173  1  0.12690712  0.61530065  0.12647540  1
  O  O174  1  0.12973677  0.62698112  0.60830036  1
  O  O175  1  0.62113506  0.11826880  0.11961186  1
  O  O176  1  0.60806877  0.12784784  0.61959505  1
  O  O177  1  0.63041923  0.61336647  0.11858169  1
  O  O178  1  0.61532722  0.62039249  0.62870669  1
  O  O179  1  0.37958406  0.38646351  0.38186884  1
  O  O180  1  0.38337938  0.36964906  0.88668686  1
  O  O181  1  0.38263307  0.88118268  0.37868721  1
  O  O182  1  0.37606988  0.86502302  0.89011814  1
  O  O183  1  0.87431891  0.38176824  0.38757883  1
  O  O184  1  0.86856768  0.39157057  0.87692619  1
  O  O185  1  0.87922043  0.86317338  0.39087783  1
  O  O186  1  0.87973279  0.88106217  0.87886310  1
  O  O187  1  0.25145452  0.00931009  0.36749805  1
  O  O188  1  0.25047542  0.01808828  0.87512610  1
  O  O189  1  0.26241244  0.49716317  0.37016489  1
  O  O190  1  0.24303898  0.51630236  0.87723966  1
  O  O191  1  0.75078405  0.00992119  0.37708856  1
  O  O192  1  0.75699311  0.00867022  0.87196538  1
  O  O193  1  0.75437055  0.50474080  0.37090273  1
  O  O194  1  0.75310522  0.50707677  0.87121281  1
  O  O195  1  0.24137076  0.49666619  0.13204451  1
  O  O196  1  0.24228107  0.48506793  0.62413949  1
  O  O197  1  0.25563888  0.99233343  0.13096668  1
  O  O198  1  0.24429335  0.99953548  0.62638991  1
  O  O199  1  0.74276773  0.49269532  0.12941418  1
  O  O200  1  0.74430215  0.49696670  0.63210343  1
  O  O201  1  0.74368458  0.99068766  0.12214935  1
  O  O202  1  0.75493994  0.98534829  0.62044875  1
  O  O203  1  0.01315065  0.38148359  0.25356719  1
  O  O204  1  -0.01539646  0.35640442  0.75981473  1
  O  O205  1  0.01147545  0.86440156  0.24615191  1
  O  O206  1  0.01100731  0.86780735  0.75463654  1
  O  O207  1  0.50050137  0.36403536  0.24933840  1
  O  O208  1  0.50117644  0.37020681  0.75868302  1
  O  O209  1  0.49682321  0.86960219  0.25909696  1
  O  O210  1  0.51537782  0.87319885  0.74719864  1
  O  O211  1  0.50232135  0.13128181  0.23834590  1
  O  O212  1  0.50501098  0.13340539  0.74260683  1
  O  O213  1  0.49963645  0.63493018  0.25117759  1
  O  O214  1  0.48389573  0.62139786  0.74425693  1
  O  O215  1  1.04120345  0.14413141  0.22717174  1
  O  O216  1  0.99873845  0.12433270  0.73986835  1
  O  O217  1  0.98817321  0.62762240  0.25128381  1
  O  O218  1  0.99102414  0.64144615  0.76006665  1
  O  O219  1  0.37043405  0.26120484  0.01169801  1
  O  O220  1  0.36647952  0.25186498  0.50858148  1
  O  O221  1  0.38575381  0.75547629  0.01641836  1
  O  O222  1  0.37480767  0.75311653  0.50590087  1
  O  O223  1  0.86023812  0.25302961  0.00122700  1
  O  O224  1  0.86794432  0.26011634  0.50749260  1
  O  O225  1  0.87058925  0.75397214  0.00541318  1
  O  O226  1  0.86947590  0.75198757  0.50687061  1
  O  O227  1  0.13031288  0.24507478  0.49569367  1
  O  O228  1  0.13379559  0.24377994  1.00350949  1
  O  O229  1  0.13753570  0.74255455  0.49584562  1
  O  O230  1  0.12118890  0.75409874  0.98560667  1
  O  O231  1  0.63470792  0.24946433  0.50102186  1
  O  O232  1  0.63303090  0.24198204  0.99929044  1
  O  O233  1  0.63229336  0.74811286  0.49215174  1
  O  O234  1  0.62787526  0.74415339  0.99442913  1
  O  O235  1  0.49198247  0.24440348  0.13373816  1
  O  O236  1  0.49172535  0.24601111  0.63332046  1
  O  O237  1  0.49490086  0.75005474  0.13671577  1
  O  O238  1  0.49263506  0.73480809  0.61745690  1
  O  O239  1  0.97944973  0.25711945  0.11450538  1
  O  O240  1  0.99478516  0.23605470  0.63609896  1
  O  O241  1  0.98602779  0.75364238  0.13130266  1
  O  O242  1  0.99247786  0.75339741  0.63473580  1
  O  O243  1  0.01225238  0.25135165  0.38121619  1
  O  O244  1  -0.00354146  0.24259119  0.86469271  1
  O  O245  1  0.00237531  0.74525984  0.35871093  1
  O  O246  1  0.01022435  0.75621851  0.86872740  1
  O  O247  1  0.49454222  0.24507542  0.36192348  1
  O  O248  1  0.50383804  0.25621285  0.87061805  1
  O  O249  1  0.50441385  0.75461262  0.36423108  1
  O  O250  1  0.51241317  0.75100397  0.87800856  1
  O  O251  1  0.24252853  0.13702211  0.49638319  1
  O  O252  1  0.24688792  0.13375995  0.99121572  1
  O  O253  1  0.24302982  0.63059998  0.50057526  1
  O  O254  1  0.25971409  0.62790785  0.98316087  1
  O  O255  1  0.74845702  0.13365052  0.49884955  1
  O  O256  1  0.74228390  0.13251006  0.99277543  1
  O  O257  1  0.74940009  0.63665380  0.49521535  1
  O  O258  1  0.74140407  0.63202830  0.99448545  1
  O  O259  1  0.25660265  0.37044358  0.00716914  1
  O  O260  1  0.24776084  0.36243163  0.50857335  1
  O  O261  1  0.25707442  0.87864884  0.01130892  1
  O  O262  1  0.26805635  0.86691716  0.49928478  1
  O  O263  1  0.74793334  0.36698124  0.00792264  1
  O  O264  1  0.75537646  0.37005530  0.50743548  1
  O  O265  1  0.75510121  0.86891747  0.00178829  1
  O  O266  1  0.75459852  0.86346906  0.50399880  1
  O  O267  1  0.13025800  0.49720396  0.24628498  1
  O  O268  1  0.07464102  0.49095513  0.74105479  1
  O  O269  1  0.14060533  0.98799712  0.24120830  1
  O  O270  1  0.13122558  0.99283168  0.74145590  1
  O  O271  1  0.62861799  0.50079579  0.24299968  1
  O  O272  1  0.62951064  0.49500129  0.74708186  1
  O  O273  1  0.62062765  1.00124048  0.24026253  1
  O  O274  1  0.63031366  0.98288536  0.75114918  1
  O  O275  1  0.36541184  -0.00560727  0.26272498  1
  O  O276  1  0.36821518  -0.01101407  0.75981093  1
  O  O277  1  0.36792250  0.49744975  0.26322399  1
  O  O278  1  0.37252278  0.50905758  0.74923561  1
  O  O279  1  0.92044323  0.00454810  0.26443841  1
  O  O280  1  0.87243196  -0.00818923  0.75971005  1
  O  O281  1  0.87024902  0.50538623  0.25368946  1
  O  O282  1  0.87344541  0.50824079  0.75932589  1
  O  O283  1  0.12369193  0.37030526  0.37035307  1
  O  O284  1  0.12634321  0.36482956  0.88180037  1
  O  O285  1  0.13996665  0.86393015  0.35356932  1
  O  O286  1  0.12441574  0.86628653  0.86766459  1
  O  O287  1  0.61626535  0.36904570  0.37349089  1
  O  O288  1  0.61702460  0.36825902  0.87189163  1
  O  O289  1  0.61649595  0.86199533  0.37746113  1
  O  O290  1  0.62680569  0.86725032  0.86295264  1
  O  O291  1  0.38421149  0.13469130  0.11815668  1
  O  O292  1  0.38368516  0.13849674  0.61974230  1
  O  O293  1  0.37378029  0.63629776  0.12136597  1
  O  O294  1  0.37750477  0.62757071  0.63605460  1
  O  O295  1  0.87235891  0.14167020  0.12079208  1
  O  O296  1  0.89009159  0.11799256  0.61719473  1
  O  O297  1  0.86568007  0.63506618  0.13435494  1
  O  O298  1  0.86957648  0.63838999  0.63208500  1
  O  O299  1  0.25560024  0.25361839  0.11518089  1
  O  O300  1  0.25438136  0.25240705  0.62088888  1
  O  O301  1  0.26866796  0.75677732  0.12949773  1
  O  O302  1  0.26194675  0.75364496  0.61180515  1
  O  O303  1  0.75338448  0.25654052  0.11931470  1
  O  O304  1  0.75156519  0.25600053  0.61818514  1
  O  O305  1  0.75744744  0.75756254  0.11910370  1
  O  O306  1  0.75684144  0.75672712  0.61655290  1
  O  O307  1  0.24768701  0.24711194  0.38353157  1
  O  O308  1  0.25333621  0.24275803  0.88773572  1
  O  O309  1  0.25956674  0.75101442  0.38565203  1
  O  O310  1  0.23771985  0.74476765  0.87254791  1
  O  O311  1  0.75022756  0.25035165  0.38897662  1
  O  O312  1  0.74429128  0.24489693  0.88074220  1
  O  O313  1  0.74205811  0.74679840  0.37968090  1
  O  O314  1  0.74302949  0.74581655  0.88126342  1
  O  O315  1  0.00724780  0.11862519  0.00125807  1
  O  O316  1  0.01073517  0.13294414  0.51165249  1
  O  O317  1  -0.00649484  0.61168572  0.00099639  1
  O  O318  1  0.01335691  0.62004457  0.49488266  1
  O  O319  1  0.51023875  0.12871776  0.01259791  1
  O  O320  1  0.50052654  0.11444693  0.50538562  1
  O  O321  1  0.50098519  0.61019921  -0.00839413  1
  O  O322  1  0.50071594  0.61370554  0.51049429  1
  O  O323  1  0.49741629  0.38930229  0.50654980  1
  O  O324  1  0.49394192  0.38024407  0.99518986  1
  O  O325  1  0.49151740  0.87869419  0.48959545  1
  O  O326  1  0.49298389  0.87706979  0.99944089  1
  O  O327  1  0.99218701  0.38155602  0.49989492  1
  O  O328  1  0.99398600  0.39003333  0.99479369  1
  O  O329  1  0.99161165  0.86573563  0.50358150  1
  O  O330  1  0.99401116  0.88199699  0.99225206  1
  O  O331  1  0.49155687  0.49981985  0.38449162  1
  O  O332  1  0.50522627  0.48665647  0.88416886  1
  O  O333  1  0.49158669  0.99515680  0.37728913  1
  O  O334  1  0.50158762  0.99544828  0.88134236  1
  O  O335  1  0.99010467  0.49878806  0.38377839  1
  O  O336  1  0.98998917  0.50427744  0.88885070  1
  O  O337  1  1.03663941  1.00423030  0.38612500  1
  O  O338  1  0.99423122  0.99702278  0.87875415  1
  O  O339  1  0.00278936  0.00045103  0.10588927  1
  O  O340  1  0.00968362  0.00968718  0.62969360  1
  O  O341  1  0.00474900  0.49853776  0.11592236  1
  O  O342  1  -0.00708103  0.50523386  0.60548041  1
  O  O343  1  0.50709786  0.00778623  0.12365146  1
  O  O344  1  0.49146109  0.00824475  0.61332850  1
  O  O345  1  0.50893736  0.49343975  0.11679136  1
  O  O346  1  0.50158186  0.50793644  0.62187551  1
  O  O347  1  0.24157706  0.38753431  0.24544496  1
  O  O348  1  0.24950648  0.36875259  0.73716993  1
  O  O349  1  0.25007597  0.87973338  0.23613145  1
  O  O350  1  0.23820671  0.87141837  0.74570079  1
  O  O351  1  0.74683689  0.38261870  0.24307602  1
  O  O352  1  0.74544401  0.38058391  0.74546208  1
  O  O353  1  0.75493317  0.87059623  0.23838531  1
  O  O354  1  0.74317593  0.87597078  0.73765251  1
  O  O355  1  0.24312441  0.11688795  0.25791687  1
  O  O356  1  0.24575890  0.13212243  0.76618972  1
  O  O357  1  0.24792521  0.61318016  0.24954144  1
  O  O358  1  0.26059706  0.62679906  0.75465849  1
  O  O359  1  0.75028950  0.12746469  0.26474629  1
  O  O360  1  0.73963178  0.12464575  0.75968164  1
  O  O361  1  0.75839510  0.62025021  0.25553140  1
  O  O362  1  0.75551482  0.62025957  0.75504731  1
  O  O363  1  0.36038408  0.11676892  0.38106589  1
  O  O364  1  0.36317267  0.12792220  0.88260257  1
  O  O365  1  0.37977227  0.60962432  0.37798668  1
  O  O366  1  0.36306857  0.63144128  0.86097093  1
  O  O367  1  0.86020210  0.12778297  0.38173990  1
  O  O368  1  0.86206291  0.11483883  0.87967054  1
  O  O369  1  0.86830187  0.62018278  0.36723040  1
  O  O370  1  0.86674238  0.61827381  0.87152949  1
  O  O371  1  0.12936772  0.38194784  0.13304934  1
  O  O372  1  0.13597974  0.36995768  0.62451625  1
  O  O373  1  0.13602647  0.87254873  0.12956342  1
  O  O374  1  0.12706459  0.88324008  0.63013779  1
  O  O375  1  0.63408151  0.38435234  0.12524957  1
  O  O376  1  0.62953408  0.38178368  0.63347080  1
  O  O377  1  0.63631727  0.88514046  0.11977824  1
  O  O378  1  0.63263241  0.86560952  0.63472188  1
  O  O379  1  0.13961016  0.26737481  0.26526905  1
  O  O380  1  0.10078890  0.24109569  0.75092176  1
  O  O381  1  0.11815323  0.75251310  0.24569829  1
  O  O382  1  0.11989287  0.75583686  0.75221930  1
  O  O383  1  0.61246776  0.25257548  0.24906605  1
  O  O384  1  0.61290427  0.25773322  0.75483641  1
  O  O385  1  0.61229557  0.74646265  0.25507321  1
  O  O386  1  0.63221273  0.76163750  0.75928631  1
  O  O387  1  0.37641688  0.25572951  0.23924881  1
  O  O388  1  0.38612062  0.25371839  0.74516652  1
  O  O389  1  0.38951922  0.75254797  0.23733329  1
  O  O390  1  0.37243211  0.74714239  0.73685341  1
  O  O391  1  0.87389530  0.25660861  0.23693081  1
  O  O392  1  0.88381635  0.23979219  0.74805130  1
  O  O393  1  0.88163792  0.74245551  0.24272270  1
  O  O394  1  0.88171187  0.74934331  0.74314291  1
  O  O395  1  0.37932517  0.49965839  0.49321126  1
  O  O396  1  0.38189305  0.48675940  1.00892687  1
  O  O397  1  0.37935974  0.99229387  0.48837099  1
  O  O398  1  0.37867169  0.98919064  0.99502336  1
  O  O399  1  0.87841430  0.49680841  0.49395934  1
  O  O400  1  0.87981532  0.50035236  0.99613816  1
  O  O401  1  0.88044352  0.97774566  0.50075846  1
  O  O402  1  0.88113073  0.99650320  0.99031840  1
  O  O403  1  0.11553322  0.00527492  -0.00702423  1
  O  O404  1  0.13515267  0.01238759  0.51362424  1
  O  O405  1  0.11124329  0.50040233  0.01059017  1
  O  O406  1  0.11929369  0.51012399  0.49916760  1
  O  O407  1  0.62709390  0.01228800  0.00487595  1
  O  O408  1  0.61014413  -0.00558032  0.49474211  1
  O  O409  1  0.61662118  0.50556607  0.00695270  1
  O  O410  1  0.61744602  0.50366650  0.50858141  1
  O  O411  1  0.36650717  0.36819678  0.12089196  1
  O  O412  1  0.36333259  0.36313088  0.62236327  1
  O  O413  1  0.37244924  0.86957869  0.11573524  1
  O  O414  1  0.38035939  0.86531739  0.61542696  1
  O  O415  1  0.86110321  0.36825245  0.12288478  1
  O  O416  1  0.86926255  0.37987525  0.61521130  1
  O  O417  1  0.86750329  0.86827913  0.11625687  1
  O  O418  1  0.86962993  0.86396771  0.61622703  1
  O  O419  1  0.13810604  0.13783635  0.38524401  1
  O  O420  1  0.13574209  0.13099412  0.88444261  1
  O  O421  1  0.12748325  0.62839485  0.38960331  1
  O  O422  1  0.13697727  0.63840568  0.87196586  1
  O  O423  1  0.63865377  0.12966255  0.38101834  1
  O  O424  1  0.63020156  0.13075634  0.88343525  1
  O  O425  1  0.63032036  0.63592662  0.37741561  1
  O  O426  1  0.62823979  0.63250104  0.87797848  1
