# generated using pymatgen
data_V85Zn86O256
_symmetry_space_group_name_H-M   'P 1'
_cell_length_a   16.92864823
_cell_length_b   16.92573351
_cell_length_c   16.93091383
_cell_angle_alpha   90.00789190
_cell_angle_beta   90.05830134
_cell_angle_gamma   89.98531582
_symmetry_Int_Tables_number   1
_chemical_formula_structural   V85Zn86O256
_chemical_formula_sum   'V85 Zn86 O256'
_cell_volume   4851.20844587
_cell_formula_units_Z   1
loop_
 _symmetry_equiv_pos_site_id
 _symmetry_equiv_pos_as_xyz
  1  'x, y, z'
loop_
 _atom_site_type_symbol
 _atom_site_label
 _atom_site_symmetry_multiplicity
 _atom_site_fract_x
 _atom_site_fract_y
 _atom_site_fract_z
 _atom_site_occupancy
  V  V0  1  0.49457446  0.38536792  0.86261226  1
  V  V1  1  0.87853633  0.50207051  0.87125152  1
  V  V2  1  0.87634965  0.49705005  0.37500564  1
  V  V3  1  0.75298254  0.75727925  0.49913138  1
  V  V4  1  0.75014888  0.62559758  0.37473677  1
  V  V5  1  0.62140742  0.12778399  -0.00545821  1
  V  V6  1  0.62311643  0.25752355  0.87508048  1
  V  V7  1  0.50108886  0.87703681  0.37600954  1
  V  V8  1  0.75166927  0.74950378  0.00053336  1
  V  V9  1  0.87355411  -0.00526580  0.37767932  1
  V  V10  1  0.62298824  0.87630932  0.75067867  1
  V  V11  1  0.13817556  0.37201450  0.74523116  1
  V  V12  1  -0.00361039  0.24238005  0.75005742  1
  V  V13  1  0.49660366  0.24984740  0.24454529  1
  V  V14  1  0.00055579  0.62595776  0.12617749  1
  V  V15  1  0.75195344  0.87990686  0.12496721  1
  V  V16  1  0.36921423  0.12291219  0.24700967  1
  V  V17  1  0.37684431  0.75062966  0.62595576  1
  V  V18  1  0.62226955  0.37536815  0.24754533  1
  V  V19  1  0.87112739  0.25081926  0.12348853  1
  V  V20  1  0.24529330  0.74888003  0.49469902  1
  V  V21  1  0.13783710  0.00318470  0.13327220  1
  V  V22  1  0.50236011  0.88654421  0.89185624  1
  V  V23  1  0.12371493  0.62435345  0.49382188  1
  V  V24  1  0.25183017  0.85211857  0.13365262  1
  V  V25  1  0.14118378  0.49355564  0.62520628  1
  V  V26  1  0.37072466  0.61372292  0.75447376  1
  V  V27  1  0.48827500  0.37851318  0.37364888  1
  V  V28  1  0.61812473  0.12497254  0.50504888  1
  V  V29  1  0.49220027  0.74827560  0.24847285  1
  V  V30  1  0.25099094  0.87547339  0.62436748  1
  V  V31  1  0.24855584  0.25204887  0.50516457  1
  V  V32  1  0.12423643  0.00308549  0.62718275  1
  V  V33  1  0.87490689  0.37283507  0.50248610  1
  V  V34  1  0.75925104  0.01355817  0.76981201  1
  V  V35  1  0.75076858  0.88212474  0.62546580  1
  V  V36  1  0.00200466  0.50209180  -0.00029325  1
  V  V37  1  0.74888602  0.49908828  0.24683686  1
  V  V38  1  0.74989021  0.62639892  0.87395215  1
  V  V39  1  0.87721298  0.62366755  0.74867144  1
  V  V40  1  0.00314961  0.61827561  0.62790681  1
  V  V41  1  0.37250239  0.37689675  0.51223620  1
  V  V42  1  0.61679171  0.00236637  0.12115993  1
  V  V43  1  0.24680304  0.12111777  0.37457827  1
  V  V44  1  0.00634335  0.12994941  0.12512026  1
  V  V45  1  0.00272342  0.37565498  0.87223995  1
  V  V46  1  0.00359202  0.87164780  0.37911392  1
  V  V47  1  0.00770787  0.75035886  0.25539742  1
  V  V48  1  0.50312309  0.23218308  0.74583249  1
  V  V49  1  0.87069555  0.24578302  0.62991058  1
  V  V50  1  0.25612691  0.49167763  0.25409204  1
  V  V51  1  0.26864822  0.11853298  0.87922845  1
  V  V52  1  0.00100055  0.74837622  0.75257354  1
  V  V53  1  0.87785721  0.75532566  0.62118156  1
  V  V54  1  0.62171356  0.50169865  0.11895475  1
  V  V55  1  0.11648191  0.24774153  0.37398678  1
  V  V56  1  0.87645876  0.87868117  -0.00321009  1
  V  V57  1  0.50453290  0.62246902  0.62642526  1
  V  V58  1  0.73631631  0.38100096  0.62526885  1
  V  V59  1  0.87607412  0.62469434  0.25006533  1
  V  V60  1  0.12060740  0.36954818  0.24847534  1
  V  V61  1  0.62338521  0.25054108  0.37182037  1
  V  V62  1  0.86853494  0.37519723  -0.00145584  1
  V  V63  1  0.49747332  0.50052938  0.49720030  1
  V  V64  1  0.26002985  0.61744761  0.37816638  1
  V  V65  1  0.36326116  0.87507198  0.00305284  1
  V  V66  1  0.62734621  0.61938560  0.50334113  1
  V  V67  1  0.00858354  0.00223277  0.00351532  1
  V  V68  1  0.13876086  0.75115754  0.88051392  1
  V  V69  1  0.13018691  0.49358233  0.12563550  1
  V  V70  1  0.36483950  0.25518311  0.12136822  1
  V  V71  1  -0.00563275  -0.00338964  0.50324984  1
  V  V72  1  0.12444538  0.87456820  0.75098026  1
  V  V73  1  0.13540111  0.63206037  0.00231815  1
  V  V74  1  0.62579264  0.75049059  0.37328055  1
  V  V75  1  0.37155154  -0.00064024  0.37145011  1
  V  V76  1  0.73559115  0.50152723  0.74425088  1
  V  V77  1  0.12736790  0.24025639  0.88128790  1
  V  V78  1  0.88107188  0.13083712  0.24875794  1
  V  V79  1  0.36972208  0.38361468  -0.00259276  1
  V  V80  1  0.37367988  0.23151677  0.63145033  1
  V  V81  1  0.49119274  0.62911921  0.12041402  1
  V  V82  1  0.75091947  0.00158182  0.24542703  1
  V  V83  1  -0.00089263  0.87874073  0.87694252  1
  V  V84  1  0.74818082  0.12668641  0.37189381  1
  Zn  Zn85  1  0.74691167  0.25089426  0.50045424  1
  Zn  Zn86  1  -0.01049167  0.11957892  0.63105448  1
  Zn  Zn87  1  0.24622498  0.24904936  0.00287588  1
  Zn  Zn88  1  0.26438720  0.61989484  0.88005563  1
  Zn  Zn89  1  0.00192325  0.49559102  0.49989229  1
  Zn  Zn90  1  0.49496960  0.00613917  0.50427318  1
  Zn  Zn91  1  0.62070699  0.00839288  0.63183174  1
  Zn  Zn92  1  0.87653042  0.75120111  0.12824305  1
  Zn  Zn93  1  0.62444861  0.87539995  0.24818873  1
  Zn  Zn94  1  0.50186090  0.75211991  0.75288427  1
  Zn  Zn95  1  0.62436984  0.75236752  0.87503809  1
  Zn  Zn96  1  0.78371127  0.19718375  -0.06572881  1
  Zn  Zn97  1  0.13034885  0.87526053  0.25754741  1
  Zn  Zn98  1  0.74324777  0.37152557  0.11781271  1
  Zn  Zn99  1  0.49289671  0.50685096  -0.00841664  1
  Zn  Zn100  1  0.62173392  0.62703346  -0.00174758  1
  Zn  Zn101  1  0.49290122  0.11826741  0.11935810  1
  Zn  Zn102  1  0.12071747  0.12618080  0.50321704  1
  Zn  Zn103  1  0.37496090  0.62022679  0.25083746  1
  Zn  Zn104  1  0.37470587  0.87500448  0.49708460  1
  Zn  Zn105  1  -0.00505867  0.36576610  0.37210119  1
  Zn  Zn106  1  0.26217043  0.01355103  0.74957929  1
  Zn  Zn107  1  0.18762393  0.18791009  0.18951440  1
  Zn  Zn108  1  0.19026818  0.18638968  0.69311229  1
  Zn  Zn109  1  0.18452686  0.68053485  0.19577010  1
  Zn  Zn110  1  0.18859534  0.68846575  0.68689504  1
  Zn  Zn111  1  0.68822254  0.18525317  0.18014635  1
  Zn  Zn112  1  0.68888849  0.19077189  0.69233225  1
  Zn  Zn113  1  0.68348623  0.68808447  0.18568061  1
  Zn  Zn114  1  0.68824092  0.69124621  0.68691777  1
  Zn  Zn115  1  0.30720066  0.31014149  0.31508951  1
  Zn  Zn116  1  0.31546295  0.30637802  0.81349869  1
  Zn  Zn117  1  0.31152150  0.80905729  0.31430017  1
  Zn  Zn118  1  0.33523894  0.84775226  0.79535582  1
  Zn  Zn119  1  0.81087489  0.31157775  0.30754957  1
  Zn  Zn120  1  0.81265818  0.32140025  0.80460709  1
  Zn  Zn121  1  0.81702200  0.81352228  0.31044910  1
  Zn  Zn122  1  0.81313042  0.81714320  0.81094595  1
  Zn  Zn123  1  0.18672971  0.43409305  0.43727169  1
  Zn  Zn124  1  0.19319290  0.43823141  0.93207060  1
  Zn  Zn125  1  0.18402898  0.93982022  0.43980109  1
  Zn  Zn126  1  0.18985937  0.93942507  0.94263352  1
  Zn  Zn127  1  0.68590205  0.43610524  0.43669556  1
  Zn  Zn128  1  0.68344057  0.43838902  0.93219481  1
  Zn  Zn129  1  0.68641041  0.93952129  0.43710442  1
  Zn  Zn130  1  0.68443115  0.94132318  0.93958712  1
  Zn  Zn131  1  0.31571032  0.06097916  0.05320657  1
  Zn  Zn132  1  0.30999462  0.06085004  0.55732466  1
  Zn  Zn133  1  0.31059124  0.56120442  0.06680681  1
  Zn  Zn134  1  0.31705484  0.56311389  0.56440812  1
  Zn  Zn135  1  0.82234754  0.07253664  0.03594951  1
  Zn  Zn136  1  0.80742114  0.06521479  0.55843534  1
  Zn  Zn137  1  0.81276244  0.56107437  0.06213827  1
  Zn  Zn138  1  0.81391887  0.56300886  0.56191246  1
  Zn  Zn139  1  0.43613212  0.43821698  0.18068503  1
  Zn  Zn140  1  0.43934117  0.43911803  0.68342071  1
  Zn  Zn141  1  0.43099780  0.93413401  0.18784428  1
  Zn  Zn142  1  0.43989604  0.95314716  0.68683276  1
  Zn  Zn143  1  0.94100752  0.43540165  0.18705342  1
  Zn  Zn144  1  0.93873790  0.43399540  0.68835392  1
  Zn  Zn145  1  0.93942615  0.93962347  0.18783637  1
  Zn  Zn146  1  0.93372899  0.93761737  0.69128107  1
  Zn  Zn147  1  0.06141291  0.06044601  0.31145752  1
  Zn  Zn148  1  0.06447705  0.06008879  0.81197117  1
  Zn  Zn149  1  0.06423653  0.55813046  0.31338821  1
  Zn  Zn150  1  0.10007329  0.54787430  0.82675212  1
  Zn  Zn151  1  0.56021608  0.06255343  0.30945028  1
  Zn  Zn152  1  0.57140619  0.06095026  0.81505884  1
  Zn  Zn153  1  0.56134636  0.56242672  0.31159636  1
  Zn  Zn154  1  0.56088720  0.56732066  0.81137254  1
  Zn  Zn155  1  0.43484151  0.19101497  0.43545455  1
  Zn  Zn156  1  0.44182090  0.19108436  0.93822929  1
  Zn  Zn157  1  0.43712937  0.68976627  0.43860932  1
  Zn  Zn158  1  0.43616136  0.70255571  0.93776900  1
  Zn  Zn159  1  0.93464975  0.18210845  0.44321356  1
  Zn  Zn160  1  0.95009349  0.18406593  0.94055072  1
  Zn  Zn161  1  0.93801686  0.68640999  0.43932741  1
  Zn  Zn162  1  0.94121532  0.69087045  0.93863921  1
  Zn  Zn163  1  0.05840728  0.31399990  0.06216133  1
  Zn  Zn164  1  0.05949841  0.31055047  0.56440773  1
  Zn  Zn165  1  0.06733910  0.81418240  0.06735413  1
  Zn  Zn166  1  0.06261483  0.81300307  0.56058412  1
  Zn  Zn167  1  0.55404938  0.31534950  0.05604859  1
  Zn  Zn168  1  0.55796572  0.30719412  0.56288467  1
  Zn  Zn169  1  0.56501626  0.81022633  0.06391243  1
  Zn  Zn170  1  0.56438688  0.81410510  0.56265122  1
  O  O171  1  0.11888492  0.11470476  0.13356555  1
  O  O172  1  0.12444033  0.11183283  0.62824973  1
  O  O173  1  0.11813494  0.61857579  0.12016002  1
  O  O174  1  0.11975282  0.61469153  0.62047138  1
  O  O175  1  0.61552471  0.11873755  0.12138305  1
  O  O176  1  0.63318763  0.12888948  0.60754234  1
  O  O177  1  0.61638194  0.61649650  0.12293474  1
  O  O178  1  0.61788068  0.63229473  0.61499475  1
  O  O179  1  0.38562840  0.36476525  0.38584795  1
  O  O180  1  0.38539960  0.36929038  0.88234804  1
  O  O181  1  0.37968988  0.88283026  0.37489376  1
  O  O182  1  0.38925465  0.87287632  0.89458357  1
  O  O183  1  0.87339271  0.37976291  0.38121901  1
  O  O184  1  0.88163841  0.38202755  0.87981261  1
  O  O185  1  0.88316263  0.88879954  0.37005007  1
  O  O186  1  0.88587915  0.87169531  0.88459442  1
  O  O187  1  0.25422750  0.01209015  0.37998826  1
  O  O188  1  0.24442278  0.01564372  0.87777919  1
  O  O189  1  0.24498117  0.50594467  0.36780408  1
  O  O190  1  0.20939653  0.52269014  0.86363491  1
  O  O191  1  0.75661439  0.00455684  0.36760302  1
  O  O192  1  0.75235620  -0.00019270  0.86914128  1
  O  O193  1  0.75875855  0.50346459  0.36923034  1
  O  O194  1  0.75519509  0.50770828  0.86555532  1
  O  O195  1  0.23668692  0.50442410  0.13613331  1
  O  O196  1  0.24029278  0.50032811  0.62229860  1
  O  O197  1  0.23797812  1.00360012  0.12393934  1
  O  O198  1  0.24253984  0.99143909  0.62401362  1
  O  O199  1  0.74048788  0.49949898  0.13004430  1
  O  O200  1  0.75440213  0.49014717  0.62937803  1
  O  O201  1  0.74501620  0.99413733  0.12718194  1
  O  O202  1  0.74768728  0.98749388  0.61892343  1
  O  O203  1  0.01398782  0.37846445  0.25509880  1
  O  O204  1  0.00361372  0.36234092  0.75600728  1
  O  O205  1  -0.00039435  0.86639747  0.25842375  1
  O  O206  1  0.00514974  0.87125725  0.75824319  1
  O  O207  1  0.50100048  0.37198017  0.25630498  1
  O  O208  1  0.49295865  0.37158857  0.76043973  1
  O  O209  1  0.50043482  0.86689216  0.25954370  1
  O  O210  1  0.51715650  0.87496788  0.74870186  1
  O  O211  1  0.48676787  0.13479374  0.24958347  1
  O  O212  1  0.50251794  0.13349228  0.75270353  1
  O  O213  1  0.49781698  0.63064591  0.24417312  1
  O  O214  1  0.49343152  0.63018168  0.74107524  1
  O  O215  1  0.98799588  0.11865749  0.24210885  1
  O  O216  1  1.00094905  0.13648900  0.75083599  1
  O  O217  1  0.99710278  0.62959270  0.24714045  1
  O  O218  1  0.99677751  0.62966224  0.74097302  1
  O  O219  1  0.37547980  0.25920911  0.00765493  1
  O  O220  1  0.37053303  0.25286327  0.51197048  1
  O  O221  1  0.39274298  0.77671071  0.01452963  1
  O  O222  1  0.36611074  0.74883479  0.50902550  1
  O  O223  1  0.87578993  0.26289848  0.00571562  1
  O  O224  1  0.86961835  0.25773315  0.50548003  1
  O  O225  1  0.86762811  0.75931511  0.00388428  1
  O  O226  1  0.86462560  0.74413076  0.50867698  1
  O  O227  1  0.13243811  0.24853856  0.49683019  1
  O  O228  1  0.12543130  0.25965663  0.98429368  1
  O  O229  1  0.13290640  0.73699102  0.50805308  1
  O  O230  1  0.12154697  0.74343461  0.99483140  1
  O  O231  1  0.62410300  0.24241951  0.49090485  1
  O  O232  1  0.61752287  0.24610980  0.98782312  1
  O  O233  1  0.63305566  0.74058552  0.49307151  1
  O  O234  1  0.64120649  0.74903880  0.99808548  1
  O  O235  1  0.48928818  0.25346270  0.13586901  1
  O  O236  1  0.49055757  0.25013592  0.63745074  1
  O  O237  1  0.51170246  0.74078347  0.13733114  1
  O  O238  1  0.49298886  0.73987703  0.61989383  1
  O  O239  1  0.99210275  0.23741482  0.11919511  1
  O  O240  1  0.99009970  0.24684071  0.63340279  1
  O  O241  1  0.99929956  0.74401297  0.13531260  1
  O  O242  1  0.99425639  0.74309878  0.62862402  1
  O  O243  1  0.01274506  0.24410560  0.38261461  1
  O  O244  1  0.00911192  0.25400196  0.87061799  1
  O  O245  1  -0.00843193  0.76070085  0.37080566  1
  O  O246  1  0.00412281  0.76287987  0.87092796  1
  O  O247  1  0.50239793  0.25738533  0.36258562  1
  O  O248  1  0.50351081  0.25791090  0.86064736  1
  O  O249  1  0.50626874  0.75489289  0.36962770  1
  O  O250  1  0.50562348  0.76798173  0.87154833  1
  O  O251  1  0.24667106  0.13535928  0.49285891  1
  O  O252  1  0.25276197  0.13108434  0.98657933  1
  O  O253  1  0.24441393  0.62800101  0.49610639  1
  O  O254  1  0.23901132  0.62414422  1.00108994  1
  O  O255  1  0.73923418  0.12942845  0.48764521  1
  O  O256  1  0.72509854  0.13678806  1.01750988  1
  O  O257  1  0.74415335  0.63245436  0.49602294  1
  O  O258  1  0.75294728  0.63297115  0.99160987  1
  O  O259  1  0.26469347  0.37028979  -0.01083224  1
  O  O260  1  0.25901096  0.36084277  0.49334496  1
  O  O261  1  0.25570115  0.87266425  0.01275533  1
  O  O262  1  0.24547522  0.86630546  0.50762352  1
  O  O263  1  0.76423108  0.38665785  -0.00085224  1
  O  O264  1  0.75795119  0.37612380  0.50810826  1
  O  O265  1  0.75796006  0.87095184  0.00463048  1
  O  O266  1  0.74407782  0.86388135  0.50601057  1
  O  O267  1  0.13141840  0.49258429  0.24438717  1
  O  O268  1  0.11439935  0.47933810  0.73608439  1
  O  O269  1  0.12097065  0.99456060  0.23712486  1
  O  O270  1  0.12967894  0.99134829  0.74321209  1
  O  O271  1  0.62718033  0.49496837  0.24003080  1
  O  O272  1  0.63646937  0.50823996  0.74764506  1
  O  O273  1  0.63520245  1.00079522  0.24296625  1
  O  O274  1  0.64056872  0.99369492  0.74860349  1
  O  O275  1  0.37752703  0.00925856  0.26111640  1
  O  O276  1  0.35678086  -0.04491308  0.75520250  1
  O  O277  1  0.36036446  0.49631170  0.24602193  1
  O  O278  1  0.37771528  0.51501422  0.74553600  1
  O  O279  1  0.86931015  0.00816021  0.25548522  1
  O  O280  1  0.85761634  -0.00213523  0.74739891  1
  O  O281  1  0.87037875  0.50341286  0.25579251  1
  O  O282  1  0.87076542  0.50611014  0.75443306  1
  O  O283  1  0.11990153  0.36440105  0.37069655  1
  O  O284  1  0.12075701  0.36597590  0.86254197  1
  O  O285  1  0.10919394  0.88128701  0.37468499  1
  O  O286  1  0.12212902  0.86846594  0.87194464  1
  O  O287  1  0.61405191  0.36896609  0.37003340  1
  O  O288  1  0.60530544  0.37055232  0.88015890  1
  O  O289  1  0.61828658  0.87003813  0.37200944  1
  O  O290  1  0.61990354  0.87555999  0.86935055  1
  O  O291  1  0.37516792  0.13197921  0.13150925  1
  O  O292  1  0.37509672  0.13264403  0.62223849  1
  O  O293  1  0.38730678  0.62140749  0.12827598  1
  O  O294  1  0.38404375  0.63183023  0.63163834  1
  O  O295  1  0.88225026  0.13213223  0.12920510  1
  O  O296  1  0.86914749  0.14145672  0.61876982  1
  O  O297  1  0.88337557  0.62433145  0.13207494  1
  O  O298  1  0.88310935  0.63326132  0.62744478  1
  O  O299  1  0.26061931  0.24935133  0.12429673  1
  O  O300  1  0.26300347  0.24414637  0.61990285  1
  O  O301  1  0.24395198  0.75373704  0.12845052  1
  O  O302  1  0.25572179  0.75304455  0.61360914  1
  O  O303  1  0.76520915  0.25508177  0.12988746  1
  O  O304  1  0.75355511  0.26450582  0.62651241  1
  O  O305  1  0.75158216  0.75799959  0.11824442  1
  O  O306  1  0.75831053  0.75770860  0.61800188  1
  O  O307  1  0.24157438  0.23913207  0.38385626  1
  O  O308  1  0.23966670  0.24056403  0.87507650  1
  O  O309  1  0.25207997  0.74051020  0.38812816  1
  O  O310  1  0.23790620  0.74290534  0.87106884  1
  O  O311  1  0.74062990  0.24559274  0.37305974  1
  O  O312  1  0.73174497  0.26783831  0.86673158  1
  O  O313  1  0.74799057  0.74761152  0.38166334  1
  O  O314  1  0.75357344  0.74298866  0.88225244  1
  O  O315  1  0.00881697  0.11337250  0.01311976  1
  O  O316  1  0.00068279  0.11092254  0.50656022  1
  O  O317  1  0.00335967  0.62089176  0.01016580  1
  O  O318  1  0.00772445  0.62340354  0.50917179  1
  O  O319  1  0.51337465  0.13017410  0.00484194  1
  O  O320  1  0.51447548  0.12793549  0.49072782  1
  O  O321  1  0.50069470  0.62691585  0.00507687  1
  O  O322  1  0.50673415  0.61882367  0.50281591  1
  O  O323  1  0.49409482  0.38118493  0.49477965  1
  O  O324  1  0.48594821  0.38013344  0.98735735  1
  O  O325  1  0.49947023  0.87168173  0.48474394  1
  O  O326  1  0.51191064  0.88267572  0.99307264  1
  O  O327  1  0.98643489  0.37496269  0.49794761  1
  O  O328  1  0.99143928  0.38303398  0.99269849  1
  O  O329  1  0.99963552  0.88593091  0.49488875  1
  O  O330  1  0.99548480  0.87656712  0.99594685  1
  O  O331  1  0.50348637  0.49213534  0.38585181  1
  O  O332  1  0.50158759  0.48961168  0.87258420  1
  O  O333  1  0.49218035  0.99212327  0.37500441  1
  O  O334  1  0.50427495  0.98372593  0.86727182  1
  O  O335  1  0.98568937  0.49928368  0.37707034  1
  O  O336  1  1.00028348  0.49540908  0.87939820  1
  O  O337  1  0.99225262  0.99579095  0.38297475  1
  O  O338  1  1.01078453  0.98748650  0.88583725  1
  O  O339  1  0.00884553  0.00689491  0.12168242  1
  O  O340  1  0.00376171  -0.00151695  0.62092502  1
  O  O341  1  0.00903368  0.50678640  0.12177989  1
  O  O342  1  0.00032161  0.50977079  0.62265073  1
  O  O343  1  0.51449319  -0.00358164  0.13670343  1
  O  O344  1  0.50959421  -0.00579802  0.61551714  1
  O  O345  1  0.50679521  0.50933970  0.12116107  1
  O  O346  1  0.49910170  0.51256672  0.61299524  1
  O  O347  1  0.23633109  0.38153989  0.25877858  1
  O  O348  1  0.23677319  0.36714362  0.75163942  1
  O  O349  1  0.24709616  0.86712863  0.23980701  1
  O  O350  1  0.23584234  0.85797939  0.73120924  1
  O  O351  1  0.74019126  0.38280703  0.24684878  1
  O  O352  1  0.75011616  0.38735194  0.73370282  1
  O  O353  1  0.75056586  0.88130633  0.24131257  1
  O  O354  1  0.74349584  0.88109167  0.74311532  1
  O  O355  1  0.26184448  0.13069454  0.25945398  1
  O  O356  1  0.24816415  0.12592728  0.76999276  1
  O  O357  1  0.25079273  0.61520625  0.26205608  1
  O  O358  1  0.26946170  0.63123186  0.74513435  1
  O  O359  1  0.75914537  0.12078987  0.25251084  1
  O  O360  1  0.74636181  0.11279378  0.75170565  1
  O  O361  1  0.75464152  0.62007802  0.25513034  1
  O  O362  1  0.75739188  0.62175106  0.75432612  1
  O  O363  1  0.36747867  0.12062316  0.36904317  1
  O  O364  1  0.36801760  0.12586458  0.87802362  1
  O  O365  1  0.36341947  0.62266515  0.37754102  1
  O  O366  1  0.37988333  0.63352484  0.85945712  1
  O  O367  1  0.86989036  0.11872261  0.36637236  1
  O  O368  1  0.86141096  0.11834583  0.93245744  1
  O  O369  1  0.86897526  0.61654176  0.37183239  1
  O  O370  1  0.86796467  0.62213301  0.87088095  1
  O  O371  1  0.11978960  0.38264196  0.13256287  1
  O  O372  1  0.12253388  0.37795467  0.63495191  1
  O  O373  1  0.13874774  0.88241801  0.12996260  1
  O  O374  1  0.12795262  0.88419751  0.62861457  1
  O  O375  1  0.62168391  0.38293270  0.12732029  1
  O  O376  1  0.63805786  0.37479253  0.61372287  1
  O  O377  1  0.63738012  0.88272182  0.12487352  1
  O  O378  1  0.63660697  0.87252849  0.63226976  1
  O  O379  1  0.12925292  0.25724158  0.26055751  1
  O  O380  1  0.11779247  0.25707846  0.75529715  1
  O  O381  1  0.11142092  0.74922033  0.25413247  1
  O  O382  1  0.11714512  0.75252402  0.75701484  1
  O  O383  1  0.61534728  0.25502636  0.25002812  1
  O  O384  1  0.60967307  0.24886161  0.75416829  1
  O  O385  1  0.61841216  0.75116461  0.25936372  1
  O  O386  1  0.62684703  0.76034741  0.75362101  1
  O  O387  1  0.37859671  0.24690221  0.24423294  1
  O  O388  1  0.38371222  0.24964010  0.73739433  1
  O  O389  1  0.38866209  0.74393734  0.25699056  1
  O  O390  1  0.37975946  0.75398552  0.73444941  1
  O  O391  1  0.87628090  0.24126601  0.24220656  1
  O  O392  1  0.88225338  0.25500691  0.74226906  1
  O  O393  1  0.88434096  0.74048686  0.24985639  1
  O  O394  1  0.88036266  0.74403947  0.74232314  1
  O  O395  1  0.38393637  0.49040386  0.50320655  1
  O  O396  1  0.37225838  0.48844999  1.00068815  1
  O  O397  1  0.37590555  0.99877613  0.48543120  1
  O  O398  1  0.38306538  0.97604451  1.01832338  1
  O  O399  1  0.87464073  0.49225854  0.49150193  1
  O  O400  1  0.88326254  0.49750748  0.99258194  1
  O  O401  1  0.87994820  1.00481833  0.48938526  1
  O  O402  1  0.89208586  0.98270223  1.01238649  1
  O  O403  1  0.11538756  -0.00991887  0.01747818  1
  O  O404  1  0.11531076  0.00221953  0.51030502  1
  O  O405  1  0.11964193  0.50542467  0.00994832  1
  O  O406  1  0.12212253  0.50254995  0.50878146  1
  O  O407  1  0.62759418  0.01487385  0.00814224  1
  O  O408  1  0.62433699  0.01715735  0.49526848  1
  O  O409  1  0.62323985  0.50300244  0.00943223  1
  O  O410  1  0.62019291  0.51338825  0.49435729  1
  O  O411  1  0.37769778  0.36954118  0.10831436  1
  O  O412  1  0.37946660  0.36549131  0.61453385  1
  O  O413  1  0.35575625  0.87333140  0.12696356  1
  O  O414  1  0.36508141  0.86686575  0.61525472  1
  O  O415  1  0.87709655  0.36886057  0.11667367  1
  O  O416  1  0.86864168  0.36745653  0.61765295  1
  O  O417  1  0.86536169  0.87321961  0.12152705  1
  O  O418  1  0.86897354  0.86191341  0.62874264  1
  O  O419  1  0.13116925  0.12846167  0.37529265  1
  O  O420  1  0.12166455  0.13949956  0.87479522  1
  O  O421  1  0.13101817  0.61742022  0.38997211  1
  O  O422  1  0.10736154  0.64209380  0.89181958  1
  O  O423  1  0.62881410  0.13270896  0.37577527  1
  O  O424  1  0.62364325  0.13588626  0.88648383  1
  O  O425  1  0.63196066  0.63030720  0.38044176  1
  O  O426  1  0.63860982  0.62778371  0.87604933  1
