# generated using pymatgen
data_V85Zn86O256
_symmetry_space_group_name_H-M   'P 1'
_cell_length_a   16.94553456
_cell_length_b   16.94145759
_cell_length_c   16.92879996
_cell_angle_alpha   90.06315131
_cell_angle_beta   89.99255818
_cell_angle_gamma   90.06592804
_symmetry_Int_Tables_number   1
_chemical_formula_structural   V85Zn86O256
_chemical_formula_sum   'V85 Zn86 O256'
_cell_volume   4859.94847290
_cell_formula_units_Z   1
loop_
 _symmetry_equiv_pos_site_id
 _symmetry_equiv_pos_as_xyz
  1  'x, y, z'
loop_
 _atom_site_type_symbol
 _atom_site_label
 _atom_site_symmetry_multiplicity
 _atom_site_fract_x
 _atom_site_fract_y
 _atom_site_fract_z
 _atom_site_occupancy
  V  V0  1  0.62255278  0.25529144  0.36814090  1
  V  V1  1  0.87564705  0.12312112  0.25093306  1
  V  V2  1  0.74916014  0.37255293  0.13866283  1
  V  V3  1  0.38171072  0.87435708  -0.00344596  1
  V  V4  1  0.37373861  0.49130828  0.37790549  1
  V  V5  1  -0.00139485  0.87435656  0.37453970  1
  V  V6  1  0.25100333  0.11735455  0.37059449  1
  V  V7  1  0.00130439  -0.00052346  0.00163546  1
  V  V8  1  0.37722533  0.50050917  0.87790176  1
  V  V9  1  0.00126391  0.12397867  0.12589999  1
  V  V10  1  0.87249345  0.62916203  0.74952391  1
  V  V11  1  0.12532841  0.50018671  0.12201742  1
  V  V12  1  0.86644142  0.36856295  -0.00572277  1
  V  V13  1  0.12565160  0.25163695  0.37523951  1
  V  V14  1  0.37392699  0.11835175  0.24612958  1
  V  V15  1  0.49650589  0.74855993  0.72943864  1
  V  V16  1  0.25438680  0.13352608  0.87893522  1
  V  V17  1  0.25138927  0.75053833  -0.00013027  1
  V  V18  1  0.73803388  -0.00146193  0.24898773  1
  V  V19  1  0.37908388  0.62675522  0.73722187  1
  V  V20  1  0.63567267  0.12614370  -0.00194248  1
  V  V21  1  0.13055397  0.13229513  0.00231023  1
  V  V22  1  0.38216220  -0.00308483  0.87429915  1
  V  V23  1  0.61336995  0.74992485  0.87815053  1
  V  V24  1  0.12811303  0.75127871  0.37674989  1
  V  V25  1  0.50000137  0.12544275  0.62577346  1
  V  V26  1  0.25310432  -0.00034196  0.74642225  1
  V  V27  1  0.62245157  -0.00038461  0.62765358  1
  V  V28  1  0.62515346  0.12852707  0.50303421  1
  V  V29  1  0.74306212  0.62464391  0.87639762  1
  V  V30  1  0.75742751  0.62359153  0.38465894  1
  V  V31  1  0.61681552  0.63357101  0.49551552  1
  V  V32  1  0.36551063  0.37114862  0.00289966  1
  V  V33  1  0.11389620  0.62645847  0.00371210  1
  V  V34  1  -0.00643112  0.38362877  0.37337914  1
  V  V35  1  0.13201328  0.37375604  0.24064643  1
  V  V36  1  0.86903805  0.60369427  0.24649621  1
  V  V37  1  0.36401504  0.25580596  0.12806554  1
  V  V38  1  0.75165959  0.12817988  0.37728009  1
  V  V39  1  0.25465168  0.37716199  0.61907504  1
  V  V40  1  0.12534944  0.75066381  0.87513678  1
  V  V41  1  0.11799926  0.25064049  0.86904496  1
  V  V42  1  0.50895082  0.50128260  0.00480772  1
  V  V43  1  -0.00034897  0.87500085  0.87588886  1
  V  V44  1  0.75274495  0.25378975  0.51223140  1
  V  V45  1  -0.00113269  0.62760593  0.62326563  1
  V  V46  1  0.62906626  0.37388626  0.74362709  1
  V  V47  1  0.24997188  0.49898446  0.74930249  1
  V  V48  1  0.50579198  0.00164059  0.00606795  1
  V  V49  1  0.63865385  0.24850651  0.87976831  1
  V  V50  1  0.50532458  0.75469466  0.26660133  1
  V  V51  1  0.25107380  0.62508820  0.87588519  1
  V  V52  1  0.12278427  0.49913033  0.62238227  1
  V  V53  1  0.51493166  0.62678618  0.12514437  1
  V  V54  1  0.37595302  0.86094162  0.49693590  1
  V  V55  1  0.25469454  0.88077910  0.12931853  1
  V  V56  1  0.88154943  0.12989807  0.75019931  1
  V  V57  1  0.25742523  0.25369106  0.49532466  1
  V  V58  1  0.74377212  0.74162998  0.00275350  1
  V  V59  1  0.12814690  0.87850387  0.25027782  1
  V  V60  1  0.49519805  -0.00244578  0.49075636  1
  V  V61  1  0.50027150  0.25260438  0.75395096  1
  V  V62  1  0.12793160  0.63127562  0.49967567  1
  V  V63  1  0.25504209  0.85999127  0.62148608  1
  V  V64  1  0.12937263  -0.00024216  0.12653752  1
  V  V65  1  0.37687402  0.12616519  0.75080978  1
  V  V66  1  0.74854379  0.00460103  0.75432679  1
  V  V67  1  0.74722320  0.87149425  0.62317828  1
  V  V68  1  0.75066439  0.49745118  0.74506916  1
  V  V69  1  0.61900399  0.50509299  0.62211199  1
  V  V70  1  -0.00612078  0.74364508  0.24346420  1
  V  V71  1  0.73557213  0.87477104  0.12759021  1
  V  V72  1  -0.00407276  0.25095494  0.24910759  1
  V  V73  1  0.87082333  0.38486872  0.50555543  1
  V  V74  1  0.50804035  0.13567034  0.12840704  1
  V  V75  1  0.24930982  0.62516728  0.37023110  1
  V  V76  1  0.12671773  0.87508710  0.75072745  1
  V  V77  1  0.87101725  0.74967507  0.61433258  1
  V  V78  1  0.37687940  0.25499593  0.62194387  1
  V  V79  1  0.00215831  0.00305449  0.50273549  1
  V  V80  1  0.61854628  0.87449464  0.75387318  1
  V  V81  1  0.87184690  0.87263052  0.00471435  1
  V  V82  1  0.37766593  0.74635208  0.12801418  1
  V  V83  1  0.87462119  -0.00131545  0.37555342  1
  V  V84  1  0.86852908  0.00397636  0.87776144  1
  Zn  Zn85  1  0.87411469  0.74218255  0.12467722  1
  Zn  Zn86  1  0.87132105  0.87283474  0.49917424  1
  Zn  Zn87  1  -0.00157170  0.75293822  0.74886493  1
  Zn  Zn88  1  0.00899904  0.13119158  0.63186145  1
  Zn  Zn89  1  0.63822876  0.50709231  0.12909429  1
  Zn  Zn90  1  0.88485231  0.25825060  0.63087667  1
  Zn  Zn91  1  0.12773498  0.12578289  0.50381538  1
  Zn  Zn92  1  -0.00357523  0.49808390  0.00101929  1
  Zn  Zn93  1  0.62109719  0.87364905  0.27343327  1
  Zn  Zn94  1  0.61348807  0.38437313  0.25024026  1
  Zn  Zn95  1  -0.00437551  0.50480376  0.49376574  1
  Zn  Zn96  1  0.11700692  0.36377954  0.74014308  1
  Zn  Zn97  1  0.87004690  0.24455939  0.11349959  1
  Zn  Zn98  1  0.25301378  0.49596768  0.24240743  1
  Zn  Zn99  1  0.12631502  -0.00067840  0.62362696  1
  Zn  Zn100  1  0.49081944  0.49472719  0.50467214  1
  Zn  Zn101  1  0.50218340  0.37555937  0.87985725  1
  Zn  Zn102  1  0.37311988  -0.00695735  0.36902295  1
  Zn  Zn103  1  -0.00158335  0.38001771  0.87137756  1
  Zn  Zn104  1  0.87732518  0.50228814  0.87651128  1
  Zn  Zn105  1  0.37664159  0.62321519  0.25083421  1
  Zn  Zn106  1  0.49109934  0.36759298  0.37685675  1
  Zn  Zn107  1  0.18975570  0.18891842  0.18927320  1
  Zn  Zn108  1  0.18963877  0.18553962  0.68524197  1
  Zn  Zn109  1  0.18573289  0.68951918  0.18601741  1
  Zn  Zn110  1  0.18733201  0.68519366  0.69080984  1
  Zn  Zn111  1  0.69190184  0.19069245  0.18458069  1
  Zn  Zn112  1  0.69150943  0.18640775  0.69145931  1
  Zn  Zn113  1  0.69112138  0.68856068  0.19939464  1
  Zn  Zn114  1  0.68364940  0.68846690  0.68466918  1
  Zn  Zn115  1  0.31594326  0.30857482  0.30640566  1
  Zn  Zn116  1  0.30987187  0.31620749  0.81242911  1
  Zn  Zn117  1  0.31303209  0.81006157  0.31308625  1
  Zn  Zn118  1  0.31759599  0.81159728  0.81073055  1
  Zn  Zn119  1  0.81267768  0.31355382  0.31757647  1
  Zn  Zn120  1  0.81258245  0.31376800  0.81283240  1
  Zn  Zn121  1  0.80515499  0.80850247  0.31722466  1
  Zn  Zn122  1  0.80835186  0.81281005  0.81324610  1
  Zn  Zn123  1  0.18744439  0.43814039  0.43545270  1
  Zn  Zn124  1  0.18729496  0.43778647  0.93938388  1
  Zn  Zn125  1  0.19010143  0.93559397  0.44008390  1
  Zn  Zn126  1  0.19302479  0.94097842  0.93773340  1
  Zn  Zn127  1  0.69200616  0.44252166  0.43441487  1
  Zn  Zn128  1  0.68922582  0.43565801  0.93709274  1
  Zn  Zn129  1  0.68925297  0.94309255  0.44282928  1
  Zn  Zn130  1  0.68557011  0.93397893  0.93848343  1
  Zn  Zn131  1  0.31634464  0.06361093  0.06286400  1
  Zn  Zn132  1  0.31347379  0.06398892  0.56043826  1
  Zn  Zn133  1  0.31052515  0.55980369  0.06285204  1
  Zn  Zn134  1  0.30749331  0.56600018  0.55677058  1
  Zn  Zn135  1  0.81190897  0.05854369  0.06791316  1
  Zn  Zn136  1  0.81293940  0.06236120  0.56572056  1
  Zn  Zn137  1  0.81615295  0.55717787  0.06505359  1
  Zn  Zn138  1  0.80538960  0.56184747  0.56268560  1
  Zn  Zn139  1  0.44542379  0.43851873  0.19655062  1
  Zn  Zn140  1  0.43842650  0.43703584  0.68990376  1
  Zn  Zn141  1  0.44355399  0.93816612  0.18624654  1
  Zn  Zn142  1  0.43901108  0.93161574  0.68196113  1
  Zn  Zn143  1  0.94244335  0.43326729  0.17540219  1
  Zn  Zn144  1  0.94092891  0.43873352  0.68950265  1
  Zn  Zn145  1  0.93596852  0.93426712  0.18873753  1
  Zn  Zn146  1  0.93658406  0.93881387  0.68765725  1
  Zn  Zn147  1  0.06451886  0.06220682  0.31433810  1
  Zn  Zn148  1  0.06383118  0.06087418  0.81560523  1
  Zn  Zn149  1  0.06290590  0.56286081  0.30606268  1
  Zn  Zn150  1  0.06024346  0.56017925  0.81084333  1
  Zn  Zn151  1  0.56204483  0.06989773  0.31322798  1
  Zn  Zn152  1  0.56278571  0.06510992  0.81761501  1
  Zn  Zn153  1  0.56311533  0.56304211  0.31293991  1
  Zn  Zn154  1  0.56094122  0.56461406  0.81167584  1
  Zn  Zn155  1  0.43722211  0.18475615  0.43636868  1
  Zn  Zn156  1  0.44139374  0.18958127  0.94155056  1
  Zn  Zn157  1  0.43547041  0.67596415  0.44317086  1
  Zn  Zn158  1  0.43784787  0.68235884  0.93974258  1
  Zn  Zn159  1  0.93844676  0.19142713  0.44220043  1
  Zn  Zn160  1  0.93710070  0.18514064  0.93622538  1
  Zn  Zn161  1  0.93836486  0.68500288  0.43177631  1
  Zn  Zn162  1  0.93342097  0.68951663  0.93464305  1
  Zn  Zn163  1  0.05762681  0.31366847  0.05863186  1
  Zn  Zn164  1  0.06030745  0.31178099  0.55937975  1
  Zn  Zn165  1  0.06316524  0.81179192  0.06371868  1
  Zn  Zn166  1  0.06135970  0.81567824  0.56285396  1
  Zn  Zn167  1  0.56267880  0.31529744  0.06249830  1
  Zn  Zn168  1  0.56186332  0.31938832  0.55796997  1
  Zn  Zn169  1  0.56109984  0.81123747  0.06316571  1
  Zn  Zn170  1  0.56311760  0.81029683  0.45168123  1
  O  O171  1  0.12395711  0.12007804  0.11968701  1
  O  O172  1  0.12621672  0.11713479  0.62252942  1
  O  O173  1  0.12851898  0.62063415  0.11307635  1
  O  O174  1  0.12205425  0.62259328  0.61633174  1
  O  O175  1  0.61402871  0.13292846  0.11833514  1
  O  O176  1  0.62004299  0.12099680  0.62329844  1
  O  O177  1  0.61742322  0.62965211  0.12552607  1
  O  O178  1  0.62926772  0.61040060  0.61974647  1
  O  O179  1  0.36624570  0.38800836  0.37271205  1
  O  O180  1  0.37695241  0.38053334  0.88510643  1
  O  O181  1  0.36173999  0.87817193  0.39169565  1
  O  O182  1  0.37021983  0.88440434  0.88489081  1
  O  O183  1  0.88514169  0.37064259  0.38613594  1
  O  O184  1  0.87417632  0.37776027  0.88299128  1
  O  O185  1  0.87654789  0.88198006  0.37717134  1
  O  O186  1  0.87746452  0.87959985  0.88659799  1
  O  O187  1  0.24957055  0.01435323  0.37852742  1
  O  O188  1  0.26142406  0.00694013  0.86535408  1
  O  O189  1  0.25423412  0.50786335  0.37042476  1
  O  O190  1  0.25521783  0.50498443  0.86932356  1
  O  O191  1  0.75840382  0.00790875  0.37118359  1
  O  O192  1  0.76110567  -0.00762572  0.87065360  1
  O  O193  1  0.74334178  0.52195306  0.37234480  1
  O  O194  1  0.74786522  0.50956799  0.86542952  1
  O  O195  1  0.23494189  0.50283138  0.12614469  1
  O  O196  1  0.24444409  0.49348749  0.62597929  1
  O  O197  1  0.24798562  0.98743379  0.12041180  1
  O  O198  1  0.25367130  0.99635438  0.63801471  1
  O  O199  1  0.75046623  0.47901114  0.11706532  1
  O  O200  1  0.73888401  0.50216257  0.63860818  1
  O  O201  1  0.75601586  0.98808218  0.13949511  1
  O  O202  1  0.74323211  0.99542594  0.63534707  1
  O  O203  1  0.00439102  0.36611663  0.25486184  1
  O  O204  1  0.00738607  0.38142029  0.75668433  1
  O  O205  1  0.00697048  0.86726183  0.25543959  1
  O  O206  1  0.00773451  0.87697984  0.75752199  1
  O  O207  1  0.49987761  0.36811275  0.26266881  1
  O  O208  1  0.50800938  0.36764966  0.75457319  1
  O  O209  1  0.50103634  0.85977718  0.24702376  1
  O  O210  1  0.50599617  0.86233652  0.74733607  1
  O  O211  1  0.49547220  0.12291449  0.23435477  1
  O  O212  1  0.49558493  0.13184668  0.74564578  1
  O  O213  1  0.49655831  0.64027382  0.24304302  1
  O  O214  1  0.49287770  0.63784555  0.75200592  1
  O  O215  1  0.99657626  0.13065184  0.24644244  1
  O  O216  1  0.98523254  0.11567269  0.75188669  1
  O  O217  1  0.98855492  0.63803388  0.25743159  1
  O  O218  1  0.98940153  0.62801615  0.74210516  1
  O  O219  1  0.37978119  0.26315266  0.00754109  1
  O  O220  1  0.36513941  0.24644874  0.50498853  1
  O  O221  1  0.37287313  0.75788665  0.00581332  1
  O  O222  1  0.37864577  0.76202630  0.49789167  1
  O  O223  1  0.87868718  0.26147204  -0.00366605  1
  O  O224  1  0.86701848  0.25969287  0.50102383  1
  O  O225  1  0.86540262  0.75706155  0.00238821  1
  O  O226  1  0.87888829  0.75040778  0.51073191  1
  O  O227  1  0.13547060  0.24933097  0.48878248  1
  O  O228  1  0.12361267  0.23664595  0.99318822  1
  O  O229  1  0.11772225  0.74454287  0.48912350  1
  O  O230  1  0.13113847  0.74563727  0.99584790  1
  O  O231  1  0.63571904  0.24616847  0.49762789  1
  O  O232  1  0.61902444  0.24420984  0.98565418  1
  O  O233  1  0.61774345  0.73130984  0.51435977  1
  O  O234  1  0.63411349  0.75741571  0.99131426  1
  O  O235  1  0.49114187  0.23757654  0.11785104  1
  O  O236  1  0.49797812  0.24776217  0.63545236  1
  O  O237  1  0.49227838  0.74263647  0.12550450  1
  O  O238  1  0.49895717  0.74925733  0.63473842  1
  O  O239  1  0.99786326  0.24165127  0.13358127  1
  O  O240  1  0.99683480  0.24303651  0.61825248  1
  O  O241  1  0.99897827  0.75407077  0.14018328  1
  O  O242  1  0.99102384  0.74620693  0.62764787  1
  O  O243  1  0.00883834  0.25533477  0.36884610  1
  O  O244  1  0.01679214  0.24498589  0.87489929  1
  O  O245  1  0.00828707  0.75599020  0.36587917  1
  O  O246  1  0.00539279  0.75856686  0.87300479  1
  O  O247  1  0.51973006  0.24469184  0.38323509  1
  O  O248  1  0.50438366  0.24957725  0.86276052  1
  O  O249  1  0.49621882  0.74757802  0.36932413  1
  O  O250  1  0.51185061  0.74572638  0.87781904  1
  O  O251  1  0.25005359  0.13467089  0.49040448  1
  O  O252  1  0.24251431  0.11546103  0.99005522  1
  O  O253  1  0.23530657  0.62609472  0.48772512  1
  O  O254  1  0.24567844  0.63284294  0.99230820  1
  O  O255  1  0.74691248  0.13200356  0.49713118  1
  O  O256  1  0.73461069  0.11673132  1.00851834  1
  O  O257  1  0.74136455  0.62578146  0.49234983  1
  O  O258  1  0.75616275  0.63454228  0.99327523  1
  O  O259  1  0.26672493  0.37915878  -0.00032727  1
  O  O260  1  0.24627633  0.36613002  0.50681077  1
  O  O261  1  0.26115258  0.87105684  0.00650205  1
  O  O262  1  0.25830463  0.87801816  0.51439453  1
  O  O263  1  0.76261937  0.37315264  0.00077100  1
  O  O264  1  0.76378661  0.36948925  0.49445879  1
  O  O265  1  0.75492085  0.86817004  0.00769897  1
  O  O266  1  0.75348842  0.88401169  0.51934719  1
  O  O267  1  0.12560362  0.49059282  0.24112757  1
  O  O268  1  0.13322720  0.50790058  0.73400267  1
  O  O269  1  0.12012309  0.98622655  0.24437675  1
  O  O270  1  0.13739166  0.99285499  0.75383125  1
  O  O271  1  0.61494877  0.49894784  0.24003427  1
  O  O272  1  0.62880998  0.49406533  0.74396983  1
  O  O273  1  0.63531938  0.99882357  0.25801216  1
  O  O274  1  0.62915157  0.99455872  0.75210037  1
  O  O275  1  0.37996120  0.01234996  0.24938241  1
  O  O276  1  0.37313950  0.00271893  0.75648724  1
  O  O277  1  0.36896419  0.50450138  0.25963316  1
  O  O278  1  0.37165300  0.50604413  0.75805918  1
  O  O279  1  0.87009579  0.00155906  0.26154789  1
  O  O280  1  0.86729926  0.00345722  0.75954747  1
  O  O281  1  0.88463271  0.50652866  0.24678069  1
  O  O282  1  0.86614302  0.51294957  0.74827268  1
  O  O283  1  0.11894697  0.36489971  0.36781461  1
  O  O284  1  0.12997904  0.35631565  0.87982523  1
  O  O285  1  0.12317986  0.86940737  0.36789445  1
  O  O286  1  0.12242214  0.87111354  0.87225245  1
  O  O287  1  0.63340562  0.36101505  0.37451217  1
  O  O288  1  0.62337672  0.36341584  0.86757688  1
  O  O289  1  0.62305971  0.87621021  0.38626856  1
  O  O290  1  0.63070023  0.86524099  0.86190693  1
  O  O291  1  0.38273795  0.13393671  0.12711991  1
  O  O292  1  0.37941338  0.13385066  0.63214659  1
  O  O293  1  0.37338461  0.63874061  0.12572752  1
  O  O294  1  0.36772015  0.61966227  0.63805217  1
  O  O295  1  0.88215294  0.12489004  0.13259379  1
  O  O296  1  0.87655268  0.12018058  0.64299932  1
  O  O297  1  0.87416758  0.62531009  0.14085002  1
  O  O298  1  0.87569070  0.63207406  0.62959053  1
  O  O299  1  0.26546789  0.24439170  0.12070230  1
  O  O300  1  0.25452408  0.25774666  0.61645767  1
  O  O301  1  0.25678774  0.76010623  0.11982098  1
  O  O302  1  0.24896026  0.76181859  0.62929472  1
  O  O303  1  0.75580887  0.26339967  0.12544434  1
  O  O304  1  0.75583946  0.24646286  0.61523800  1
  O  O305  1  0.75056213  0.75622776  0.11953014  1
  O  O306  1  0.75809810  0.75995964  0.63342310  1
  O  O307  1  0.24564616  0.24523427  0.37935937  1
  O  O308  1  0.24673564  0.23705124  0.87327658  1
  O  O309  1  0.23481811  0.74358771  0.36913372  1
  O  O310  1  0.24660721  0.74629380  0.88014372  1
  O  O311  1  0.74407309  0.24354153  0.38490658  1
  O  O312  1  0.73655036  0.24770545  0.87141454  1
  O  O313  1  0.74416526  0.72538022  0.36126904  1
  O  O314  1  0.74090981  0.74415499  0.88213308  1
  O  O315  1  0.00840977  0.11811343  0.00575860  1
  O  O316  1  0.00288210  0.11174598  0.49486430  1
  O  O317  1  0.01168112  0.63051494  -0.00429307  1
  O  O318  1  0.00923971  0.62403941  0.50310035  1
  O  O319  1  0.50693894  0.11978563  0.00951629  1
  O  O320  1  0.50328712  0.11913261  0.50881686  1
  O  O321  1  0.49440793  0.61471050  0.01272586  1
  O  O322  1  0.51225409  0.61333100  0.50098728  1
  O  O323  1  0.50173138  0.38222555  0.49010835  1
  O  O324  1  0.49095287  0.38452711  1.00037325  1
  O  O325  1  0.48377981  0.88285392  0.50392825  1
  O  O326  1  0.48911789  0.88429657  1.00727387  1
  O  O327  1  0.98954143  0.37862897  0.49009805  1
  O  O328  1  0.98676174  0.37533088  0.99426748  1
  O  O329  1  0.99672244  0.88593491  0.49307923  1
  O  O330  1  0.99204382  0.87897028  0.99757722  1
  O  O331  1  0.47924640  0.50582510  0.37433819  1
  O  O332  1  0.49377807  0.50162823  0.88465413  1
  O  O333  1  0.49657149  1.00914092  0.38803961  1
  O  O334  1  0.48729334  1.00665306  0.88404107  1
  O  O335  1  1.00922174  0.48655897  0.37456539  1
  O  O336  1  0.99647975  0.50185038  0.88133009  1
  O  O337  1  0.99302278  0.99370535  0.37823238  1
  O  O338  1  0.99134056  0.99375335  0.88285577  1
  O  O339  1  0.00655475  0.00372710  0.12114521  1
  O  O340  1  0.00146081  0.00120787  0.61493492  1
  O  O341  1  0.01681180  0.49965386  0.11899961  1
  O  O342  1  0.00844673  0.50965027  0.62052004  1
  O  O343  1  0.49431708  0.01438906  0.11323707  1
  O  O344  1  0.50478697  0.00557627  0.61993224  1
  O  O345  1  0.49423041  0.51288675  0.11898135  1
  O  O346  1  0.51533202  0.49663604  0.62816392  1
  O  O347  1  0.23448259  0.37080365  0.25181893  1
  O  O348  1  0.24277687  0.38210839  0.74083390  1
  O  O349  1  0.24093274  0.86871076  0.24098197  1
  O  O350  1  0.25023374  0.88047929  0.74097399  1
  O  O351  1  0.75205081  0.37357777  0.24057166  1
  O  O352  1  0.74219360  0.38503577  0.75498539  1
  O  O353  1  0.74489103  0.88037418  0.24488364  1
  O  O354  1  0.74489039  0.88534812  0.74517478  1
  O  O355  1  0.25979875  0.12890520  0.25784590  1
  O  O356  1  0.25856822  0.11723456  0.75695466  1
  O  O357  1  0.24709314  0.62582424  0.26064054  1
  O  O358  1  0.25745756  0.62025795  0.75747736  1
  O  O359  1  0.75620359  0.11690176  0.25414939  1
  O  O360  1  0.75784469  0.11029325  0.75014162  1
  O  O361  1  0.76563545  0.61956739  0.25241816  1
  O  O362  1  0.75419626  0.62138592  0.75622225  1
  O  O363  1  0.36825837  0.12599812  0.36326323  1
  O  O364  1  0.37075387  0.12052419  0.87236036  1
  O  O365  1  0.36195417  0.62129222  0.37313514  1
  O  O366  1  0.36823333  0.61803504  0.87046415  1
  O  O367  1  0.87144745  0.11882889  0.37029831  1
  O  O368  1  0.87730229  0.11383337  0.86639142  1
  O  O369  1  0.86749061  0.62509194  0.36435552  1
  O  O370  1  0.86241474  0.62735849  0.86605885  1
  O  O371  1  0.12077471  0.38004850  0.13087572  1
  O  O372  1  0.13379381  0.38399620  0.62123107  1
  O  O373  1  0.13402294  0.87862590  0.13055048  1
  O  O374  1  0.13775438  0.87740119  0.63059855  1
  O  O375  1  0.63934601  0.36900421  0.12815250  1
  O  O376  1  0.62474483  0.38304740  0.63781268  1
  O  O377  1  0.63445784  0.87583565  0.12516822  1
  O  O378  1  0.63313249  0.88309844  0.64152038  1
  O  O379  1  0.11521844  0.25470784  0.25334852  1
  O  O380  1  0.13269555  0.24687760  0.76522988  1
  O  O381  1  0.11374918  0.75777664  0.25370696  1
  O  O382  1  0.12393451  0.75707718  0.75754909  1
  O  O383  1  0.63184645  0.24660771  0.26735291  1
  O  O384  1  0.62087264  0.25516487  0.75648528  1
  O  O385  1  0.60844338  0.75300853  0.24935483  1
  O  O386  1  0.61338198  0.75528944  0.75399886  1
  O  O387  1  0.37440148  0.24005116  0.23448043  1
  O  O388  1  0.38265319  0.24794457  0.74556321  1
  O  O389  1  0.38541712  0.75028901  0.24347385  1
  O  O390  1  0.38872944  0.74257752  0.75377737  1
  O  O391  1  0.88674480  0.24400272  0.25398350  1
  O  O392  1  0.86742904  0.23315344  0.75116135  1
  O  O393  1  0.88880339  0.75553725  0.24889561  1
  O  O394  1  0.87354128  0.74025795  0.74473322  1
  O  O395  1  0.37029812  0.50601652  0.48335818  1
  O  O396  1  0.38051378  0.49079660  0.99655196  1
  O  O397  1  0.38257892  0.99463909  0.49886708  1
  O  O398  1  0.38192736  0.99353800  0.99351262  1
  O  O399  1  0.87439304  0.48913642  0.50166741  1
  O  O400  1  0.87634303  0.48699990  0.99713757  1
  O  O401  1  0.88027464  1.00082725  0.48896941  1
  O  O402  1  0.87858838  0.99403756  0.99469798  1
  O  O403  1  0.12122782  0.00703605  0.00568227  1
  O  O404  1  0.11615417  0.00120602  0.49932361  1
  O  O405  1  0.12524003  0.51075320  0.00343716  1
  O  O406  1  0.12469654  0.50878192  0.50903074  1
  O  O407  1  0.61305000  0.00827736  -0.01152135  1
  O  O408  1  0.61652443  0.00978656  0.50898567  1
  O  O409  1  0.61243474  0.49384605  0.00508294  1
  O  O410  1  0.62975090  0.50265722  0.51529113  1
  O  O411  1  0.37879973  0.36254253  0.11851926  1
  O  O412  1  0.36261129  0.37113597  0.63042004  1
  O  O413  1  0.37053221  0.86716780  0.12026505  1
  O  O414  1  0.36231575  0.87616971  0.61519204  1
  O  O415  1  0.86709086  0.36957951  0.11434489  1
  O  O416  1  0.87928809  0.37670433  0.60979471  1
  O  O417  1  0.86895136  0.87392928  0.11362205  1
  O  O418  1  0.86747923  0.86595460  0.62719750  1
  O  O419  1  0.13292637  0.13749703  0.37124281  1
  O  O420  1  0.13337442  0.13112218  0.88148187  1
  O  O421  1  0.12673521  0.63197640  0.37922073  1
  O  O422  1  0.13250623  0.63224278  0.87943889  1
  O  O423  1  0.63258401  0.13270975  0.38364192  1
  O  O424  1  0.62170655  0.13911319  0.88231857  1
  O  O425  1  0.62718951  0.62335815  0.39170799  1
  O  O426  1  0.63592517  0.63385436  0.86984346  1
