# generated using pymatgen
data_V85Zn86O256
_symmetry_space_group_name_H-M   'P 1'
_cell_length_a   16.93103397
_cell_length_b   16.94380638
_cell_length_c   16.93592142
_cell_angle_alpha   90.00365897
_cell_angle_beta   90.02616401
_cell_angle_gamma   90.09591722
_symmetry_Int_Tables_number   1
_chemical_formula_structural   V85Zn86O256
_chemical_formula_sum   'V85 Zn86 O256'
_cell_volume   4858.50480246
_cell_formula_units_Z   1
loop_
 _symmetry_equiv_pos_site_id
 _symmetry_equiv_pos_as_xyz
  1  'x, y, z'
loop_
 _atom_site_type_symbol
 _atom_site_label
 _atom_site_symmetry_multiplicity
 _atom_site_fract_x
 _atom_site_fract_y
 _atom_site_fract_z
 _atom_site_occupancy
  V  V0  1  0.74782896  0.13157669  0.87584009  1
  V  V1  1  0.50081737  0.75729556  0.74915099  1
  V  V2  1  0.88900061  0.13130092  0.24804292  1
  V  V3  1  0.04905627  0.93774213  0.93694472  1
  V  V4  1  0.86920758  -0.00113613  0.36531647  1
  V  V5  1  0.49334297  -0.00974879  0.50352683  1
  V  V6  1  0.48983919  0.88067082  0.87286962  1
  V  V7  1  0.49880339  0.37385364  0.37647296  1
  V  V8  1  0.14011067  0.37148588  0.74872674  1
  V  V9  1  0.37517648  0.24776480  0.62509739  1
  V  V10  1  0.75173385  0.75081483  0.50000880  1
  V  V11  1  0.87306815  0.37297160  -0.00160398  1
  V  V12  1  0.50839172  0.36869492  0.87771548  1
  V  V13  1  0.37205643  0.74890991  0.10939346  1
  V  V14  1  0.88548699  0.25083338  0.12924640  1
  V  V15  1  0.24183539  0.25376068  -0.00998918  1
  V  V16  1  0.12316810  0.12046189  0.49415360  1
  V  V17  1  0.63285497  0.37511480  0.75269873  1
  V  V18  1  0.48950788  0.12144713  0.12519243  1
  V  V19  1  0.74898705  0.37565601  0.62636719  1
  V  V20  1  0.00238785  0.62273225  0.12269125  1
  V  V21  1  0.37385512  0.49935777  0.37487873  1
  V  V22  1  0.62020186  0.12627572  -0.00471606  1
  V  V23  1  0.00340229  0.49975020  -0.00366577  1
  V  V24  1  0.00280255  0.36496066  0.86891185  1
  V  V25  1  0.49372385  0.24505030  0.25096454  1
  V  V26  1  0.50042655  0.62553709  0.12470289  1
  V  V27  1  0.62244370  0.37431716  0.25097287  1
  V  V28  1  0.00313881  0.75073428  0.25305976  1
  V  V29  1  0.87509792  0.62465158  0.24902741  1
  V  V30  1  0.87881027  0.88214002  0.49829168  1
  V  V31  1  0.11983330  0.37194438  0.24895713  1
  V  V32  1  0.74967115  0.87375491  0.62966759  1
  V  V33  1  0.00225537  0.75827318  0.75753897  1
  V  V34  1  0.37054730  0.24915911  0.12709825  1
  V  V35  1  0.75213644  0.76188631  -0.00005066  1
  V  V36  1  0.26270090  0.61041697  0.87370508  1
  V  V37  1  0.37743269  0.75783488  0.61555417  1
  V  V38  1  0.49914730  0.75097844  0.25064445  1
  V  V39  1  0.62745502  0.63096021  0.00014104  1
  V  V40  1  0.25018024  0.87030631  0.61022297  1
  V  V41  1  0.12204494  -0.00500995  0.62089568  1
  V  V42  1  0.44253565  0.58395274  0.68452693  1
  V  V43  1  0.62606333  -0.00353715  0.63128587  1
  V  V44  1  0.25572847  0.87427056  0.11463547  1
  V  V45  1  0.75300160  -0.00436683  0.75480550  1
  V  V46  1  0.00309160  0.88565269  0.37308147  1
  V  V47  1  0.00018363  0.36843459  0.37569773  1
  V  V48  1  0.24929663  0.63247197  0.37704271  1
  V  V49  1  -0.00135968  0.11899403  0.61802605  1
  V  V50  1  0.75066995  0.62534135  0.87190191  1
  V  V51  1  0.14021732  0.49641550  0.62904480  1
  V  V52  1  0.75006488  0.49960840  0.25022284  1
  V  V53  1  0.49851853  0.50310004  -0.00241294  1
  V  V54  1  0.87596718  0.75579200  0.11980538  1
  V  V55  1  0.13083153  0.72988108  0.88682202  1
  V  V56  1  0.37752621  0.37736661  -0.00321146  1
  V  V57  1  0.25561637  -0.00466032  0.74933304  1
  V  V58  1  0.87428697  0.37485610  0.50072426  1
  V  V59  1  0.74686197  0.24734981  0.49948922  1
  V  V60  1  0.47673758  -0.00355605  -0.00111631  1
  V  V61  1  0.00005695  0.50110213  0.50424611  1
  V  V62  1  0.87691758  0.24682061  0.62557760  1
  V  V63  1  0.23463049  0.13006989  0.87103370  1
  V  V64  1  0.24912039  0.50140481  0.25037580  1
  V  V65  1  0.37090009  0.37310347  0.50195669  1
  V  V66  1  0.51020284  0.24295798  0.75499401  1
  V  V67  1  0.87182461  0.49763617  0.86858730  1
  V  V68  1  0.62849396  0.88308663  0.24844043  1
  V  V69  1  0.12579897  0.50333429  0.11948487  1
  V  V70  1  0.24966681  0.37895151  0.12140075  1
  V  V71  1  0.74443587  0.12112124  0.36181226  1
  V  V72  1  0.13552153  0.87612423  0.24720473  1
  V  V73  1  0.62473712  0.12085410  0.50046069  1
  V  V74  1  0.63039543  0.50665430  0.63034950  1
  V  V75  1  0.24761014  0.25183268  0.50367173  1
  V  V76  1  0.12688193  0.63200073  0.50291693  1
  V  V77  1  0.49981849  0.50714864  0.50173448  1
  V  V78  1  0.37662030  0.12305778  0.75828203  1
  V  V79  1  0.74789123  0.37246214  0.12516939  1
  V  V80  1  0.25829948  0.12483690  0.37252399  1
  V  V81  1  0.74912697  0.62403454  0.37626073  1
  V  V82  1  0.87690134  0.62413293  0.74927166  1
  V  V83  1  0.87306814  -0.00898003  0.89333427  1
  V  V84  1  0.37429925  -0.00729330  0.37073345  1
  Zn  Zn85  1  0.75566343  0.88707043  0.12664895  1
  Zn  Zn86  1  0.37873294  0.49826634  0.85284563  1
  Zn  Zn87  1  0.07004026  0.07988736  0.07251408  1
  Zn  Zn88  1  0.37514267  0.62514809  0.24832389  1
  Zn  Zn89  1  0.12197482  0.24545769  0.37147751  1
  Zn  Zn90  1  0.12908340  0.75237641  0.38093661  1
  Zn  Zn91  1  0.62191620  0.24796352  0.37553571  1
  Zn  Zn92  1  0.00751585  0.24746666  0.74883454  1
  Zn  Zn93  1  0.49826162  0.86968574  0.37928078  1
  Zn  Zn94  1  0.62430981  0.75123532  0.37513677  1
  Zn  Zn95  1  0.62542192  0.50121900  0.12519840  1
  Zn  Zn96  1  0.87861516  0.12244695  0.75322182  1
  Zn  Zn97  1  0.50019529  0.12142756  0.62689959  1
  Zn  Zn98  1  0.00455675  0.62606056  0.62920546  1
  Zn  Zn99  1  0.87663667  0.49909924  0.37538209  1
  Zn  Zn100  1  0.25256444  0.01080929  0.23959311  1
  Zn  Zn101  1  0.87893321  0.75089923  0.62638101  1
  Zn  Zn102  1  0.12702485  0.87399305  0.75599760  1
  Zn  Zn103  1  0.62752961  0.00292980  0.12487634  1
  Zn  Zn104  1  0.62343183  0.62851079  0.50498863  1
  Zn  Zn105  1  0.74306885  0.25099230  -0.00196096  1
  Zn  Zn106  1  0.62863681  0.76375320  0.86488471  1
  Zn  Zn107  1  0.18430014  0.19113659  0.18683335  1
  Zn  Zn108  1  0.18762845  0.18641093  0.68402135  1
  Zn  Zn109  1  0.18846426  0.68851117  0.18627854  1
  Zn  Zn110  1  0.19178262  0.68816810  0.69277265  1
  Zn  Zn111  1  0.68053804  0.18788314  0.18307841  1
  Zn  Zn112  1  0.68998739  0.18290287  0.68870170  1
  Zn  Zn113  1  0.68689740  0.69249128  0.18674021  1
  Zn  Zn114  1  0.68820482  0.69104654  0.69047714  1
  Zn  Zn115  1  0.30925528  0.31245509  0.31353463  1
  Zn  Zn116  1  0.31923343  0.31152871  0.81149852  1
  Zn  Zn117  1  0.31793238  0.81247882  0.31131595  1
  Zn  Zn118  1  0.31369432  0.80466563  0.80811350  1
  Zn  Zn119  1  0.81054405  0.31044770  0.31525570  1
  Zn  Zn120  1  0.81604476  0.30893815  0.81057116  1
  Zn  Zn121  1  0.81173503  0.81081560  0.30990420  1
  Zn  Zn122  1  0.81622269  0.81337314  0.81552405  1
  Zn  Zn123  1  0.18570528  0.43846372  0.43881368  1
  Zn  Zn124  1  0.18742609  0.43867056  0.93230425  1
  Zn  Zn125  1  0.18652330  0.93930010  0.43476474  1
  Zn  Zn126  1  0.21297978  0.94098749  0.93584878  1
  Zn  Zn127  1  0.68537675  0.43810621  0.43922074  1
  Zn  Zn128  1  0.68742413  0.44131731  0.93869406  1
  Zn  Zn129  1  0.68579730  0.93615771  0.43556106  1
  Zn  Zn130  1  0.67646218  0.94242901  0.94033111  1
  Zn  Zn131  1  0.27620585  0.07747618  0.07301964  1
  Zn  Zn132  1  0.31209336  0.06235404  0.56358927  1
  Zn  Zn133  1  0.31049894  0.57044147  0.05330968  1
  Zn  Zn134  1  0.30914771  0.56330203  0.55773344  1
  Zn  Zn135  1  0.80942737  0.06564201  0.06850298  1
  Zn  Zn136  1  0.81185460  0.05924182  0.55761196  1
  Zn  Zn137  1  0.81432645  0.56304846  0.06015498  1
  Zn  Zn138  1  0.81211759  0.56151861  0.56490505  1
  Zn  Zn139  1  0.43700671  0.43797262  0.18589155  1
  Zn  Zn140  1  0.44563017  0.41795939  0.68345489  1
  Zn  Zn141  1  0.43448713  0.93396243  0.18829458  1
  Zn  Zn142  1  0.43570998  0.93431877  0.68854848  1
  Zn  Zn143  1  0.93765091  0.43462963  0.18694838  1
  Zn  Zn144  1  0.94106783  0.43697168  0.68713653  1
  Zn  Zn145  1  0.94084967  0.94025454  0.17349937  1
  Zn  Zn146  1  0.93561891  0.93837998  0.68985006  1
  Zn  Zn147  1  0.04802201  0.04408696  0.25732419  1
  Zn  Zn148  1  0.06232338  0.06285101  0.80157918  1
  Zn  Zn149  1  0.06286629  0.56004871  0.31522938  1
  Zn  Zn150  1  0.06290193  0.55928035  0.80983186  1
  Zn  Zn151  1  0.55461410  0.06210789  0.31302959  1
  Zn  Zn152  1  0.56330045  0.05477899  0.81643216  1
  Zn  Zn153  1  0.56410534  0.56360319  0.31347189  1
  Zn  Zn154  1  0.57103475  0.55927480  0.81833470  1
  Zn  Zn155  1  0.43832521  0.18139637  0.43945408  1
  Zn  Zn156  1  0.43284160  0.18734971  0.93928151  1
  Zn  Zn157  1  0.43576226  0.68684608  0.43613550  1
  Zn  Zn158  1  0.43785328  0.68814857  0.92840287  1
  Zn  Zn159  1  0.93632269  0.18430979  0.43729389  1
  Zn  Zn160  1  0.93451988  0.17556227  0.94242451  1
  Zn  Zn161  1  0.93688241  0.68888818  0.43745675  1
  Zn  Zn162  1  0.94058501  0.68793614  0.93791839  1
  Zn  Zn163  1  0.04003352  0.27199879  0.03738683  1
  Zn  Zn164  1  0.06449203  0.31256155  0.56479308  1
  Zn  Zn165  1  0.06960337  0.80976179  0.06696204  1
  Zn  Zn166  1  0.05796213  0.81316710  0.56557307  1
  Zn  Zn167  1  0.56283166  0.30897435  0.06408174  1
  Zn  Zn168  1  0.56095562  0.31169921  0.56467601  1
  Zn  Zn169  1  0.55909441  0.81709928  0.06033208  1
  Zn  Zn170  1  0.56547533  0.81130883  0.56621208  1
  O  O171  1  0.17178202  0.10492319  0.12120571  1
  O  O172  1  0.11897270  0.11720384  0.61571109  1
  O  O173  1  0.11934715  0.61168250  0.13076143  1
  O  O174  1  0.12798219  0.61472554  0.62082665  1
  O  O175  1  0.60503793  0.12491087  0.12000369  1
  O  O176  1  0.62611212  0.11448753  0.61750167  1
  O  O177  1  0.62040030  0.62432257  0.11635435  1
  O  O178  1  0.63558868  0.61097111  0.62437031  1
  O  O179  1  0.38033827  0.38034593  0.38047333  1
  O  O180  1  0.39081256  0.37878732  0.87621882  1
  O  O181  1  0.37661216  0.88764636  0.37883134  1
  O  O182  1  0.38879654  0.86645683  0.87429462  1
  O  O183  1  0.88099602  0.37634071  0.38200687  1
  O  O184  1  0.87892472  0.38184861  0.87593083  1
  O  O185  1  0.87832166  0.88266548  0.37534406  1
  O  O186  1  0.87194306  0.89174916  0.87885671  1
  O  O187  1  0.26339933  0.00623908  0.37972473  1
  O  O188  1  0.24996819  0.01727089  0.86228785  1
  O  O189  1  0.25335087  0.50545165  0.36723650  1
  O  O190  1  0.25997000  0.50422218  0.87214656  1
  O  O191  1  0.75720194  0.00829788  0.37691619  1
  O  O192  1  0.75672207  0.00368187  0.87246127  1
  O  O193  1  0.75180448  0.50676768  0.37071433  1
  O  O194  1  0.76054235  0.51079956  0.88043226  1
  O  O195  1  0.24577829  0.50006047  0.12931209  1
  O  O196  1  0.23877420  0.49750843  0.62162654  1
  O  O197  1  0.27313693  0.97690692  0.12950229  1
  O  O198  1  0.24421040  0.99167550  0.62961050  1
  O  O199  1  0.74915373  0.48976861  0.12960288  1
  O  O200  1  0.74211129  0.48787227  0.62087981  1
  O  O201  1  0.74192100  0.99866184  0.12430589  1
  O  O202  1  0.74675381  0.99413338  0.63304118  1
  O  O203  1  0.00948650  0.38672914  0.26281938  1
  O  O204  1  0.00689823  0.37171942  0.75507620  1
  O  O205  1  0.00980650  0.86656208  0.25362146  1
  O  O206  1  0.00032335  0.86131700  0.74932424  1
  O  O207  1  0.50295443  0.36690101  0.25442622  1
  O  O208  1  0.51324926  0.36341118  0.75803796  1
  O  O209  1  0.50646602  0.86623223  0.25279457  1
  O  O210  1  0.49895894  0.87336273  0.76236893  1
  O  O211  1  0.49883204  0.13719492  0.24260820  1
  O  O212  1  0.49593786  0.12756153  0.75144146  1
  O  O213  1  0.50125776  0.63025412  0.24190604  1
  O  O214  1  0.50480479  0.63119111  0.75231488  1
  O  O215  1  0.98637498  0.14066100  0.26639453  1
  O  O216  1  0.99779048  0.12924748  0.73406295  1
  O  O217  1  0.99601508  0.62984342  0.24612318  1
  O  O218  1  0.99265900  0.63209188  0.75030988  1
  O  O219  1  0.37000444  0.25937409  0.00802877  1
  O  O220  1  0.37158815  0.25118973  0.50704339  1
  O  O221  1  0.38131734  0.74598048  0.01149103  1
  O  O222  1  0.38049969  0.74650360  0.51630307  1
  O  O223  1  0.86790395  0.25656966  0.01147776  1
  O  O224  1  0.86845567  0.25326335  0.50859976  1
  O  O225  1  0.86686511  0.74365125  0.00860462  1
  O  O226  1  0.86631670  0.75897279  0.50121982  1
  O  O227  1  0.13344825  0.24304420  0.50060427  1
  O  O228  1  0.14462613  0.27262775  0.99562606  1
  O  O229  1  0.11745019  0.73537660  0.50147376  1
  O  O230  1  0.11529003  0.74532538  0.98408758  1
  O  O231  1  0.62706936  0.23958278  0.50028198  1
  O  O232  1  0.62310635  0.23360771  1.00411883  1
  O  O233  1  0.63863424  0.74832807  0.50030899  1
  O  O234  1  0.63109623  0.74098593  1.00161848  1
  O  O235  1  0.48963093  0.24519966  0.13137754  1
  O  O236  1  0.49455320  0.24466071  0.63402231  1
  O  O237  1  0.49160414  0.74438326  0.12875315  1
  O  O238  1  0.48930736  0.75595966  0.63087199  1
  O  O239  1  0.98272769  0.27358810  0.13798300  1
  O  O240  1  0.99137337  0.24178723  0.62187914  1
  O  O241  1  0.99618227  0.74448653  0.13452210  1
  O  O242  1  0.99794428  0.74575531  0.63984542  1
  O  O243  1  0.00178212  0.26470124  0.38466138  1
  O  O244  1  -0.01046334  0.26267441  0.87087988  1
  O  O245  1  -0.00234573  0.75662896  0.36263414  1
  O  O246  1  0.01058899  0.74362005  0.86480035  1
  O  O247  1  0.49696712  0.25321148  0.36700489  1
  O  O248  1  0.49771735  0.25673062  0.86766616  1
  O  O249  1  0.50251976  0.74891670  0.36678141  1
  O  O250  1  0.50275565  0.75984434  0.86693061  1
  O  O251  1  0.24366750  0.13111694  0.49512901  1
  O  O252  1  0.25429625  0.13792588  0.97759309  1
  O  O253  1  0.23898555  0.61941682  0.48891771  1
  O  O254  1  0.24955318  0.62559318  0.97659911  1
  O  O255  1  0.73918031  0.12648310  0.49249929  1
  O  O256  1  0.73907325  0.12647145  0.99293658  1
  O  O257  1  0.75255626  0.63251152  0.49323095  1
  O  O258  1  0.74445547  0.63155815  0.99227589  1
  O  O259  1  0.26125962  0.37511691  -0.00031192  1
  O  O260  1  0.25825037  0.36541191  0.49331034  1
  O  O261  1  0.25066933  0.87123345  0.01514721  1
  O  O262  1  0.24326344  0.87343858  0.51100170  1
  O  O263  1  0.75256231  0.37381893  0.00760311  1
  O  O264  1  0.75405849  0.36759250  0.50436422  1
  O  O265  1  0.74126169  0.86373894  0.00195965  1
  O  O266  1  0.75765195  0.86867370  0.50430986  1
  O  O267  1  0.13229427  0.49380154  0.24571506  1
  O  O268  1  0.12108776  0.49107292  0.73499497  1
  O  O269  1  0.14059505  0.98041752  0.26447569  1
  O  O270  1  0.13518699  0.99818761  0.73716472  1
  O  O271  1  0.63082821  0.49143571  0.24897772  1
  O  O272  1  0.62106844  0.48779589  0.74223971  1
  O  O273  1  0.61412668  0.98588912  0.24909192  1
  O  O274  1  0.63611612  1.00306362  0.73929080  1
  O  O275  1  0.37546889  -0.00102994  0.26691240  1
  O  O276  1  0.36440047  0.00967435  0.74021326  1
  O  O277  1  0.36638542  0.50105772  0.25489234  1
  O  O278  1  0.39263439  0.50631651  0.73529107  1
  O  O279  1  0.87602047  0.01620740  0.25814652  1
  O  O280  1  0.86413005  0.00162009  0.75667882  1
  O  O281  1  0.86820136  0.50669844  0.25111061  1
  O  O282  1  0.88044392  0.50641065  0.76076144  1
  O  O283  1  0.11751430  0.37475779  0.36852997  1
  O  O284  1  0.11682256  0.38296841  0.85685043  1
  O  O285  1  0.11779458  0.86961935  0.37231349  1
  O  O286  1  0.11878392  0.88355958  0.87940518  1
  O  O287  1  0.61671497  0.37247625  0.36941766  1
  O  O288  1  0.61733081  0.37849627  0.86928196  1
  O  O289  1  0.62197088  0.87230680  0.36334136  1
  O  O290  1  0.60377541  0.87528047  0.88351888  1
  O  O291  1  0.37957768  0.13622812  0.11898640  1
  O  O292  1  0.37740704  0.13353003  0.63354655  1
  O  O293  1  0.38017247  0.63343016  0.12544041  1
  O  O294  1  0.37329387  0.63345150  0.62415638  1
  O  O295  1  0.87300851  0.13539769  0.14031780  1
  O  O296  1  0.88140357  0.12900866  0.62015729  1
  O  O297  1  0.88166347  0.63186545  0.13044280  1
  O  O298  1  0.87288581  0.62517603  0.64054614  1
  O  O299  1  0.25643064  0.26050308  0.11642829  1
  O  O300  1  0.25922631  0.24373074  0.61200028  1
  O  O301  1  0.26559564  0.75181824  0.12750578  1
  O  O302  1  0.26442584  0.75838509  0.63353867  1
  O  O303  1  0.75219547  0.26263870  0.12637350  1
  O  O304  1  0.75561414  0.25351913  0.61909521  1
  O  O305  1  0.76014060  0.74980363  0.11656887  1
  O  O306  1  0.75540332  0.75766254  0.61977766  1
  O  O307  1  0.25165934  0.24234880  0.38688886  1
  O  O308  1  0.25505885  0.24136928  0.87627343  1
  O  O309  1  0.25110471  0.73580119  0.36900646  1
  O  O310  1  0.23137968  0.75168407  0.87244142  1
  O  O311  1  0.74524181  0.24065023  0.38339676  1
  O  O312  1  0.75488748  0.23529145  0.87515563  1
  O  O313  1  0.75001888  0.74211149  0.38286673  1
  O  O314  1  0.74872282  0.74542751  0.88264124  1
  O  O315  1  0.01451605  0.16115399  0.01635886  1
  O  O316  1  0.00767994  0.12671342  0.50846286  1
  O  O317  1  -0.00687663  0.60748983  0.00632902  1
  O  O318  1  0.00517688  0.61753339  0.50202149  1
  O  O319  1  0.49917390  0.11762484  0.00461130  1
  O  O320  1  0.51243884  0.11493259  0.50263729  1
  O  O321  1  0.50795135  0.62020061  0.00126224  1
  O  O322  1  0.50379022  0.61138920  0.49466881  1
  O  O323  1  0.49325450  0.38304579  0.49674847  1
  O  O324  1  0.50087453  0.38140634  0.99411078  1
  O  O325  1  0.50975623  0.88710810  0.49815381  1
  O  O326  1  0.49386998  0.88995067  0.99615488  1
  O  O327  1  0.99562559  0.38204870  0.49679539  1
  O  O328  1  0.99243485  0.37867909  0.98985024  1
  O  O329  1  0.98898974  0.86759206  0.48782304  1
  O  O330  1  1.00215779  0.87955363  1.00338214  1
  O  O331  1  0.49530497  0.49454887  0.38260948  1
  O  O332  1  0.50002667  0.49191121  0.88252468  1
  O  O333  1  0.48781100  0.99971322  0.38435989  1
  O  O334  1  0.49390354  0.99196845  0.88501243  1
  O  O335  1  1.00012158  0.49202227  0.38898851  1
  O  O336  1  0.99316189  0.49193158  0.88041014  1
  O  O337  1  0.99255219  0.98791216  0.36238041  1
  O  O338  1  0.99014907  1.00193831  0.87392563  1
  O  O339  1  0.01377317  0.01699731  0.15063751  1
  O  O340  1  0.00832422  0.00602048  0.62886154  1
  O  O341  1  0.00696777  0.50041334  0.11691639  1
  O  O342  1  0.00569493  0.50290951  0.61464432  1
  O  O343  1  0.49259274  0.00682661  0.11630025  1
  O  O344  1  0.50900467  -0.00140016  0.62125022  1
  O  O345  1  0.50249932  0.50764787  0.11740070  1
  O  O346  1  0.50240674  0.50895514  0.62260606  1
  O  O347  1  0.24489702  0.38670768  0.24637420  1
  O  O348  1  0.23934217  0.37360182  0.75386004  1
  O  O349  1  0.24735662  0.86994764  0.24241128  1
  O  O350  1  0.24879118  0.88385175  0.74603213  1
  O  O351  1  0.74341526  0.37909568  0.24544309  1
  O  O352  1  0.73840346  0.36696006  0.74659678  1
  O  O353  1  0.73225559  0.86653086  0.24792764  1
  O  O354  1  0.75597193  0.88104860  0.74138861  1
  O  O355  1  0.24692041  0.12736556  0.26958878  1
  O  O356  1  0.25652730  0.12206006  0.75402711  1
  O  O357  1  0.24897665  0.61377597  0.25607307  1
  O  O358  1  0.24472420  0.63016534  0.77367182  1
  O  O359  1  0.74754257  0.13082919  0.26034564  1
  O  O360  1  0.75226618  0.11476856  0.75853934  1
  O  O361  1  0.75319087  0.62123023  0.25662449  1
  O  O362  1  0.75840766  0.63350956  0.76450959  1
  O  O363  1  0.36771045  0.11210665  0.38212906  1
  O  O364  1  0.36909174  0.13125699  0.86024548  1
  O  O365  1  0.36642031  0.61601856  0.37386024  1
  O  O366  1  0.36956586  0.61677306  0.87241969  1
  O  O367  1  0.86565236  0.12020575  0.36801767  1
  O  O368  1  0.86659434  0.11397475  0.87442655  1
  O  O369  1  0.86510962  0.62330079  0.36912248  1
  O  O370  1  0.87108012  0.61837118  0.86786329  1
  O  O371  1  0.13339016  0.38963842  0.13472622  1
  O  O372  1  0.12273700  0.38765834  0.63329326  1
  O  O373  1  0.14520482  0.86451453  0.13391750  1
  O  O374  1  0.13021501  0.88011939  0.62740933  1
  O  O375  1  0.63044857  0.37673080  0.13169045  1
  O  O376  1  0.62780433  0.38210206  0.63325498  1
  O  O377  1  0.62183504  0.87572445  0.13815642  1
  O  O378  1  0.64124335  0.88300037  0.62004764  1
  O  O379  1  0.13215833  0.26701114  0.25260125  1
  O  O380  1  0.12472770  0.26714665  0.73718169  1
  O  O381  1  0.11853289  0.75561208  0.25383658  1
  O  O382  1  0.11444158  0.75210071  0.75994775  1
  O  O383  1  0.61251593  0.25766777  0.25092596  1
  O  O384  1  0.61557998  0.25364345  0.74431297  1
  O  O385  1  0.61342730  0.75627436  0.24982325  1
  O  O386  1  0.60868154  0.74898986  0.74633365  1
  O  O387  1  0.37915219  0.25852322  0.23670626  1
  O  O388  1  0.38666203  0.24453573  0.74260993  1
  O  O389  1  0.38829364  0.74541395  0.24552406  1
  O  O390  1  0.39068615  0.74824888  0.73910874  1
  O  O391  1  0.86584009  0.23800156  0.24567633  1
  O  O392  1  0.87567140  0.24501137  0.73465398  1
  O  O393  1  0.88226037  0.74270123  0.24375849  1
  O  O394  1  0.88642206  0.74308992  0.75400424  1
  O  O395  1  0.38180954  0.49377634  0.49743094  1
  O  O396  1  0.38973203  0.49559930  1.00267141  1
  O  O397  1  0.38636589  1.00427399  0.49639279  1
  O  O398  1  0.38056156  1.00922274  1.00085582  1
  O  O399  1  0.88291461  0.49346893  0.50067209  1
  O  O400  1  0.88094795  0.49242973  0.99056177  1
  O  O401  1  0.87234627  0.98940449  0.48564081  1
  O  O402  1  0.87546302  1.00539893  0.99203480  1
  O  O403  1  0.11483298  -0.00316811  -0.01217097  1
  O  O404  1  0.12850185  0.00656786  0.51100844  1
  O  O405  1  0.11544932  0.49148291  0.00789571  1
  O  O406  1  0.11913325  0.50529299  0.51091168  1
  O  O407  1  0.60955875  0.01354638  0.00422719  1
  O  O408  1  0.62215399  0.00475424  0.50974783  1
  O  O409  1  0.61628627  0.51203050  0.00057743  1
  O  O410  1  0.61493102  0.49748166  0.51186705  1
  O  O411  1  0.36944990  0.37084363  0.11756822  1
  O  O412  1  0.37767833  0.35722469  0.61785196  1
  O  O413  1  0.36952341  0.85643305  0.12944634  1
  O  O414  1  0.36761239  0.86531998  0.62368226  1
  O  O415  1  0.86397672  0.37221393  0.12128643  1
  O  O416  1  0.87011400  0.36702797  0.62093296  1
  O  O417  1  0.87325491  0.86040192  0.13329224  1
  O  O418  1  0.86749881  0.87734384  0.61465611  1
  O  O419  1  0.13279097  0.12587287  0.38938288  1
  O  O420  1  0.13594790  0.13071823  0.86154888  1
  O  O421  1  0.13143887  0.62501365  0.38413807  1
  O  O422  1  0.12783246  0.62672355  0.87708443  1
  O  O423  1  0.62860243  0.12295148  0.38156533  1
  O  O424  1  0.63437112  0.11787491  0.88225054  1
  O  O425  1  0.63843292  0.62562734  0.37925384  1
  O  O426  1  0.63532788  0.62977314  0.88255512  1
