# generated using pymatgen
data_V85Zn86O256
_symmetry_space_group_name_H-M   'P 1'
_cell_length_a   16.94749728
_cell_length_b   16.94648374
_cell_length_c   16.92414863
_cell_angle_alpha   90.00540511
_cell_angle_beta   89.95407554
_cell_angle_gamma   90.09514036
_symmetry_Int_Tables_number   1
_chemical_formula_structural   V85Zn86O256
_chemical_formula_sum   'V85 Zn86 O256'
_cell_volume   4860.61544715
_cell_formula_units_Z   1
loop_
 _symmetry_equiv_pos_site_id
 _symmetry_equiv_pos_as_xyz
  1  'x, y, z'
loop_
 _atom_site_type_symbol
 _atom_site_label
 _atom_site_symmetry_multiplicity
 _atom_site_fract_x
 _atom_site_fract_y
 _atom_site_fract_z
 _atom_site_occupancy
  V  V0  1  0.87233289  0.11011174  0.25131360  1
  V  V1  1  0.63019875  0.12205490  0.49961463  1
  V  V2  1  0.37109946  0.61530502  0.75054449  1
  V  V3  1  0.50972467  0.75955272  0.75950955  1
  V  V4  1  0.37566558  0.00042913  0.37598154  1
  V  V5  1  0.25444225  0.87548048  0.12051610  1
  V  V6  1  0.37554786  0.01213260  0.87783510  1
  V  V7  1  0.62717268  0.11855779  -0.00928260  1
  V  V8  1  0.75456800  0.11029100  0.37236095  1
  V  V9  1  -0.00406063  0.62590589  0.62733757  1
  V  V10  1  0.24300467  0.61453595  0.86902430  1
  V  V11  1  0.50564691  0.24865705  0.74586510  1
  V  V12  1  0.86604128  0.87499616  -0.00197486  1
  V  V13  1  -0.00437968  0.74757993  0.75333714  1
  V  V14  1  0.74908365  0.37615249  0.12715316  1
  V  V15  1  -0.00348495  0.75565895  0.25423504  1
  V  V16  1  0.75597968  0.38084378  0.62202100  1
  V  V17  1  0.49588646  0.37672737  0.88245710  1
  V  V18  1  0.37789548  0.74331747  0.12207052  1
  V  V19  1  0.62660553  0.24876869  0.37748130  1
  V  V20  1  0.36872839  0.49382709  0.37488781  1
  V  V21  1  0.87355298  0.75063868  0.12365616  1
  V  V22  1  -0.00508832  -0.00409535  0.48675006  1
  V  V23  1  0.76711360  0.51106695  0.75971090  1
  V  V24  1  0.25053751  0.00038654  0.25065514  1
  V  V25  1  0.87508341  0.25024703  0.12747112  1
  V  V26  1  0.25099499  0.12642019  0.37988578  1
  V  V27  1  0.50232103  -0.00359306  0.50135128  1
  V  V28  1  0.12175731  0.12350294  0.50127815  1
  V  V29  1  0.24969062  0.74745763  0.49873272  1
  V  V30  1  0.37655604  0.74871835  0.62930105  1
  V  V31  1  0.12032757  0.75780030  0.37569404  1
  V  V32  1  0.63164852  0.01222487  0.13649380  1
  V  V33  1  0.61613554  0.50098615  0.12068709  1
  V  V34  1  0.87330509  0.01369487  0.87249599  1
  V  V35  1  0.25362891  0.26155574  0.50419732  1
  V  V36  1  0.62450917  0.62475871  0.49743569  1
  V  V37  1  0.00299275  0.12575019  0.12496573  1
  V  V38  1  0.12929331  0.13280708  -0.01659574  1
  V  V39  1  -0.00167407  0.87826525  0.87620055  1
  V  V40  1  0.34104172  0.20562189  0.64882213  1
  V  V41  1  0.62885711  0.38475309  0.75169103  1
  V  V42  1  0.75183024  0.01551598  0.75422149  1
  V  V43  1  0.50105533  0.62400635  0.62830723  1
  V  V44  1  0.37845473  0.62118248  0.24761602  1
  V  V45  1  0.37741027  0.87190420  0.49813697  1
  V  V46  1  0.49705037  0.49710604  0.50146340  1
  V  V47  1  0.12602640  0.75422128  0.87406921  1
  V  V48  1  -0.00884641  0.49279127  0.50238786  1
  V  V49  1  0.63050360  0.87881678  0.24800398  1
  V  V50  1  0.87470394  0.25131923  0.62868210  1
  V  V51  1  0.75608272  0.63290712  0.89398462  1
  V  V52  1  0.37348238  0.12638899  0.24788257  1
  V  V53  1  0.00691651  0.37684748  0.87556776  1
  V  V54  1  0.12842380  0.00412495  0.12134027  1
  V  V55  1  0.75797704  0.25462270  0.49735521  1
  V  V56  1  0.87316895  0.49658789  0.36970318  1
  V  V57  1  0.25567282  0.37298434  0.12384068  1
  V  V58  1  0.12228884  0.62350945  0.50063134  1
  V  V59  1  0.62509416  -0.01088466  0.63285229  1
  V  V60  1  -0.00278117  0.62597730  0.13293370  1
  V  V61  1  0.25173254  0.75325677  -0.00404809  1
  V  V62  1  0.87574358  0.87602913  0.48825973  1
  V  V63  1  -0.00001397  0.24793659  0.75641278  1
  V  V64  1  0.49922378  0.24823361  0.25026032  1
  V  V65  1  0.75106951  0.87172161  0.63803641  1
  V  V66  1  0.12430185  0.25244568  0.37767716  1
  V  V67  1  0.12389666  0.49969254  0.63413310  1
  V  V68  1  0.62154159  0.74911468  0.36803168  1
  V  V69  1  0.00082881  0.25044108  0.25209053  1
  V  V70  1  0.26082877  0.38609237  0.63356686  1
  V  V71  1  0.87388391  0.74684084  0.62886011  1
  V  V72  1  -0.01070803  0.12013531  0.62805205  1
  V  V73  1  0.49550686  0.37032975  0.38467867  1
  V  V74  1  0.87590371  0.37699546  -0.00467642  1
  V  V75  1  0.75258178  0.62578532  0.36115114  1
  V  V76  1  0.74925944  0.74957854  0.50026438  1
  V  V77  1  0.25667908  0.25166976  -0.01514247  1
  V  V78  1  0.12807642  0.37980422  0.25311602  1
  V  V79  1  0.12876781  0.50135036  0.12966317  1
  V  V80  1  0.24881348  0.87573838  0.63140122  1
  V  V81  1  0.63628468  0.25026443  0.87471999  1
  V  V82  1  0.24664061  0.62072945  0.36817045  1
  V  V83  1  0.50623514  0.12538962  0.62716314  1
  V  V84  1  -0.00323597  0.50313513  -0.00147620  1
  Zn  Zn85  1  0.48692846  0.88861103  0.91955725  1
  Zn  Zn86  1  0.49645915  0.87626242  0.36066020  1
  Zn  Zn87  1  0.55260101  0.66132247  0.05340959  1
  Zn  Zn88  1  0.13052167  0.37642881  0.75638140  1
  Zn  Zn89  1  0.62566017  0.37350946  0.25184336  1
  Zn  Zn90  1  0.12819843  0.88516127  0.75415584  1
  Zn  Zn91  1  0.50233673  0.74662391  0.24273115  1
  Zn  Zn92  1  0.00150756  0.00345490  -0.00327776  1
  Zn  Zn93  1  0.12359013  0.87890242  0.25350126  1
  Zn  Zn94  1  0.75371718  0.24800453  -0.00419669  1
  Zn  Zn95  1  -0.00625539  0.37158747  0.38123887  1
  Zn  Zn96  1  0.12073524  -0.00280258  0.62621724  1
  Zn  Zn97  1  0.47776195  0.49744806  0.01079619  1
  Zn  Zn98  1  0.63075454  0.74649005  0.90642150  1
  Zn  Zn99  1  0.49625405  0.12453271  0.11551991  1
  Zn  Zn100  1  0.36494666  0.49155058  0.87866582  1
  Zn  Zn101  1  0.12160731  0.62732173  0.00091561  1
  Zn  Zn102  1  0.74913260  0.50377575  0.24606151  1
  Zn  Zn103  1  0.25509046  0.03256551  0.75532330  1
  Zn  Zn104  1  0.37683116  0.25252055  0.11627534  1
  Zn  Zn105  1  0.76058432  0.89046234  0.13191554  1
  Zn  Zn106  1  0.62901493  0.50297465  0.62615085  1
  Zn  Zn107  1  0.19007293  0.19124227  0.18568342  1
  Zn  Zn108  1  0.16988282  0.19344008  0.68439837  1
  Zn  Zn109  1  0.18658256  0.68782313  0.18885738  1
  Zn  Zn110  1  0.18489576  0.69029883  0.68983496  1
  Zn  Zn111  1  0.69059867  0.18829170  0.18936885  1
  Zn  Zn112  1  0.68654615  0.18951831  0.68640966  1
  Zn  Zn113  1  0.67597594  0.70293975  0.15453614  1
  Zn  Zn114  1  0.68504859  0.68507365  0.69165173  1
  Zn  Zn115  1  0.31119680  0.31398991  0.31226196  1
  Zn  Zn116  1  0.31524670  0.30919312  0.80735195  1
  Zn  Zn117  1  0.31012430  0.81141817  0.30803799  1
  Zn  Zn118  1  0.32122741  0.81836926  0.81625906  1
  Zn  Zn119  1  0.81400773  0.31242197  0.31224802  1
  Zn  Zn120  1  0.81705818  0.31813706  0.80935723  1
  Zn  Zn121  1  0.81040919  0.80965020  0.30783845  1
  Zn  Zn122  1  0.81165148  0.80876756  0.81730258  1
  Zn  Zn123  1  0.18320586  0.43900926  0.44302381  1
  Zn  Zn124  1  0.18551466  0.43676854  0.94506985  1
  Zn  Zn125  1  0.18854326  0.93794888  0.44322801  1
  Zn  Zn126  1  0.19776939  0.94366480  0.93465334  1
  Zn  Zn127  1  0.68616679  0.43711070  0.43661811  1
  Zn  Zn128  1  0.68880092  0.44161224  0.93902981  1
  Zn  Zn129  1  0.68717168  0.93082019  0.44002509  1
  Zn  Zn130  1  0.68500851  0.93904069  0.93264739  1
  Zn  Zn131  1  0.31313507  0.06659461  0.05725572  1
  Zn  Zn132  1  0.31094102  0.05820435  0.56236405  1
  Zn  Zn133  1  0.30872120  0.56245268  0.05551656  1
  Zn  Zn134  1  0.31283447  0.56184549  0.55908174  1
  Zn  Zn135  1  0.81060097  0.06577769  0.05566954  1
  Zn  Zn136  1  0.81271562  0.05934502  0.56131243  1
  Zn  Zn137  1  0.81563796  0.56072399  0.06929767  1
  Zn  Zn138  1  0.81183118  0.56393173  0.55943657  1
  Zn  Zn139  1  0.43632409  0.43512728  0.19682620  1
  Zn  Zn140  1  0.44089723  0.43738875  0.69170704  1
  Zn  Zn141  1  0.46383276  0.91397361  0.13605805  1
  Zn  Zn142  1  0.43303097  0.94039106  0.69891144  1
  Zn  Zn143  1  0.93933616  0.43737941  0.18994834  1
  Zn  Zn144  1  0.93729427  0.43518669  0.68868714  1
  Zn  Zn145  1  0.94562241  0.93518787  0.18638917  1
  Zn  Zn146  1  0.93377920  0.93510405  0.68823043  1
  Zn  Zn147  1  0.06266911  0.06395293  0.31069013  1
  Zn  Zn148  1  0.06279414  0.06073572  0.80592479  1
  Zn  Zn149  1  0.05847362  0.56422873  0.31312359  1
  Zn  Zn150  1  0.05408367  0.56491464  0.81517730  1
  Zn  Zn151  1  0.56176747  0.06284133  0.31274746  1
  Zn  Zn152  1  0.55918701  0.05913244  0.81514316  1
  Zn  Zn153  1  0.56315992  0.55783293  0.30777648  1
  Zn  Zn154  1  0.56370175  0.57015822  0.82636998  1
  Zn  Zn155  1  0.43374602  0.18763124  0.44925125  1
  Zn  Zn156  1  0.44202089  0.18333210  0.93160641  1
  Zn  Zn157  1  0.43779915  0.68421506  0.43513792  1
  Zn  Zn158  1  0.42941506  0.68571117  0.93198493  1
  Zn  Zn159  1  0.93440615  0.18460023  0.43764588  1
  Zn  Zn160  1  0.94123545  0.18986495  0.94051282  1
  Zn  Zn161  1  0.93456954  0.68412196  0.43757156  1
  Zn  Zn162  1  0.93074600  0.68497793  0.93884592  1
  Zn  Zn163  1  0.06619076  0.31282240  0.06172574  1
  Zn  Zn164  1  0.06398516  0.31425463  0.56733461  1
  Zn  Zn165  1  0.06220425  0.81612354  0.06120540  1
  Zn  Zn166  1  0.06028394  0.81393581  0.56118239  1
  Zn  Zn167  1  0.56527236  0.30913162  0.06154328  1
  Zn  Zn168  1  0.56985846  0.31325119  0.56375900  1
  Zn  Zn169  1  0.58874113  0.83685454  0.04121882  1
  Zn  Zn170  1  0.56190764  0.81054494  0.56293090  1
  O  O171  1  0.12299393  0.11652517  0.12409651  1
  O  O172  1  0.10816921  0.12633768  0.61174482  1
  O  O173  1  0.11913052  0.61727280  0.12486737  1
  O  O174  1  0.11827266  0.62085561  0.62041047  1
  O  O175  1  0.62603179  0.12321025  0.11977963  1
  O  O176  1  0.62201583  0.11358548  0.61985848  1
  O  O177  1  0.61854453  0.60411672  0.13569780  1
  O  O178  1  0.61825053  0.62389385  0.61634703  1
  O  O179  1  0.38039160  0.38178292  0.37634652  1
  O  O180  1  0.39307998  0.37292154  0.86240342  1
  O  O181  1  0.37576845  0.87884086  0.37922429  1
  O  O182  1  0.37961375  0.88941427  0.87541203  1
  O  O183  1  0.87462321  0.39031285  0.37522563  1
  O  O184  1  0.88186670  0.37186134  0.89061849  1
  O  O185  1  0.86753916  0.86737076  0.38925039  1
  O  O186  1  0.88177911  0.88110264  0.88070467  1
  O  O187  1  0.25410709  0.00662404  0.37308642  1
  O  O188  1  0.26197687  0.00602264  0.86846291  1
  O  O189  1  0.25774669  0.50721250  0.38618228  1
  O  O190  1  0.23983450  0.51130036  0.87470273  1
  O  O191  1  0.74632432  0.01170442  0.38303815  1
  O  O192  1  0.75516039  -0.00321088  0.86107421  1
  O  O193  1  0.75809241  0.50583761  0.37400444  1
  O  O194  1  0.74802140  0.50858458  0.86491463  1
  O  O195  1  0.23378341  0.49121019  0.11909606  1
  O  O196  1  0.24032333  0.49185266  0.61714861  1
  O  O197  1  0.24753216  0.99510457  0.12836895  1
  O  O198  1  0.24906496  0.98071620  0.61975267  1
  O  O199  1  0.74223653  0.49214615  0.12767311  1
  O  O200  1  0.75096162  0.49501305  0.63201876  1
  O  O201  1  0.73933939  1.00851390  0.12532693  1
  O  O202  1  0.74629546  0.99287043  0.63512966  1
  O  O203  1  0.00982611  0.36711670  0.25303036  1
  O  O204  1  -0.00210172  0.36970255  0.76058534  1
  O  O205  1  0.00810945  0.86258273  0.24871654  1
  O  O206  1  0.00189196  0.86784549  0.75981324  1
  O  O207  1  0.49700614  0.36073981  0.26585524  1
  O  O208  1  0.51198070  0.36576102  0.74883117  1
  O  O209  1  0.51486495  0.86887067  0.24096934  1
  O  O210  1  0.49950163  0.85698354  0.73957042  1
  O  O211  1  0.49149396  0.13685527  0.25523269  1
  O  O212  1  0.51474655  0.14011269  0.74155623  1
  O  O213  1  0.48230719  0.62452870  0.25777606  1
  O  O214  1  0.49138676  0.63143442  0.74673031  1
  O  O215  1  0.99431937  0.13232891  0.24469809  1
  O  O216  1  1.00128966  0.13382513  0.73951097  1
  O  O217  1  1.00506615  0.63558318  0.23935450  1
  O  O218  1  1.00133161  0.63984287  0.74432519  1
  O  O219  1  0.36066581  0.24350698  -0.00260658  1
  O  O220  1  0.35664382  0.23184310  0.53006038  1
  O  O221  1  0.35803461  0.74148581  0.00667001  1
  O  O222  1  0.37274376  0.75108809  0.50974209  1
  O  O223  1  0.87603984  0.25675365  0.01219810  1
  O  O224  1  0.86445801  0.24801677  0.50887017  1
  O  O225  1  0.88699600  0.76369010  0.01100507  1
  O  O226  1  0.86886571  0.75507185  0.50701237  1
  O  O227  1  0.13185108  0.24409741  0.49764008  1
  O  O228  1  0.13163742  0.23803488  1.00220581  1
  O  O229  1  0.12658783  0.74232769  0.49423498  1
  O  O230  1  0.12883640  0.75098207  0.98802480  1
  O  O231  1  0.63819498  0.24253586  0.49746778  1
  O  O232  1  0.63182627  0.24732075  0.98911319  1
  O  O233  1  0.62978959  0.74577846  0.49022421  1
  O  O234  1  0.63583914  0.73562989  1.04131617  1
  O  O235  1  0.49566846  0.25135826  0.13683183  1
  O  O236  1  0.50890584  0.23904183  0.62907476  1
  O  O237  1  0.47955772  0.73117609  0.12473034  1
  O  O238  1  0.49248487  0.74174427  0.62863153  1
  O  O239  1  0.99523786  0.24581282  0.13080329  1
  O  O240  1  0.99081213  0.24518055  0.62816301  1
  O  O241  1  0.99875723  0.74477855  0.13271540  1
  O  O242  1  0.99286680  0.74825509  0.63277620  1
  O  O243  1  0.00484423  0.25151080  0.37204628  1
  O  O244  1  -0.00836104  0.26031821  0.86607248  1
  O  O245  1  0.00867072  0.74024429  0.36727977  1
  O  O246  1  0.00453661  0.75600953  0.87010946  1
  O  O247  1  0.50201853  0.25420133  0.37836063  1
  O  O248  1  0.51029365  0.25976407  0.86387227  1
  O  O249  1  0.51227146  0.75023847  0.37274285  1
  O  O250  1  0.49770356  0.75135400  0.86406934  1
  O  O251  1  0.23792708  0.12936584  0.50059962  1
  O  O252  1  0.23732245  0.13990583  1.00314095  1
  O  O253  1  0.24333819  0.63020282  0.49264229  1
  O  O254  1  0.24067358  0.63499197  0.98740478  1
  O  O255  1  0.74789097  0.13182718  0.49458695  1
  O  O256  1  0.73449482  0.13309471  1.00056611  1
  O  O257  1  0.74096416  0.63126464  0.49307892  1
  O  O258  1  0.75483123  0.61849180  0.99294472  1
  O  O259  1  0.23972379  0.35898305  0.00949884  1
  O  O260  1  0.24681025  0.36601287  0.50906018  1
  O  O261  1  0.24333388  0.86606711  0.00880032  1
  O  O262  1  0.25730735  0.86627189  0.50786855  1
  O  O263  1  0.75989984  0.37467112  0.00922423  1
  O  O264  1  0.74412585  0.36687011  0.50936789  1
  O  O265  1  0.76442665  0.88290595  0.00275782  1
  O  O266  1  0.75612226  0.86759983  0.51055607  1
  O  O267  1  0.11845320  0.49081762  0.24480825  1
  O  O268  1  0.11499236  0.50098819  0.73696156  1
  O  O269  1  0.13284455  1.00254786  0.24180124  1
  O  O270  1  0.13853451  1.00304468  0.74284225  1
  O  O271  1  0.62714749  0.49047191  0.24131812  1
  O  O272  1  0.62841968  0.49115513  0.74983930  1
  O  O273  1  0.62813895  0.99781271  0.24456594  1
  O  O274  1  0.63818944  1.00189208  0.74366452  1
  O  O275  1  0.36894511  0.01569958  0.25973310  1
  O  O276  1  0.36468054  0.00098624  0.75799215  1
  O  O277  1  0.37420712  0.50494758  0.26547040  1
  O  O278  1  0.37719817  0.51219006  0.75384192  1
  O  O279  1  0.88150789  0.01134196  0.24395392  1
  O  O280  1  0.86099900  -0.00341721  0.75640610  1
  O  O281  1  0.87410883  0.50040965  0.26437934  1
  O  O282  1  0.86509125  0.49938014  0.75120905  1
  O  O283  1  0.12273057  0.37059229  0.37012768  1
  O  O284  1  0.11126303  0.37960658  0.87535570  1
  O  O285  1  0.13067077  0.86065322  0.37889640  1
  O  O286  1  0.11811034  0.87175317  0.87431662  1
  O  O287  1  0.61574279  0.36609814  0.37549629  1
  O  O288  1  0.62001760  0.36976145  0.86830941  1
  O  O289  1  0.62210441  0.86620710  0.36747607  1
  O  O290  1  0.60691153  0.85969408  0.91939671  1
  O  O291  1  0.37675985  0.12847749  0.13503994  1
  O  O292  1  0.39855291  0.11290519  0.61943819  1
  O  O293  1  0.35392538  0.63059306  0.13839619  1
  O  O294  1  0.37819077  0.63060004  0.63014697  1
  O  O295  1  0.88129041  0.13294677  0.12876630  1
  O  O296  1  0.88318594  0.13322100  0.61910235  1
  O  O297  1  0.88666197  0.63545948  0.12197731  1
  O  O298  1  0.87942256  0.63929689  0.61885143  1
  O  O299  1  0.25244613  0.25846044  0.11712761  1
  O  O300  1  0.24611136  0.26854989  0.62271870  1
  O  O301  1  0.24812236  0.75697897  0.11587798  1
  O  O302  1  0.25688952  0.75421359  0.61824715  1
  O  O303  1  0.76059319  0.25749944  0.12471336  1
  O  O304  1  0.75682348  0.25687577  0.62027602  1
  O  O305  1  0.77261601  0.75818849  0.13530686  1
  O  O306  1  0.75496453  0.75414454  0.62361288  1
  O  O307  1  0.24717685  0.24652094  0.38741603  1
  O  O308  1  0.24975786  0.25699797  0.88527125  1
  O  O309  1  0.24238550  0.74156484  0.38030661  1
  O  O310  1  0.24232031  0.74876844  0.87873775  1
  O  O311  1  0.74743374  0.24721710  0.38327916  1
  O  O312  1  0.73976716  0.25758519  0.87046988  1
  O  O313  1  0.73941406  0.74269528  0.37793040  1
  O  O314  1  0.74799213  0.74014949  0.88000577  1
  O  O315  1  0.01400720  0.12668044  0.00717747  1
  O  O316  1  0.00282444  0.11720983  0.50472891  1
  O  O317  1  0.00122810  0.61827143  0.00830339  1
  O  O318  1  0.00402690  0.61717397  0.50773040  1
  O  O319  1  0.52143842  0.14004720  0.00279891  1
  O  O320  1  0.51082439  0.11756956  0.50641218  1
  O  O321  1  0.49436772  0.60740256  -0.02093383  1
  O  O322  1  0.50572242  0.61779945  0.50489170  1
  O  O323  1  0.50390219  0.38017788  0.49329948  1
  O  O324  1  0.50174010  0.37174803  0.98466411  1
  O  O325  1  0.49190805  0.87977388  0.50022896  1
  O  O326  1  0.48291236  0.86889129  1.03321833  1
  O  O327  1  1.00496725  0.38874723  0.50043641  1
  O  O328  1  0.99579663  0.38043179  0.99603668  1
  O  O329  1  0.98914368  0.88393790  0.50474737  1
  O  O330  1  0.99705937  0.88040145  0.98681405  1
  O  O331  1  0.49386048  0.48917319  0.38124107  1
  O  O332  1  0.50263135  0.48076324  0.86895402  1
  O  O333  1  0.49401796  0.99763972  0.38194347  1
  O  O334  1  0.48734430  0.99442905  0.86895869  1
  O  O335  1  0.98776879  0.50161251  0.38265950  1
  O  O336  1  0.99958527  0.49379957  0.88692699  1
  O  O337  1  1.00389682  1.00285127  0.38736772  1
  O  O338  1  0.99161840  0.99356437  0.87069240  1
  O  O339  1  0.01195527  0.00726232  0.12106272  1
  O  O340  1  -0.00170144  0.00721405  0.62124514  1
  O  O341  1  0.00661594  0.50833663  0.12393277  1
  O  O342  1  0.00194884  0.50493817  0.61985369  1
  O  O343  1  0.52325470  0.01195451  0.13065420  1
  O  O344  1  0.51067959  0.00154961  0.62538588  1
  O  O345  1  0.51094460  0.48447712  0.12558824  1
  O  O346  1  0.50198944  0.50493889  0.61738888  1
  O  O347  1  0.23472189  0.36771401  0.24339189  1
  O  O348  1  0.24883940  0.37616461  0.73805199  1
  O  O349  1  0.24408824  0.88390722  0.24350037  1
  O  O350  1  0.24896523  0.86187608  0.73394699  1
  O  O351  1  0.75173522  0.37502943  0.23749691  1
  O  O352  1  0.74688116  0.38810921  0.74504184  1
  O  O353  1  0.73645145  0.87347208  0.25024810  1
  O  O354  1  0.75262309  0.87776365  0.74017388  1
  O  O355  1  0.25595196  0.12325878  0.25803965  1
  O  O356  1  0.26712289  0.13698756  0.69272496  1
  O  O357  1  0.25325919  0.62671116  0.26435900  1
  O  O358  1  0.25703997  0.63155698  0.75710259  1
  O  O359  1  0.76102616  0.13082813  0.26064771  1
  O  O360  1  0.75169918  0.11378569  0.74444766  1
  O  O361  1  0.74471125  0.62580176  0.26079990  1
  O  O362  1  0.75108382  0.61116944  0.74720740  1
  O  O363  1  0.36776798  0.12207598  0.37534626  1
  O  O364  1  0.38323487  0.11515243  0.86489693  1
  O  O365  1  0.36520192  0.61848943  0.36981596  1
  O  O366  1  0.35849303  0.62347158  0.86417067  1
  O  O367  1  0.86656898  0.12824378  0.36401679  1
  O  O368  1  0.87930459  0.11294256  0.88146318  1
  O  O369  1  0.86323392  0.61348060  0.37962473  1
  O  O370  1  0.85773908  0.62855413  0.87327383  1
  O  O371  1  0.12912739  0.38128538  0.13412895  1
  O  O372  1  0.13319670  0.38606218  0.62731848  1
  O  O373  1  0.13272712  0.88967078  0.12336455  1
  O  O374  1  0.13803751  0.87211775  0.62486517  1
  O  O375  1  0.63489709  0.37715916  0.12765273  1
  O  O376  1  0.63902954  0.37745955  0.63379257  1
  O  O377  1  0.63667012  0.89609257  0.13124083  1
  O  O378  1  0.63478529  0.88329937  0.61921667  1
  O  O379  1  0.11959784  0.25410364  0.25844949  1
  O  O380  1  0.10586868  0.25907192  0.74665277  1
  O  O381  1  0.11888195  0.75133661  0.26008537  1
  O  O382  1  0.11649156  0.75540456  0.76112501  1
  O  O383  1  0.61588761  0.25018295  0.25894959  1
  O  O384  1  0.62358242  0.26154450  0.75357458  1
  O  O385  1  0.62404618  0.75526821  0.25219224  1
  O  O386  1  0.60993437  0.74841780  0.74901509  1
  O  O387  1  0.37945977  0.23893489  0.25406742  1
  O  O388  1  0.38625962  0.25198529  0.73236231  1
  O  O389  1  0.37326062  0.73945437  0.24257369  1
  O  O390  1  0.38102887  0.74269538  0.73964578  1
  O  O391  1  0.88246407  0.24748310  0.24043976  1
  O  O392  1  0.88231146  0.25477517  0.73671529  1
  O  O393  1  0.88900896  0.75514537  0.24364690  1
  O  O394  1  0.88382509  0.75750165  0.74114172  1
  O  O395  1  0.38924593  0.50703516  0.48958509  1
  O  O396  1  0.36502458  0.49098001  0.99285542  1
  O  O397  1  0.38078462  0.99249541  0.49450295  1
  O  O398  1  0.37184785  1.00895515  0.98284046  1
  O  O399  1  0.88236435  0.50358514  0.49035642  1
  O  O400  1  0.88902164  0.48994378  1.01215536  1
  O  O401  1  0.88240260  0.98877755  0.50339032  1
  O  O402  1  0.87938440  0.99516418  0.99077610  1
  O  O403  1  0.12850878  0.01485876  0.00527919  1
  O  O404  1  0.11701934  0.00758956  0.50388191  1
  O  O405  1  0.11192655  0.50080877  0.01144163  1
  O  O406  1  0.11464193  0.50725982  0.50960123  1
  O  O407  1  0.63031661  0.01596180  0.00728409  1
  O  O408  1  0.62115965  0.00166032  0.50957644  1
  O  O409  1  0.62268511  0.49180305  0.01838397  1
  O  O410  1  0.61350363  0.50589337  0.49919541  1
  O  O411  1  0.35826790  0.37404821  0.13703242  1
  O  O412  1  0.36018234  0.38661798  0.62526423  1
  O  O413  1  0.35827962  0.86013854  0.13563600  1
  O  O414  1  0.36655305  0.86593192  0.62053843  1
  O  O415  1  0.87206850  0.36840558  0.11985103  1
  O  O416  1  0.86389135  0.36842310  0.62587840  1
  O  O417  1  0.87952179  0.87227989  0.11569498  1
  O  O418  1  0.86749553  0.86423873  0.61873794  1
  O  O419  1  0.12908320  0.13132442  0.38544500  1
  O  O420  1  0.12085292  0.12496190  0.88524452  1
  O  O421  1  0.13055000  0.62872847  0.38116427  1
  O  O422  1  0.12766765  0.63600276  0.87332502  1
  O  O423  1  0.63331104  0.13038766  0.38018652  1
  O  O424  1  0.62363010  0.13265925  0.88287551  1
  O  O425  1  0.62911630  0.62980422  0.37797100  1
  O  O426  1  0.64403291  0.63272866  0.87379800  1
