# generated using pymatgen
data_V85Zn86O256
_symmetry_space_group_name_H-M   'P 1'
_cell_length_a   16.91823126
_cell_length_b   16.92586802
_cell_length_c   16.91812325
_cell_angle_alpha   90.04561826
_cell_angle_beta   90.01403766
_cell_angle_gamma   90.04309837
_symmetry_Int_Tables_number   1
_chemical_formula_structural   V85Zn86O256
_chemical_formula_sum   'V85 Zn86 O256'
_cell_volume   4844.59880918
_cell_formula_units_Z   1
loop_
 _symmetry_equiv_pos_site_id
 _symmetry_equiv_pos_as_xyz
  1  'x, y, z'
loop_
 _atom_site_type_symbol
 _atom_site_label
 _atom_site_symmetry_multiplicity
 _atom_site_fract_x
 _atom_site_fract_y
 _atom_site_fract_z
 _atom_site_occupancy
  V  V0  1  0.12018493  0.75368197  0.37711189  1
  V  V1  1  0.87995476  0.00409318  0.88279886  1
  V  V2  1  0.25846816  0.74821325  -0.00008645  1
  V  V3  1  0.13076253  0.74688845  0.87520625  1
  V  V4  1  0.62726887  0.88199089  0.25045606  1
  V  V5  1  0.49954610  0.25026094  0.24979363  1
  V  V6  1  0.00166245  0.12132166  0.11585936  1
  V  V7  1  0.86774382  0.62739167  0.25279355  1
  V  V8  1  0.86339710  0.12207860  0.25269614  1
  V  V9  1  0.24406679  0.49762712  0.75541840  1
  V  V10  1  0.62422167  0.37664391  0.25006196  1
  V  V11  1  0.87472049  0.37419923  0.00096687  1
  V  V12  1  0.74696637  0.23769795  -0.00116722  1
  V  V13  1  0.62781031  0.24773820  0.37518302  1
  V  V14  1  0.62510043  0.86038862  0.75594225  1
  V  V15  1  0.12495531  0.37416717  0.25130409  1
  V  V16  1  0.24337209  0.24658747  0.00062680  1
  V  V17  1  0.36755487  0.25144747  0.62133024  1
  V  V18  1  0.50039071  0.12349687  0.12114173  1
  V  V19  1  0.12206489  0.87928960  0.25399150  1
  V  V20  1  0.62145402  0.50193865  0.12216264  1
  V  V21  1  0.25606136  0.87397114  0.12712773  1
  V  V22  1  0.86380837  0.49842163  0.87304282  1
  V  V23  1  -0.00240889  0.75229213  0.75319516  1
  V  V24  1  0.37558782  0.12119031  0.26436451  1
  V  V25  1  0.87432551  0.37425809  0.49835422  1
  V  V26  1  -0.00266482  0.75507888  0.25077632  1
  V  V27  1  -0.00116653  0.62552781  0.62694421  1
  V  V28  1  0.00433422  0.37708839  0.87140718  1
  V  V29  1  0.87272273  0.24921998  0.62408363  1
  V  V30  1  0.74855750  0.74081506  0.49674899  1
  V  V31  1  0.37189705  0.50603711  0.87344510  1
  V  V32  1  0.63172337  0.00558196  0.12266106  1
  V  V33  1  0.25464232  0.00347722  0.26237887  1
  V  V34  1  0.00390187  0.25223426  0.74836577  1
  V  V35  1  0.50404479  0.00537588  -0.00924958  1
  V  V36  1  0.74907714  0.37519767  0.12434128  1
  V  V37  1  0.85648088  0.00051428  0.37123194  1
  V  V38  1  0.38016509  0.50291899  0.38237523  1
  V  V39  1  0.87674557  0.86988668  -0.00046431  1
  V  V40  1  0.75167639  0.24547723  0.49586609  1
  V  V41  1  0.12279761  0.00237497  0.11509861  1
  V  V42  1  0.86935100  0.50314158  0.37458089  1
  V  V43  1  0.37853948  0.63783056  0.24598596  1
  V  V44  1  0.13755794  0.12633165  0.49554527  1
  V  V45  1  0.37462741  0.37484701  -0.00013121  1
  V  V46  1  0.12554220  0.50167246  0.12454774  1
  V  V47  1  0.86873941  0.62035521  0.74862493  1
  V  V48  1  0.61150467  0.61964771  0.49768535  1
  V  V49  1  0.25198689  0.50170580  0.25031655  1
  V  V50  1  0.24912875  0.62483348  0.37404912  1
  V  V51  1  -0.00116318  0.49922595  0.49839550  1
  V  V52  1  -0.00159758  0.62644252  0.12326773  1
  V  V53  1  0.74714516  0.00191480  0.75835957  1
  V  V54  1  0.49422440  0.87430708  0.36929659  1
  V  V55  1  0.37760207  0.88304316  0.00087473  1
  V  V56  1  0.87609015  0.87287348  0.49623082  1
  V  V57  1  0.63039930  0.12025295  0.49417958  1
  V  V58  1  0.63520326  0.38230675  0.75321102  1
  V  V59  1  -0.00030266  -0.00206633  0.48595642  1
  V  V60  1  0.49438124  0.62346207  0.64444147  1
  V  V61  1  0.50260539  0.37880520  0.38701031  1
  V  V62  1  0.62389113  0.74416535  0.36612106  1
  V  V63  1  0.49254849  -0.00339450  0.49553028  1
  V  V64  1  0.62837791  0.23615730  0.87584010  1
  V  V65  1  0.25534107  0.11725157  0.87855169  1
  V  V66  1  0.50093171  0.37468719  0.87329011  1
  V  V67  1  0.49856204  0.64237869  0.12710426  1
  V  V68  1  0.86965104  0.12372754  0.75371691  1
  V  V69  1  0.12549912  0.62459819  0.50248856  1
  V  V70  1  0.25065563  0.37456314  0.12510738  1
  V  V71  1  0.12367549  0.48927298  0.62897302  1
  V  V72  1  0.12842629  0.62765205  -0.00146712  1
  V  V73  1  0.49629596  0.86308091  0.86952650  1
  V  V74  1  0.00046961  0.24437035  0.25220152  1
  V  V75  1  0.74798806  0.87060602  0.12133892  1
  V  V76  1  0.49985331  0.12569262  0.62686105  1
  V  V77  1  0.12422204  0.24398169  0.87536342  1
  V  V78  1  0.62533173  -0.00338707  0.62642145  1
  V  V79  1  0.74587560  0.64186222  0.87697860  1
  V  V80  1  0.14049124  0.24717007  0.37610852  1
  V  V81  1  0.62844144  0.63860971  -0.00134775  1
  V  V82  1  -0.00068295  0.12059179  0.62149591  1
  V  V83  1  0.25357123  0.87353014  0.62550027  1
  V  V84  1  0.12340284  0.88120823  0.74967939  1
  Zn  Zn85  1  0.75191800  0.38187535  0.62809618  1
  Zn  Zn86  1  0.00351370  0.88156380  0.88356197  1
  Zn  Zn87  1  0.62470783  0.49965961  0.62384101  1
  Zn  Zn88  1  0.74842250  0.87104150  0.62454591  1
  Zn  Zn89  1  0.50015327  0.50331819  0.00028972  1
  Zn  Zn90  1  0.25168047  0.75129218  0.50301582  1
  Zn  Zn91  1  0.37400493  0.24737593  0.12657423  1
  Zn  Zn92  1  0.00068506  0.50162660  -0.00270273  1
  Zn  Zn93  1  0.37359491  0.87259886  0.49737650  1
  Zn  Zn94  1  0.00079047  0.37323557  0.37341826  1
  Zn  Zn95  1  0.50048389  0.25122534  0.74879579  1
  Zn  Zn96  1  0.12538963  -0.00004862  0.62396240  1
  Zn  Zn97  1  0.25992776  -0.00086279  0.75237064  1
  Zn  Zn98  1  0.87254914  0.75156475  0.62464442  1
  Zn  Zn99  1  0.86817919  0.74664894  0.12027182  1
  Zn  Zn100  1  0.74748152  0.50451899  0.25202363  1
  Zn  Zn101  1  0.36393445  0.63902291  0.76370100  1
  Zn  Zn102  1  0.36809867  0.37397150  0.50129645  1
  Zn  Zn103  1  0.87414492  0.24674489  0.12650476  1
  Zn  Zn104  1  0.24399748  0.37019438  0.62381712  1
  Zn  Zn105  1  0.38337494  0.75387385  0.63020097  1
  Zn  Zn106  1  0.37697082  0.12393336  0.75385977  1
  Zn  Zn107  1  0.18907031  0.18339259  0.18881548  1
  Zn  Zn108  1  0.18602549  0.18382129  0.68968525  1
  Zn  Zn109  1  0.18865024  0.69087588  0.18644146  1
  Zn  Zn110  1  0.18956782  0.68615654  0.69069557  1
  Zn  Zn111  1  0.68523242  0.18854972  0.18402206  1
  Zn  Zn112  1  0.68617465  0.18958049  0.68664440  1
  Zn  Zn113  1  0.68542357  0.69027823  0.18572172  1
  Zn  Zn114  1  0.68936402  0.68181096  0.68202910  1
  Zn  Zn115  1  0.31768586  0.31446355  0.31287908  1
  Zn  Zn116  1  0.31221491  0.31268459  0.80579359  1
  Zn  Zn117  1  0.30803336  0.81347304  0.31459290  1
  Zn  Zn118  1  0.31384762  0.81714190  0.81227660  1
  Zn  Zn119  1  0.81268794  0.31219086  0.31251571  1
  Zn  Zn120  1  0.81269693  0.30820770  0.81621750  1
  Zn  Zn121  1  0.80734593  0.81589473  0.31240161  1
  Zn  Zn122  1  0.81338973  0.81582432  0.81256026  1
  Zn  Zn123  1  0.19093635  0.43400824  0.44021879  1
  Zn  Zn124  1  0.18508162  0.43502833  0.93666695  1
  Zn  Zn125  1  0.18696237  0.93809551  0.43963679  1
  Zn  Zn126  1  0.18638719  0.93290982  0.93853086  1
  Zn  Zn127  1  0.69102301  0.43744251  0.43881563  1
  Zn  Zn128  1  0.68580192  0.43707421  0.94013663  1
  Zn  Zn129  1  0.68519196  0.92995774  0.43937423  1
  Zn  Zn130  1  0.68814247  0.93630324  0.93821314  1
  Zn  Zn131  1  0.31378139  0.06216057  0.06667159  1
  Zn  Zn132  1  0.31428601  0.05770951  0.56957656  1
  Zn  Zn133  1  0.31442537  0.56387202  0.06245059  1
  Zn  Zn134  1  0.31109306  0.56143557  0.56671034  1
  Zn  Zn135  1  0.81550253  0.05813914  0.06579847  1
  Zn  Zn136  1  0.81082639  0.05914977  0.56385809  1
  Zn  Zn137  1  0.81039235  0.56157931  0.06021051  1
  Zn  Zn138  1  0.80583787  0.56096919  0.56427089  1
  Zn  Zn139  1  0.43808099  0.44127092  0.19083560  1
  Zn  Zn140  1  0.43904376  0.44111164  0.68885031  1
  Zn  Zn141  1  0.44035696  0.93888550  0.18743983  1
  Zn  Zn142  1  0.43617367  0.93888261  0.69162016  1
  Zn  Zn143  1  0.93834825  0.43797397  0.18820270  1
  Zn  Zn144  1  0.93555294  0.43762804  0.68749646  1
  Zn  Zn145  1  0.93579729  0.93901578  0.18731497  1
  Zn  Zn146  1  0.93555732  0.93763149  0.68469787  1
  Zn  Zn147  1  0.06258503  0.06391238  0.31086030  1
  Zn  Zn148  1  0.06111130  0.06597638  0.81515986  1
  Zn  Zn149  1  0.05839567  0.56389447  0.31240915  1
  Zn  Zn150  1  0.06201970  0.56309590  0.81270899  1
  Zn  Zn151  1  0.56255629  0.06043426  0.31130765  1
  Zn  Zn152  1  0.55965862  0.05801434  0.81110246  1
  Zn  Zn153  1  0.56039408  0.56404704  0.30979157  1
  Zn  Zn154  1  0.56337413  0.56178238  0.81727645  1
  Zn  Zn155  1  0.44159662  0.18878930  0.44214195  1
  Zn  Zn156  1  0.43700968  0.19057684  0.93927119  1
  Zn  Zn157  1  0.43592661  0.69357986  0.43855380  1
  Zn  Zn158  1  0.43835828  0.68890316  0.94275837  1
  Zn  Zn159  1  0.93918145  0.18346744  0.43306955  1
  Zn  Zn160  1  0.93408257  0.18814928  0.93666161  1
  Zn  Zn161  1  0.93825346  0.68768166  0.43543111  1
  Zn  Zn162  1  0.93688441  0.68965822  0.93595943  1
  Zn  Zn163  1  0.06090639  0.31045100  0.06362349  1
  Zn  Zn164  1  0.06130192  0.30806782  0.55789159  1
  Zn  Zn165  1  0.06197913  0.81522537  0.06409832  1
  Zn  Zn166  1  0.06023712  0.81461792  0.56492981  1
  Zn  Zn167  1  0.56263991  0.31010005  0.05954395  1
  Zn  Zn168  1  0.56362053  0.31030047  0.56582962  1
  Zn  Zn169  1  0.56315394  0.81717823  0.06068594  1
  Zn  Zn170  1  0.56141114  0.80769393  0.56249318  1
  O  O171  1  0.11951937  0.11025034  0.12933772  1
  O  O172  1  0.11677310  0.12444190  0.61436597  1
  O  O173  1  0.11758927  0.62230439  0.12056742  1
  O  O174  1  0.11865088  0.61855135  0.61850035  1
  O  O175  1  0.61241853  0.11787718  0.12954552  1
  O  O176  1  0.62032129  0.11816876  0.61668930  1
  O  O177  1  0.61994981  0.61970162  0.11975761  1
  O  O178  1  0.61499138  0.62404999  0.61310259  1
  O  O179  1  0.38520901  0.38356683  0.37643307  1
  O  O180  1  0.38168712  0.37951693  0.88037001  1
  O  O181  1  0.38979108  0.86794497  0.37404774  1
  O  O182  1  0.38937695  0.87739102  0.88257942  1
  O  O183  1  0.87830044  0.38197730  0.38084264  1
  O  O184  1  0.88184413  0.37999778  0.88023844  1
  O  O185  1  0.87013336  0.88726330  0.38378601  1
  O  O186  1  0.87594934  0.88186266  0.88569284  1
  O  O187  1  0.24841736  -0.00480503  0.36170439  1
  O  O188  1  0.24231988  0.01538591  0.88079907  1
  O  O189  1  0.25403422  0.50721075  0.36814822  1
  O  O190  1  0.25467952  0.49244600  0.86486216  1
  O  O191  1  0.75793939  -0.00012401  0.37900760  1
  O  O192  1  0.75797514  -0.00260079  0.86366783  1
  O  O193  1  0.76467668  0.49676328  0.37144476  1
  O  O194  1  0.76204019  0.50051417  0.87739235  1
  O  O195  1  0.24482351  0.49513237  0.13035018  1
  O  O196  1  0.23869869  0.49880574  0.63392483  1
  O  O197  1  0.23938065  0.99272768  0.13106031  1
  O  O198  1  0.24432498  0.98803288  0.62865567  1
  O  O199  1  0.73901221  0.49391640  0.12563366  1
  O  O200  1  0.73919387  0.49456074  0.62200512  1
  O  O201  1  0.73754818  0.99236999  0.12103725  1
  O  O202  1  0.73884313  0.99677940  0.63340998  1
  O  O203  1  0.00702557  0.36487601  0.24867906  1
  O  O204  1  -0.00895384  0.36375865  0.75885723  1
  O  O205  1  0.00641503  0.86334165  0.24358899  1
  O  O206  1  0.00408547  0.86735874  0.74970657  1
  O  O207  1  0.50607915  0.36808222  0.25549651  1
  O  O208  1  0.50729326  0.37366073  0.76235279  1
  O  O209  1  0.51212468  0.87937133  0.25677297  1
  O  O210  1  0.51049252  0.87831688  0.76225425  1
  O  O211  1  0.49527432  0.13063741  0.24392900  1
  O  O212  1  0.50486414  0.12540749  0.73591296  1
  O  O213  1  0.49071663  0.62374220  0.24006361  1
  O  O214  1  0.49771451  0.62547388  0.74685511  1
  O  O215  1  0.99363276  0.13042323  0.24383788  1
  O  O216  1  0.99102972  0.13003272  0.74130555  1
  O  O217  1  0.99276501  0.63488365  0.24234966  1
  O  O218  1  0.99123532  0.63260195  0.74804860  1
  O  O219  1  0.36533731  0.26186393  0.00133509  1
  O  O220  1  0.38018215  0.25059849  0.51642998  1
  O  O221  1  0.36474922  0.76177568  -0.00306563  1
  O  O222  1  0.36936785  0.75285922  0.50744236  1
  O  O223  1  0.86720225  0.26076140  -0.00008785  1
  O  O224  1  0.86998251  0.25247459  0.50094129  1
  O  O225  1  0.87541325  0.76425569  0.00071039  1
  O  O226  1  0.86883736  0.75687099  0.49561793  1
  O  O227  1  0.12081264  0.23538155  0.49124001  1
  O  O228  1  0.13572790  0.25528306  0.99314486  1
  O  O229  1  0.12181235  0.74323074  0.49282983  1
  O  O230  1  0.13241363  0.74991744  0.99362323  1
  O  O231  1  0.63254683  0.24151607  0.49710812  1
  O  O232  1  0.63280168  0.25404106  0.98597514  1
  O  O233  1  0.63055655  0.74087416  0.49124875  1
  O  O234  1  0.62609038  0.73819854  1.00443212  1
  O  O235  1  0.50071796  0.24196000  0.13025178  1
  O  O236  1  0.49513648  0.23970713  0.62655503  1
  O  O237  1  0.50266606  0.74175008  0.12403750  1
  O  O238  1  0.50186581  0.72856462  0.62063166  1
  O  O239  1  1.00065923  0.24175968  0.13660876  1
  O  O240  1  0.99463980  0.24045365  0.63033606  1
  O  O241  1  0.99868781  0.74052105  0.13226252  1
  O  O242  1  0.99800715  0.74397633  0.63695872  1
  O  O243  1  0.00745119  0.24865223  0.36322921  1
  O  O244  1  0.00430312  0.25407121  0.86820331  1
  O  O245  1  0.01199044  0.74528271  0.36557028  1
  O  O246  1  0.00570281  0.75341404  0.86498521  1
  O  O247  1  0.50763897  0.25853948  0.37052882  1
  O  O248  1  0.51090542  0.25621345  0.87576594  1
  O  O249  1  0.51547258  0.75935701  0.37983749  1
  O  O250  1  0.50115991  0.76485914  0.88094763  1
  O  O251  1  0.23545864  0.11700894  0.50470965  1
  O  O252  1  0.25446274  0.13487053  0.99259777  1
  O  O253  1  0.23688314  0.62482830  0.49690092  1
  O  O254  1  0.24387857  0.63831644  1.00875909  1
  O  O255  1  0.74180380  0.13170832  0.50504031  1
  O  O256  1  0.75684693  0.13897915  1.00824348  1
  O  O257  1  0.74257986  0.63692375  0.49985945  1
  O  O258  1  0.74526972  0.62279078  0.98627721  1
  O  O259  1  0.25544122  0.36836198  0.00465716  1
  O  O260  1  0.25357915  0.37651081  0.50996048  1
  O  O261  1  0.25943248  0.87284591  0.00658001  1
  O  O262  1  0.25008543  0.87426463  0.50925912  1
  O  O263  1  0.75725469  0.36943215  0.00538225  1
  O  O264  1  0.75854080  0.36551157  0.50100706  1
  O  O265  1  0.76153359  0.87855179  0.00778433  1
  O  O266  1  0.75591227  0.86319135  0.50203610  1
  O  O267  1  0.13083369  0.49647640  0.24555260  1
  O  O268  1  0.13167068  0.50130358  0.74357149  1
  O  O269  1  0.13104620  0.99343472  0.24643227  1
  O  O270  1  0.12098358  0.98907802  0.75105794  1
  O  O271  1  0.62755985  0.49542392  0.24250444  1
  O  O272  1  0.62518266  0.48391342  0.75666673  1
  O  O273  1  0.62181736  0.99359787  0.23808699  1
  O  O274  1  0.63163946  0.99490120  0.74416867  1
  O  O275  1  0.36735201  0.00859629  0.24593770  1
  O  O276  1  0.37360828  0.01027396  0.74853082  1
  O  O277  1  0.36684989  0.50625622  0.25913017  1
  O  O278  1  0.36444304  0.50252284  0.75930137  1
  O  O279  1  0.87606752  0.00380682  0.26427009  1
  O  O280  1  0.86704686  0.00546262  0.75438581  1
  O  O281  1  0.87601905  0.50896960  0.25672969  1
  O  O282  1  0.87973204  0.51247540  0.75795857  1
  O  O283  1  0.12315245  0.36675661  0.36834353  1
  O  O284  1  0.11050050  0.36465512  0.87911940  1
  O  O285  1  0.12752780  0.86804262  0.36327343  1
  O  O286  1  0.12128130  0.86642309  0.86908653  1
  O  O287  1  0.62011380  0.37121355  0.37029048  1
  O  O288  1  0.61954220  0.36952002  0.86878581  1
  O  O289  1  0.61937601  0.86730432  0.36717689  1
  O  O290  1  0.61709260  0.87765167  0.86319133  1
  O  O291  1  0.38756313  0.12583651  0.13241742  1
  O  O292  1  0.38370114  0.13405439  0.62360900  1
  O  O293  1  0.38702350  0.61897493  0.13293911  1
  O  O294  1  0.38796141  0.62127398  0.62959360  1
  O  O295  1  0.88412329  0.12214042  0.13541176  1
  O  O296  1  0.88131630  0.12896464  0.62990736  1
  O  O297  1  0.88222950  0.62572722  0.12898768  1
  O  O298  1  0.87940552  0.62598523  0.63345204  1
  O  O299  1  0.24995934  0.25477074  0.11741385  1
  O  O300  1  0.26379725  0.24788568  0.63214743  1
  O  O301  1  0.24160812  0.76646706  0.11623923  1
  O  O302  1  0.24376252  0.76391684  0.62514460  1
  O  O303  1  0.74994688  0.25920308  0.11691678  1
  O  O304  1  0.75558045  0.25316494  0.61413712  1
  O  O305  1  0.75041844  0.76478139  0.12723784  1
  O  O306  1  0.75271848  0.75065863  0.61382625  1
  O  O307  1  0.23990448  0.25120448  0.36846661  1
  O  O308  1  0.24143680  0.24670082  0.88007393  1
  O  O309  1  0.23562947  0.74316711  0.37610449  1
  O  O310  1  0.24086079  0.75781469  0.88642207  1
  O  O311  1  0.74407274  0.25311355  0.38730914  1
  O  O312  1  0.73748027  0.25060865  0.88284879  1
  O  O313  1  0.73345930  0.75531075  0.38096290  1
  O  O314  1  0.75263263  0.74003519  0.87651058  1
  O  O315  1  -0.00562898  0.13272799  0.01648544  1
  O  O316  1  0.00356788  0.11751872  0.50599164  1
  O  O317  1  0.00545918  0.62624337  0.00778101  1
  O  O318  1  0.00818445  0.62115979  0.50475348  1
  O  O319  1  0.49431819  0.11742171  0.00725604  1
  O  O320  1  0.50936549  0.11668360  0.50879500  1
  O  O321  1  0.50797075  0.62352222  0.00838798  1
  O  O322  1  0.51084382  0.62385282  0.49747637  1
  O  O323  1  0.50108874  0.37290888  0.48950110  1
  O  O324  1  0.49209770  0.37551791  0.99078312  1
  O  O325  1  0.50311920  0.88196619  0.49189189  1
  O  O326  1  0.49548402  0.88148418  0.99182223  1
  O  O327  1  0.99073444  0.37924288  0.49749399  1
  O  O328  1  0.99057944  0.37419608  0.99330896  1
  O  O329  1  0.99060200  0.88526704  0.50355076  1
  O  O330  1  0.98406082  0.87485844  1.00275015  1
  O  O331  1  0.49175090  0.49073925  0.36759794  1
  O  O332  1  0.49137040  0.49131137  0.87848954  1
  O  O333  1  0.50950205  0.98820175  0.38475364  1
  O  O334  1  0.50574333  0.99165736  0.88696557  1
  O  O335  1  0.99130182  0.49778842  0.38122129  1
  O  O336  1  0.99206541  0.49181602  0.87562370  1
  O  O337  1  0.99325023  1.00278357  0.38384603  1
  O  O338  1  0.98530212  0.99878303  0.86964229  1
  O  O339  1  0.01403461  0.00609734  0.13254833  1
  O  O340  1  -0.00155735  0.01107143  0.61692990  1
  O  O341  1  0.00569840  0.51185503  0.12469305  1
  O  O342  1  0.00462051  0.50623564  0.62038741  1
  O  O343  1  0.50870572  0.00594743  0.11546546  1
  O  O344  1  0.51138769  0.00375342  0.61831570  1
  O  O345  1  0.51201722  0.50295671  0.12393009  1
  O  O346  1  0.50700808  0.51571664  0.63038301  1
  O  O347  1  0.24604554  0.38098549  0.24405790  1
  O  O348  1  0.25123839  0.38988537  0.74257240  1
  O  O349  1  0.24343377  0.88056878  0.24331430  1
  O  O350  1  0.23887284  0.87985583  0.74656304  1
  O  O351  1  0.74299568  0.37517240  0.24151609  1
  O  O352  1  0.73835548  0.36932057  0.75170613  1
  O  O353  1  0.73642547  0.87484830  0.24177119  1
  O  O354  1  0.74014767  0.88192587  0.74893910  1
  O  O355  1  0.26268196  0.11568054  0.24518876  1
  O  O356  1  0.24558427  0.12289110  0.76728020  1
  O  O357  1  0.25400634  0.61952310  0.25276163  1
  O  O358  1  0.24943692  0.60650092  0.74802277  1
  O  O359  1  0.76411554  0.13165366  0.24474652  1
  O  O360  1  0.76104494  0.11800425  0.74248260  1
  O  O361  1  0.76398798  0.62588710  0.24289058  1
  O  O362  1  0.75702219  0.62885058  0.76266383  1
  O  O363  1  0.38466510  0.12771884  0.36389459  1
  O  O364  1  0.35866773  0.13308601  0.87601650  1
  O  O365  1  0.37056577  0.62095990  0.36790530  1
  O  O366  1  0.37871542  0.60979017  0.88148990  1
  O  O367  1  0.87583853  0.11021059  0.36840719  1
  O  O368  1  0.87683594  0.11847367  0.86492142  1
  O  O369  1  0.88103159  0.61674172  0.36460360  1
  O  O370  1  0.86510141  0.61898100  0.87153495  1
  O  O371  1  0.12985880  0.38095832  0.13053755  1
  O  O372  1  0.11755809  0.38649472  0.62187322  1
  O  O373  1  0.12935630  0.88384360  0.13551457  1
  O  O374  1  0.12832737  0.87774311  0.63446223  1
  O  O375  1  0.62836094  0.38202608  0.12793535  1
  O  O376  1  0.62245466  0.37270251  0.64330971  1
  O  O377  1  0.62964198  0.88246038  0.13039183  1
  O  O378  1  0.62230099  0.88094007  0.63659285  1
  O  O379  1  0.12014536  0.25152576  0.25633877  1
  O  O380  1  0.11101719  0.24545985  0.75594269  1
  O  O381  1  0.11804826  0.75733951  0.25564943  1
  O  O382  1  0.11889708  0.75742501  0.75738431  1
  O  O383  1  0.61929350  0.25474711  0.25597151  1
  O  O384  1  0.62441349  0.25728442  0.76216418  1
  O  O385  1  0.62666093  0.75540088  0.26201726  1
  O  O386  1  0.63165608  0.76258649  0.74665798  1
  O  O387  1  0.38431152  0.24404966  0.24800181  1
  O  O388  1  0.38065098  0.24405041  0.73985666  1
  O  O389  1  0.36579856  0.73662428  0.25106508  1
  O  O390  1  0.37002025  0.74930743  0.74536714  1
  O  O391  1  0.88338093  0.24175751  0.25063898  1
  O  O392  1  0.88144380  0.24126611  0.74722344  1
  O  O393  1  0.88155246  0.74624708  0.25050204  1
  O  O394  1  0.88160811  0.74225679  0.75066815  1
  O  O395  1  0.37075509  0.50279180  0.48546213  1
  O  O396  1  0.37257448  0.48804827  0.99393295  1
  O  O397  1  0.38972951  0.99859283  0.50280617  1
  O  O398  1  0.38455981  0.98996037  1.00558693  1
  O  O399  1  0.87914733  0.49624948  0.49330773  1
  O  O400  1  0.87746991  0.48951823  0.99334853  1
  O  O401  1  0.87773865  0.99518835  0.48984279  1
  O  O402  1  0.87110843  0.99070034  0.99105754  1
  O  O403  1  0.12460829  -0.00780639  0.01647214  1
  O  O404  1  0.11562438  0.00953931  0.49907565  1
  O  O405  1  0.12387127  0.50718653  0.00569598  1
  O  O406  1  0.11773586  0.50733241  0.50576329  1
  O  O407  1  0.61658580  -0.00393944  0.00871373  1
  O  O408  1  0.62290213  0.00411948  0.50760474  1
  O  O409  1  0.62353014  0.50828981  0.00754411  1
  O  O410  1  0.62911062  0.51798138  0.49225337  1
  O  O411  1  0.37011343  0.37505428  0.11732587  1
  O  O412  1  0.38134124  0.36068893  0.62588500  1
  O  O413  1  0.36643630  0.87928572  0.11824210  1
  O  O414  1  0.36691838  0.87522873  0.62238125  1
  O  O415  1  0.86991045  0.37400008  0.11736132  1
  O  O416  1  0.87522549  0.36681372  0.61712468  1
  O  O417  1  0.86704083  0.87721647  0.11640847  1
  O  O418  1  0.87153421  0.87464471  0.61071700  1
  O  O419  1  0.12285326  0.13060453  0.38720317  1
  O  O420  1  0.13014731  0.13762854  0.87719976  1
  O  O421  1  0.12788334  0.63023482  0.38233419  1
  O  O422  1  0.11954480  0.63875492  0.88136611  1
  O  O423  1  0.61969950  0.12958877  0.38745476  1
  O  O424  1  0.62156452  0.13771233  0.87077408  1
  O  O425  1  0.62014770  0.63637274  0.38029710  1
  O  O426  1  0.63892912  0.62132110  0.88161093  1
