# generated using pymatgen
data_V85Zn86O256
_symmetry_space_group_name_H-M   'P 1'
_cell_length_a   16.93754715
_cell_length_b   16.93683361
_cell_length_c   16.91661311
_cell_angle_alpha   90.03833352
_cell_angle_beta   89.94981630
_cell_angle_gamma   90.01998616
_symmetry_Int_Tables_number   1
_chemical_formula_structural   V85Zn86O256
_chemical_formula_sum   'V85 Zn86 O256'
_cell_volume   4852.83879611
_cell_formula_units_Z   1
loop_
 _symmetry_equiv_pos_site_id
 _symmetry_equiv_pos_as_xyz
  1  'x, y, z'
loop_
 _atom_site_type_symbol
 _atom_site_label
 _atom_site_symmetry_multiplicity
 _atom_site_fract_x
 _atom_site_fract_y
 _atom_site_fract_z
 _atom_site_occupancy
  V  V0  1  0.74811330  0.37067782  0.10640003  1
  V  V1  1  0.87531435  0.75393761  0.12858221  1
  V  V2  1  0.50625653  0.75148222  0.75139026  1
  V  V3  1  -0.00009848  0.87647443  0.87868762  1
  V  V4  1  0.37415176  0.63355631  0.74603729  1
  V  V5  1  0.23959985  0.62347331  0.36107192  1
  V  V6  1  0.74683467  0.74617151  0.49943324  1
  V  V7  1  0.49030087  0.62528445  0.12834079  1
  V  V8  1  0.12700672  0.12551771  0.50199932  1
  V  V9  1  0.00078065  0.12884526  0.12790519  1
  V  V10  1  0.86864132  0.25336636  0.62602626  1
  V  V11  1  0.63416871  0.11977407  0.49396181  1
  V  V12  1  0.48859208  0.74518217  0.25413199  1
  V  V13  1  0.24826833  0.74885629  -0.00005305  1
  V  V14  1  0.00091245  0.00275579  0.00405463  1
  V  V15  1  -0.00010927  0.37638605  0.37358275  1
  V  V16  1  0.25163266  0.50254612  0.74889344  1
  V  V17  1  0.13011645  0.25365035  0.87699114  1
  V  V18  1  0.74437487  0.75636377  0.00031047  1
  V  V19  1  0.12442165  0.50252614  0.61933881  1
  V  V20  1  0.24632590  0.88170896  0.13341949  1
  V  V21  1  0.12935843  0.13111986  0.00255809  1
  V  V22  1  0.87436517  -0.00220473  0.37908744  1
  V  V23  1  0.25323197  0.24824841  0.49960862  1
  V  V24  1  0.61992500  0.63222395  -0.00811470  1
  V  V25  1  0.49440305  0.50055585  -0.00533484  1
  V  V26  1  0.87295514  0.12522386  0.75001597  1
  V  V27  1  0.62531320  0.37996955  0.73305492  1
  V  V28  1  0.00158509  0.62776876  0.62157049  1
  V  V29  1  0.50089030  0.11892270  0.61058038  1
  V  V30  1  -0.00354073  0.25564608  0.24964315  1
  V  V31  1  0.00037149  0.25114479  0.74945523  1
  V  V32  1  0.36957403  -0.00479125  0.37442065  1
  V  V33  1  0.25310167  0.12659684  0.87797825  1
  V  V34  1  0.12765138  -0.00581287  0.62799822  1
  V  V35  1  0.87437170  0.49795197  0.36954873  1
  V  V36  1  0.62461925  -0.00441663  0.61496887  1
  V  V37  1  0.50065531  0.00864336  0.01225850  1
  V  V38  1  0.37893311  0.24719411  0.13808849  1
  V  V39  1  0.12510843  0.37644093  0.74967053  1
  V  V40  1  0.00108062  0.12356797  0.62579059  1
  V  V41  1  0.86523158  0.12803626  0.25981486  1
  V  V42  1  0.25391494  0.86561722  0.62707520  1
  V  V43  1  0.13393173  0.37857362  0.24866843  1
  V  V44  1  0.51114971  0.87311215  0.87955837  1
  V  V45  1  0.50288644  0.87809551  0.37455078  1
  V  V46  1  0.37543644  0.87436487  0.00099024  1
  V  V47  1  0.00011627  0.75116499  0.75019000  1
  V  V48  1  0.12541194  0.50695805  0.12918855  1
  V  V49  1  0.23802602  0.73822273  0.49996971  1
  V  V50  1  0.86559228  0.24977738  0.11264271  1
  V  V51  1  0.11471190  0.62531649  -0.00029244  1
  V  V52  1  0.62383058  0.24804393  0.37093633  1
  V  V53  1  0.61988034  0.36971495  0.24672487  1
  V  V54  1  0.00680429  0.75581723  0.25830849  1
  V  V55  1  0.25314041  -0.00140943  0.75066359  1
  V  V56  1  0.75144351  0.87343442  0.62286852  1
  V  V57  1  0.75473944  0.49394052  0.74506476  1
  V  V58  1  0.75252575  0.24852183  0.49487627  1
  V  V59  1  0.50533558  0.62732803  0.62583558  1
  V  V60  1  0.63515480  -0.00252375  0.13527468  1
  V  V61  1  0.87461075  0.74754478  0.62637454  1
  V  V62  1  0.00073069  0.50294502  0.49885147  1
  V  V63  1  0.36684686  0.36581966  -0.00634268  1
  V  V64  1  0.37430116  0.50922006  0.36175002  1
  V  V65  1  0.62729195  0.25375251  0.87995212  1
  V  V66  1  0.86942973  0.88053939  0.01117718  1
  V  V67  1  0.87862710  0.62585922  0.24337843  1
  V  V68  1  0.25072303  0.11873203  0.36401499  1
  V  V69  1  0.74849861  -0.00041370  0.75032482  1
  V  V70  1  0.86963537  0.37849396  0.50359155  1
  V  V71  1  0.00556208  -0.01350084  0.49621410  1
  V  V72  1  0.37521294  0.37703483  0.49742939  1
  V  V73  1  0.37621756  0.24842013  0.61945287  1
  V  V74  1  0.62260942  0.50087666  0.12120996  1
  V  V75  1  0.74718001  0.50027745  0.24540652  1
  V  V76  1  0.50364516  0.24813691  0.74595404  1
  V  V77  1  0.87539371  0.62128227  0.76300317  1
  V  V78  1  0.74845616  0.12867170  0.88388285  1
  V  V79  1  -0.01177226  0.38067975  0.88218810  1
  V  V80  1  0.50493953  0.49982435  0.50430586  1
  V  V81  1  0.38137732  0.86568766  0.50727120  1
  V  V82  1  0.12638483  0.25149594  0.37518059  1
  V  V83  1  0.37842639  0.12403949  0.74671262  1
  V  V84  1  0.62587516  0.74594663  0.36464619  1
  Zn  Zn85  1  0.74682547  0.62058329  0.37551974  1
  Zn  Zn86  1  0.74992908  -0.00806959  0.25171776  1
  Zn  Zn87  1  0.39022898  0.11217400  0.23880938  1
  Zn  Zn88  1  0.62986526  0.86913238  0.75405668  1
  Zn  Zn89  1  0.62286980  0.13225373  0.00825893  1
  Zn  Zn90  1  0.87260759  0.00219765  0.87749628  1
  Zn  Zn91  1  0.24954155  0.37394725  0.11922961  1
  Zn  Zn92  1  0.37029576  0.74602087  0.12946811  1
  Zn  Zn93  1  0.74655800  0.62576214  0.87506522  1
  Zn  Zn94  1  0.24964988  0.37504048  0.62378753  1
  Zn  Zn95  1  0.13448568  0.00845031  0.13288970  1
  Zn  Zn96  1  0.62889655  0.61699646  0.50387053  1
  Zn  Zn97  1  0.88232966  0.86778200  0.49745743  1
  Zn  Zn98  1  -0.01221227  0.50642021  -0.00251474  1
  Zn  Zn99  1  0.50044791  0.37617259  0.87033758  1
  Zn  Zn100  1  0.37309859  0.50088819  0.87289538  1
  Zn  Zn101  1  0.12392344  0.88789715  0.26824451  1
  Zn  Zn102  1  0.12422713  0.75042411  0.87683245  1
  Zn  Zn103  1  0.12704362  0.87458813  0.75507774  1
  Zn  Zn104  1  0.49799126  0.37737971  0.36757227  1
  Zn  Zn105  1  0.24921904  0.62729137  0.87497890  1
  Zn  Zn106  1  0.38017439  0.00089764  0.87537718  1
  Zn  Zn107  1  0.19595923  0.19574314  0.18516907  1
  Zn  Zn108  1  0.18961527  0.18653069  0.68874257  1
  Zn  Zn109  1  0.18602462  0.69007864  0.18377580  1
  Zn  Zn110  1  0.18344401  0.68858244  0.68580553  1
  Zn  Zn111  1  0.68389854  0.18120332  0.18589868  1
  Zn  Zn112  1  0.68723955  0.18741117  0.68592709  1
  Zn  Zn113  1  0.68602051  0.68828830  0.18074491  1
  Zn  Zn114  1  0.68652393  0.68364988  0.68902375  1
  Zn  Zn115  1  0.31381782  0.31296218  0.31564377  1
  Zn  Zn116  1  0.31338079  0.31349478  0.81000785  1
  Zn  Zn117  1  0.30657128  0.80853025  0.31906920  1
  Zn  Zn118  1  0.31838299  0.81206522  0.81650213  1
  Zn  Zn119  1  0.80722986  0.31570065  0.30873348  1
  Zn  Zn120  1  0.80781024  0.31400536  0.81217187  1
  Zn  Zn121  1  0.81392796  0.81578792  0.31286657  1
  Zn  Zn122  1  0.81415115  0.81330319  0.81916948  1
  Zn  Zn123  1  0.19104411  0.44206646  0.43514814  1
  Zn  Zn124  1  0.18436645  0.44272080  0.93684154  1
  Zn  Zn125  1  0.19444181  0.93651290  0.44312426  1
  Zn  Zn126  1  0.18775018  0.94061762  0.94159100  1
  Zn  Zn127  1  0.68844095  0.43421644  0.43556672  1
  Zn  Zn128  1  0.68439603  0.44301353  0.92819821  1
  Zn  Zn129  1  0.70545159  0.91960116  0.41041647  1
  Zn  Zn130  1  0.68569709  0.94259099  0.94228187  1
  Zn  Zn131  1  0.31623526  0.06469394  0.06242183  1
  Zn  Zn132  1  0.31553114  0.05638219  0.55545609  1
  Zn  Zn133  1  0.30700437  0.55936227  0.06299395  1
  Zn  Zn134  1  0.31909261  0.56284484  0.56484540  1
  Zn  Zn135  1  0.81090849  0.06417659  0.06799296  1
  Zn  Zn136  1  0.81448995  0.06077149  0.55997439  1
  Zn  Zn137  1  0.80789876  0.56833253  0.05807258  1
  Zn  Zn138  1  0.81275122  0.56224410  0.56814677  1
  Zn  Zn139  1  0.43613223  0.43392462  0.18082762  1
  Zn  Zn140  1  0.43734782  0.43849630  0.68424673  1
  Zn  Zn141  1  0.43782047  0.93090736  0.19105093  1
  Zn  Zn142  1  0.44099700  0.93604505  0.68786856  1
  Zn  Zn143  1  0.91643743  0.45696912  0.14624711  1
  Zn  Zn144  1  0.93764044  0.43766032  0.69023690  1
  Zn  Zn145  1  0.94333061  0.94002754  0.19258473  1
  Zn  Zn146  1  0.93641633  0.93560621  0.68646192  1
  Zn  Zn147  1  0.06095049  0.06480103  0.31332055  1
  Zn  Zn148  1  0.06364031  0.06275552  0.81482149  1
  Zn  Zn149  1  0.06016279  0.56569883  0.30692307  1
  Zn  Zn150  1  0.06377231  0.56235478  0.81442438  1
  Zn  Zn151  1  0.56072959  0.06095178  0.31356428  1
  Zn  Zn152  1  0.56423102  0.06062315  0.81278598  1
  Zn  Zn153  1  0.56097446  0.56240644  0.31326169  1
  Zn  Zn154  1  0.56431310  0.56123867  0.81013673  1
  Zn  Zn155  1  0.45249932  0.17261017  0.40681956  1
  Zn  Zn156  1  0.44007912  0.18963760  0.93457504  1
  Zn  Zn157  1  0.43379672  0.68623608  0.44094856  1
  Zn  Zn158  1  0.43427850  0.68890831  0.93340652  1
  Zn  Zn159  1  0.94097928  0.18594508  0.43948515  1
  Zn  Zn160  1  0.94040308  0.18895969  0.93471439  1
  Zn  Zn161  1  0.93045140  0.68084258  0.43476700  1
  Zn  Zn162  1  0.93467814  0.69367545  0.94057631  1
  Zn  Zn163  1  0.06201556  0.31483935  0.06429671  1
  Zn  Zn164  1  0.05999093  0.31484070  0.56241819  1
  Zn  Zn165  1  0.06099385  0.81114827  0.06950199  1
  Zn  Zn166  1  0.06711448  0.80533323  0.43509463  1
  Zn  Zn167  1  0.55613368  0.31458682  0.06023130  1
  Zn  Zn168  1  0.56018146  0.30869763  0.55523452  1
  Zn  Zn169  1  0.56219466  0.81522294  0.06972708  1
  Zn  Zn170  1  0.56429051  0.80660068  0.56392476  1
  O  O171  1  0.12310361  0.13086891  0.11748102  1
  O  O172  1  0.12263006  0.11478882  0.62287195  1
  O  O173  1  0.12813541  0.61449936  0.11806393  1
  O  O174  1  0.10985509  0.61703247  0.63098145  1
  O  O175  1  0.62481915  0.11016849  0.12106152  1
  O  O176  1  0.62055134  0.11841141  0.61537547  1
  O  O177  1  0.61332593  0.61963488  0.11491369  1
  O  O178  1  0.61078375  0.62535657  0.62403556  1
  O  O179  1  0.37612656  0.38565872  0.38155999  1
  O  O180  1  0.37865740  0.37749683  0.88055771  1
  O  O181  1  0.38140191  0.87423641  0.38452175  1
  O  O182  1  0.38166595  0.87891929  0.88921833  1
  O  O183  1  0.87984604  0.37943372  0.38010430  1
  O  O184  1  0.89005357  0.36700720  0.87109058  1
  O  O185  1  0.88148154  0.89271219  0.38053061  1
  O  O186  1  0.88655482  0.87937081  0.88724453  1
  O  O187  1  0.25613289  0.00699274  0.37672275  1
  O  O188  1  0.25161148  0.00805289  0.86788197  1
  O  O189  1  0.26302055  0.51239548  0.37923923  1
  O  O190  1  0.24687745  0.50323089  0.85853455  1
  O  O191  1  0.77491713  0.01413693  0.39393314  1
  O  O192  1  0.74952351  0.00791942  0.86627228  1
  O  O193  1  0.75649771  0.49699309  0.36321531  1
  O  O194  1  0.74218664  0.50827428  0.85491980  1
  O  O195  1  0.23274174  0.49233473  0.12010771  1
  O  O196  1  0.24186584  0.50131342  0.63230787  1
  O  O197  1  0.25284086  0.98596972  0.12095402  1
  O  O198  1  0.24643272  0.99316261  0.63109004  1
  O  O199  1  0.73966351  0.49236591  0.12909435  1
  O  O200  1  0.74635675  0.50809485  0.64443167  1
  O  O201  1  0.74104138  0.99739539  0.13049363  1
  O  O202  1  0.74714473  0.99284570  0.63053742  1
  O  O203  1  0.00719967  0.36332009  0.25562352  1
  O  O204  1  0.00677455  0.37026091  0.75817384  1
  O  O205  1  0.00008120  0.86019797  0.25210520  1
  O  O206  1  -0.00157738  0.86880200  0.75970719  1
  O  O207  1  0.51580693  0.38033303  0.24682864  1
  O  O208  1  0.51029137  0.36937506  0.74626265  1
  O  O209  1  0.49815456  0.86411246  0.26722619  1
  O  O210  1  0.50211098  0.86892662  0.75984403  1
  O  O211  1  0.48158330  0.13564965  0.29908881  1
  O  O212  1  0.49698648  0.12851415  0.73944424  1
  O  O213  1  0.50378075  0.63191255  0.24025515  1
  O  O214  1  0.49541767  0.63118640  0.74648392  1
  O  O215  1  0.99371117  0.13934239  0.24502599  1
  O  O216  1  0.99411325  0.12971456  0.74633504  1
  O  O217  1  0.98834977  0.63744109  0.25167914  1
  O  O218  1  0.99373243  0.63083986  0.74741866  1
  O  O219  1  0.37647465  0.26419532  -0.00512845  1
  O  O220  1  0.37033061  0.25780182  0.50067857  1
  O  O221  1  0.36704748  0.75774472  0.00244188  1
  O  O222  1  0.36464042  0.76141163  0.49864834  1
  O  O223  1  0.87769046  0.24423176  0.01451492  1
  O  O224  1  0.87129916  0.25600816  0.50484095  1
  O  O225  1  0.87054866  0.76045504  0.01065564  1
  O  O226  1  0.86456333  0.74696109  0.50539123  1
  O  O227  1  0.13078134  0.24692842  0.49557456  1
  O  O228  1  0.12084467  0.23964065  0.99163974  1
  O  O229  1  0.13929585  0.74647452  0.50572428  1
  O  O230  1  0.12969132  0.74295100  1.00281524  1
  O  O231  1  0.63721804  0.24286361  0.49751133  1
  O  O232  1  0.61663712  0.24981630  0.98453809  1
  O  O233  1  0.63642459  0.74422180  0.49594765  1
  O  O234  1  0.63181601  0.74511850  1.00908130  1
  O  O235  1  0.47845733  0.25446787  0.11620262  1
  O  O236  1  0.49561350  0.23898403  0.62633503  1
  O  O237  1  0.49773674  0.74306032  0.13569126  1
  O  O238  1  0.49975000  0.74189818  0.63554078  1
  O  O239  1  0.98868785  0.24905565  0.13212651  1
  O  O240  1  0.99266797  0.24428093  0.63004954  1
  O  O241  1  0.98406607  0.75473029  0.13669616  1
  O  O242  1  0.99157225  0.74140658  0.63589369  1
  O  O243  1  0.00680814  0.25512713  0.37005994  1
  O  O244  1  0.01139423  0.25515369  0.86795315  1
  O  O245  1  -0.00439860  0.74663894  0.36546330  1
  O  O246  1  -0.00038854  0.76076489  0.86974033  1
  O  O247  1  0.52193078  0.26343858  0.39287477  1
  O  O248  1  0.50843146  0.24968691  0.86114568  1
  O  O249  1  0.50433643  0.75056305  0.37057325  1
  O  O250  1  0.49603161  0.76295738  0.86898288  1
  O  O251  1  0.24091023  0.12982018  0.49924934  1
  O  O252  1  0.24416357  0.12024807  0.98657098  1
  O  O253  1  0.25532231  0.63639447  0.50361562  1
  O  O254  1  0.24197913  0.63427324  0.99876282  1
  O  O255  1  0.74514036  0.13663389  0.50749723  1
  O  O256  1  0.74844811  0.11979265  0.98667643  1
  O  O257  1  0.74948948  0.63008849  0.49971765  1
  O  O258  1  0.73758430  0.63441373  0.99937150  1
  O  O259  1  0.26384055  0.37941046  -0.00710214  1
  O  O260  1  0.25954382  0.36950711  0.49991078  1
  O  O261  1  0.25703228  0.87091060  0.00617410  1
  O  O262  1  0.25862676  0.86246079  0.51042908  1
  O  O263  1  0.74207716  0.38008772  0.00746453  1
  O  O264  1  0.76286335  0.36903026  0.49902729  1
  O  O265  1  0.75987949  0.87229195  -0.00419707  1
  O  O266  1  0.75427981  0.86326458  0.50483207  1
  O  O267  1  0.12114103  0.49301561  0.23911708  1
  O  O268  1  0.12997473  0.49676832  0.73975207  1
  O  O269  1  0.11186092  0.99789629  0.24235540  1
  O  O270  1  0.13296717  0.99986977  0.74470044  1
  O  O271  1  0.63057552  0.49418314  0.24355539  1
  O  O272  1  0.62846576  0.48521346  0.74834683  1
  O  O273  1  0.62546413  1.00664269  0.23974503  1
  O  O274  1  0.63767606  1.00007356  0.73938931  1
  O  O275  1  0.38003004  -0.00393156  0.26750656  1
  O  O276  1  0.37059284  0.00658987  0.75124969  1
  O  O277  1  0.37978187  0.49488997  0.26335361  1
  O  O278  1  0.36586657  0.50577928  0.74913141  1
  O  O279  1  0.87796244  0.00775611  0.26429352  1
  O  O280  1  0.86438082  0.00483969  0.75040276  1
  O  O281  1  0.86786286  0.50689064  0.24479932  1
  O  O282  1  0.86449483  0.50535553  0.74817409  1
  O  O283  1  0.11980752  0.37301874  0.36980966  1
  O  O284  1  0.12177903  0.36788893  0.86882883  1
  O  O285  1  0.13956243  0.86659918  0.37724988  1
  O  O286  1  0.11194019  0.87681825  0.87709706  1
  O  O287  1  0.62647233  0.36795769  0.36323308  1
  O  O288  1  0.62240836  0.36665223  0.86286438  1
  O  O289  1  0.60526241  0.86039844  0.39252892  1
  O  O290  1  0.61501463  0.87942343  0.87502406  1
  O  O291  1  0.37040079  0.13930359  0.12860075  1
  O  O292  1  0.38411888  0.12550761  0.62347387  1
  O  O293  1  0.38613282  0.62505070  0.11902897  1
  O  O294  1  0.38608538  0.62193191  0.63884921  1
  O  O295  1  0.87815970  0.13567552  0.13485486  1
  O  O296  1  0.88160875  0.13179864  0.63010744  1
  O  O297  1  0.86776959  0.63756927  0.13712844  1
  O  O298  1  0.88496247  0.62839664  0.63670676  1
  O  O299  1  0.26777006  0.25840540  0.12343823  1
  O  O300  1  0.25677188  0.24925059  0.61656547  1
  O  O301  1  0.25096973  0.75921657  0.11457351  1
  O  O302  1  0.24681026  0.75928339  0.61942072  1
  O  O303  1  0.75785488  0.25325862  0.12457692  1
  O  O304  1  0.76349581  0.24775107  0.61790450  1
  O  O305  1  0.76022885  0.75146301  0.11550106  1
  O  O306  1  0.75421156  0.75305703  0.62045973  1
  O  O307  1  0.24615715  0.24257323  0.38299579  1
  O  O308  1  0.23777151  0.24225417  0.86625635  1
  O  O309  1  0.25322093  0.73257096  0.38831777  1
  O  O310  1  0.24609405  0.75380431  0.88808678  1
  O  O311  1  0.74301960  0.25537279  0.38739529  1
  O  O312  1  0.73990545  0.24073758  0.86740198  1
  O  O313  1  0.74224825  0.74479994  0.38281293  1
  O  O314  1  0.75694279  0.74656166  0.89385069  1
  O  O315  1  0.00750800  0.12084872  0.00490261  1
  O  O316  1  0.01005814  0.12019890  0.50936756  1
  O  O317  1  0.01045443  0.62737200  -0.00355437  1
  O  O318  1  -0.00833018  0.61614449  0.51019127  1
  O  O319  1  0.49942675  0.11047232  -0.00645027  1
  O  O320  1  0.51101372  0.12627530  0.50698501  1
  O  O321  1  0.50198216  0.62145115  0.00433981  1
  O  O322  1  0.49824557  0.61788051  0.50916674  1
  O  O323  1  0.48872440  0.38238399  0.50089140  1
  O  O324  1  0.48913813  0.38575992  0.99488718  1
  O  O325  1  0.48658070  0.86244856  0.49460556  1
  O  O326  1  0.49379383  0.88185764  0.99687397  1
  O  O327  1  0.98970543  0.38108140  0.49357334  1
  O  O328  1  1.00434358  0.37164572  0.98340465  1
  O  O329  1  1.00488711  0.88341118  0.50245361  1
  O  O330  1  0.99558321  0.88432473  0.99842481  1
  O  O331  1  0.48799390  0.50006516  0.38198155  1
  O  O332  1  0.49827108  0.50009667  0.88450183  1
  O  O333  1  0.49536707  0.98074225  0.38100893  1
  O  O334  1  0.50054898  0.99128929  0.88385589  1
  O  O335  1  0.99355438  0.49651775  0.37841022  1
  O  O336  1  1.00196073  0.48536709  0.87684080  1
  O  O337  1  0.99340048  1.00937562  0.39027822  1
  O  O338  1  0.99833456  0.99716324  0.88759207  1
  O  O339  1  -0.00257111  0.01016743  0.11483174  1
  O  O340  1  0.00953679  0.00252048  0.62039482  1
  O  O341  1  0.02251331  0.49116642  0.11865205  1
  O  O342  1  0.00571869  0.50640484  0.62135790  1
  O  O343  1  0.49747572  -0.00102399  0.11500528  1
  O  O344  1  0.51247042  0.00656103  0.62785780  1
  O  O345  1  0.50251729  0.50610236  0.11384207  1
  O  O346  1  0.49522730  0.50938857  0.61464744  1
  O  O347  1  0.23573883  0.37167197  0.25392918  1
  O  O348  1  0.24368765  0.38357062  0.74580963  1
  O  O349  1  0.24936389  0.86549819  0.23525036  1
  O  O350  1  0.25272416  0.87844696  0.74438143  1
  O  O351  1  0.74071794  0.38506376  0.24052780  1
  O  O352  1  0.74069466  0.38437632  0.74844603  1
  O  O353  1  0.73471863  0.89092642  0.29940370  1
  O  O354  1  0.75105811  0.88139552  0.74583005  1
  O  O355  1  0.25892044  0.13103231  0.26289231  1
  O  O356  1  0.25706744  0.11956470  0.75777037  1
  O  O357  1  0.24833392  0.63290728  0.26193337  1
  O  O358  1  0.25656806  0.62165180  0.74769682  1
  O  O359  1  0.76336633  0.11984784  0.24993468  1
  O  O360  1  0.75493964  0.11772099  0.75368711  1
  O  O361  1  0.75133643  0.61208003  0.24681491  1
  O  O362  1  0.75947467  0.62096981  0.75302990  1
  O  O363  1  0.35887270  0.10744766  0.39749986  1
  O  O364  1  0.36723200  0.12555156  0.86817713  1
  O  O365  1  0.36812526  0.61315465  0.37697345  1
  O  O366  1  0.37067171  0.62194332  0.86182180  1
  O  O367  1  0.88449595  0.11860896  0.36714530  1
  O  O368  1  0.86779437  0.12634042  0.86755987  1
  O  O369  1  0.86823573  0.61521123  0.36107084  1
  O  O370  1  0.87713871  0.62591467  0.86602629  1
  O  O371  1  0.12873358  0.37843485  0.13303400  1
  O  O372  1  0.12424070  0.38311579  0.63231118  1
  O  O373  1  0.14061694  0.87827453  0.12183851  1
  O  O374  1  0.13731305  0.88871802  0.63106183  1
  O  O375  1  0.63040604  0.37731748  0.12745532  1
  O  O376  1  0.62377725  0.36724705  0.63462746  1
  O  O377  1  0.61702900  0.89792392  0.12437580  1
  O  O378  1  0.63208207  0.88099491  0.62654620  1
  O  O379  1  0.11800057  0.25579121  0.25548527  1
  O  O380  1  0.12010818  0.25511552  0.75503034  1
  O  O381  1  0.10729389  0.75031452  0.24373958  1
  O  O382  1  0.11142258  0.75295952  0.75255888  1
  O  O383  1  0.63480466  0.25605843  0.25933810  1
  O  O384  1  0.62197375  0.25888450  0.75203063  1
  O  O385  1  0.61911582  0.74486983  0.26118656  1
  O  O386  1  0.61252249  0.75022501  0.75019813  1
  O  O387  1  0.37881606  0.25722311  0.24013750  1
  O  O388  1  0.38203189  0.24438697  0.74015814  1
  O  O389  1  0.38522289  0.75123418  0.25141180  1
  O  O390  1  0.38699787  0.74294607  0.75407899  1
  O  O391  1  0.87999309  0.24424858  0.25005750  1
  O  O392  1  0.87846366  0.24706616  0.74177704  1
  O  O393  1  0.87722730  0.74595660  0.24760715  1
  O  O394  1  0.88282424  0.74297282  0.74929108  1
  O  O395  1  0.38192554  0.49259034  0.49433675  1
  O  O396  1  0.37962612  0.49324207  0.99618701  1
  O  O397  1  0.36839167  0.97656759  0.49070756  1
  O  O398  1  0.38595336  0.99410529  0.99956786  1
  O  O399  1  0.87754022  0.49314445  0.49500475  1
  O  O400  1  0.88366688  0.49198284  1.03903683  1
  O  O401  1  0.89011057  0.99943063  0.49730381  1
  O  O402  1  0.88160347  0.99678567  1.00092659  1
  O  O403  1  0.11822981  0.01424342  0.00408818  1
  O  O404  1  0.12230822  0.00530535  0.50936975  1
  O  O405  1  0.12222252  0.51075823  0.00550373  1
  O  O406  1  0.11992500  0.49290347  0.51312796  1
  O  O407  1  0.61265111  0.00365554  0.00876042  1
  O  O408  1  0.63761335  0.00561975  0.51080092  1
  O  O409  1  0.61471943  0.50781605  0.00269595  1
  O  O410  1  0.60959761  0.49683521  0.49200444  1
  O  O411  1  0.37185400  0.37057740  0.10991126  1
  O  O412  1  0.37266249  0.36791073  0.61585887  1
  O  O413  1  0.36651982  0.87229708  0.11669457  1
  O  O414  1  0.36973452  0.87830860  0.61508636  1
  O  O415  1  0.86073733  0.35549268  0.13462314  1
  O  O416  1  0.88343242  0.36568412  0.61562556  1
  O  O417  1  0.87774238  0.87429985  0.11777241  1
  O  O418  1  0.86941767  0.86547453  0.62211929  1
  O  O419  1  0.13282068  0.13127919  0.38190002  1
  O  O420  1  0.13181367  0.13289051  0.88060922  1
  O  O421  1  0.14063566  0.61311166  0.37564998  1
  O  O422  1  0.12793124  0.62905577  0.88368983  1
  O  O423  1  0.62722947  0.13052517  0.38814047  1
  O  O424  1  0.63305626  0.13359804  0.87382174  1
  O  O425  1  0.62611554  0.63224838  0.38022726  1
  O  O426  1  0.62038402  0.62650033  0.88847623  1
