# generated using pymatgen
data_V85Zn86O256
_symmetry_space_group_name_H-M   'P 1'
_cell_length_a   16.93802536
_cell_length_b   16.94957051
_cell_length_c   16.94270578
_cell_angle_alpha   89.95055618
_cell_angle_beta   89.94549059
_cell_angle_gamma   90.07684367
_symmetry_Int_Tables_number   1
_chemical_formula_structural   V85Zn86O256
_chemical_formula_sum   'V85 Zn86 O256'
_cell_volume   4864.11121680
_cell_formula_units_Z   1
loop_
 _symmetry_equiv_pos_site_id
 _symmetry_equiv_pos_as_xyz
  1  'x, y, z'
loop_
 _atom_site_type_symbol
 _atom_site_label
 _atom_site_symmetry_multiplicity
 _atom_site_fract_x
 _atom_site_fract_y
 _atom_site_fract_z
 _atom_site_occupancy
  V  V0  1  0.37450070  0.12488772  0.24697838  1
  V  V1  1  0.13234007  0.24668493  0.37542107  1
  V  V2  1  0.00025369  0.87214385  0.36715457  1
  V  V3  1  0.12425066  0.87318386  0.75221763  1
  V  V4  1  0.25348321  -0.00762885  0.24569888  1
  V  V5  1  0.62521407  0.74895138  0.87100979  1
  V  V6  1  0.37879869  0.50090800  0.37637656  1
  V  V7  1  0.37599883  0.87112841  0.50463293  1
  V  V8  1  0.51370885  0.12172140  0.12295630  1
  V  V9  1  0.36653769  0.37173585  0.01566360  1
  V  V10  1  0.25133874  0.62621992  0.37489333  1
  V  V11  1  -0.00478774  0.62557669  0.13754754  1
  V  V12  1  -0.00280876  0.87596438  0.87632883  1
  V  V13  1  0.50374664  -0.00079311  0.50715205  1
  V  V14  1  0.88057412  0.24322287  0.11128758  1
  V  V15  1  0.37446056  0.00298212  0.88249518  1
  V  V16  1  0.62867685  0.50501002  0.12173526  1
  V  V17  1  -0.00658146  0.12105822  0.62864343  1
  V  V18  1  0.00056885  0.01463310  0.00408327  1
  V  V19  1  0.49841263  0.24983017  0.24282950  1
  V  V20  1  0.24950243  0.75780430  0.00601733  1
  V  V21  1  0.12707395  0.87219311  0.24054747  1
  V  V22  1  0.75502250  0.63270944  0.36739508  1
  V  V23  1  0.24853342  0.00092841  0.75459203  1
  V  V24  1  0.37151066  0.50670968  0.87604259  1
  V  V25  1  0.73712306  0.24880837  0.00068522  1
  V  V26  1  0.87502740  0.87603570  0.49808998  1
  V  V27  1  0.50096658  0.37589370  0.37731268  1
  V  V28  1  0.87371910  0.01020651  0.86376090  1
  V  V29  1  -0.00568081  0.37562914  0.87713945  1
  V  V30  1  0.49762575  0.37282781  0.87862678  1
  V  V31  1  0.24981504  0.87229483  0.62756469  1
  V  V32  1  0.87767001  0.74807271  0.13589671  1
  V  V33  1  0.87010639  0.74904233  0.62469052  1
  V  V34  1  0.12300722  -0.00500808  0.62581374  1
  V  V35  1  0.49424668  0.62586536  0.63340702  1
  V  V36  1  0.25130255  0.50634241  0.74380825  1
  V  V37  1  0.87538838  0.87780844  -0.00012442  1
  V  V38  1  -0.00340080  0.24670180  0.75249985  1
  V  V39  1  0.00060770  0.37433673  0.36056150  1
  V  V40  1  0.63104350  0.37729935  0.24670664  1
  V  V41  1  0.50624009  0.49795669  0.50169940  1
  V  V42  1  0.50527110  0.62989397  0.11982118  1
  V  V43  1  0.12494536  0.00973353  0.11927981  1
  V  V44  1  0.74383653  0.88385174  0.12593097  1
  V  V45  1  0.12556943  0.62307423  0.00241766  1
  V  V46  1  0.74036397  0.12383470  0.86492277  1
  V  V47  1  0.51719049  0.00504192  0.00215547  1
  V  V48  1  0.87476375  0.37340937  0.49742533  1
  V  V49  1  -0.00305063  0.49783847  0.49918890  1
  V  V50  1  0.50282825  0.50247462  0.00006575  1
  V  V51  1  0.87305286  0.24750944  0.62845671  1
  V  V52  1  0.50958781  0.75132510  0.25616704  1
  V  V53  1  0.12821188  0.37893237  0.74836594  1
  V  V54  1  0.74229194  0.37530886  0.62742788  1
  V  V55  1  0.62591274  0.12457814  0.50494797  1
  V  V56  1  0.74758824  0.74814494  -0.00158707  1
  V  V57  1  0.49468359  0.25229628  0.74893055  1
  V  V58  1  0.51101376  0.87148473  0.38033822  1
  V  V59  1  0.74563975  0.89242596  0.63037229  1
  V  V60  1  0.15007742  0.14756635  0.52018908  1
  V  V61  1  0.49700304  0.12740784  0.62671224  1
  V  V62  1  0.12199312  0.75016586  0.36807964  1
  V  V63  1  0.62756201  0.63359453  0.49643325  1
  V  V64  1  0.37884153  0.62818468  0.24975451  1
  V  V65  1  0.24975458  0.74711652  0.50001741  1
  V  V66  1  -0.00034446  0.74754004  0.75001038  1
  V  V67  1  0.00137722  0.61952880  0.62471416  1
  V  V68  1  -0.01027915  0.23347198  0.24796535  1
  V  V69  1  0.74542032  0.62280369  0.87606926  1
  V  V70  1  0.50112569  0.87776605  0.87441741  1
  V  V71  1  0.25011710  0.50099706  0.24077623  1
  V  V72  1  0.13119120  0.24678094  0.88271549  1
  V  V73  1  -0.00311227  0.49816573  0.00354805  1
  V  V74  1  0.36987628  0.12962338  0.74977255  1
  V  V75  1  0.12429294  0.74984028  0.87821303  1
  V  V76  1  0.87406551  0.00712040  0.36394551  1
  V  V77  1  0.74867948  0.25144740  0.50061670  1
  V  V78  1  0.18094230  0.33007767  0.19905733  1
  V  V79  1  0.62683712  0.24859247  0.37752519  1
  V  V80  1  0.37084379  0.00026569  0.37709772  1
  V  V81  1  0.00525295  0.00180584  0.49822662  1
  V  V82  1  0.87357959  0.49964358  0.87812409  1
  V  V83  1  0.12279755  0.62601205  0.49797406  1
  V  V84  1  0.37393113  0.76016315  0.12708942  1
  Zn  Zn85  1  0.74462004  0.75578363  0.49654222  1
  Zn  Zn86  1  0.62585204  0.37358816  0.75360748  1
  Zn  Zn87  1  0.76097852  0.37965653  0.11392390  1
  Zn  Zn88  1  0.87593069  0.50529292  0.36433000  1
  Zn  Zn89  1  0.75804452  0.50691446  0.24491481  1
  Zn  Zn90  1  0.62873747  0.89077843  0.74837109  1
  Zn  Zn91  1  0.75631010  0.12826682  0.37140658  1
  Zn  Zn92  1  0.49373479  0.74812565  0.75410406  1
  Zn  Zn93  1  0.16373588  0.45716725  0.58584164  1
  Zn  Zn94  1  0.75002574  0.49745189  0.75137169  1
  Zn  Zn95  1  0.36850030  0.73889604  0.63697791  1
  Zn  Zn96  1  0.87357749  0.62255893  0.75001232  1
  Zn  Zn97  1  0.63077170  0.50466906  0.62865694  1
  Zn  Zn98  1  0.62901076  0.87839456  0.25478214  1
  Zn  Zn99  1  0.27251136  0.28558826  0.51858150  1
  Zn  Zn100  1  0.61659546  0.24486172  0.87913405  1
  Zn  Zn101  1  0.73911501  0.01871477  0.23556228  1
  Zn  Zn102  1  0.12353530  0.49647561  0.12928430  1
  Zn  Zn103  1  0.24569242  0.12376248  0.89116667  1
  Zn  Zn104  1  0.25530290  0.62972763  0.87440930  1
  Zn  Zn105  1  0.37366629  0.88107979  0.00620493  1
  Zn  Zn106  1  0.24735256  0.25045360  0.02424516  1
  Zn  Zn107  1  0.18690787  0.16648331  0.19634141  1
  Zn  Zn108  1  0.18399032  0.18834319  0.69360486  1
  Zn  Zn109  1  0.18756906  0.68541823  0.18624015  1
  Zn  Zn110  1  0.18589179  0.68313474  0.68687762  1
  Zn  Zn111  1  0.69222484  0.19036395  0.18892161  1
  Zn  Zn112  1  0.68080241  0.18510021  0.68987958  1
  Zn  Zn113  1  0.68783764  0.69211978  0.18451352  1
  Zn  Zn114  1  0.68493978  0.68804334  0.68959683  1
  Zn  Zn115  1  0.32003084  0.30840460  0.32357529  1
  Zn  Zn116  1  0.31397959  0.32086965  0.81149959  1
  Zn  Zn117  1  0.31615656  0.81482008  0.31404326  1
  Zn  Zn118  1  0.31496078  0.81184274  0.81568215  1
  Zn  Zn119  1  0.81476124  0.31242082  0.30803208  1
  Zn  Zn120  1  0.81229612  0.30921942  0.81592131  1
  Zn  Zn121  1  0.81056339  0.81329302  0.31205663  1
  Zn  Zn122  1  0.81349344  0.81307132  0.81080329  1
  Zn  Zn123  1  0.18445199  0.43636571  0.41850908  1
  Zn  Zn124  1  0.18673780  0.43574056  0.93755374  1
  Zn  Zn125  1  0.18897253  0.93699677  0.43695760  1
  Zn  Zn126  1  0.18766953  0.93649752  0.94067999  1
  Zn  Zn127  1  0.68972491  0.44304607  0.43602384  1
  Zn  Zn128  1  0.68586386  0.43278444  0.93935473  1
  Zn  Zn129  1  0.68973365  0.94115209  0.44011115  1
  Zn  Zn130  1  0.69061147  0.93896849  0.93054379  1
  Zn  Zn131  1  0.31223029  0.06739216  0.06648257  1
  Zn  Zn132  1  0.31326784  0.06133803  0.56618961  1
  Zn  Zn133  1  0.31686921  0.56861923  0.06083287  1
  Zn  Zn134  1  0.32503660  0.45455850  0.56193135  1
  Zn  Zn135  1  0.81317468  0.06939720  0.05635267  1
  Zn  Zn136  1  0.81558943  0.06387269  0.55444887  1
  Zn  Zn137  1  0.81353837  0.56557918  0.05986132  1
  Zn  Zn138  1  0.81265401  0.56191455  0.55832799  1
  Zn  Zn139  1  0.44149575  0.44031127  0.18990350  1
  Zn  Zn140  1  0.44013892  0.44402863  0.69347434  1
  Zn  Zn141  1  0.44732624  0.93992118  0.18945294  1
  Zn  Zn142  1  0.43714080  0.93903732  0.69132267  1
  Zn  Zn143  1  0.93251526  0.43274089  0.18540009  1
  Zn  Zn144  1  0.93453858  0.43542559  0.68898524  1
  Zn  Zn145  1  0.93938815  0.93695426  0.18589158  1
  Zn  Zn146  1  0.93505827  0.93395525  0.68714388  1
  Zn  Zn147  1  0.07009110  0.06213108  0.31725749  1
  Zn  Zn148  1  0.06049723  0.06432214  0.81464240  1
  Zn  Zn149  1  0.06345231  0.55860980  0.31126425  1
  Zn  Zn150  1  0.06495564  0.56186782  0.81349440  1
  Zn  Zn151  1  0.56498234  0.06040553  0.31419622  1
  Zn  Zn152  1  0.56340532  0.05901883  0.80868756  1
  Zn  Zn153  1  0.57059500  0.56560972  0.31158550  1
  Zn  Zn154  1  0.56785233  0.55880589  0.81315602  1
  Zn  Zn155  1  0.43633594  0.18402366  0.43241468  1
  Zn  Zn156  1  0.42992369  0.18828799  0.94294663  1
  Zn  Zn157  1  0.43918475  0.68645736  0.44221405  1
  Zn  Zn158  1  0.43810048  0.69018919  0.93978779  1
  Zn  Zn159  1  0.94679762  0.18741489  0.44090010  1
  Zn  Zn160  1  0.93528142  0.18743926  0.93507989  1
  Zn  Zn161  1  0.93620722  0.68998132  0.43525306  1
  Zn  Zn162  1  0.93512110  0.68498440  0.94146796  1
  Zn  Zn163  1  0.05303149  0.30932843  0.05988904  1
  Zn  Zn164  1  0.05699230  0.31158254  0.56333718  1
  Zn  Zn165  1  0.05848370  0.81337778  0.06323661  1
  Zn  Zn166  1  0.05970176  0.81056036  0.55938477  1
  Zn  Zn167  1  0.56009205  0.31498818  0.06499636  1
  Zn  Zn168  1  0.44644748  0.31179438  0.56046445  1
  Zn  Zn169  1  0.56376918  0.81409684  0.05683746  1
  Zn  Zn170  1  0.56389759  0.81010965  0.56827160  1
  O  O171  1  0.12074290  0.10843933  0.12461805  1
  O  O172  1  0.11425384  0.11129104  0.62560564  1
  O  O173  1  0.11541765  0.62565219  0.11554837  1
  O  O174  1  0.10927637  0.63162491  0.61508709  1
  O  O175  1  0.61212572  0.12854581  0.12789298  1
  O  O176  1  0.61478304  0.13075827  0.61226024  1
  O  O177  1  0.61970482  0.61552731  0.12790480  1
  O  O178  1  0.62166137  0.62469926  0.61344410  1
  O  O179  1  0.39300625  0.38585078  0.36811237  1
  O  O180  1  0.38256899  0.38677657  0.88438660  1
  O  O181  1  0.38355817  0.87792884  0.38955485  1
  O  O182  1  0.38295774  0.88595681  0.88009918  1
  O  O183  1  0.88375080  0.37176781  0.38289161  1
  O  O184  1  0.88752795  0.38103047  0.87268685  1
  O  O185  1  0.88212185  0.88038120  0.37963717  1
  O  O186  1  0.87525042  0.88537126  0.88202661  1
  O  O187  1  0.26520581  -0.01175493  0.36775835  1
  O  O188  1  0.25561771  0.00216200  0.87299417  1
  O  O189  1  0.26124389  0.50647950  0.36582801  1
  O  O190  1  0.25675234  0.50288213  0.87119244  1
  O  O191  1  0.76907341  -0.00091566  0.37901713  1
  O  O192  1  0.76276606  0.01401304  0.88104537  1
  O  O193  1  0.75166017  0.51598291  0.37242999  1
  O  O194  1  0.75568469  0.50609321  0.87928818  1
  O  O195  1  0.25322389  0.50733610  0.13767708  1
  O  O196  1  0.25151637  0.51032255  0.63966326  1
  O  O197  1  0.23736758  0.99850452  0.13137119  1
  O  O198  1  0.24412242  0.99098550  0.63399673  1
  O  O199  1  0.74279906  0.49856093  0.12087657  1
  O  O200  1  0.75524221  0.48980051  0.62716637  1
  O  O201  1  0.76021911  0.98702325  0.12170202  1
  O  O202  1  0.75754353  0.99013900  0.62083053  1
  O  O203  1  -0.00161408  0.36384203  0.25806655  1
  O  O204  1  0.00582858  0.37037415  0.75869955  1
  O  O205  1  0.00930701  0.87894329  0.26068620  1
  O  O206  1  0.00432415  0.86788487  0.75610171  1
  O  O207  1  0.51003093  0.36898719  0.25392453  1
  O  O208  1  0.49732652  0.36755419  0.76079480  1
  O  O209  1  0.50054458  0.86824290  0.26374440  1
  O  O210  1  0.50170604  0.87794965  0.76481441  1
  O  O211  1  0.49841687  0.13094252  0.24243526  1
  O  O212  1  0.49109500  0.13081132  0.74532894  1
  O  O213  1  0.49961974  0.63291426  0.24269323  1
  O  O214  1  0.50714874  0.62277840  0.73658078  1
  O  O215  1  1.00692524  0.13622329  0.25334469  1
  O  O216  1  1.00444040  0.13396688  0.74132255  1
  O  O217  1  1.00588687  0.62357068  0.23652684  1
  O  O218  1  0.99999569  0.62853058  0.74103306  1
  O  O219  1  0.37295918  0.26878974  0.00215395  1
  O  O220  1  0.37622205  0.25663160  0.48971011  1
  O  O221  1  0.36752406  0.75220981  0.00943319  1
  O  O222  1  0.36849963  0.75619353  0.50537521  1
  O  O223  1  0.87395307  0.25133180  0.00756773  1
  O  O224  1  0.87081583  0.25415957  0.50451194  1
  O  O225  1  0.86512264  0.76008517  0.00104771  1
  O  O226  1  0.87713006  0.76347125  0.50612487  1
  O  O227  1  0.10916090  0.24858372  0.48285188  1
  O  O228  1  0.12689316  0.25959934  0.98564550  1
  O  O229  1  0.12952160  0.74864683  0.48760825  1
  O  O230  1  0.13030012  0.74524997  0.99980040  1
  O  O231  1  0.63283089  0.24293426  0.49015891  1
  O  O232  1  0.63340886  0.25007124  1.00076982  1
  O  O233  1  0.62497637  0.73715905  0.50144851  1
  O  O234  1  0.63999271  0.75659348  0.98939994  1
  O  O235  1  0.50208426  0.24107911  0.13585217  1
  O  O236  1  0.49575862  0.23560622  0.63402547  1
  O  O237  1  0.49755905  0.74543580  0.12888137  1
  O  O238  1  0.49995249  0.73669633  0.62805237  1
  O  O239  1  0.99147162  0.24850794  0.13499525  1
  O  O240  1  0.99575545  0.24016698  0.63321791  1
  O  O241  1  0.98477757  0.74271644  0.11794173  1
  O  O242  1  0.98955411  0.74436501  0.62788684  1
  O  O243  1  0.00482123  0.25302302  0.36151786  1
  O  O244  1  0.00631336  0.25676456  0.87099677  1
  O  O245  1  0.00949558  0.75931467  0.37799048  1
  O  O246  1  0.00292880  0.75503608  0.87195196  1
  O  O247  1  0.51113706  0.25885184  0.36825243  1
  O  O248  1  0.49561782  0.25688489  0.87188476  1
  O  O249  1  0.49350160  0.75784515  0.36734719  1
  O  O250  1  0.50832622  0.75946663  0.87932615  1
  O  O251  1  0.23428425  0.10020705  0.49227852  1
  O  O252  1  0.25880635  0.14006681  1.00224545  1
  O  O253  1  0.23942285  0.63410393  0.49097439  1
  O  O254  1  0.24128594  0.63460886  1.00013406  1
  O  O255  1  0.74204086  0.13079055  0.49446173  1
  O  O256  1  0.75603352  0.14101606  0.98612433  1
  O  O257  1  0.74044789  0.62820021  0.49383280  1
  O  O258  1  0.75480157  0.63576481  0.98713226  1
  O  O259  1  0.26217204  0.37480247  0.00211796  1
  O  O260  1  0.23765092  0.39524615  0.51147717  1
  O  O261  1  0.25204129  0.86195895  0.00089838  1
  O  O262  1  0.25711276  0.86741413  0.50537708  1
  O  O263  1  0.75026915  0.35600040  -0.00427190  1
  O  O264  1  0.75726149  0.37100962  0.50421264  1
  O  O265  1  0.75944077  0.87232560  0.00646037  1
  O  O266  1  0.75871287  0.87459371  0.50915210  1
  O  O267  1  0.14013057  0.50057440  0.24866068  1
  O  O268  1  0.13609065  0.49199103  0.75532379  1
  O  O269  1  0.13282022  0.99368856  0.24329928  1
  O  O270  1  0.12750087  0.99301468  0.74743121  1
  O  O271  1  0.62852448  0.49374676  0.24005133  1
  O  O272  1  0.63080755  0.49174703  0.74688240  1
  O  O273  1  0.63037978  0.99090004  0.25939234  1
  O  O274  1  0.63424711  1.00158216  0.75065324  1
  O  O275  1  0.37119349  -0.00119294  0.25655763  1
  O  O276  1  0.36949444  0.00664310  0.76270512  1
  O  O277  1  0.37427861  0.50775516  0.25832501  1
  O  O278  1  0.35999510  0.49804332  0.76111249  1
  O  O279  1  0.87552511  -0.00422488  0.26282733  1
  O  O280  1  0.88057194  -0.00321126  0.76604641  1
  O  O281  1  0.87089110  0.49739323  0.25101293  1
  O  O282  1  0.87386021  0.50105719  0.76462422  1
  O  O283  1  0.11115783  0.36174435  0.37346197  1
  O  O284  1  0.11457388  0.36928624  0.86748173  1
  O  O285  1  0.11905870  0.86933566  0.36641662  1
  O  O286  1  0.11735126  0.86960816  0.87227269  1
  O  O287  1  0.61797487  0.37268795  0.36807830  1
  O  O288  1  0.60800445  0.37211697  0.87746502  1
  O  O289  1  0.61391581  0.87305818  0.38388487  1
  O  O290  1  0.61931616  0.86833538  0.87381241  1
  O  O291  1  0.38623918  0.11812718  0.14297816  1
  O  O292  1  0.37932212  0.11932062  0.64061449  1
  O  O293  1  0.38628302  0.63488824  0.13148626  1
  O  O294  1  0.39612801  0.62215507  0.61893842  1
  O  O295  1  0.86991275  0.14290669  0.12487015  1
  O  O296  1  0.88660871  0.12947670  0.61827773  1
  O  O297  1  0.87986950  0.63995760  0.11901124  1
  O  O298  1  0.88423247  0.63202896  0.62338363  1
  O  O299  1  0.23475579  0.25847637  0.14314687  1
  O  O300  1  0.21012210  0.21910142  0.58804431  1
  O  O301  1  0.26237766  0.74425219  0.11990972  1
  O  O302  1  0.24885546  0.75408742  0.61873502  1
  O  O303  1  0.75555392  0.25073042  0.11060421  1
  O  O304  1  0.75508552  0.25361557  0.62056376  1
  O  O305  1  0.75952704  0.75609978  0.11631077  1
  O  O306  1  0.76301086  0.74914101  0.62209124  1
  O  O307  1  0.23386282  0.26062874  0.38262734  1
  O  O308  1  0.23406799  0.25487618  0.86949080  1
  O  O309  1  0.24488502  0.74643010  0.37953463  1
  O  O310  1  0.24193819  0.74898986  0.88553490  1
  O  O311  1  0.73913424  0.25445683  0.37919300  1
  O  O312  1  0.74664524  0.24178659  0.88326844  1
  O  O313  1  0.75252800  0.73985221  0.37887991  1
  O  O314  1  0.74547946  0.74557323  0.87917145  1
  O  O315  1  -0.00086543  0.11366224  -0.00396445  1
  O  O316  1  0.01423713  0.11959664  0.51134499  1
  O  O317  1  0.00577046  0.61535280  0.00617107  1
  O  O318  1  0.00177666  0.61743266  0.50293457  1
  O  O319  1  0.49360617  0.12112015  0.01575594  1
  O  O320  1  0.50289312  0.11813526  0.50807628  1
  O  O321  1  0.49706327  0.61906116  0.01244321  1
  O  O322  1  0.51202947  0.61832839  0.50378479  1
  O  O323  1  0.50721740  0.38905187  0.49053426  1
  O  O324  1  0.49083756  0.38256962  0.99721920  1
  O  O325  1  0.49498895  0.87948787  0.50140238  1
  O  O326  1  0.49897172  0.88569263  0.99105263  1
  O  O327  1  0.99363431  0.38155534  0.49366868  1
  O  O328  1  1.00469198  0.38981628  0.99249285  1
  O  O329  1  0.99427535  0.88061072  0.48984154  1
  O  O330  1  0.98880604  0.87923210  0.99436348  1
  O  O331  1  0.49919378  0.49619969  0.37799410  1
  O  O332  1  0.49457580  0.49549657  0.88340572  1
  O  O333  1  0.49135514  0.98985553  0.38788099  1
  O  O334  1  0.49274051  0.99870671  0.88384443  1
  O  O335  1  0.99910435  0.49039419  0.37964289  1
  O  O336  1  0.99417493  0.49480583  0.88113356  1
  O  O337  1  0.99506237  0.99332660  0.37901425  1
  O  O338  1  0.99134950  0.99632679  0.88185061  1
  O  O339  1  0.01291350  -0.00713064  0.11741833  1
  O  O340  1  0.00097434  0.00375261  0.62012663  1
  O  O341  1  -0.00127184  0.50652548  0.11790415  1
  O  O342  1  -0.00599634  0.50791897  0.61537664  1
  O  O343  1  0.50137514  0.01186428  0.11764386  1
  O  O344  1  0.49278567  0.00933018  0.61468248  1
  O  O345  1  0.50651088  0.51006240  0.11984814  1
  O  O346  1  0.50554828  0.50939929  0.61691729  1
  O  O347  1  0.25385435  0.38257091  0.25570163  1
  O  O348  1  0.23977005  0.38854548  0.75386491  1
  O  O349  1  0.24338541  0.88345740  0.25346861  1
  O  O350  1  0.24279669  0.88058857  0.74800624  1
  O  O351  1  0.73716067  0.37344951  0.24684201  1
  O  O352  1  0.75028682  0.37201791  0.74165115  1
  O  O353  1  0.75108728  0.87375933  0.23304988  1
  O  O354  1  0.75480215  0.87224804  0.73241140  1
  O  O355  1  0.26120216  0.10593041  0.25501419  1
  O  O356  1  0.25507032  0.11951586  0.75412072  1
  O  O357  1  0.25786417  0.61985643  0.25580284  1
  O  O358  1  0.23986501  0.61103437  0.75796887  1
  O  O359  1  0.74893528  0.12786171  0.25941231  1
  O  O360  1  0.75285535  0.13762119  0.76641940  1
  O  O361  1  0.74095585  0.62857341  0.26431391  1
  O  O362  1  0.75234632  0.62459669  0.76312054  1
  O  O363  1  0.38723859  0.10845865  0.36221431  1
  O  O364  1  0.37300117  0.11853212  0.86656820  1
  O  O365  1  0.37286663  0.62076426  0.36886282  1
  O  O366  1  0.37552796  0.61128507  0.88460069  1
  O  O367  1  0.88097167  0.10883638  0.38421154  1
  O  O368  1  0.87032323  0.11437353  0.87376704  1
  O  O369  1  0.85940541  0.62585408  0.38085250  1
  O  O370  1  0.86831940  0.61675712  0.87366466  1
  O  O371  1  0.12030350  0.37672808  0.12915875  1
  O  O372  1  0.11343389  0.37303530  0.64213893  1
  O  O373  1  0.12072449  0.87650927  0.13786418  1
  O  O374  1  0.12822434  0.87593365  0.63135828  1
  O  O375  1  0.62494228  0.38722652  0.13086073  1
  O  O376  1  0.64126323  0.37537510  0.62352189  1
  O  O377  1  0.64251106  0.87104789  0.12077755  1
  O  O378  1  0.64253590  0.87216316  0.62411490  1
  O  O379  1  0.12230711  0.25148978  0.25633703  1
  O  O380  1  0.11530413  0.25870779  0.75886577  1
  O  O381  1  0.13277749  0.75691732  0.26022488  1
  O  O382  1  0.11924545  0.75350272  0.75695500  1
  O  O383  1  0.61726742  0.25830054  0.25559037  1
  O  O384  1  0.60720046  0.25196818  0.75409360  1
  O  O385  1  0.61292287  0.75738844  0.24504532  1
  O  O386  1  0.62177242  0.75755809  0.76185320  1
  O  O387  1  0.38720340  0.23836701  0.26208501  1
  O  O388  1  0.38220119  0.24253589  0.75754540  1
  O  O389  1  0.38448866  0.74721239  0.24436759  1
  O  O390  1  0.37899834  0.75128095  0.74934636  1
  O  O391  1  0.88728794  0.24397387  0.24857086  1
  O  O392  1  0.88991967  0.25543577  0.74623738  1
  O  O393  1  0.87418688  0.75379915  0.23422985  1
  O  O394  1  0.88259802  0.74772037  0.74164567  1
  O  O395  1  0.38900518  0.50846149  0.48311116  1
  O  O396  1  0.38405150  0.49386377  0.99782644  1
  O  O397  1  0.38049021  0.99241170  0.49529899  1
  O  O398  1  0.37863759  1.00124138  0.99151136  1
  O  O399  1  0.88484712  0.49366745  0.49347820  1
  O  O400  1  0.88321319  0.50349187  0.98875678  1
  O  O401  1  0.88579561  0.98959020  0.49351949  1
  O  O402  1  0.88292750  0.99431285  0.99444662  1
  O  O403  1  0.11784815  -0.00767630  0.01264220  1
  O  O404  1  0.11596638  -0.00838618  0.50786634  1
  O  O405  1  0.11959310  0.50793481  0.00393581  1
  O  O406  1  0.11200990  0.50609236  0.49400941  1
  O  O407  1  0.61606499  -0.00015537  -0.00532105  1
  O  O408  1  0.61468177  0.01022439  0.49515160  1
  O  O409  1  0.61102369  0.49522973  0.00666319  1
  O  O410  1  0.61991957  0.51058669  0.50252878  1
  O  O411  1  0.37885956  0.38176582  0.11406310  1
  O  O412  1  0.38163854  0.38004680  0.62266185  1
  O  O413  1  0.38446244  0.86373166  0.12574763  1
  O  O414  1  0.36987739  0.87647065  0.61595159  1
  O  O415  1  0.87167702  0.35147625  0.13267738  1
  O  O416  1  0.87121938  0.36652973  0.61590813  1
  O  O417  1  0.87099590  0.86576886  0.11770661  1
  O  O418  1  0.86906405  0.86899976  0.61697931  1
  O  O419  1  0.12386670  0.14149837  0.38387432  1
  O  O420  1  0.12557676  0.14284376  0.87112943  1
  O  O421  1  0.12790701  0.63370840  0.37708678  1
  O  O422  1  0.12170379  0.63197217  0.88959092  1
  O  O423  1  0.61905832  0.13582258  0.38699274  1
  O  O424  1  0.63692023  0.12666387  0.87532994  1
  O  O425  1  0.63422891  0.62398105  0.38864772  1
  O  O426  1  0.63245939  0.63480985  0.87421782  1
