# generated using pymatgen
data_V85Zn86O256
_symmetry_space_group_name_H-M   'P 1'
_cell_length_a   16.98230205
_cell_length_b   16.98505553
_cell_length_c   16.97162822
_cell_angle_alpha   90.07146444
_cell_angle_beta   89.96134244
_cell_angle_gamma   89.93304910
_symmetry_Int_Tables_number   1
_chemical_formula_structural   V85Zn86O256
_chemical_formula_sum   'V85 Zn86 O256'
_cell_volume   4895.37885980
_cell_formula_units_Z   1
loop_
 _symmetry_equiv_pos_site_id
 _symmetry_equiv_pos_as_xyz
  1  'x, y, z'
loop_
 _atom_site_type_symbol
 _atom_site_label
 _atom_site_symmetry_multiplicity
 _atom_site_fract_x
 _atom_site_fract_y
 _atom_site_fract_z
 _atom_site_occupancy
  V  V0  1  0.74852667  0.25424009  -0.00124594  1
  V  V1  1  0.74338467  0.62925042  0.37447505  1
  V  V2  1  0.74956457  -0.00315242  0.24372946  1
  V  V3  1  0.24562486  0.25011311  0.00234381  1
  V  V4  1  0.62536941  0.86961861  0.25299669  1
  V  V5  1  0.87464218  0.38641645  -0.00530247  1
  V  V6  1  0.74617035  0.12765577  0.87254415  1
  V  V7  1  0.87029773  0.49840098  0.38180571  1
  V  V8  1  0.12674994  0.12370493  0.50150246  1
  V  V9  1  0.37790293  0.49926067  0.37444477  1
  V  V10  1  0.50281419  0.74927001  0.74988606  1
  V  V11  1  0.75464208  0.85118396  0.11755822  1
  V  V12  1  0.38403445  0.86866611  -0.00831275  1
  V  V13  1  0.24027172  0.00065433  0.24528705  1
  V  V14  1  0.87469712  0.25291734  0.12512546  1
  V  V15  1  0.49993735  0.74671337  0.24861508  1
  V  V16  1  0.00215872  -0.00345242  0.50037235  1
  V  V17  1  0.00028493  0.25097564  0.25213783  1
  V  V18  1  0.37448809  0.00224340  0.37032475  1
  V  V19  1  0.49463930  0.62391428  0.12317066  1
  V  V20  1  0.37706011  0.61940644  0.74135757  1
  V  V21  1  0.61914168  0.25875640  0.87621931  1
  V  V22  1  0.00268435  0.86968517  0.36296258  1
  V  V23  1  0.14120162  -0.00424045  0.63165793  1
  V  V24  1  0.62812659  0.75314704  0.87862644  1
  V  V25  1  0.87526054  0.12583108  0.24706979  1
  V  V26  1  0.12165665  0.62888846  0.00167660  1
  V  V27  1  0.75061584  0.12275110  0.37498892  1
  V  V28  1  0.74983589  0.50110322  0.25230766  1
  V  V29  1  0.12363198  0.62511206  0.50111775  1
  V  V30  1  0.77891961  -0.04450210  0.79627798  1
  V  V31  1  0.50065860  0.37787794  0.38045232  1
  V  V32  1  0.49967890  0.24064357  0.24722479  1
  V  V33  1  -0.00131251  0.24829438  0.75274169  1
  V  V34  1  0.12248354  0.24443642  0.88107685  1
  V  V35  1  0.74285849  0.87854443  0.62157424  1
  V  V36  1  0.61833028  0.12565137  0.00971430  1
  V  V37  1  0.37037742  0.11543041  0.75954025  1
  V  V38  1  0.87734706  -0.00370741  0.37145451  1
  V  V39  1  0.87055619  0.12274654  0.75719770  1
  V  V40  1  0.25345719  0.75103182  0.49687202  1
  V  V41  1  0.88678462  0.62896782  0.24389678  1
  V  V42  1  0.12280236  0.75321957  0.36522549  1
  V  V43  1  -0.00151687  0.11433710  0.62988335  1
  V  V44  1  0.36314523  0.61949791  0.24672243  1
  V  V45  1  0.50119223  0.00047130  0.50079908  1
  V  V46  1  0.62989925  0.63008328  0.00034745  1
  V  V47  1  0.08292959  -0.04385834  0.08440817  1
  V  V48  1  0.62735272  0.12518739  0.50242010  1
  V  V49  1  0.25318242  0.62570593  0.87878132  1
  V  V50  1  0.37341166  0.37694345  0.50580364  1
  V  V51  1  0.61968456  0.50293686  0.61879464  1
  V  V52  1  0.49472748  0.00113140  -0.00205060  1
  V  V53  1  0.61609999  0.88128281  0.75703244  1
  V  V54  1  0.37667003  0.37508209  0.00177487  1
  V  V55  1  0.62174090  0.49956707  0.12425866  1
  V  V56  1  0.50031523  0.49834699  -0.00824302  1
  V  V57  1  0.37037461  0.87476140  0.49766839  1
  V  V58  1  0.25156675  0.49145017  0.74003595  1
  V  V59  1  0.50174378  0.86976485  0.37397040  1
  V  V60  1  0.01442356  0.13193700  0.11379165  1
  V  V61  1  -0.00313576  0.49757523  0.50193294  1
  V  V62  1  0.37766628  0.24199279  0.12363023  1
  V  V63  1  -0.00200251  0.38682835  0.87298532  1
  V  V64  1  0.12897236  0.37098515  0.74501561  1
  V  V65  1  -0.00628690  0.37228643  0.38115518  1
  V  V66  1  0.75504858  0.50287206  0.75255031  1
  V  V67  1  0.25647888  0.88324346  0.12376717  1
  V  V68  1  0.37659839  0.49072230  0.87240876  1
  V  V69  1  0.13267503  0.38215100  0.25268033  1
  V  V70  1  0.62465226  0.24923082  0.37613633  1
  V  V71  1  0.75098183  0.37680157  0.12620970  1
  V  V72  1  0.32604638  0.80243300  0.67188755  1
  V  V73  1  0.24893868  0.61740331  0.37263365  1
  V  V74  1  0.00963961  0.75124719  0.74761845  1
  V  V75  1  0.12671863  0.24743824  0.37640061  1
  V  V76  1  0.62253843  0.37558651  0.25097733  1
  V  V77  1  0.49773802  0.25683635  0.75453250  1
  V  V78  1  0.24951974  0.25348267  0.50811269  1
  V  V79  1  0.87663847  0.74730237  0.62842734  1
  V  V80  1  0.49870212  0.12927721  0.62848913  1
  V  V81  1  0.35806007  0.74795980  0.12247823  1
  V  V82  1  0.73829935  0.74963707  0.49818965  1
  V  V83  1  0.87380859  0.25327078  0.61920503  1
  V  V84  1  0.87622279  0.87168665  0.50300323  1
  Zn  Zn85  1  0.62057025  -0.00092752  0.12785300  1
  Zn  Zn86  1  0.13341693  0.75257778  0.87035519  1
  Zn  Zn87  1  0.75594964  0.25428447  0.49683424  1
  Zn  Zn88  1  0.75098545  0.37940835  0.61940690  1
  Zn  Zn89  1  0.88222394  0.62117108  0.75831789  1
  Zn  Zn90  1  0.12803502  0.50840478  0.12883879  1
  Zn  Zn91  1  0.62970655  0.00513320  0.63579930  1
  Zn  Zn92  1  0.13062558  0.87991298  0.74710018  1
  Zn  Zn93  1  0.25522625  0.38149339  0.13372584  1
  Zn  Zn94  1  -0.05549788  0.79255974  0.18964539  1
  Zn  Zn95  1  0.62542542  0.37869719  0.75010533  1
  Zn  Zn96  1  0.24200992  0.11720598  0.87055816  1
  Zn  Zn97  1  0.37823887  0.11794662  0.23799859  1
  Zn  Zn98  1  0.12881746  0.49029349  0.61896454  1
  Zn  Zn99  1  0.75143602  0.62137853  0.88007039  1
  Zn  Zn100  1  0.92669209  0.92578746  -0.05292772  1
  Zn  Zn101  1  -0.00190293  0.62203792  0.62305718  1
  Zn  Zn102  1  0.61504583  0.62339527  0.49217332  1
  Zn  Zn103  1  0.49674245  0.62704103  0.61444621  1
  Zn  Zn104  1  0.25373836  0.12504432  0.37247946  1
  Zn  Zn105  1  0.00164713  0.50253947  0.01004017  1
  Zn  Zn106  1  0.36923788  0.25343643  0.63029587  1
  Zn  Zn107  1  0.19578082  0.19197749  0.18969188  1
  Zn  Zn108  1  0.18714247  0.18412705  0.68982596  1
  Zn  Zn109  1  0.13232294  0.73677192  0.15297303  1
  Zn  Zn110  1  0.18790126  0.67531803  0.68676476  1
  Zn  Zn111  1  0.68903573  0.18953699  0.18952947  1
  Zn  Zn112  1  0.68699979  0.19063305  0.68965949  1
  Zn  Zn113  1  0.68352830  0.68298602  0.19182768  1
  Zn  Zn114  1  0.68704505  0.68650506  0.68849732  1
  Zn  Zn115  1  0.31455096  0.30789261  0.31662804  1
  Zn  Zn116  1  0.31150636  0.30758102  0.81562530  1
  Zn  Zn117  1  0.30932547  0.81148416  0.30813796  1
  Zn  Zn118  1  0.28058464  0.83978720  0.84352199  1
  Zn  Zn119  1  0.81128912  0.31370958  0.31554452  1
  Zn  Zn120  1  0.81131546  0.31615662  0.80923308  1
  Zn  Zn121  1  0.81018865  0.81069166  0.31584416  1
  Zn  Zn122  1  0.84345439  0.77664572  0.86578214  1
  Zn  Zn123  1  0.18771386  0.43572891  0.43606375  1
  Zn  Zn124  1  0.18805545  0.43827948  0.93541418  1
  Zn  Zn125  1  0.18772231  0.93785043  0.43550468  1
  Zn  Zn126  1  0.18670901  0.94088209  0.93735235  1
  Zn  Zn127  1  0.69011784  0.43385566  0.44384359  1
  Zn  Zn128  1  0.68812847  0.44071235  0.93534127  1
  Zn  Zn129  1  0.68615594  0.93804048  0.43479098  1
  Zn  Zn130  1  0.68008301  0.93324959  0.94745153  1
  Zn  Zn131  1  0.29083205  0.04481928  0.02823170  1
  Zn  Zn132  1  0.31668293  0.06900585  0.56055453  1
  Zn  Zn133  1  0.30305413  0.55620936  0.06423420  1
  Zn  Zn134  1  0.31325234  0.55951675  0.55834041  1
  Zn  Zn135  1  0.80891280  0.06752706  0.05442003  1
  Zn  Zn136  1  0.81487272  0.06107064  0.56361074  1
  Zn  Zn137  1  0.81277901  0.56464194  0.06728308  1
  Zn  Zn138  1  0.80610258  0.56439262  0.56401032  1
  Zn  Zn139  1  0.43704488  0.43536507  0.18844121  1
  Zn  Zn140  1  0.44251510  0.43652771  0.68555512  1
  Zn  Zn141  1  0.43907374  0.93943635  0.18141927  1
  Zn  Zn142  1  0.44442407  0.94395788  0.68957415  1
  Zn  Zn143  1  0.94273874  0.44345870  0.19036698  1
  Zn  Zn144  1  0.93759947  0.43699479  0.68926057  1
  Zn  Zn145  1  0.90813017  0.96404392  0.13696984  1
  Zn  Zn146  1  0.94420761  0.93306568  0.77753038  1
  Zn  Zn147  1  0.05958819  0.06258862  0.30875046  1
  Zn  Zn148  1  0.05913799  0.05627501  0.82172032  1
  Zn  Zn149  1  0.06131540  0.56161775  0.31783047  1
  Zn  Zn150  1  0.06729454  0.56338122  0.80816895  1
  Zn  Zn151  1  0.56307750  0.05923105  0.31369260  1
  Zn  Zn152  1  0.56187530  0.06412837  0.81845414  1
  Zn  Zn153  1  0.55851089  0.56205677  0.31317515  1
  Zn  Zn154  1  0.56589534  0.56349765  0.81005255  1
  Zn  Zn155  1  0.43797805  0.18955501  0.43847828  1
  Zn  Zn156  1  0.43883268  0.18569354  0.93985907  1
  Zn  Zn157  1  0.43629138  0.68787870  0.43648855  1
  Zn  Zn158  1  0.43922488  0.68714434  0.93260090  1
  Zn  Zn159  1  0.93978808  0.18157589  0.43831873  1
  Zn  Zn160  1  0.93467034  0.19224259  0.93765080  1
  Zn  Zn161  1  0.93381320  0.68717180  0.43454354  1
  Zn  Zn162  1  0.94720288  0.68394092  0.93140511  1
  Zn  Zn163  1  0.06028198  0.32061648  0.06487959  1
  Zn  Zn164  1  0.05744332  0.30891318  0.56427705  1
  Zn  Zn165  1  0.01338477  0.78785814  0.02132387  1
  Zn  Zn166  1  0.06435580  0.81448010  0.56404559  1
  Zn  Zn167  1  0.55916260  0.31424988  0.06236096  1
  Zn  Zn168  1  0.56491842  0.31465356  0.56405475  1
  Zn  Zn169  1  0.56008087  0.81238009  0.06757012  1
  Zn  Zn170  1  0.55722621  0.81079886  0.56689302  1
  O  O171  1  0.11190588  0.14392146  0.12684660  1
  O  O172  1  0.11716849  0.11858539  0.62179041  1
  O  O173  1  0.14141860  0.62950513  0.10231636  1
  O  O174  1  0.12568413  0.61657521  0.60906072  1
  O  O175  1  0.63149426  0.12876384  0.11181376  1
  O  O176  1  0.62122755  0.12419164  0.61878998  1
  O  O177  1  0.61547772  0.61828108  0.12006302  1
  O  O178  1  0.62490223  0.61297462  0.62372705  1
  O  O179  1  0.38198245  0.38090471  0.37900074  1
  O  O180  1  0.37390962  0.38531914  0.88056240  1
  O  O181  1  0.38009091  0.88411675  0.38000289  1
  O  O182  1  0.37760673  0.86584319  0.89257026  1
  O  O183  1  0.88306131  0.38413778  0.37194007  1
  O  O184  1  0.88400560  0.36808524  0.88410593  1
  O  O185  1  0.87926539  0.87799269  0.38539055  1
  O  O186  1  0.85134718  0.89113177  0.84532113  1
  O  O187  1  0.25902738  0.00022201  0.36648666  1
  O  O188  1  0.26253187  0.01898373  0.91744562  1
  O  O189  1  0.25494196  0.51232675  0.37792551  1
  O  O190  1  0.26002897  0.50421349  0.86375920  1
  O  O191  1  0.75685227  0.00199172  0.36422814  1
  O  O192  1  0.74139156  0.01044162  0.87971793  1
  O  O193  1  0.75583173  0.50383834  0.37203923  1
  O  O194  1  0.74539314  0.50211770  0.85843770  1
  O  O195  1  0.24135868  0.49248124  0.12878363  1
  O  O196  1  0.25053872  0.49829659  0.63593379  1
  O  O197  1  0.26253585  0.99531678  0.13320777  1
  O  O198  1  0.23840254  1.00853649  0.61924831  1
  O  O199  1  0.74290868  0.49433055  0.13290883  1
  O  O200  1  0.74094439  0.50005828  0.63382442  1
  O  O201  1  0.74432482  0.99758591  0.13844391  1
  O  O202  1  0.74753451  0.98344980  0.61492523  1
  O  O203  1  0.00697110  0.36864511  0.26497619  1
  O  O204  1  0.00401406  0.36841717  0.75670557  1
  O  O205  1  -0.00977485  0.87497718  0.26440099  1
  O  O206  1  0.01237768  0.85596389  0.73302088  1
  O  O207  1  0.50493292  0.36696401  0.26027795  1
  O  O208  1  0.50220271  0.36034061  0.74776810  1
  O  O209  1  0.50551817  0.86785053  0.25420506  1
  O  O210  1  0.50965771  0.86833839  0.74624121  1
  O  O211  1  0.50037240  0.13683713  0.25462921  1
  O  O212  1  0.49553258  0.13210342  0.74474950  1
  O  O213  1  0.48980294  0.63098040  0.24603385  1
  O  O214  1  0.49009832  0.63026264  0.74988753  1
  O  O215  1  0.99353699  0.13480746  0.24506961  1
  O  O216  1  0.98947294  0.12606344  0.74588767  1
  O  O217  1  0.98535704  0.62096143  0.25934828  1
  O  O218  1  1.00138921  0.63074481  0.74074329  1
  O  O219  1  0.37276867  0.25901773  0.00478486  1
  O  O220  1  0.36559672  0.25735501  0.49964387  1
  O  O221  1  0.38447656  0.75809776  0.00998726  1
  O  O222  1  0.36189743  0.75832353  0.49391742  1
  O  O223  1  0.86662720  0.26065135  0.00712168  1
  O  O224  1  0.87691328  0.23830468  0.51598169  1
  O  O225  1  0.91624573  0.79541105  -0.03957625  1
  O  O226  1  0.86561063  0.75623066  0.50377379  1
  O  O227  1  0.12951816  0.24590061  0.49517312  1
  O  O228  1  0.13262047  0.26649574  0.99073241  1
  O  O229  1  0.13689740  0.74329716  0.49686294  1
  O  O230  1  0.11986435  0.73404941  0.98537806  1
  O  O231  1  0.62448713  0.23739495  0.49499082  1
  O  O232  1  0.62703687  0.24627042  0.99518935  1
  O  O233  1  0.63619198  0.75262184  0.50415230  1
  O  O234  1  0.61135686  0.73942158  0.99352134  1
  O  O235  1  0.49258763  0.25732901  0.13703446  1
  O  O236  1  0.50200670  0.24002820  0.63289504  1
  O  O237  1  0.48924608  0.74193125  0.13333489  1
  O  O238  1  0.50571865  0.74376554  0.64229180  1
  O  O239  1  0.99318867  0.24713841  0.13124634  1
  O  O240  1  0.99128841  0.23647519  0.63092692  1
  O  O241  1  1.02365321  0.75373884  0.12621728  1
  O  O242  1  0.99263641  0.74456106  0.62309245  1
  O  O243  1  0.00450106  0.25545217  0.37440444  1
  O  O244  1  0.00512295  0.25704099  0.86959159  1
  O  O245  1  0.01038979  0.75795938  0.38460677  1
  O  O246  1  0.01613003  0.74258681  0.84953497  1
  O  O247  1  0.50565113  0.25571179  0.36745336  1
  O  O248  1  0.50870294  0.24483883  0.86764861  1
  O  O249  1  0.48847611  0.76377778  0.36404965  1
  O  O250  1  0.50903940  0.74296886  0.85968430  1
  O  O251  1  0.24375924  0.13292009  0.49448353  1
  O  O252  1  0.24874532  0.15026531  1.01035306  1
  O  O253  1  0.24592669  0.63147179  0.49233310  1
  O  O254  1  0.24876169  0.61903604  0.98245633  1
  O  O255  1  0.74319214  0.12513924  0.49380805  1
  O  O256  1  0.74267145  0.13475337  0.99080861  1
  O  O257  1  0.74529293  0.63420669  0.49196242  1
  O  O258  1  0.73332834  0.61586880  1.00239488  1
  O  O259  1  0.26388149  0.37048070  -0.00291661  1
  O  O260  1  0.25985754  0.36590532  0.49292206  1
  O  O261  1  0.27036624  0.87743285  0.01420845  1
  O  O262  1  0.26248353  0.86898423  0.49566142  1
  O  O263  1  0.75568961  0.37325403  0.00455228  1
  O  O264  1  0.75154904  0.36646322  0.50563843  1
  O  O265  1  0.74527081  0.87278598  0.02046916  1
  O  O266  1  0.75367940  0.86838831  0.50094651  1
  O  O267  1  0.12263193  0.48368238  0.26065288  1
  O  O268  1  0.13520591  0.48971067  0.74608101  1
  O  O269  1  0.14091618  1.00412665  0.25489002  1
  O  O270  1  0.12637337  1.00096085  0.73562093  1
  O  O271  1  0.62756268  0.49415005  0.24408967  1
  O  O272  1  0.63393918  0.49867248  0.74191294  1
  O  O273  1  0.63132459  0.98990814  0.25035417  1
  O  O274  1  0.62877154  0.99134583  0.75467188  1
  O  O275  1  0.37521432  0.00140564  0.25751315  1
  O  O276  1  0.38080415  0.01677636  0.74827889  1
  O  O277  1  0.37957140  0.50663547  0.26179136  1
  O  O278  1  0.37246242  0.50024192  0.75508031  1
  O  O279  1  0.86650092  0.00667005  0.24800259  1
  O  O280  1  0.85919234  0.01103930  0.74488318  1
  O  O281  1  0.87011757  0.50607197  0.26262024  1
  O  O282  1  0.86137804  0.50401043  0.74230763  1
  O  O283  1  0.11804797  0.36421007  0.37098107  1
  O  O284  1  0.11681821  0.36714572  0.86430040  1
  O  O285  1  0.11463668  0.86558519  0.38294497  1
  O  O286  1  0.16710581  0.86454067  0.85772179  1
  O  O287  1  0.61753504  0.37058773  0.37204510  1
  O  O288  1  0.62878153  0.36199044  0.87506779  1
  O  O289  1  0.61554398  0.87714347  0.36366308  1
  O  O290  1  0.62711554  0.86837301  0.86754136  1
  O  O291  1  0.37400786  0.14195048  0.12053449  1
  O  O292  1  0.38462450  0.13044322  0.63261859  1
  O  O293  1  0.37388528  0.62880977  0.13006018  1
  O  O294  1  0.37626669  0.61410586  0.63728160  1
  O  O295  1  0.87860188  0.13667363  0.13153831  1
  O  O296  1  0.88076152  0.12823144  0.63388915  1
  O  O297  1  0.87360257  0.62032221  0.14452286  1
  O  O298  1  0.87246229  0.63944391  0.62331313  1
  O  O299  1  0.26030009  0.26233164  0.12185656  1
  O  O300  1  0.24878882  0.24594094  0.61190683  1
  O  O301  1  0.25588226  0.76019045  0.13073189  1
  O  O302  1  0.25828448  0.74460413  0.61814944  1
  O  O303  1  0.75468959  0.25840985  0.12052458  1
  O  O304  1  0.76587279  0.24601616  0.62602818  1
  O  O305  1  0.74437248  0.75242908  0.12472754  1
  O  O306  1  0.75422883  0.75944925  0.61946256  1
  O  O307  1  0.24090726  0.24616726  0.38419372  1
  O  O308  1  0.23971549  0.24708486  0.88433911  1
  O  O309  1  0.24622848  0.74150083  0.38137583  1
  O  O310  1  0.25888463  0.72628259  0.86519060  1
  O  O311  1  0.74275151  0.24076221  0.37414148  1
  O  O312  1  0.74331096  0.24577145  0.88033632  1
  O  O313  1  0.75133660  0.74078183  0.38527969  1
  O  O314  1  0.73024062  0.74738377  0.87639944  1
  O  O315  1  -0.00251611  0.13446416  0.01549220  1
  O  O316  1  0.00695593  0.11742739  0.50834325  1
  O  O317  1  0.01575491  0.61815280  -0.00837997  1
  O  O318  1  0.00811708  0.61601695  0.49683589  1
  O  O319  1  0.50628320  0.11513235  0.00096483  1
  O  O320  1  0.50670052  0.12315201  0.50819195  1
  O  O321  1  0.50419773  0.61536925  0.00514295  1
  O  O322  1  0.50297971  0.63158885  0.50098505  1
  O  O323  1  0.49183092  0.36503688  0.48653842  1
  O  O324  1  0.48808926  0.38477117  1.00247808  1
  O  O325  1  0.49169746  0.87589096  0.49200288  1
  O  O326  1  0.49144105  0.88078948  1.00410007  1
  O  O327  1  1.00423879  0.38039024  0.48921303  1
  O  O328  1  0.99089783  0.37695504  0.99064941  1
  O  O329  1  0.99074890  0.87989174  0.49755330  1
  O  O330  1  1.02318566  0.90348020  1.02240044  1
  O  O331  1  0.49196440  0.48878841  0.37248374  1
  O  O332  1  0.49386595  0.50410954  0.88477991  1
  O  O333  1  0.49457792  0.98875002  0.37979986  1
  O  O334  1  0.50786735  1.00064504  0.89724681  1
  O  O335  1  0.99217443  0.49217431  0.38510521  1
  O  O336  1  1.00273607  0.48838734  0.87183173  1
  O  O337  1  0.99508979  0.99289899  0.37978058  1
  O  O338  1  0.99381433  0.98025838  0.86676624  1
  O  O339  1  0.01322390  0.01930041  0.13855024  1
  O  O340  1  0.00699007  0.01075373  0.61906944  1
  O  O341  1  0.01514592  0.49183153  0.12360044  1
  O  O342  1  -0.00155310  0.49854298  0.61112372  1
  O  O343  1  0.50752337  -0.00415254  0.11166809  1
  O  O344  1  0.50557800  0.01342851  0.61827392  1
  O  O345  1  0.50230006  0.50481136  0.11666586  1
  O  O346  1  0.51579480  0.50467196  0.63128744  1
  O  O347  1  0.23496743  0.36937461  0.25946104  1
  O  O348  1  0.24136759  0.37877502  0.75510477  1
  O  O349  1  0.26140674  0.88719364  0.23718532  1
  O  O350  1  0.27078344  0.86327235  0.72845052  1
  O  O351  1  0.74256481  0.38132838  0.24713003  1
  O  O352  1  0.74916445  0.38678679  0.74343556  1
  O  O353  1  0.74109259  0.87821768  0.24974381  1
  O  O354  1  0.73449632  0.87632418  0.73761443  1
  O  O355  1  0.25772343  0.11758765  0.25274614  1
  O  O356  1  0.26558848  0.12966637  0.75276972  1
  O  O357  1  0.26256085  0.62883277  0.25967684  1
  O  O358  1  0.25854783  0.61144304  0.75481459  1
  O  O359  1  0.75325646  0.11678927  0.25582874  1
  O  O360  1  0.75291065  0.12895951  0.76421101  1
  O  O361  1  0.75449837  0.61760907  0.25711896  1
  O  O362  1  0.75117976  0.61256066  0.75060785  1
  O  O363  1  0.37872599  0.11005171  0.37749295  1
  O  O364  1  0.37706500  0.13077117  0.86057551  1
  O  O365  1  0.36854612  0.61696534  0.36887325  1
  O  O366  1  0.36990649  0.61196218  0.86591029  1
  O  O367  1  0.87157798  0.11650508  0.36786690  1
  O  O368  1  0.86495311  0.13149515  0.86634158  1
  O  O369  1  0.86322705  0.61670303  0.36993160  1
  O  O370  1  0.86093339  0.65497559  0.86819227  1
  O  O371  1  0.12577013  0.36675906  0.14830967  1
  O  O372  1  0.11680940  0.37205104  0.64000605  1
  O  O373  1  0.14241700  0.88164676  0.12701873  1
  O  O374  1  0.12902524  0.89261991  0.62111263  1
  O  O375  1  0.62999931  0.38067553  0.12996289  1
  O  O376  1  0.62558558  0.38725193  0.62759210  1
  O  O377  1  0.63535632  0.87105017  0.13931538  1
  O  O378  1  0.62838219  0.87931379  0.63119892  1
  O  O379  1  0.12007025  0.25483879  0.26203512  1
  O  O380  1  0.11842107  0.25396678  0.75577737  1
  O  O381  1  0.13277778  0.74662444  0.26721312  1
  O  O382  1  0.11998917  0.75008784  0.73756842  1
  O  O383  1  0.61862295  0.25571178  0.25562966  1
  O  O384  1  0.61715887  0.25093564  0.75943268  1
  O  O385  1  0.60878679  0.75327643  0.24851770  1
  O  O386  1  0.61916342  0.75653951  0.75731988  1
  O  O387  1  0.38355744  0.24825255  0.24367885  1
  O  O388  1  0.38287399  0.24481878  0.74816045  1
  O  O389  1  0.38057165  0.74111867  0.24199534  1
  O  O390  1  0.37895678  0.74244804  0.74045881  1
  O  O391  1  0.88002347  0.24708887  0.24579719  1
  O  O392  1  0.87907810  0.23916463  0.74275123  1
  O  O393  1  0.87429033  0.73366177  0.25937663  1
  O  O394  1  0.89292774  0.75192456  0.73895564  1
  O  O395  1  0.36989336  0.49050174  0.48543990  1
  O  O396  1  0.38094223  0.49498320  0.99217942  1
  O  O397  1  0.38118063  0.99293762  0.49486323  1
  O  O398  1  0.39042259  0.98412361  1.00952088  1
  O  O399  1  0.88048752  0.50772945  0.48953422  1
  O  O400  1  0.87502545  0.48946133  1.00404103  1
  O  O401  1  0.88107336  0.99141044  0.49405274  1
  O  O402  1  0.87998934  0.98994708  1.02864771  1
  O  O403  1  0.13545057  0.00935784  0.01940615  1
  O  O404  1  0.12123028  0.00620223  0.50566862  1
  O  O405  1  0.12554134  0.51276738  -0.00491761  1
  O  O406  1  0.11674607  0.50546846  0.49766265  1
  O  O407  1  0.61796732  0.00978357  0.00631387  1
  O  O408  1  0.61883188  0.01189512  0.49741609  1
  O  O409  1  0.61542527  0.50337253  0.00395378  1
  O  O410  1  0.62981879  0.50299529  0.51480444  1
  O  O411  1  0.37556874  0.36926126  0.11679777  1
  O  O412  1  0.38228964  0.37366354  0.60933432  1
  O  O413  1  0.37391912  0.86253870  0.12173478  1
  O  O414  1  0.38513778  0.86900986  0.61666774  1
  O  O415  1  0.86999194  0.37068546  0.12119862  1
  O  O416  1  0.88053658  0.35457095  0.62962973  1
  O  O417  1  0.85773978  0.86090160  0.14290045  1
  O  O418  1  0.86399944  0.86412758  0.61065860  1
  O  O419  1  0.12109024  0.13621956  0.38080756  1
  O  O420  1  0.12191186  0.14012862  0.86958967  1
  O  O421  1  0.13200707  0.62910474  0.38387459  1
  O  O422  1  0.14263706  0.62166897  0.87530578  1
  O  O423  1  0.62975327  0.12842134  0.38212582  1
  O  O424  1  0.63107700  0.13637386  0.88455650  1
  O  O425  1  0.63879578  0.61763142  0.37274523  1
  O  O426  1  0.62472193  0.63097879  0.88525974  1
