# generated using pymatgen
data_V85Zn86O256
_symmetry_space_group_name_H-M   'P 1'
_cell_length_a   16.93785010
_cell_length_b   16.94097741
_cell_length_c   16.94440581
_cell_angle_alpha   90.00026248
_cell_angle_beta   89.93349117
_cell_angle_gamma   89.94685034
_symmetry_Int_Tables_number   1
_chemical_formula_structural   V85Zn86O256
_chemical_formula_sum   'V85 Zn86 O256'
_cell_volume   4862.08573873
_cell_formula_units_Z   1
loop_
 _symmetry_equiv_pos_site_id
 _symmetry_equiv_pos_as_xyz
  1  'x, y, z'
loop_
 _atom_site_type_symbol
 _atom_site_label
 _atom_site_symmetry_multiplicity
 _atom_site_fract_x
 _atom_site_fract_y
 _atom_site_fract_z
 _atom_site_occupancy
  V  V0  1  0.61718548  0.87504472  0.75932372  1
  V  V1  1  0.74996904  0.24953060  0.49985320  1
  V  V2  1  0.26170144  0.00396618  0.24799889  1
  V  V3  1  0.87578014  0.86611386  0.50612499  1
  V  V4  1  0.87515998  -0.00133469  0.37745944  1
  V  V5  1  0.73825254  0.25225730  -0.00544149  1
  V  V6  1  0.62254992  -0.00094679  0.62824642  1
  V  V7  1  0.01460836  0.75149356  0.75250686  1
  V  V8  1  0.12411515  0.24662071  0.37370746  1
  V  V9  1  0.50520203  0.24899428  0.75500188  1
  V  V10  1  0.36335852  0.12152428  0.76335698  1
  V  V11  1  0.00000283  0.36715541  0.87187017  1
  V  V12  1  0.25018425  0.50347215  0.24837235  1
  V  V13  1  0.36775734  0.50278269  0.37093140  1
  V  V14  1  0.24837749  0.74729172  -0.01213106  1
  V  V15  1  0.24965097  0.24884673  0.49726794  1
  V  V16  1  0.87733308  0.23753189  0.12081320  1
  V  V17  1  -0.00052306  0.62591516  0.11996901  1
  V  V18  1  0.12510255  0.49684109  0.12045044  1
  V  V19  1  0.24766966  0.51154239  0.75321942  1
  V  V20  1  0.00794166  0.87379243  0.87862439  1
  V  V21  1  0.50099645  0.37303343  0.87851852  1
  V  V22  1  0.00048936  0.49803920  -0.00349779  1
  V  V23  1  0.13244024  0.89720552  0.75095225  1
  V  V24  1  0.87182613  0.62421515  0.25039796  1
  V  V25  1  0.25021255  0.87405670  0.12081957  1
  V  V26  1  0.25055839  0.36767347  0.11444254  1
  V  V27  1  0.37311946  0.23895651  0.12353347  1
  V  V28  1  0.74961488  0.36959121  0.12450457  1
  V  V29  1  0.87385086  0.37636576  0.49962261  1
  V  V30  1  0.49220950  -0.00808828  0.48916615  1
  V  V31  1  0.49825043  0.50090576  0.00306898  1
  V  V32  1  0.24895498  0.89195772  0.61910025  1
  V  V33  1  0.11413077  0.00052062  0.12837353  1
  V  V34  1  0.50228806  0.11307632  0.13174942  1
  V  V35  1  0.37128865  0.50779862  0.87648086  1
  V  V36  1  0.14162246  0.24359918  0.87775169  1
  V  V37  1  0.00706649  0.87165603  0.37562064  1
  V  V38  1  0.37066162  0.37283939  0.49972182  1
  V  V39  1  0.62406065  0.12341742  0.50188966  1
  V  V40  1  0.87486256  0.49969868  0.37526153  1
  V  V41  1  0.75223918  0.86789130  0.63008099  1
  V  V42  1  0.74362375  0.12856104  0.87309935  1
  V  V43  1  0.37655799  0.24940480  0.62751225  1
  V  V44  1  0.74819723  0.37646432  0.62366267  1
  V  V45  1  0.87536957  0.37089703  -0.00221555  1
  V  V46  1  0.12598704  0.37556399  0.74867309  1
  V  V47  1  0.26091498  0.12083026  0.37054952  1
  V  V48  1  0.74087701  0.87166677  0.11978935  1
  V  V49  1  0.87199379  0.63667584  0.74676868  1
  V  V50  1  0.25092027  0.37720493  0.62596817  1
  V  V51  1  0.74381115  0.75026909  0.49542451  1
  V  V52  1  0.49455819  0.75232251  0.76045747  1
  V  V53  1  0.36857061  0.75451920  0.62056131  1
  V  V54  1  0.88093150  0.12470093  0.74909348  1
  V  V55  1  0.50033443  0.62600994  0.12910440  1
  V  V56  1  0.12322123  0.36927592  0.24743019  1
  V  V57  1  0.87337668  0.50364541  0.86757106  1
  V  V58  1  0.12135572  0.12295882  0.51130844  1
  V  V59  1  0.74876246  0.00066545  0.75111500  1
  V  V60  1  0.00316976  0.63726135  0.61703349  1
  V  V61  1  0.62707437  0.37709832  0.76055654  1
  V  V62  1  0.49767085  0.50112694  0.50073270  1
  V  V63  1  0.12756083  0.62934348  -0.01421866  1
  V  V64  1  0.62427310  0.86439571  0.26570228  1
  V  V65  1  0.62174619  0.37059755  0.24786932  1
  V  V66  1  0.62238276  0.50280266  0.62524348  1
  V  V67  1  0.88200065  0.24632575  0.62419896  1
  V  V68  1  0.37393089  0.74379180  0.12866019  1
  V  V69  1  0.62347053  0.11541690  0.00177543  1
  V  V70  1  0.63768880  0.74040609  0.87865647  1
  V  V71  1  0.74949542  0.49586731  0.24945795  1
  V  V72  1  0.00046798  0.23523651  0.24417627  1
  V  V73  1  0.37033486  -0.01202164  0.87976995  1
  V  V74  1  0.49998233  0.74582949  0.26503902  1
  V  V75  1  0.00736172  0.50314172  0.49989463  1
  V  V76  1  0.75022779  0.12231286  0.37347242  1
  V  V77  1  0.87270997  0.87154211  -0.00287101  1
  V  V78  1  0.62550190  0.24995232  0.37542161  1
  V  V79  1  0.86854749  0.74897309  0.11966734  1
  V  V80  1  0.74376439  -0.00441449  0.24502514  1
  V  V81  1  0.12995590  0.12527823  0.00439463  1
  V  V82  1  0.49947866  0.12346841  0.62861131  1
  V  V83  1  0.00079994  0.00453974  0.51290215  1
  V  V84  1  0.49773219  0.37261108  0.37460440  1
  Zn  Zn85  1  0.62371011  0.50022444  0.12454672  1
  Zn  Zn86  1  0.36985670  0.63168282  0.75432836  1
  Zn  Zn87  1  0.49011636  0.24257313  0.25308117  1
  Zn  Zn88  1  0.74231419  0.63396899  0.36834054  1
  Zn  Zn89  1  0.87681742  0.11660383  0.24405613  1
  Zn  Zn90  1  0.38656982  0.86793723  -0.00100575  1
  Zn  Zn91  1  -0.00300081  0.00596576  0.00185838  1
  Zn  Zn92  1  0.74946062  0.50994501  0.74562232  1
  Zn  Zn93  1  0.50264886  -0.00911172  -0.00284215  1
  Zn  Zn94  1  0.30926673  0.67272304  0.30790493  1
  Zn  Zn95  1  0.37039732  0.36853520  -0.00332305  1
  Zn  Zn96  1  0.00006605  0.37151133  0.37451812  1
  Zn  Zn97  1  0.49695344  0.62947240  0.62808091  1
  Zn  Zn98  1  0.22592154  0.73373588  0.47146399  1
  Zn  Zn99  1  0.12632531  0.50485708  0.62146227  1
  Zn  Zn100  1  0.63909743  0.62966264  0.00144900  1
  Zn  Zn101  1  0.37123208  0.87543528  0.47330794  1
  Zn  Zn102  1  0.00435891  0.24492520  0.74478583  1
  Zn  Zn103  1  0.00087126  0.74815955  0.25443435  1
  Zn  Zn104  1  0.61491864  0.63727825  0.49269699  1
  Zn  Zn105  1  0.12972868  0.86932022  0.25390901  1
  Zn  Zn106  1  0.87483210  -0.00042308  0.87648722  1
  Zn  Zn107  1  0.18982970  0.18246207  0.18210206  1
  Zn  Zn108  1  0.18812861  0.19008147  0.68828189  1
  Zn  Zn109  1  0.17886394  0.69063024  0.18245161  1
  Zn  Zn110  1  0.18573910  0.69221412  0.67880269  1
  Zn  Zn111  1  0.68529094  0.18430561  0.18556929  1
  Zn  Zn112  1  0.68816191  0.19063718  0.68824992  1
  Zn  Zn113  1  0.68430297  0.68760976  0.18537790  1
  Zn  Zn114  1  0.68337234  0.68972307  0.68586095  1
  Zn  Zn115  1  0.30931363  0.31249666  0.30727036  1
  Zn  Zn116  1  0.31697646  0.31726223  0.81111449  1
  Zn  Zn117  1  0.32165688  0.83693185  0.31464764  1
  Zn  Zn118  1  0.30648064  0.81653610  0.80902878  1
  Zn  Zn119  1  0.81560433  0.30978532  0.31121387  1
  Zn  Zn120  1  0.81076474  0.31240193  0.81083492  1
  Zn  Zn121  1  0.81710432  0.81250798  0.31381229  1
  Zn  Zn122  1  0.81411349  0.81173331  0.81361273  1
  Zn  Zn123  1  0.18765251  0.55993488  0.43366481  1
  Zn  Zn124  1  0.18632619  0.43795262  0.93406109  1
  Zn  Zn125  1  0.18826183  0.94204583  0.43935284  1
  Zn  Zn126  1  0.19309498  0.94335213  0.93730088  1
  Zn  Zn127  1  0.68396725  0.44546916  0.43470673  1
  Zn  Zn128  1  0.70152959  0.46731689  0.94795317  1
  Zn  Zn129  1  0.68584904  0.93764748  0.44095316  1
  Zn  Zn130  1  0.68829247  0.93476319  0.93583676  1
  Zn  Zn131  1  0.30982261  0.06185916  0.05762983  1
  Zn  Zn132  1  0.31486496  0.06785636  0.56189622  1
  Zn  Zn133  1  0.31181442  0.56373028  0.06236310  1
  Zn  Zn134  1  0.31369086  0.56587562  0.56801494  1
  Zn  Zn135  1  0.80876778  0.05667948  0.05969950  1
  Zn  Zn136  1  0.81259615  0.05999885  0.56493876  1
  Zn  Zn137  1  0.81288629  0.55958834  0.06189508  1
  Zn  Zn138  1  0.81677998  0.56876490  0.56478533  1
  Zn  Zn139  1  0.43373342  0.43254271  0.18569715  1
  Zn  Zn140  1  0.43618737  0.43952944  0.69092695  1
  Zn  Zn141  1  0.43785383  0.92857202  0.19661586  1
  Zn  Zn142  1  0.43399564  0.93943488  0.69020883  1
  Zn  Zn143  1  0.93802963  0.43168448  0.18450951  1
  Zn  Zn144  1  0.93888137  0.44001738  0.68377311  1
  Zn  Zn145  1  0.93324313  0.93450211  0.18863380  1
  Zn  Zn146  1  0.93768306  0.93660366  0.69157225  1
  Zn  Zn147  1  0.06764787  0.05783233  0.31708810  1
  Zn  Zn148  1  0.06073054  0.06383486  0.82088979  1
  Zn  Zn149  1  0.05682797  0.55684121  0.30366408  1
  Zn  Zn150  1  0.05719909  0.56101790  0.80755439  1
  Zn  Zn151  1  0.56751846  0.05852937  0.30908598  1
  Zn  Zn152  1  0.55842047  0.06182890  0.81864006  1
  Zn  Zn153  1  0.56258365  0.56206189  0.31419087  1
  Zn  Zn154  1  0.55739758  0.56480559  0.81185941  1
  Zn  Zn155  1  0.44040108  0.18393684  0.43897412  1
  Zn  Zn156  1  0.43923635  0.18700399  0.94222089  1
  Zn  Zn157  1  0.42831822  0.68474389  0.44426555  1
  Zn  Zn158  1  0.44013321  0.68901184  0.94049790  1
  Zn  Zn159  1  0.93836613  0.18502491  0.43542611  1
  Zn  Zn160  1  0.93832911  0.18392011  0.93609464  1
  Zn  Zn161  1  1.05466693  0.69215658  0.43606630  1
  Zn  Zn162  1  0.93656451  0.69013147  0.93229396  1
  Zn  Zn163  1  0.06188552  0.30596010  0.05967623  1
  Zn  Zn164  1  0.06247496  0.31523483  0.55975966  1
  Zn  Zn165  1  0.06324057  0.81138237  0.06465038  1
  Zn  Zn166  1  0.06446121  0.82172996  0.56909014  1
  Zn  Zn167  1  0.55694475  0.30754820  0.06401063  1
  Zn  Zn168  1  0.56192927  0.31464185  0.56519811  1
  Zn  Zn169  1  0.56271597  0.80930271  0.06157998  1
  Zn  Zn170  1  0.55996413  0.81501013  0.56994748  1
  O  O171  1  0.12283763  0.11827848  0.11339767  1
  O  O172  1  0.12596941  0.13691052  0.61034553  1
  O  O173  1  0.11287689  0.61542915  0.11639399  1
  O  O174  1  0.10725444  0.62217205  0.63031900  1
  O  O175  1  0.61186836  0.12652419  0.11728057  1
  O  O176  1  0.61986522  0.12001519  0.62275352  1
  O  O177  1  0.61734565  0.62108687  0.11929056  1
  O  O178  1  0.62325751  0.61246525  0.61968248  1
  O  O179  1  0.37700677  0.37890991  0.38233249  1
  O  O180  1  0.38482983  0.38462268  0.87619332  1
  O  O181  1  0.39498407  0.89650745  0.36611053  1
  O  O182  1  0.37359553  0.88496608  0.87406198  1
  O  O183  1  0.87767787  0.37981972  0.38108259  1
  O  O184  1  0.88464541  0.37556437  0.87711485  1
  O  O185  1  0.87870048  0.88498754  0.38489642  1
  O  O186  1  0.88166883  0.87507995  0.88261488  1
  O  O187  1  0.24407511  0.00668604  0.35856347  1
  O  O188  1  0.26946227  0.00458558  0.87624735  1
  O  O189  1  0.25614108  0.49369100  0.36218899  1
  O  O190  1  0.25897766  0.49342438  0.86561825  1
  O  O191  1  0.75610217  0.00230770  0.37049861  1
  O  O192  1  0.75173577  0.00837240  0.86750236  1
  O  O193  1  0.76323064  0.49261606  0.36548063  1
  O  O194  1  0.77193898  0.48139562  0.85758682  1
  O  O195  1  0.24546370  0.48936256  0.12876973  1
  O  O196  1  0.24813265  0.49343539  0.63381277  1
  O  O197  1  0.24301745  0.99559706  0.13134999  1
  O  O198  1  0.25573636  0.99055577  0.62414952  1
  O  O199  1  0.75125863  0.48633493  0.13640811  1
  O  O200  1  0.74194191  0.49481404  0.62339163  1
  O  O201  1  0.75526000  0.98636065  0.13526375  1
  O  O202  1  0.74071453  0.99318973  0.63171424  1
  O  O203  1  0.01150620  0.36520588  0.24726786  1
  O  O204  1  0.00927928  0.37381137  0.75441194  1
  O  O205  1  -0.00514762  0.87764996  0.26832155  1
  O  O206  1  0.01191147  0.87117647  0.75369251  1
  O  O207  1  0.50771986  0.37218518  0.25565490  1
  O  O208  1  0.50582525  0.37026297  0.75754872  1
  O  O209  1  0.51775099  0.86199901  0.24394647  1
  O  O210  1  0.50863146  0.86919662  0.74720732  1
  O  O211  1  0.50780431  0.12474985  0.23657781  1
  O  O212  1  0.49736473  0.13512328  0.74684290  1
  O  O213  1  0.50860330  0.62976559  0.23742891  1
  O  O214  1  0.49487876  0.63640816  0.74655016  1
  O  O215  1  0.99902367  0.13234182  0.25375515  1
  O  O216  1  0.98471843  0.12660939  0.75718160  1
  O  O217  1  0.98788882  0.62013699  0.23322277  1
  O  O218  1  0.99515143  0.63495367  0.74287860  1
  O  O219  1  0.37850875  0.25201394  0.01658335  1
  O  O220  1  0.37206529  0.25476438  0.50625216  1
  O  O221  1  0.36611789  0.74852752  0.00784517  1
  O  O222  1  0.38057939  0.76124524  0.51527777  1
  O  O223  1  0.86753145  0.25249868  0.00441023  1
  O  O224  1  0.87012001  0.25349282  0.50514603  1
  O  O225  1  0.87682659  0.76019528  0.00494053  1
  O  O226  1  0.86171034  0.76659379  0.50496016  1
  O  O227  1  0.12855391  0.24760275  0.48997070  1
  O  O228  1  0.12271738  0.24145601  0.98648006  1
  O  O229  1  0.12087607  0.75187359  0.50455191  1
  O  O230  1  0.13429330  0.73998415  1.00650254  1
  O  O231  1  0.62918865  0.24496428  0.49614478  1
  O  O232  1  0.63526151  0.24138924  1.00457402  1
  O  O233  1  0.63795906  0.75296216  0.50704632  1
  O  O234  1  0.62579721  0.74666538  0.98317387  1
  O  O235  1  0.48949013  0.23925006  0.12947646  1
  O  O236  1  0.49561773  0.24500460  0.63316607  1
  O  O237  1  0.49332699  0.74098086  0.13149257  1
  O  O238  1  0.48722904  0.75385237  0.63669184  1
  O  O239  1  0.98943759  0.25140770  0.13142662  1
  O  O240  1  0.98576657  0.25579417  0.62500045  1
  O  O241  1  0.98617839  0.73972803  0.12169572  1
  O  O242  1  0.99924368  0.74247457  0.63270410  1
  O  O243  1  0.00573856  0.24946188  0.36443203  1
  O  O244  1  0.00487856  0.25978376  0.87104695  1
  O  O245  1  -0.01115536  0.76881035  0.37625438  1
  O  O246  1  -0.00058461  0.76393258  0.86649370  1
  O  O247  1  0.50584411  0.25403418  0.37266288  1
  O  O248  1  0.49810448  0.26352867  0.86952119  1
  O  O249  1  0.49608142  0.73473992  0.36401770  1
  O  O250  1  0.50614095  0.74786804  0.86403646  1
  O  O251  1  0.24297815  0.12957141  0.49255364  1
  O  O252  1  0.23128255  0.12436000  1.00020770  1
  O  O253  1  0.25723088  0.62430646  0.49338118  1
  O  O254  1  0.23877103  0.63340337  1.00484316  1
  O  O255  1  0.74334371  0.12849651  0.49488340  1
  O  O256  1  0.74370933  0.13125578  0.99383165  1
  O  O257  1  0.75435156  0.64528817  0.50508302  1
  O  O258  1  0.73625459  0.57408919  0.98535830  1
  O  O259  1  0.24729926  0.37717784  0.01127180  1
  O  O260  1  0.26315240  0.36849255  0.50625379  1
  O  O261  1  0.25188005  0.86812306  0.00995912  1
  O  O262  1  0.25329767  0.87898637  0.51130487  1
  O  O263  1  0.75361182  0.36866018  0.00380137  1
  O  O264  1  0.75337366  0.37128665  0.50496778  1
  O  O265  1  0.75818118  0.87833967  0.00856050  1
  O  O266  1  0.75265600  0.86967635  0.50889928  1
  O  O267  1  0.12755745  0.48702526  0.23981178  1
  O  O268  1  0.13068929  0.49109521  0.75027354  1
  O  O269  1  0.13082667  0.99656124  0.24071095  1
  O  O270  1  0.12145222  0.99521502  0.74855150  1
  O  O271  1  0.63136398  0.48508631  0.24840548  1
  O  O272  1  0.62593838  0.49556264  0.74229230  1
  O  O273  1  0.63582860  0.98342841  0.25271340  1
  O  O274  1  0.62749775  0.99354699  0.74944952  1
  O  O275  1  0.36030081  0.00302566  0.23986846  1
  O  O276  1  0.37972148  0.01541346  0.76099676  1
  O  O277  1  0.36191885  0.48799142  0.25842529  1
  O  O278  1  0.36528251  0.50271928  0.75750264  1
  O  O279  1  0.86337509  -0.00257900  0.25875206  1
  O  O280  1  0.86649033  0.00879934  0.75015914  1
  O  O281  1  0.87021379  0.50092673  0.25350361  1
  O  O282  1  0.87985617  0.51322619  0.75242614  1
  O  O283  1  0.12247286  0.35613743  0.36137674  1
  O  O284  1  0.11946480  0.36659694  0.86731855  1
  O  O285  1  0.10961415  0.88224672  0.37593091  1
  O  O286  1  0.12188249  0.88306727  0.86202644  1
  O  O287  1  0.61929989  0.36932299  0.36894328  1
  O  O288  1  0.62025801  0.38632997  0.86295328  1
  O  O289  1  0.62940419  0.87253190  0.36405565  1
  O  O290  1  0.63135357  0.86455161  0.86375414  1
  O  O291  1  0.38475420  0.13158975  0.11976237  1
  O  O292  1  0.38209283  0.13119386  0.63551420  1
  O  O293  1  0.38163722  0.63554334  0.12261523  1
  O  O294  1  0.37458482  0.64245885  0.63080326  1
  O  O295  1  0.86926393  0.13367372  0.12389146  1
  O  O296  1  0.86561351  0.13554949  0.63495776  1
  O  O297  1  0.87754442  0.62794039  0.12814673  1
  O  O298  1  0.88984713  0.62316205  0.63838744  1
  O  O299  1  0.26067224  0.25382932  0.12686056  1
  O  O300  1  0.25670283  0.25743411  0.61866408  1
  O  O301  1  0.25667356  0.75733861  0.12123776  1
  O  O302  1  0.26219467  0.76071783  0.62733607  1
  O  O303  1  0.75622532  0.25254229  0.11738448  1
  O  O304  1  0.75631648  0.25672819  0.61731270  1
  O  O305  1  0.76156352  0.75326042  0.12678672  1
  O  O306  1  0.74658060  0.76344157  0.61989682  1
  O  O307  1  0.24283198  0.24452437  0.37790674  1
  O  O308  1  0.23893471  0.25891439  0.87432860  1
  O  O309  1  0.26565950  0.75567058  0.36816111  1
  O  O310  1  0.25337705  0.75336558  0.88864498  1
  O  O311  1  0.74703862  0.24333212  0.38075804  1
  O  O312  1  0.75273139  0.24353437  0.88429931  1
  O  O313  1  0.75419672  0.75157534  0.39126274  1
  O  O314  1  0.73638694  0.74662731  0.86732478  1
  O  O315  1  0.01683564  0.12080015  -0.01251614  1
  O  O316  1  0.00825672  0.11686738  0.49495794  1
  O  O317  1  0.00131762  0.62029255  0.00593444  1
  O  O318  1  -0.00850668  0.62094819  0.51226520  1
  O  O319  1  0.50948859  0.12394018  0.01036800  1
  O  O320  1  0.50616644  0.11956705  0.51042148  1
  O  O321  1  0.50134962  0.61678426  0.01111274  1
  O  O322  1  0.49805619  0.61438644  0.50661849  1
  O  O323  1  0.48791420  0.37743721  0.49654918  1
  O  O324  1  0.49655943  0.37811855  0.99240146  1
  O  O325  1  0.50147691  0.89031211  0.50571185  1
  O  O326  1  0.49944436  0.87797656  1.00446522  1
  O  O327  1  0.99109774  0.38478622  0.49891418  1
  O  O328  1  0.99698541  0.37699625  0.99034692  1
  O  O329  1  0.99206749  0.88335262  0.49435377  1
  O  O330  1  0.99498443  0.87508821  0.99261859  1
  O  O331  1  0.49189815  0.49015242  0.38268559  1
  O  O332  1  0.49302681  0.49188350  0.88094804  1
  O  O333  1  0.50804243  1.00946178  0.39253370  1
  O  O334  1  0.47913052  1.01261154  0.88096008  1
  O  O335  1  0.98700062  0.49575727  0.37881677  1
  O  O336  1  0.99281214  0.48685752  0.87503993  1
  O  O337  1  0.99077034  0.99294270  0.38229380  1
  O  O338  1  0.99506951  0.98637625  0.87557606  1
  O  O339  1  0.01038921  -0.00683288  0.12520144  1
  O  O340  1  -0.00642797  -0.00160284  0.61208531  1
  O  O341  1  0.00251369  0.50399371  0.11616607  1
  O  O342  1  0.00112401  0.50978374  0.61476188  1
  O  O343  1  0.49228061  0.01189993  0.12552647  1
  O  O344  1  0.50598576  0.00704126  0.62371061  1
  O  O345  1  0.49536064  0.50649924  0.12026264  1
  O  O346  1  0.50453789  0.50004368  0.61889429  1
  O  O347  1  0.23689313  0.37883207  0.23889224  1
  O  O348  1  0.24263368  0.38175941  0.74518416  1
  O  O349  1  0.24798710  0.88787051  0.23729877  1
  O  O350  1  0.23697358  0.87944177  0.74273521  1
  O  O351  1  0.74368830  0.37538136  0.24504043  1
  O  O352  1  0.74075761  0.37239042  0.73910425  1
  O  O353  1  0.74259992  0.87529826  0.24564264  1
  O  O354  1  0.74584781  0.88029441  0.74537668  1
  O  O355  1  0.24535230  0.11272563  0.25540378  1
  O  O356  1  0.26621951  0.13258998  0.74750621  1
  O  O357  1  0.24507163  0.60827592  0.23665619  1
  O  O358  1  0.24584991  0.61439366  0.74591057  1
  O  O359  1  0.74818050  0.11292145  0.25412444  1
  O  O360  1  0.75350635  0.12278084  0.75695297  1
  O  O361  1  0.75477996  0.61456453  0.24679038  1
  O  O362  1  0.76747907  0.62827932  0.73913854  1
  O  O363  1  0.36018391  0.13153335  0.37761798  1
  O  O364  1  0.37431639  0.13289148  0.86432941  1
  O  O365  1  0.38124375  0.60644872  0.37177630  1
  O  O366  1  0.37998785  0.61155110  0.87512081  1
  O  O367  1  0.86864515  0.11318600  0.37268544  1
  O  O368  1  0.86219877  0.12482889  0.86728890  1
  O  O369  1  0.86802665  0.61459309  0.35702746  1
  O  O370  1  0.88319113  0.61607872  0.85995302  1
  O  O371  1  0.12987586  0.37498064  0.12703270  1
  O  O372  1  0.12919851  0.37506106  0.63562178  1
  O  O373  1  0.13361430  0.88503742  0.12227953  1
  O  O374  1  0.13904456  0.87896414  0.63655322  1
  O  O375  1  0.62949783  0.37171856  0.13290472  1
  O  O376  1  0.62758009  0.38511209  0.63316342  1
  O  O377  1  0.63952400  0.86256773  0.13305063  1
  O  O378  1  0.63188260  0.88094415  0.63863393  1
  O  O379  1  0.11870977  0.25001722  0.25031841  1
  O  O380  1  0.12399696  0.25586566  0.76050614  1
  O  O381  1  0.11195057  0.75819026  0.23813282  1
  O  O382  1  0.11678827  0.75750021  0.74746504  1
  O  O383  1  0.62643097  0.25904346  0.25607471  1
  O  O384  1  0.61268475  0.26061319  0.74485457  1
  O  O385  1  0.62035882  0.75626358  0.25374256  1
  O  O386  1  0.61645410  0.75625296  0.75558072  1
  O  O387  1  0.37495482  0.25558503  0.23184509  1
  O  O388  1  0.38654657  0.24631330  0.74709476  1
  O  O389  1  0.38351715  0.74629261  0.24306194  1
  O  O390  1  0.37904588  0.75237878  0.74532648  1
  O  O391  1  0.88302334  0.24536259  0.24033927  1
  O  O392  1  0.87454419  0.24319511  0.74048084  1
  O  O393  1  0.87757516  0.73930068  0.24222998  1
  O  O394  1  0.88614847  0.73988948  0.75519128  1
  O  O395  1  0.38212504  0.49109404  0.49632146  1
  O  O396  1  0.38138484  0.49612656  0.99410231  1
  O  O397  1  0.39003377  1.00170947  0.50527259  1
  O  O398  1  0.37503716  0.99556300  0.99040936  1
  O  O399  1  0.87915142  0.49818064  0.49137044  1
  O  O400  1  0.88423715  0.49029114  0.98899379  1
  O  O401  1  0.87878608  0.99541522  0.49360429  1
  O  O402  1  0.87794019  0.98643304  1.00004280  1
  O  O403  1  0.12393980  0.00912120  0.00723246  1
  O  O404  1  0.11434221  0.01136893  0.49680214  1
  O  O405  1  0.11900949  0.50468550  0.00290624  1
  O  O406  1  0.10994029  0.49505913  0.49848837  1
  O  O407  1  0.62665334  0.01201862  -0.00350855  1
  O  O408  1  0.61930494  0.00537775  0.50949915  1
  O  O409  1  0.60362398  0.49004707  0.00479572  1
  O  O410  1  0.60785064  0.48857816  0.50962967  1
  O  O411  1  0.36539290  0.36552441  0.12044989  1
  O  O412  1  0.37252817  0.36955582  0.61968828  1
  O  O413  1  0.36781080  0.86176591  0.12612638  1
  O  O414  1  0.36089792  0.87011348  0.63223921  1
  O  O415  1  0.86907173  0.36331665  0.11731218  1
  O  O416  1  0.86746948  0.36965102  0.61976177  1
  O  O417  1  0.86874376  0.86487574  0.11933778  1
  O  O418  1  0.86374833  0.88368314  0.61867303  1
  O  O419  1  0.13246832  0.13463605  0.38006470  1
  O  O420  1  0.12818482  0.13864715  0.87725792  1
  O  O421  1  0.11359136  0.61992950  0.37312894  1
  O  O422  1  0.11504223  0.61998893  0.88734204  1
  O  O423  1  0.63155601  0.13119078  0.37968427  1
  O  O424  1  0.63600098  0.12526101  0.88183824  1
  O  O425  1  0.63695011  0.59901020  0.38831268  1
  O  O426  1  0.62307846  0.63720122  0.87245920  1
