# generated using pymatgen
data_V85Zn86O256
_symmetry_space_group_name_H-M   'P 1'
_cell_length_a   16.91726420
_cell_length_b   16.92034956
_cell_length_c   16.92221255
_cell_angle_alpha   89.97409215
_cell_angle_beta   90.00392069
_cell_angle_gamma   90.00456301
_symmetry_Int_Tables_number   1
_chemical_formula_structural   V85Zn86O256
_chemical_formula_sum   'V85 Zn86 O256'
_cell_volume   4843.91553792
_cell_formula_units_Z   1
loop_
 _symmetry_equiv_pos_site_id
 _symmetry_equiv_pos_as_xyz
  1  'x, y, z'
loop_
 _atom_site_type_symbol
 _atom_site_label
 _atom_site_symmetry_multiplicity
 _atom_site_fract_x
 _atom_site_fract_y
 _atom_site_fract_z
 _atom_site_occupancy
  V  V0  1  0.01766152  0.25568014  0.25424788  1
  V  V1  1  0.62596229  0.12684342  0.50047879  1
  V  V2  1  0.74685781  0.75036931  0.50458854  1
  V  V3  1  0.37128182  -0.00180326  0.87398827  1
  V  V4  1  0.86813774  0.87468585  0.50453522  1
  V  V5  1  0.62052401  0.49434014  0.62700828  1
  V  V6  1  0.36769480  0.87736396  0.51097223  1
  V  V7  1  -0.00147630  0.86910211  0.86309156  1
  V  V8  1  0.50774102  0.25774569  0.75131113  1
  V  V9  1  0.62674931  0.24340562  0.87805361  1
  V  V10  1  0.62632271  0.62144277  0.00258739  1
  V  V11  1  0.75174566  0.61962844  0.87999624  1
  V  V12  1  0.14078803  0.49354433  0.62785212  1
  V  V13  1  0.37558492  0.24693653  0.12296194  1
  V  V14  1  0.12322289  0.74223020  0.86887685  1
  V  V15  1  -0.00346172  0.61805857  0.12029166  1
  V  V16  1  0.74040167  0.49222526  0.75461970  1
  V  V17  1  0.49883124  0.62363856  0.12754897  1
  V  V18  1  0.11733694  0.62862742  0.50115070  1
  V  V19  1  0.12307686  0.61388359  -0.00258981  1
  V  V20  1  0.75163166  0.74809225  0.00517868  1
  V  V21  1  0.63086119  -0.00370394  0.62364762  1
  V  V22  1  0.24321572  0.25203409  -0.00439923  1
  V  V23  1  0.36939350  0.75256560  0.12542687  1
  V  V24  1  0.87439836  -0.00236917  0.37239366  1
  V  V25  1  0.49458850  0.50341093  0.50831912  1
  V  V26  1  0.12368341  0.13511065  0.49816184  1
  V  V27  1  0.32014856  0.57194698  0.81155173  1
  V  V28  1  0.49506901  0.37714047  0.37697864  1
  V  V29  1  0.74997763  0.12492751  0.37442765  1
  V  V30  1  0.75592262  -0.00118516  0.74602249  1
  V  V31  1  0.37556207  0.73321964  0.62482896  1
  V  V32  1  -0.00253208  0.62797480  0.63014449  1
  V  V33  1  0.75726030  0.25595373  0.49930521  1
  V  V34  1  0.61861588  0.73581374  0.86330609  1
  V  V35  1  0.01277569  0.37283608  0.87584690  1
  V  V36  1  0.50571509  0.37997474  0.87553006  1
  V  V37  1  0.49925485  0.00043552  0.50026559  1
  V  V38  1  0.63082869  0.87414563  0.74758128  1
  V  V39  1  0.24199938  0.75421830  0.50126749  1
  V  V40  1  0.37011651  -0.00182145  0.37087767  1
  V  V41  1  0.00595827  0.86667036  0.37725724  1
  V  V42  1  0.62244135  0.87962365  0.24477819  1
  V  V43  1  0.87902367  0.24951163  0.12899883  1
  V  V44  1  0.24453014  0.12655137  0.37140910  1
  V  V45  1  0.00601634  0.11693274  0.12730073  1
  V  V46  1  0.87899382  0.00039154  0.87833349  1
  V  V47  1  0.01602157  0.25339083  0.75305136  1
  V  V48  1  0.12901556  0.11437117  0.00300440  1
  V  V49  1  0.26044858  0.24775897  0.50526109  1
  V  V50  1  0.24707055  0.74495646  -0.00468435  1
  V  V51  1  0.49744581  0.87276773  0.37432647  1
  V  V52  1  0.74618483  0.88140738  0.12289039  1
  V  V53  1  -0.00024907  0.74852566  0.24637799  1
  V  V54  1  0.24398722  0.12412325  0.87054823  1
  V  V55  1  0.87356221  0.62627051  0.75206014  1
  V  V56  1  0.75401099  0.37584033  0.62324645  1
  V  V57  1  0.00116898  0.12780548  0.62783372  1
  V  V58  1  0.50205844  0.87499117  0.87544483  1
  V  V59  1  0.88195505  0.37598528  0.00146288  1
  V  V60  1  0.37407595  0.12054278  0.75002630  1
  V  V61  1  0.00095013  -0.00075013  0.50239713  1
  V  V62  1  0.24503002  0.38010187  0.13849296  1
  V  V63  1  0.37584453  0.38129954  -0.00333955  1
  V  V64  1  0.74929031  0.24276333  0.00254526  1
  V  V65  1  0.87697528  0.13168503  0.75237289  1
  V  V66  1  0.12485411  0.87532853  0.24075604  1
  V  V67  1  0.86787981  0.75358930  0.63222798  1
  V  V68  1  0.62429164  0.37618838  0.25044973  1
  V  V69  1  0.87343632  0.49587670  0.38009675  1
  V  V70  1  0.51446125  0.00293213  0.00171950  1
  V  V71  1  0.13747112  -0.00288795  0.62789934  1
  V  V72  1  0.36525290  0.50132252  0.37109121  1
  V  V73  1  0.87125375  0.63284296  0.24707241  1
  V  V74  1  0.88244550  0.49694569  0.87829007  1
  V  V75  1  0.14029952  0.87359587  0.74594995  1
  V  V76  1  -0.00791886  0.49247220  0.50544898  1
  V  V77  1  0.51595651  0.12272394  0.12125238  1
  V  V78  1  0.74908059  0.50207822  0.25011713  1
  V  V79  1  0.61839038  0.62571836  0.50105962  1
  V  V80  1  0.49933426  0.24825621  0.25025440  1
  V  V81  1  0.50037507  0.12721458  0.62835363  1
  V  V82  1  0.87890589  0.86927807  0.00566234  1
  V  V83  1  0.23656694  0.62708090  0.37020125  1
  V  V84  1  0.36715002  0.62342743  0.24991170  1
  Zn  Zn85  1  0.12416728  0.49859091  0.13671251  1
  Zn  Zn86  1  0.37411285  0.12093018  0.24597750  1
  Zn  Zn87  1  0.37412109  0.87563104  -0.00054435  1
  Zn  Zn88  1  0.74739473  0.62729085  0.37549316  1
  Zn  Zn89  1  0.00731848  -0.00831837  0.00540506  1
  Zn  Zn90  1  0.62265997  0.49826833  0.12655615  1
  Zn  Zn91  1  0.49957873  0.50161824  -0.00476060  1
  Zn  Zn92  1  0.37254517  0.26386858  0.63489532  1
  Zn  Zn93  1  0.87831948  0.12612205  0.25149869  1
  Zn  Zn94  1  0.49954387  0.75072922  0.24984594  1
  Zn  Zn95  1  0.88249915  0.26025165  0.62154657  1
  Zn  Zn96  1  0.62411755  0.25058966  0.37710772  1
  Zn  Zn97  1  0.74644947  0.00359105  0.24394204  1
  Zn  Zn98  1  0.48629451  0.74587238  0.74643557  1
  Zn  Zn99  1  0.15446056  0.37927429  0.75462922  1
  Zn  Zn100  1  0.75067058  0.37434637  0.12509195  1
  Zn  Zn101  1  0.74762064  0.12167398  0.88053930  1
  Zn  Zn102  1  0.00132916  0.37288739  0.37239893  1
  Zn  Zn103  1  0.36131978  0.38340262  0.50569061  1
  Zn  Zn104  1  0.23976838  0.00494907  0.23897775  1
  Zn  Zn105  1  0.24128354  0.88172785  0.11453947  1
  Zn  Zn106  1  0.62519221  0.75099256  0.37503894  1
  Zn  Zn107  1  0.18981451  0.18760846  0.18323634  1
  Zn  Zn108  1  0.18868169  0.18636188  0.68683822  1
  Zn  Zn109  1  0.18099747  0.69034182  0.18577627  1
  Zn  Zn110  1  0.19045304  0.68870074  0.68714121  1
  Zn  Zn111  1  0.68985461  0.19145229  0.19047155  1
  Zn  Zn112  1  0.68924656  0.18828008  0.68916494  1
  Zn  Zn113  1  0.68540166  0.69411059  0.18754608  1
  Zn  Zn114  1  0.65980572  0.66644451  0.70260192  1
  Zn  Zn115  1  0.31421897  0.30587558  0.31583617  1
  Zn  Zn116  1  0.31945310  0.30695991  0.81709002  1
  Zn  Zn117  1  0.30772696  0.80904637  0.31544100  1
  Zn  Zn118  1  0.31145977  0.80474577  0.81379305  1
  Zn  Zn119  1  0.81467668  0.31435937  0.31285370  1
  Zn  Zn120  1  0.81263578  0.31379598  0.81419673  1
  Zn  Zn121  1  0.81011996  0.81303052  0.31414674  1
  Zn  Zn122  1  0.80770820  0.81101433  0.81708537  1
  Zn  Zn123  1  0.17661241  0.43288517  0.31835813  1
  Zn  Zn124  1  0.19815968  0.44420801  0.93301525  1
  Zn  Zn125  1  0.18456226  0.94036901  0.43666313  1
  Zn  Zn126  1  0.18940197  0.93386887  0.93190675  1
  Zn  Zn127  1  0.68539771  0.43780860  0.43688591  1
  Zn  Zn128  1  0.68751699  0.43119939  0.94123250  1
  Zn  Zn129  1  0.68667846  0.93646649  0.43555693  1
  Zn  Zn130  1  0.69021523  0.93471063  0.93339356  1
  Zn  Zn131  1  0.31680770  0.05947763  0.05924550  1
  Zn  Zn132  1  0.31360896  0.06463738  0.56189387  1
  Zn  Zn133  1  0.30993146  0.56244915  0.05852331  1
  Zn  Zn134  1  0.30770028  0.56660315  0.55475059  1
  Zn  Zn135  1  0.81850967  0.06170354  0.06314202  1
  Zn  Zn136  1  0.81446493  0.06569432  0.56220867  1
  Zn  Zn137  1  0.81520041  0.55838744  0.06646984  1
  Zn  Zn138  1  0.80711167  0.56499932  0.56454791  1
  Zn  Zn139  1  0.43322575  0.43837701  0.18687151  1
  Zn  Zn140  1  0.34487682  0.43791715  0.69394223  1
  Zn  Zn141  1  0.43578339  0.93978864  0.18426353  1
  Zn  Zn142  1  0.44119906  0.93690612  0.69013086  1
  Zn  Zn143  1  0.93849821  0.43876291  0.19056083  1
  Zn  Zn144  1  0.93729643  0.43893824  0.69202449  1
  Zn  Zn145  1  0.93516137  0.93534062  0.18790600  1
  Zn  Zn146  1  0.93927895  0.93942716  0.68617105  1
  Zn  Zn147  1  0.06096996  0.06059844  0.31289180  1
  Zn  Zn148  1  0.06470341  0.05741538  0.81286128  1
  Zn  Zn149  1  0.05677246  0.56250511  0.31372205  1
  Zn  Zn150  1  0.06321550  0.56021547  0.80824211  1
  Zn  Zn151  1  0.56166773  0.06099122  0.31012093  1
  Zn  Zn152  1  0.56488405  0.06292407  0.81439667  1
  Zn  Zn153  1  0.55878431  0.56370853  0.31579407  1
  Zn  Zn154  1  0.51306358  0.55253658  0.77916381  1
  Zn  Zn155  1  0.43645076  0.18416929  0.43425210  1
  Zn  Zn156  1  0.43719385  0.18679336  0.93919373  1
  Zn  Zn157  1  0.43220677  0.68837520  0.43847009  1
  Zn  Zn158  1  0.43900781  0.68875289  0.94243295  1
  Zn  Zn159  1  0.93779677  0.18844683  0.43684894  1
  Zn  Zn160  1  0.94376931  0.18900192  0.93932109  1
  Zn  Zn161  1  0.93261227  0.68569465  0.43581415  1
  Zn  Zn162  1  0.94037762  0.68809146  0.93758639  1
  Zn  Zn163  1  0.06474543  0.30909096  0.06288940  1
  Zn  Zn164  1  0.12343165  0.36211346  0.50107803  1
  Zn  Zn165  1  0.05858280  0.80240835  0.06125388  1
  Zn  Zn166  1  0.05596233  0.81042966  0.56968081  1
  Zn  Zn167  1  0.56427645  0.31039784  0.06152636  1
  Zn  Zn168  1  0.56205341  0.31495606  0.56228531  1
  Zn  Zn169  1  0.56250357  0.81001963  0.06005546  1
  Zn  Zn170  1  0.55770728  0.81336896  0.56383626  1
  O  O171  1  0.11942853  0.12576141  0.11568619  1
  O  O172  1  0.11837381  0.11694389  0.62103384  1
  O  O173  1  0.11584924  0.62462823  0.11564963  1
  O  O174  1  0.11384013  0.62135186  0.62495601  1
  O  O175  1  0.61536125  0.12916571  0.12899660  1
  O  O176  1  0.62057624  0.11538862  0.62232077  1
  O  O177  1  0.61631864  0.62682349  0.11920329  1
  O  O178  1  0.62676093  0.61025082  0.60948622  1
  O  O179  1  0.37795019  0.38369868  0.37811059  1
  O  O180  1  0.39237175  0.36311074  0.88848981  1
  O  O181  1  0.37821650  0.88016504  0.38178957  1
  O  O182  1  0.38336779  0.88058286  0.87133083  1
  O  O183  1  0.87983465  0.39089713  0.36935097  1
  O  O184  1  0.88328754  0.37961876  0.88205587  1
  O  O185  1  0.88063997  0.88166173  0.38221434  1
  O  O186  1  0.88076315  0.87937829  0.88245045  1
  O  O187  1  0.25490717  0.00836221  0.37157878  1
  O  O188  1  0.26176436  0.00740354  0.87755512  1
  O  O189  1  0.25953855  0.50981186  0.37462416  1
  O  O190  1  0.26980749  0.50720582  0.87228942  1
  O  O191  1  0.75833696  0.00709716  0.37609137  1
  O  O192  1  0.76363598  0.00188888  0.86980548  1
  O  O193  1  0.75371683  0.50188437  0.36555468  1
  O  O194  1  0.75491997  0.49985119  0.87074626  1
  O  O195  1  0.25429745  0.48162512  0.12322205  1
  O  O196  1  0.24285858  0.50108587  0.62251267  1
  O  O197  1  0.26360227  0.99123949  0.12900951  1
  O  O198  1  0.23688346  1.00384633  0.62164889  1
  O  O199  1  0.74835296  0.49561414  0.13918689  1
  O  O200  1  0.74204069  0.49447465  0.63267069  1
  O  O201  1  0.75471225  0.98684294  0.12381526  1
  O  O202  1  0.74275594  1.00625979  0.63261931  1
  O  O203  1  0.00051442  0.35963106  0.24729924  1
  O  O204  1  -0.00289473  0.36509292  0.75855538  1
  O  O205  1  0.00319716  0.86779562  0.25537320  1
  O  O206  1  -0.00131488  0.87444925  0.76089849  1
  O  O207  1  0.50279900  0.37242206  0.25889184  1
  O  O208  1  0.49800370  0.35865665  0.76147533  1
  O  O209  1  0.50412202  0.87474012  0.25648356  1
  O  O210  1  0.51269862  0.87023393  0.75622826  1
  O  O211  1  0.49769276  0.12985323  0.24221990  1
  O  O212  1  0.49732235  0.12866035  0.74373811  1
  O  O213  1  0.49110404  0.62919015  0.24418427  1
  O  O214  1  0.55660900  0.65919848  0.76990717  1
  O  O215  1  1.00091032  0.13346382  0.24376440  1
  O  O216  1  0.99783500  0.13096664  0.74772610  1
  O  O217  1  0.99014184  0.63263560  0.24610917  1
  O  O218  1  0.98211228  0.62020901  0.74543584  1
  O  O219  1  0.36789299  0.25646793  0.00762999  1
  O  O220  1  0.36660703  0.24633792  0.50183164  1
  O  O221  1  0.36491134  0.74974705  0.00785332  1
  O  O222  1  0.36709821  0.75821249  0.50840213  1
  O  O223  1  0.87458387  0.25500025  0.01145565  1
  O  O224  1  0.86213706  0.24422890  0.50434840  1
  O  O225  1  0.86414203  0.75761794  -0.00842765  1
  O  O226  1  0.86742447  0.75631479  0.50660312  1
  O  O227  1  0.13647782  0.23664555  0.50629599  1
  O  O228  1  0.13862637  0.23944959  1.00306835  1
  O  O229  1  0.12763828  0.73996501  0.50998098  1
  O  O230  1  0.12961739  0.74169959  0.99075481  1
  O  O231  1  0.63516416  0.24317382  0.49887066  1
  O  O232  1  0.63873424  0.25223467  0.99557444  1
  O  O233  1  0.62944822  0.74466805  0.50349562  1
  O  O234  1  0.62992934  0.73998449  0.99112464  1
  O  O235  1  0.49369492  0.24397570  0.12862238  1
  O  O236  1  0.50636598  0.23957229  0.63299994  1
  O  O237  1  0.49063150  0.73815328  0.12315957  1
  O  O238  1  0.48093656  0.75366407  0.62395411  1
  O  O239  1  0.99738724  0.24166754  0.13458414  1
  O  O240  1  0.99745886  0.23570371  0.63651562  1
  O  O241  1  0.99860984  0.73855716  0.13796693  1
  O  O242  1  0.98321906  0.73687061  0.62401323  1
  O  O243  1  -0.00734951  0.24903611  0.35727592  1
  O  O244  1  -0.00050723  0.25929186  0.86540002  1
  O  O245  1  -0.01048203  0.75760617  0.36362389  1
  O  O246  1  0.01168255  0.75698199  0.87677736  1
  O  O247  1  0.49891968  0.25854859  0.36991734  1
  O  O248  1  0.50919624  0.25072069  0.87127111  1
  O  O249  1  0.49626795  0.76390474  0.37604916  1
  O  O250  1  0.50239279  0.76420794  0.87789965  1
  O  O251  1  0.24346508  0.12743569  0.49221382  1
  O  O252  1  0.24596712  0.13034575  0.99375116  1
  O  O253  1  0.23635830  0.63155446  0.49202541  1
  O  O254  1  0.23999333  0.63637451  1.00542800  1
  O  O255  1  0.74624208  0.13044990  0.49095802  1
  O  O256  1  0.76113673  0.13817902  0.99912380  1
  O  O257  1  0.73997543  0.63374014  0.49809079  1
  O  O258  1  0.74586886  0.63020684  1.00379045  1
  O  O259  1  0.25835243  0.36729139  0.00083854  1
  O  O260  1  0.24686782  0.34924223  0.49552839  1
  O  O261  1  0.25134890  0.86151567  -0.00256975  1
  O  O262  1  0.25505846  0.86704337  0.49241256  1
  O  O263  1  0.76432304  0.36337964  0.00220808  1
  O  O264  1  0.74607743  0.36710718  0.50706553  1
  O  O265  1  0.75576701  0.86790383  0.00302898  1
  O  O266  1  0.76099281  0.87043146  0.49828954  1
  O  O267  1  0.12920640  0.50777425  0.25015570  1
  O  O268  1  0.11919975  0.49462043  0.73163957  1
  O  O269  1  0.12095441  0.98073960  0.25393545  1
  O  O270  1  0.12027524  0.98459548  0.74223097  1
  O  O271  1  0.63079889  0.49542880  0.25089928  1
  O  O272  1  0.62616221  0.50559204  0.73701569  1
  O  O273  1  0.62852275  0.98535867  0.25517463  1
  O  O274  1  0.63452340  0.99351557  0.74536035  1
  O  O275  1  0.37407106  -0.00154387  0.26291900  1
  O  O276  1  0.38452699  0.01057622  0.75977749  1
  O  O277  1  0.37617799  0.51478113  0.25517562  1
  O  O278  1  0.39637314  0.52316136  0.75283216  1
  O  O279  1  0.87187607  0.00045797  0.26172193  1
  O  O280  1  0.87290786  0.00929856  0.75557491  1
  O  O281  1  0.86685101  0.50880839  0.25590316  1
  O  O282  1  0.86302321  0.50551163  0.75961797  1
  O  O283  1  0.11386479  0.37736456  0.39018219  1
  O  O284  1  0.11607032  0.38632746  0.87242162  1
  O  O285  1  0.10897957  0.87700671  0.37176863  1
  O  O286  1  0.11771274  0.86982530  0.86228561  1
  O  O287  1  0.61511114  0.37609233  0.36487355  1
  O  O288  1  0.61658681  0.35938342  0.88230455  1
  O  O289  1  0.61344899  0.87399957  0.37094060  1
  O  O290  1  0.61965128  0.86773449  0.86590207  1
  O  O291  1  0.37919404  0.13814314  0.12378321  1
  O  O292  1  0.38629845  0.12240884  0.63290268  1
  O  O293  1  0.37688538  0.63198724  0.13062053  1
  O  O294  1  0.37735666  0.63464242  0.61704038  1
  O  O295  1  0.88539372  0.13288786  0.12748623  1
  O  O296  1  0.88400662  0.12396643  0.63560766  1
  O  O297  1  0.88163680  0.62168922  0.13494747  1
  O  O298  1  0.87512040  0.63145956  0.63491081  1
  O  O299  1  0.25750166  0.25948468  0.11841422  1
  O  O300  1  0.25837472  0.23506323  0.60993098  1
  O  O301  1  0.25426366  0.75494216  0.11748227  1
  O  O302  1  0.26025180  0.74554906  0.61079882  1
  O  O303  1  0.75976885  0.25241339  0.12041467  1
  O  O304  1  0.75045454  0.25862908  0.61888345  1
  O  O305  1  0.74538990  0.76040863  0.11122701  1
  O  O306  1  0.76085586  0.74629707  0.61331458  1
  O  O307  1  0.25718129  0.23295973  0.38558756  1
  O  O308  1  0.25731493  0.23744186  0.88587110  1
  O  O309  1  0.25267135  0.73888649  0.39010035  1
  O  O310  1  0.23474951  0.75156676  0.88113828  1
  O  O311  1  0.75043325  0.24365750  0.38142895  1
  O  O312  1  0.74508198  0.24855215  0.88304203  1
  O  O313  1  0.74796918  0.75059193  0.39024156  1
  O  O314  1  0.74262373  0.73903083  0.88496887  1
  O  O315  1  0.01209899  0.12449379  0.00795026  1
  O  O316  1  0.00599576  0.12308048  0.50803104  1
  O  O317  1  0.00738373  0.62975574  0.00990335  1
  O  O318  1  0.00161671  0.62423645  0.50851278  1
  O  O319  1  0.49843576  0.11665988  0.00850399  1
  O  O320  1  0.50498200  0.12054400  0.50728567  1
  O  O321  1  0.50823463  0.62202130  0.00725999  1
  O  O322  1  0.50511806  0.61604389  0.49224752  1
  O  O323  1  0.50326725  0.38273232  0.48567641  1
  O  O324  1  0.49471358  0.37602322  0.99506258  1
  O  O325  1  0.49144475  0.88263645  0.49318270  1
  O  O326  1  0.49884380  0.88178384  0.99235343  1
  O  O327  1  0.99851910  0.39180602  0.50581991  1
  O  O328  1  0.99161524  0.36665000  0.99202042  1
  O  O329  1  0.98975643  0.87563104  0.49435011  1
  O  O330  1  0.99400131  0.87218030  0.99234208  1
  O  O331  1  0.48689452  0.49420229  0.37893243  1
  O  O332  1  0.51042716  0.48350334  0.87388151  1
  O  O333  1  0.49187127  0.99216079  0.38054980  1
  O  O334  1  0.49710543  0.99051235  0.87802372  1
  O  O335  1  0.98835357  0.50544085  0.38798041  1
  O  O336  1  0.98792240  0.49112276  0.86827847  1
  O  O337  1  0.99047955  0.99326026  0.38263521  1
  O  O338  1  0.99108565  0.99101915  0.87694179  1
  O  O339  1  -0.00598844  0.01264807  0.12450850  1
  O  O340  1  0.00527671  0.01050130  0.62083133  1
  O  O341  1  0.00213540  0.51309734  0.12982376  1
  O  O342  1  -0.00717296  0.51367961  0.62133427  1
  O  O343  1  0.49459638  0.01056927  0.11408061  1
  O  O344  1  0.50827622  0.00897231  0.62121116  1
  O  O345  1  0.49903724  0.51321174  0.12565508  1
  O  O346  1  0.50644543  0.49760184  0.60961574  1
  O  O347  1  0.25084246  0.37077876  0.24258177  1
  O  O348  1  0.26649349  0.37571367  0.74897465  1
  O  O349  1  0.23076858  0.86991711  0.25345991  1
  O  O350  1  0.23840821  0.87541130  0.75224190  1
  O  O351  1  0.74058812  0.38253449  0.25120478  1
  O  O352  1  0.74895856  0.38627820  0.74603004  1
  O  O353  1  0.74341337  0.87437894  0.23984237  1
  O  O354  1  0.75030353  0.89286543  0.75560958  1
  O  O355  1  0.25113278  0.12359292  0.25684541  1
  O  O356  1  0.26060660  0.12976398  0.75824150  1
  O  O357  1  0.25411356  0.63578481  0.25964323  1
  O  O358  1  0.25444858  0.61990526  0.75118580  1
  O  O359  1  0.75178846  0.12428734  0.26283648  1
  O  O360  1  0.76017933  0.11678488  0.75329075  1
  O  O361  1  0.75325617  0.62050645  0.24967168  1
  O  O362  1  0.75360072  0.61148997  0.75769622  1
  O  O363  1  0.36748932  0.11346328  0.37303444  1
  O  O364  1  0.36932474  0.11748788  0.86903433  1
  O  O365  1  0.36460837  0.62115560  0.36781940  1
  O  O366  1  0.37553054  0.63888996  0.86488060  1
  O  O367  1  0.86833378  0.11482290  0.37585480  1
  O  O368  1  0.87925338  0.11687285  0.86921694  1
  O  O369  1  0.86936288  0.61625259  0.36484363  1
  O  O370  1  0.87167635  0.61660677  0.87200847  1
  O  O371  1  0.14234923  0.37554818  0.11896904  1
  O  O372  1  0.12591259  0.39368606  0.61617349  1
  O  O373  1  0.12035604  0.87034611  0.13680752  1
  O  O374  1  0.11798129  0.88010753  0.63836332  1
  O  O375  1  0.62365691  0.37583743  0.13906987  1
  O  O376  1  0.63461370  0.38695868  0.61905845  1
  O  O377  1  0.63209736  0.87099438  0.13139155  1
  O  O378  1  0.61997745  0.88837855  0.63051438  1
  O  O379  1  0.11628464  0.24884317  0.24945038  1
  O  O380  1  0.11918658  0.25953626  0.74419947  1
  O  O381  1  0.11212741  0.76099793  0.25225299  1
  O  O382  1  0.12752952  0.76134167  0.75423366  1
  O  O383  1  0.61874538  0.25951834  0.25463770  1
  O  O384  1  0.61872826  0.24465767  0.76021558  1
  O  O385  1  0.62080505  0.76247821  0.25480457  1
  O  O386  1  0.65448975  0.77151926  0.75025136  1
  O  O387  1  0.38239517  0.24792720  0.24136697  1
  O  O388  1  0.38923792  0.23457221  0.75043840  1
  O  O389  1  0.37461230  0.74099894  0.24403753  1
  O  O390  1  0.37051230  0.75418469  0.72970524  1
  O  O391  1  0.87602357  0.24938421  0.23761276  1
  O  O392  1  0.87900035  0.23944667  0.75020598  1
  O  O393  1  0.87642061  0.73901432  0.25307665  1
  O  O394  1  0.86233011  0.73966262  0.74454185  1
  O  O395  1  0.37870947  0.50228816  0.48934922  1
  O  O396  1  0.37880154  0.48568581  1.00626609  1
  O  O397  1  0.37742644  0.99505562  0.49063040  1
  O  O398  1  0.38627394  0.99724558  0.98560226  1
  O  O399  1  0.87876106  0.51002470  0.49222230  1
  O  O400  1  0.86973353  0.48927559  0.99056222  1
  O  O401  1  0.87943097  0.99280163  0.49540450  1
  O  O402  1  0.87953060  0.99067470  0.99192798  1
  O  O403  1  0.12560554  0.00938559  -0.00547426  1
  O  O404  1  0.11765900  0.00561339  0.50866145  1
  O  O405  1  0.13261625  0.51193412  0.00265916  1
  O  O406  1  0.11142051  0.51675848  0.51745193  1
  O  O407  1  0.61408868  -0.00207689  -0.00889489  1
  O  O408  1  0.62153811  0.00476863  0.50725462  1
  O  O409  1  0.62574614  0.50626281  0.00751781  1
  O  O410  1  0.61630126  0.50698796  0.50130029  1
  O  O411  1  0.36722725  0.36530010  0.12092225  1
  O  O412  1  0.38973937  0.37367056  0.61441586  1
  O  O413  1  0.37810528  0.85949028  0.12415052  1
  O  O414  1  0.37608560  0.88087250  0.61250103  1
  O  O415  1  0.87744454  0.36921842  0.11777605  1
  O  O416  1  0.85950218  0.37675382  0.63101499  1
  O  O417  1  0.86941891  0.87542746  0.11173257  1
  O  O418  1  0.88069978  0.86641634  0.61745972  1
  O  O419  1  0.13194638  0.11687855  0.38560410  1
  O  O420  1  0.13786821  0.11956384  0.87875977  1
  O  O421  1  0.12940834  0.62351854  0.38627367  1
  O  O422  1  0.11515441  0.63111029  0.88123848  1
  O  O423  1  0.63249552  0.12468313  0.38116897  1
  O  O424  1  0.62896667  0.13619717  0.87491848  1
  O  O425  1  0.62513322  0.62912939  0.38582466  1
  O  O426  1  0.63657514  0.62069488  0.89434323  1
