# generated using pymatgen
data_V85Zn86O256
_symmetry_space_group_name_H-M   'P 1'
_cell_length_a   16.93676610
_cell_length_b   16.93415856
_cell_length_c   16.93700635
_cell_angle_alpha   90.03505017
_cell_angle_beta   90.07750670
_cell_angle_gamma   89.97810288
_symmetry_Int_Tables_number   1
_chemical_formula_structural   V85Zn86O256
_chemical_formula_sum   'V85 Zn86 O256'
_cell_volume   4857.69509741
_cell_formula_units_Z   1
loop_
 _symmetry_equiv_pos_site_id
 _symmetry_equiv_pos_as_xyz
  1  'x, y, z'
loop_
 _atom_site_type_symbol
 _atom_site_label
 _atom_site_symmetry_multiplicity
 _atom_site_fract_x
 _atom_site_fract_y
 _atom_site_fract_z
 _atom_site_occupancy
  V  V0  1  0.12356289  0.86387807  0.24836525  1
  V  V1  1  0.13005933  0.11847178  0.49967371  1
  V  V2  1  0.63019003  0.12636257  -0.00239076  1
  V  V3  1  0.24223903  0.87720893  0.62327871  1
  V  V4  1  0.37308543  0.75129932  0.62377858  1
  V  V5  1  0.49747032  -0.00220105  0.00002747  1
  V  V6  1  0.50017767  0.36982051  0.86980617  1
  V  V7  1  0.87721003  0.75532250  0.12829810  1
  V  V8  1  0.63276756  0.87513247  0.24456827  1
  V  V9  1  0.74857410  0.50336145  0.24625197  1
  V  V10  1  0.37220202  0.62045608  0.26146849  1
  V  V11  1  0.37700396  0.36947499  0.00376714  1
  V  V12  1  0.36408679  0.49713823  0.87095748  1
  V  V13  1  0.49527760  0.25529870  0.24454075  1
  V  V14  1  0.74534812  0.01297218  0.75053857  1
  V  V15  1  0.49517898  0.88485616  0.37169815  1
  V  V16  1  0.63085247  0.49675767  0.62169458  1
  V  V17  1  0.37337625  0.38374913  0.49474255  1
  V  V18  1  -0.00146172  0.86383359  0.36891653  1
  V  V19  1  0.12494151  0.24994965  0.37279892  1
  V  V20  1  0.00092756  0.87006708  0.87468387  1
  V  V21  1  0.87978824  0.63075271  0.24832505  1
  V  V22  1  0.49722573  0.38408661  0.37163416  1
  V  V23  1  0.80854760  0.31816778  0.67251289  1
  V  V24  1  0.25418942  0.00146603  0.74829550  1
  V  V25  1  0.25781882  0.11585729  0.37509709  1
  V  V26  1  0.25271869  0.50137269  0.26413297  1
  V  V27  1  0.49670907  0.74902132  0.24578622  1
  V  V28  1  -0.00042596  0.50507467  0.50301265  1
  V  V29  1  -0.00200158  0.00059038  0.00390458  1
  V  V30  1  0.49508223  0.13151195  0.12228541  1
  V  V31  1  0.62466775  0.87651630  0.74722581  1
  V  V32  1  0.87334416  0.87610668  0.50154295  1
  V  V33  1  0.25066007  0.64066358  0.88055170  1
  V  V34  1  0.88049157  0.49998358  0.37321100  1
  V  V35  1  0.62069890  0.37270280  0.74435148  1
  V  V36  1  0.00236960  0.62964347  0.12721257  1
  V  V37  1  0.75081702  0.12487874  0.36451937  1
  V  V38  1  0.25206678  0.25125259  0.49971412  1
  V  V39  1  0.07673685  0.05018105  0.66963911  1
  V  V40  1  0.62587567  0.62349732  -0.00333885  1
  V  V41  1  0.12391113  0.37436790  0.25498476  1
  V  V42  1  0.74604489  0.88001541  0.62637906  1
  V  V43  1  0.38370675  0.25030370  0.63264076  1
  V  V44  1  0.12288396  0.86323020  0.75456760  1
  V  V45  1  0.87737013  0.00931480  0.37032969  1
  V  V46  1  0.12548492  0.62330125  0.49815419  1
  V  V47  1  0.00846279  -0.00416199  0.49730915  1
  V  V48  1  0.37841351  0.12117641  0.25190919  1
  V  V49  1  0.75850822  0.25042878  0.00112896  1
  V  V50  1  0.75738209  0.62540508  0.86752810  1
  V  V51  1  0.74843112  0.75265915  0.00329337  1
  V  V52  1  0.62747770  0.24657308  0.87295277  1
  V  V53  1  0.13132021  0.63872057  -0.00035416  1
  V  V54  1  0.86622627  0.01107953  0.87491077  1
  V  V55  1  0.24855610  0.12708897  0.87650419  1
  V  V56  1  0.25427437  0.86979364  0.11925034  1
  V  V57  1  0.87698476  0.73974319  0.63112617  1
  V  V58  1  -0.00267221  0.74024892  0.75187444  1
  V  V59  1  0.63097693  -0.00285880  0.12395089  1
  V  V60  1  0.88298330  0.50303205  0.87603736  1
  V  V61  1  0.12737910  0.00169512  0.13106641  1
  V  V62  1  0.00105614  0.36105219  0.88030739  1
  V  V63  1  0.74739976  0.25712888  0.49558971  1
  V  V64  1  0.12095368  0.36080845  0.75560164  1
  V  V65  1  0.75125168  0.62782548  0.37475251  1
  V  V66  1  0.50159349  0.62433972  0.62434108  1
  V  V67  1  0.12504486  0.13124437  0.00468127  1
  V  V68  1  0.50072816  0.49924438  -0.00288297  1
  V  V69  1  -0.04146236  0.31114573  0.32186402  1
  V  V70  1  0.37243749  0.88353036  0.49512574  1
  V  V71  1  0.25150344  0.25057917  -0.00070268  1
  V  V72  1  -0.00546422  0.13094039  0.14232593  1
  V  V73  1  0.12682713  0.49964046  0.12332872  1
  V  V74  1  0.25369473  0.37083955  0.12857870  1
  V  V75  1  0.36768556  0.61928085  0.74789793  1
  V  V76  1  0.24845195  0.74495130  0.49009151  1
  V  V77  1  0.24958712  0.38129712  0.63256267  1
  V  V78  1  0.49944282  0.87283929  0.87331552  1
  V  V79  1  0.87841549  0.37447581  0.49953808  1
  V  V80  1  0.62224141  0.11731017  0.50080647  1
  V  V81  1  0.62423300  0.75179957  0.37558076  1
  V  V82  1  0.12256201  0.50549611  0.63696992  1
  V  V83  1  0.86864889  0.87716071  0.00293797  1
  V  V84  1  0.75607154  0.37706277  0.11871958  1
  Zn  Zn85  1  0.36660120  0.73731492  0.11730049  1
  Zn  Zn86  1  0.87792888  0.25133422  0.13981816  1
  Zn  Zn87  1  0.61945121  0.25116419  0.37287146  1
  Zn  Zn88  1  -0.00161576  0.49590365  0.00130117  1
  Zn  Zn89  1  0.62396158  0.62498790  0.49947371  1
  Zn  Zn90  1  0.62294358  0.37657498  0.24730768  1
  Zn  Zn91  1  0.50749740  0.11760487  0.63751046  1
  Zn  Zn92  1  0.75787798  0.00088888  0.24279401  1
  Zn  Zn93  1  -0.06131158  0.17996095  0.67637500  1
  Zn  Zn94  1  0.49661682  0.00406853  0.49861448  1
  Zn  Zn95  1  0.12228805  0.73999902  0.36923423  1
  Zn  Zn96  1  0.49674311  0.62308730  0.12218830  1
  Zn  Zn97  1  0.49804268  0.50375072  0.49497500  1
  Zn  Zn98  1  0.25978961  -0.00539777  0.25260726  1
  Zn  Zn99  1  0.75807345  0.50368547  0.74659660  1
  Zn  Zn100  1  0.62679063  0.74886447  0.87214169  1
  Zn  Zn101  1  0.50105559  0.75004661  0.74822895  1
  Zn  Zn102  1  0.36867561  0.86477226  -0.00771077  1
  Zn  Zn103  1  0.38544333  0.13186634  0.75814102  1
  Zn  Zn104  1  0.62603867  0.49952033  0.12151725  1
  Zn  Zn105  1  0.37449728  0.00060342  0.87613464  1
  Zn  Zn106  1  0.74852258  0.75149568  0.50198256  1
  Zn  Zn107  1  0.18981287  0.18928473  0.19055891  1
  Zn  Zn108  1  0.19741537  0.19390226  0.68963183  1
  Zn  Zn109  1  0.19168429  0.68527302  0.18861075  1
  Zn  Zn110  1  0.18849444  0.68559462  0.68579821  1
  Zn  Zn111  1  0.68222269  0.19062785  0.18463182  1
  Zn  Zn112  1  0.67718063  0.18579452  0.68779218  1
  Zn  Zn113  1  0.68655925  0.68776870  0.18334914  1
  Zn  Zn114  1  0.68804058  0.69124613  0.68620184  1
  Zn  Zn115  1  0.31533750  0.30805049  0.31208524  1
  Zn  Zn116  1  0.30677830  0.31443250  0.81417941  1
  Zn  Zn117  1  0.31248295  0.81028181  0.30866252  1
  Zn  Zn118  1  0.31584226  0.81403989  0.80873876  1
  Zn  Zn119  1  0.79630886  0.31685911  0.31381331  1
  Zn  Zn120  1  0.82073718  0.30763024  0.83490138  1
  Zn  Zn121  1  0.81310968  0.81490700  0.31236319  1
  Zn  Zn122  1  0.81383531  0.81565789  0.81393940  1
  Zn  Zn123  1  0.18199148  0.43474287  0.44083687  1
  Zn  Zn124  1  0.18444502  0.43861949  0.93807197  1
  Zn  Zn125  1  0.18775403  0.93243635  0.43316889  1
  Zn  Zn126  1  0.18491729  0.93989547  0.93883161  1
  Zn  Zn127  1  0.68504602  0.43910116  0.43456933  1
  Zn  Zn128  1  0.69170364  0.43715996  0.93376472  1
  Zn  Zn129  1  0.68866506  0.93848236  0.43307988  1
  Zn  Zn130  1  0.68574016  0.93700257  0.93558061  1
  Zn  Zn131  1  0.31457760  0.05960453  0.06550760  1
  Zn  Zn132  1  0.31565303  0.06235147  0.56709125  1
  Zn  Zn133  1  0.31287707  0.56032753  0.06435764  1
  Zn  Zn134  1  0.30817303  0.56244281  0.56169080  1
  Zn  Zn135  1  0.81350488  0.06767106  0.06505176  1
  Zn  Zn136  1  0.80653512  0.06881460  0.55745792  1
  Zn  Zn137  1  0.81607708  0.56362038  0.05626528  1
  Zn  Zn138  1  0.81013320  0.56211339  0.55983551  1
  Zn  Zn139  1  0.43466586  0.44344768  0.18500015  1
  Zn  Zn140  1  0.43966276  0.43902425  0.68543316  1
  Zn  Zn141  1  0.44044224  0.93936289  0.18533746  1
  Zn  Zn142  1  0.43744155  0.94212836  0.68407432  1
  Zn  Zn143  1  0.93519307  0.44164679  0.18283163  1
  Zn  Zn144  1  0.94656498  0.44741408  0.69631644  1
  Zn  Zn145  1  0.93994250  0.93825952  0.18859336  1
  Zn  Zn146  1  0.90668249  0.98169781  0.66440916  1
  Zn  Zn147  1  0.06681823  0.05765665  0.31643463  1
  Zn  Zn148  1  0.06235002  0.05984604  0.83250829  1
  Zn  Zn149  1  0.06253374  0.56062165  0.31292201  1
  Zn  Zn150  1  0.06808099  0.56146689  0.81838777  1
  Zn  Zn151  1  0.56549541  0.06441316  0.31103777  1
  Zn  Zn152  1  0.56151977  0.06196148  0.81293836  1
  Zn  Zn153  1  0.56227869  0.56458937  0.31120608  1
  Zn  Zn154  1  0.56257886  0.55894242  0.81038164  1
  Zn  Zn155  1  0.43775534  0.19579215  0.43535867  1
  Zn  Zn156  1  0.43865372  0.18863073  0.93646642  1
  Zn  Zn157  1  0.43876996  0.69259896  0.43820411  1
  Zn  Zn158  1  0.43615783  0.68833289  0.93553740  1
  Zn  Zn159  1  0.95355493  0.19926277  0.49419497  1
  Zn  Zn160  1  0.94079381  0.18596182  0.94294586  1
  Zn  Zn161  1  0.93731331  0.68629442  0.44427681  1
  Zn  Zn162  1  0.93979127  0.68628795  0.94166963  1
  Zn  Zn163  1  0.06290414  0.31092940  0.06594310  1
  Zn  Zn164  1  0.06349347  0.31577472  0.56657730  1
  Zn  Zn165  1  0.06092248  0.81400798  0.06371729  1
  Zn  Zn166  1  0.06067432  0.80991834  0.56494537  1
  Zn  Zn167  1  0.56806300  0.31445450  0.06314035  1
  Zn  Zn168  1  0.56190930  0.31385493  0.55775566  1
  Zn  Zn169  1  0.56027906  0.81108793  0.06103421  1
  Zn  Zn170  1  0.56059888  0.81546041  0.56078725  1
  O  O171  1  0.11989146  0.11910520  0.12479934  1
  O  O172  1  0.13718346  0.11914514  0.61917846  1
  O  O173  1  0.12172212  0.61910283  0.12232584  1
  O  O174  1  0.13139493  0.61429806  0.61541968  1
  O  O175  1  0.61411364  0.11925810  0.11780042  1
  O  O176  1  0.62247686  0.13042423  0.60568748  1
  O  O177  1  0.62316415  0.62242405  0.10908800  1
  O  O178  1  0.61690510  0.62178346  0.62416611  1
  O  O179  1  0.38036772  0.37068994  0.38445534  1
  O  O180  1  0.38132992  0.37915425  0.87907283  1
  O  O181  1  0.38302564  0.86689013  0.38203110  1
  O  O182  1  0.38411301  0.87948351  0.87412157  1
  O  O183  1  0.88356275  0.37601079  0.37876579  1
  O  O184  1  0.89459100  0.38237278  0.87451480  1
  O  O185  1  0.88059916  0.87823727  0.38261274  1
  O  O186  1  0.87964220  0.88255302  0.88737342  1
  O  O187  1  0.24625630  0.01190806  0.37138721  1
  O  O188  1  0.24996701  0.00700918  0.86759978  1
  O  O189  1  0.24320140  0.49271238  0.36285529  1
  O  O190  1  0.26241677  0.50271220  0.87895321  1
  O  O191  1  0.75794359  0.00748837  0.37113298  1
  O  O192  1  0.75804686  0.00015174  0.86948930  1
  O  O193  1  0.75651065  0.50862976  0.36607974  1
  O  O194  1  0.76019594  0.50721599  0.87254880  1
  O  O195  1  0.24406359  0.48846392  0.13256461  1
  O  O196  1  0.24074493  0.48692764  0.61990818  1
  O  O197  1  0.24260343  0.99308237  0.12986694  1
  O  O198  1  0.25255979  0.99054684  0.63456046  1
  O  O199  1  0.75278920  0.49671304  0.12932761  1
  O  O200  1  0.73608676  0.50840644  0.62858764  1
  O  O201  1  0.73598441  1.00654581  0.12534787  1
  O  O202  1  0.75141433  0.99384759  0.64076213  1
  O  O203  1  0.00616932  0.37869469  0.25384542  1
  O  O204  1  0.01326619  0.37531414  0.76109936  1
  O  O205  1  0.00932118  0.87652682  0.25760951  1
  O  O206  1  0.01004309  0.86762132  0.76019344  1
  O  O207  1  0.49668899  0.37171044  0.25202460  1
  O  O208  1  0.50813909  0.37818715  0.75850073  1
  O  O209  1  0.50463198  0.86814991  0.25457234  1
  O  O210  1  0.50725925  0.87801857  0.75434237  1
  O  O211  1  0.49676193  0.13236687  0.24324888  1
  O  O212  1  0.49871044  0.12755071  0.75047722  1
  O  O213  1  0.49106733  0.63070725  0.24779806  1
  O  O214  1  0.49121216  0.62572275  0.74010886  1
  O  O215  1  1.00605161  0.12070451  0.24017361  1
  O  O216  1  1.01867431  0.10713600  0.73487473  1
  O  O217  1  0.99567533  0.62079116  0.23651537  1
  O  O218  1  1.00965865  0.64155198  0.75892586  1
  O  O219  1  0.36986551  0.26244253  -0.00234237  1
  O  O220  1  0.36604292  0.25907336  0.50784236  1
  O  O221  1  0.38575587  0.75443808  0.00814237  1
  O  O222  1  0.36687190  0.75518766  0.50782413  1
  O  O223  1  0.86091039  0.24277999  0.00191282  1
  O  O224  1  0.85765319  0.26052018  0.49629665  1
  O  O225  1  0.86910314  0.75764772  0.00833468  1
  O  O226  1  0.87535471  0.76137470  0.51228169  1
  O  O227  1  0.13824345  0.24570727  0.49390069  1
  O  O228  1  0.13384506  0.23765939  1.00803931  1
  O  O229  1  0.13091382  0.74066287  0.50181208  1
  O  O230  1  0.12363781  0.73813828  1.00517458  1
  O  O231  1  0.63466420  0.24675490  0.49619628  1
  O  O232  1  0.63169889  0.24338809  0.99420978  1
  O  O233  1  0.62521648  0.75016677  0.48639842  1
  O  O234  1  0.63206876  0.74314468  0.99710613  1
  O  O235  1  0.50402540  0.24276320  0.12904403  1
  O  O236  1  0.48478023  0.24997428  0.61857608  1
  O  O237  1  0.50285467  0.74765027  0.13864456  1
  O  O238  1  0.49086724  0.74401753  0.62436850  1
  O  O239  1  0.99897318  0.23581810  0.12564519  1
  O  O240  1  0.99001039  0.24007506  0.59686886  1
  O  O241  1  0.98990757  0.74267537  0.12143969  1
  O  O242  1  0.98482528  0.75677544  0.63485983  1
  O  O243  1  0.00852085  0.24629286  0.39013296  1
  O  O244  1  -0.00371034  0.26112133  0.87630211  1
  O  O245  1  -0.00036818  0.76041535  0.38006733  1
  O  O246  1  -0.01038742  0.76270091  0.86966245  1
  O  O247  1  0.49933404  0.26405870  0.36416435  1
  O  O248  1  0.51029518  0.26288354  0.88207955  1
  O  O249  1  0.50720739  0.75657854  0.36403672  1
  O  O250  1  0.50223499  0.76160116  0.86945067  1
  O  O251  1  0.25059214  0.13122853  0.49376529  1
  O  O252  1  0.24685793  0.13128276  0.99997616  1
  O  O253  1  0.24144522  0.63345311  0.50224036  1
  O  O254  1  0.24442250  0.62198901  0.99360002  1
  O  O255  1  0.73963838  0.13335021  0.49110119  1
  O  O256  1  0.73677434  0.13284084  1.00735308  1
  O  O257  1  0.74885015  0.62888729  0.48556453  1
  O  O258  1  0.74338987  0.63091005  0.99052089  1
  O  O259  1  0.25528024  0.36871570  0.00524964  1
  O  O260  1  0.25450494  0.36840253  0.50631735  1
  O  O261  1  0.24993290  0.88252577  0.01509834  1
  O  O262  1  0.25308110  0.86772085  0.50626686  1
  O  O263  1  0.74558784  0.36509623  0.00714463  1
  O  O264  1  0.76180737  0.37058607  0.49106783  1
  O  O265  1  0.75679996  0.86657233  -0.00411008  1
  O  O266  1  0.75613231  0.87588908  0.50599808  1
  O  O267  1  0.13263620  0.49710741  0.24147445  1
  O  O268  1  0.12135178  0.49358982  0.73973339  1
  O  O269  1  0.12629134  0.99068585  0.24025096  1
  O  O270  1  0.13001830  0.99555114  0.74615409  1
  O  O271  1  0.63856692  0.50592850  0.24513147  1
  O  O272  1  0.63130920  0.48674426  0.74579511  1
  O  O273  1  0.62433682  0.99206452  0.24053266  1
  O  O274  1  0.63778936  0.98978957  0.75835531  1
  O  O275  1  0.37861968  0.01510246  0.24734383  1
  O  O276  1  0.36228519  0.00311864  0.75302123  1
  O  O277  1  0.36823339  0.51116867  0.25154595  1
  O  O278  1  0.37931593  0.50743362  0.75757919  1
  O  O279  1  0.87328820  -0.00765628  0.26335676  1
  O  O280  1  0.85794569  -0.00884008  0.76805420  1
  O  O281  1  0.86592709  0.50928979  0.25300900  1
  O  O282  1  0.87357003  0.49861173  0.76614701  1
  O  O283  1  0.12482567  0.36339309  0.36983457  1
  O  O284  1  0.11850744  0.37901889  0.86299012  1
  O  O285  1  0.11632013  0.87155072  0.36470673  1
  O  O286  1  0.11438577  0.88228133  0.86745925  1
  O  O287  1  0.61467846  0.37423807  0.36876815  1
  O  O288  1  0.61846382  0.36995038  0.86755650  1
  O  O289  1  0.61780099  0.86879022  0.36758078  1
  O  O290  1  0.61782415  0.87248981  0.86610147  1
  O  O291  1  0.38866880  0.12246739  0.12976050  1
  O  O292  1  0.36978537  0.14393391  0.62711875  1
  O  O293  1  0.37798999  0.62154022  0.13647047  1
  O  O294  1  0.37849744  0.62916850  0.63015716  1
  O  O295  1  0.88974380  0.12685961  0.12879841  1
  O  O296  1  0.88744269  0.09119567  0.62856623  1
  O  O297  1  0.88369415  0.63326377  0.12606355  1
  O  O298  1  0.86971733  0.64144993  0.62146828  1
  O  O299  1  0.24601088  0.26251455  0.11723921  1
  O  O300  1  0.25630287  0.26254762  0.61715618  1
  O  O301  1  0.24893855  0.76613177  0.12769081  1
  O  O302  1  0.25686697  0.75650180  0.61808391  1
  O  O303  1  0.75357134  0.25736032  0.12089563  1
  O  O304  1  0.74798131  0.25409639  0.61802621  1
  O  O305  1  0.75816852  0.74409039  0.11087265  1
  O  O306  1  0.76136601  0.75913082  0.62429008  1
  O  O307  1  0.24483409  0.24205127  0.38222549  1
  O  O308  1  0.25132171  0.24432861  0.88998673  1
  O  O309  1  0.24548199  0.75552963  0.38725696  1
  O  O310  1  0.25719074  0.74003088  0.87411853  1
  O  O311  1  0.74363073  0.24240912  0.38056153  1
  O  O312  1  0.73796804  0.25334052  0.88594618  1
  O  O313  1  0.74285271  0.74475651  0.37502732  1
  O  O314  1  0.75281186  0.74360394  0.88550892  1
  O  O315  1  0.00954043  0.11930300  0.00842133  1
  O  O316  1  0.01296300  0.10292762  0.49461568  1
  O  O317  1  0.00998248  0.62214910  0.01144992  1
  O  O318  1  0.00470833  0.61347000  0.50306840  1
  O  O319  1  0.50664342  0.11978703  0.00501522  1
  O  O320  1  0.51525117  0.12870892  0.48995693  1
  O  O321  1  0.50796944  0.61515801  -0.00466573  1
  O  O322  1  0.49858875  0.62469934  0.51137224  1
  O  O323  1  0.49035978  0.37635216  0.48966205  1
  O  O324  1  0.49437974  0.37943539  0.99411347  1
  O  O325  1  0.48937378  0.87397592  0.48986022  1
  O  O326  1  0.50339780  0.88325604  0.99081048  1
  O  O327  1  0.98587122  0.38681456  0.50365502  1
  O  O328  1  1.01444275  0.37614564  0.98467632  1
  O  O329  1  0.99513535  0.87984187  0.49365620  1
  O  O330  1  0.99371400  0.88189925  0.99543108  1
  O  O331  1  0.50187989  0.48933552  0.37376064  1
  O  O332  1  0.49354630  0.48996344  0.88191035  1
  O  O333  1  0.50373444  0.98788714  0.37599669  1
  O  O334  1  0.50026228  0.99019900  0.88347484  1
  O  O335  1  0.99114581  0.50432399  0.38495611  1
  O  O336  1  0.99631569  0.49381726  0.87812076  1
  O  O337  1  0.99488190  0.98892601  0.38027636  1
  O  O338  1  0.98710232  0.99016579  0.88305996  1
  O  O339  1  0.00673648  0.00939277  0.12178011  1
  O  O340  1  0.01544939  -0.01610881  0.61722150  1
  O  O341  1  0.00888060  0.50668316  0.12253596  1
  O  O342  1  0.01061867  0.49777116  0.61751399  1
  O  O343  1  0.50956650  0.00657965  0.11702268  1
  O  O344  1  0.48601123  0.00874826  0.61107702  1
  O  O345  1  0.50278657  0.49922811  0.10868751  1
  O  O346  1  0.51113896  0.50858627  0.62383873  1
  O  O347  1  0.24721257  0.37788683  0.24428124  1
  O  O348  1  0.23613878  0.37365590  0.74454556  1
  O  O349  1  0.24252965  0.87713616  0.24204074  1
  O  O350  1  0.24303134  0.88220902  0.74545751  1
  O  O351  1  0.74621147  0.38863318  0.24281353  1
  O  O352  1  0.75153245  0.36955342  0.74327652  1
  O  O353  1  0.73562710  0.87692520  0.25244062  1
  O  O354  1  0.74292851  0.88061856  0.74448227  1
  O  O355  1  0.26056192  0.12533117  0.25713423  1
  O  O356  1  0.24959695  0.11934892  0.76062176  1
  O  O357  1  0.26189814  0.61686226  0.24998535  1
  O  O358  1  0.26199655  0.62796130  0.75656145  1
  O  O359  1  0.74492559  0.12592443  0.26093446  1
  O  O360  1  0.74214735  0.11212448  0.74867611  1
  O  O361  1  0.75585911  0.62327334  0.25660814  1
  O  O362  1  0.74405458  0.62742457  0.76468374  1
  O  O363  1  0.36832041  0.13166948  0.36713867  1
  O  O364  1  0.36249861  0.12368630  0.87753906  1
  O  O365  1  0.37972459  0.63025123  0.36086727  1
  O  O366  1  0.37122205  0.61643759  0.86735270  1
  O  O367  1  0.86609170  0.11161620  0.38533478  1
  O  O368  1  0.88224372  0.10937929  0.87754195  1
  O  O369  1  0.86877466  0.62451650  0.36935984  1
  O  O370  1  0.86894858  0.61795473  0.87992136  1
  O  O371  1  0.13070435  0.38126028  0.13333385  1
  O  O372  1  0.13041865  0.38034046  0.63589511  1
  O  O373  1  0.13194288  0.88159034  0.12962795  1
  O  O374  1  0.13676797  0.86848600  0.63319881  1
  O  O375  1  0.63871999  0.38004421  0.12729436  1
  O  O376  1  0.61878818  0.38276748  0.63173322  1
  O  O377  1  0.61830863  0.88430150  0.13246829  1
  O  O378  1  0.63665317  0.87081214  0.62962014  1
  O  O379  1  0.12675579  0.25346111  0.26486302  1
  O  O380  1  0.12394109  0.26171583  0.74704236  1
  O  O381  1  0.12763330  0.75887948  0.25064040  1
  O  O382  1  0.12051907  0.75871269  0.74753656  1
  O  O383  1  0.60942625  0.25257880  0.25012475  1
  O  O384  1  0.63086177  0.26243570  0.75878526  1
  O  O385  1  0.61940319  0.75504163  0.25596592  1
  O  O386  1  0.62305864  0.76336820  0.75076940  1
  O  O387  1  0.38672138  0.23972970  0.24867952  1
  O  O388  1  0.36801084  0.25366164  0.73605170  1
  O  O389  1  0.38042650  0.73948904  0.24462683  1
  O  O390  1  0.37650111  0.74365004  0.73623849  1
  O  O391  1  0.88667650  0.26144854  0.26315798  1
  O  O392  1  0.86590854  0.25833177  0.73423803  1
  O  O393  1  0.86854083  0.74847163  0.23553581  1
  O  O394  1  0.88076662  0.75605621  0.73858829  1
  O  O395  1  0.37598895  0.48741838  0.50653016  1
  O  O396  1  0.38159567  0.48976473  0.99185457  1
  O  O397  1  0.36752628  0.98601707  0.49673124  1
  O  O398  1  0.38851561  0.99636675  1.00046416  1
  O  O399  1  0.87890692  0.49483510  0.49460135  1
  O  O400  1  0.87915560  0.50079704  0.98496918  1
  O  O401  1  0.88316736  0.98825692  0.49144567  1
  O  O402  1  0.87385056  0.99555730  0.99359503  1
  O  O403  1  0.12115671  0.00933703  0.01355070  1
  O  O404  1  0.12045023  0.00082013  0.49649847  1
  O  O405  1  0.12795864  0.50545853  0.01491497  1
  O  O406  1  0.11676559  0.50313464  0.50782233  1
  O  O407  1  0.61798124  0.00687279  0.00364640  1
  O  O408  1  0.62602000  0.01452859  0.49496264  1
  O  O409  1  0.61803398  0.50594544  -0.00451165  1
  O  O410  1  0.62167757  0.50338175  0.50709858  1
  O  O411  1  0.36574165  0.38086967  0.11526337  1
  O  O412  1  0.36851374  0.36863878  0.62112498  1
  O  O413  1  0.35966162  0.87782402  0.12773225  1
  O  O414  1  0.36467737  0.86695067  0.61865708  1
  O  O415  1  0.86264567  0.37109124  0.12912739  1
  O  O416  1  0.86991120  0.38335856  0.62076909  1
  O  O417  1  0.88095671  0.87086662  0.11286285  1
  O  O418  1  0.86336584  0.87826379  0.61730289  1
  O  O419  1  0.13446718  0.13024120  0.38042639  1
  O  O420  1  0.13735670  0.12088789  0.89055905  1
  O  O421  1  0.11954692  0.62406594  0.39067739  1
  O  O422  1  0.13925528  0.61891442  0.88757470  1
  O  O423  1  0.63355263  0.12757696  0.38181165  1
  O  O424  1  0.61953624  0.13580549  0.88537477  1
  O  O425  1  0.63222404  0.63460698  0.37389349  1
  O  O426  1  0.63038991  0.62576636  0.88248303  1
