# generated using pymatgen
data_V85Zn86O256
_symmetry_space_group_name_H-M   'P 1'
_cell_length_a   16.92724471
_cell_length_b   16.93152556
_cell_length_c   16.92411477
_cell_angle_alpha   89.97649075
_cell_angle_beta   90.01631026
_cell_angle_gamma   90.04019546
_symmetry_Int_Tables_number   1
_chemical_formula_structural   V85Zn86O256
_chemical_formula_sum   'V85 Zn86 O256'
_cell_volume   4850.51848475
_cell_formula_units_Z   1
loop_
 _symmetry_equiv_pos_site_id
 _symmetry_equiv_pos_as_xyz
  1  'x, y, z'
loop_
 _atom_site_type_symbol
 _atom_site_label
 _atom_site_symmetry_multiplicity
 _atom_site_fract_x
 _atom_site_fract_y
 _atom_site_fract_z
 _atom_site_occupancy
  V  V0  1  0.37346941  0.87592546  0.00152567  1
  V  V1  1  0.74838582  0.62455454  0.87549858  1
  V  V2  1  0.37623016  0.24468978  0.64006167  1
  V  V3  1  0.87532242  0.12313096  0.25092384  1
  V  V4  1  0.00657448  0.49930105  0.50881970  1
  V  V5  1  0.49630608  0.24150432  0.24692814  1
  V  V6  1  0.25852653  0.75083125  0.49910222  1
  V  V7  1  0.74221055  -0.00315622  0.25224022  1
  V  V8  1  0.62249450  0.37735546  0.24316692  1
  V  V9  1  0.87943600  0.00449835  0.87635345  1
  V  V10  1  0.75102159  0.24996535  -0.00128040  1
  V  V11  1  0.12013331  0.10943983  0.00170911  1
  V  V12  1  0.12720155  0.87257746  0.75349452  1
  V  V13  1  -0.00056056  0.10842462  0.11995876  1
  V  V14  1  0.61958705  0.24866146  0.87198650  1
  V  V15  1  0.37286325  0.01183862  0.37408188  1
  V  V16  1  0.62185213  0.24722111  0.37350365  1
  V  V17  1  0.75059347  0.75282960  0.00079089  1
  V  V18  1  0.74831611  0.24958503  0.50329617  1
  V  V19  1  0.12875355  0.75162642  0.37242787  1
  V  V20  1  0.49925003  -0.00315267  0.00160327  1
  V  V21  1  0.25493900  0.12409012  0.87092462  1
  V  V22  1  0.75235021  -0.01744883  0.74732557  1
  V  V23  1  0.24586561  0.75284250  -0.00343359  1
  V  V24  1  0.25019504  0.37275653  0.62033373  1
  V  V25  1  0.00101537  0.62063466  0.12067911  1
  V  V26  1  0.62293729  -0.01039805  0.63080894  1
  V  V27  1  0.49916215  0.62148318  0.12877371  1
  V  V28  1  0.12335706  0.37838642  0.74435542  1
  V  V29  1  0.00409448  0.75047891  0.75209109  1
  V  V30  1  0.74311161  0.87472490  0.12926017  1
  V  V31  1  0.75407242  0.12622897  0.86340771  1
  V  V32  1  0.61297933  0.12112168  0.50524156  1
  V  V33  1  0.12259532  0.62622591  -0.00586263  1
  V  V34  1  0.13247171  0.24520140  0.37615275  1
  V  V35  1  0.24755273  0.50315328  0.74210302  1
  V  V36  1  0.50445816  0.49820675  0.00418241  1
  V  V37  1  0.37349041  0.50078436  0.87601758  1
  V  V38  1  0.37753050  0.62819980  0.25900121  1
  V  V39  1  0.12698443  0.49675221  0.11783460  1
  V  V40  1  0.25140252  0.87495163  0.62495319  1
  V  V41  1  0.87558913  0.62338978  0.74868083  1
  V  V42  1  0.50736775  0.87974290  0.38316755  1
  V  V43  1  0.87544183  0.50312165  0.37309651  1
  V  V44  1  0.74997295  0.49493710  0.75057762  1
  V  V45  1  0.62569842  0.12314795  0.00295593  1
  V  V46  1  -0.00462371  0.24526350  0.75072835  1
  V  V47  1  0.00497748  0.87637749  0.37306633  1
  V  V48  1  0.87660727  0.62645899  0.25203190  1
  V  V49  1  0.23746615  0.87787229  0.13712305  1
  V  V50  1  0.86780269  0.87323555  0.50194792  1
  V  V51  1  0.50190014  0.87034959  0.86331975  1
  V  V52  1  0.00575782  0.75344068  0.24974863  1
  V  V53  1  0.49617762  0.37205743  0.87235124  1
  V  V54  1  0.51074591  0.61774661  0.61717817  1
  V  V55  1  0.51309886  0.76281028  0.25043085  1
  V  V56  1  0.00153908  0.87648395  0.88008910  1
  V  V57  1  0.12667273  0.00158448  0.62473574  1
  V  V58  1  0.36436175  0.37665633  0.00726820  1
  V  V59  1  0.87667617  0.24943188  0.12348583  1
  V  V60  1  0.12289536  0.24848706  0.87810201  1
  V  V61  1  0.74847135  0.38187525  0.12416016  1
  V  V62  1  0.68830270  0.43320080  0.58159320  1
  V  V63  1  0.38362676  0.75162544  0.62854659  1
  V  V64  1  0.49631027  0.12401094  0.64871510  1
  V  V65  1  0.62200827  0.75283043  0.86514439  1
  V  V66  1  -0.00622869  0.12369430  0.62666884  1
  V  V67  1  -0.00220511  0.38140271  0.88088503  1
  V  V68  1  0.38526348  0.62902281  0.75060750  1
  V  V69  1  0.36464768  0.24503298  0.12835270  1
  V  V70  1  0.87684669  0.75104779  0.12496377  1
  V  V71  1  0.24395378  0.01665024  0.25137664  1
  V  V72  1  0.62520895  0.62363903  0.00621441  1
  V  V73  1  0.00108369  0.37467174  0.37307066  1
  V  V74  1  0.62209666  0.37813843  0.75106619  1
  V  V75  1  0.86812300  0.25074462  0.62866076  1
  V  V76  1  0.25342630  0.50022237  0.24630507  1
  V  V77  1  0.73617676  0.63373130  0.37923592  1
  V  V78  1  0.75045247  0.12389203  0.37811732  1
  V  V79  1  0.86968709  0.75454392  0.62450049  1
  V  V80  1  0.87262715  0.37590994  0.50309856  1
  V  V81  1  -0.00217762  -0.00219264  0.50143277  1
  V  V82  1  0.12899997  0.37625664  0.24504387  1
  V  V83  1  0.24883488  0.63043763  0.87340579  1
  V  V84  1  0.12881013  0.62280560  0.50605411  1
  Zn  Zn85  1  0.25905054  0.00670989  0.74481069  1
  Zn  Zn86  1  0.37774046  0.88249753  0.49863810  1
  Zn  Zn87  1  0.25116655  0.62322244  0.37535176  1
  Zn  Zn88  1  0.00179556  0.24709376  0.24881281  1
  Zn  Zn89  1  0.38092608  0.37213739  0.50048595  1
  Zn  Zn90  1  0.12658093  0.12232230  0.49460263  1
  Zn  Zn91  1  0.61978115  -0.00520286  0.12890370  1
  Zn  Zn92  1  0.87910039  0.38283929  0.00478775  1
  Zn  Zn93  1  0.87487577  -0.00109743  0.37703438  1
  Zn  Zn94  1  0.73431167  0.75192482  0.50252646  1
  Zn  Zn95  1  0.24541234  0.25251850  0.00310993  1
  Zn  Zn96  1  0.37395461  0.75158130  0.12780684  1
  Zn  Zn97  1  0.00504625  0.62313360  0.62769071  1
  Zn  Zn98  1  0.37835873  0.49506513  0.37970372  1
  Zn  Zn99  1  0.87914035  0.50406699  0.88157595  1
  Zn  Zn100  1  0.87992067  0.88244035  0.00315539  1
  Zn  Zn101  1  0.25840978  0.23970354  0.49762537  1
  Zn  Zn102  1  0.38007190  0.00536891  0.86961661  1
  Zn  Zn103  1  0.74594274  0.50379168  0.24601516  1
  Zn  Zn104  1  0.49200506  0.12133470  0.12548238  1
  Zn  Zn105  1  0.49523025  0.37385873  0.37655966  1
  Zn  Zn106  1  0.50318358  0.49601269  0.50051031  1
  Zn  Zn107  1  0.18276172  0.18894906  0.18399252  1
  Zn  Zn108  1  0.18426631  0.18904044  0.68573513  1
  Zn  Zn109  1  0.19004966  0.68892144  0.18539171  1
  Zn  Zn110  1  0.18989456  0.68989800  0.68627757  1
  Zn  Zn111  1  0.68885803  0.18773557  0.18721069  1
  Zn  Zn112  1  0.68250438  0.18929205  0.68897005  1
  Zn  Zn113  1  0.68797119  0.68584095  0.18845854  1
  Zn  Zn114  1  0.68965644  0.68825437  0.68591313  1
  Zn  Zn115  1  0.31169068  0.31441813  0.30892320  1
  Zn  Zn116  1  0.30938928  0.31208688  0.81361001  1
  Zn  Zn117  1  0.32146001  0.81401324  0.31477106  1
  Zn  Zn118  1  0.31489463  0.81495811  0.81297867  1
  Zn  Zn119  1  0.81124712  0.31089858  0.31091193  1
  Zn  Zn120  1  0.81193103  0.31249094  0.81168711  1
  Zn  Zn121  1  0.81549853  0.81320016  0.31319721  1
  Zn  Zn122  1  0.81685120  0.81088870  0.81628120  1
  Zn  Zn123  1  0.19003470  0.43734871  0.43399746  1
  Zn  Zn124  1  0.18470831  0.44115017  0.93240885  1
  Zn  Zn125  1  0.19097476  0.93994277  0.43481613  1
  Zn  Zn126  1  0.18815474  0.93720048  0.93540259  1
  Zn  Zn127  1  0.68556950  0.43888931  0.41798271  1
  Zn  Zn128  1  0.68883160  0.43788015  0.93836032  1
  Zn  Zn129  1  0.68483654  0.93835582  0.44136475  1
  Zn  Zn130  1  0.68762618  0.93667793  0.93666128  1
  Zn  Zn131  1  0.30637859  0.06021611  0.06152245  1
  Zn  Zn132  1  0.31397814  0.06592566  0.55769451  1
  Zn  Zn133  1  0.31311464  0.56468460  0.06565632  1
  Zn  Zn134  1  0.31892994  0.56282260  0.56112140  1
  Zn  Zn135  1  0.81096646  0.06099586  0.06029579  1
  Zn  Zn136  1  0.80965969  0.06161835  0.56539801  1
  Zn  Zn137  1  0.81613974  0.56124648  0.06002929  1
  Zn  Zn138  1  0.81810866  0.56974952  0.55835090  1
  Zn  Zn139  1  0.43756283  0.43407191  0.18788568  1
  Zn  Zn140  1  0.43446406  0.43859298  0.68663231  1
  Zn  Zn141  1  0.42835831  0.94053157  0.18922333  1
  Zn  Zn142  1  0.43644815  0.94127914  0.68861584  1
  Zn  Zn143  1  0.94015381  0.43843447  0.18657990  1
  Zn  Zn144  1  0.93476287  0.43399359  0.68933256  1
  Zn  Zn145  1  0.93285878  0.93503518  0.19144190  1
  Zn  Zn146  1  0.93434146  0.93660802  0.69064216  1
  Zn  Zn147  1  0.06332820  0.05877760  0.30703547  1
  Zn  Zn148  1  0.06421866  0.06149969  0.81020840  1
  Zn  Zn149  1  0.06561490  0.56429991  0.31345216  1
  Zn  Zn150  1  0.06511060  0.56279760  0.81026271  1
  Zn  Zn151  1  0.55900992  0.06091953  0.31454653  1
  Zn  Zn152  1  0.56774172  0.05490841  0.81696453  1
  Zn  Zn153  1  0.55898274  0.55674375  0.30936089  1
  Zn  Zn154  1  0.56328115  0.56133868  0.81440046  1
  Zn  Zn155  1  0.43423048  0.19034380  0.44181882  1
  Zn  Zn156  1  0.43655442  0.19004975  0.94287473  1
  Zn  Zn157  1  0.55573847  0.69159536  0.43617090  1
  Zn  Zn158  1  0.43582414  0.69035613  0.93912510  1
  Zn  Zn159  1  0.93999631  0.18789775  0.43904502  1
  Zn  Zn160  1  0.93687215  0.18711541  0.93814214  1
  Zn  Zn161  1  0.94014070  0.68800255  0.43941570  1
  Zn  Zn162  1  0.93819017  0.68970026  0.93537052  1
  Zn  Zn163  1  0.06124496  0.30850169  0.06337609  1
  Zn  Zn164  1  0.06132986  0.31209847  0.56183283  1
  Zn  Zn165  1  0.06542443  0.81122322  0.06151743  1
  Zn  Zn166  1  0.06168087  0.81072742  0.56290790  1
  Zn  Zn167  1  0.55872498  0.30996135  0.06197053  1
  Zn  Zn168  1  0.55265444  0.30243961  0.56277442  1
  Zn  Zn169  1  0.56202257  0.80935318  0.06165043  1
  Zn  Zn170  1  0.55960744  0.81452073  0.56639122  1
  O  O171  1  0.11437070  0.13053536  0.10992881  1
  O  O172  1  0.11160275  0.11704687  0.62741934  1
  O  O173  1  0.12001772  0.61994990  0.11534582  1
  O  O174  1  0.12374270  0.63013497  0.61123694  1
  O  O175  1  0.62618225  0.12636780  0.11023646  1
  O  O176  1  0.61354326  0.12286517  0.62337780  1
  O  O177  1  0.61875287  0.62701747  0.11358538  1
  O  O178  1  0.60787952  0.62737712  0.63549879  1
  O  O179  1  0.37531930  0.37479055  0.37830763  1
  O  O180  1  0.38062983  0.37877462  0.88167162  1
  O  O181  1  0.38595554  0.88302416  0.37686580  1
  O  O182  1  0.38382213  0.87282056  0.88751617  1
  O  O183  1  0.87964531  0.38166609  0.37926371  1
  O  O184  1  0.89032459  0.37367260  0.87302246  1
  O  O185  1  0.88821312  0.87393731  0.38311863  1
  O  O186  1  0.88441334  0.88320463  0.87639129  1
  O  O187  1  0.25936295  -0.00239594  0.36284321  1
  O  O188  1  0.24842521  0.01549877  0.87509645  1
  O  O189  1  0.24864154  0.50322198  0.35888620  1
  O  O190  1  0.25532910  0.50787931  0.86552320  1
  O  O191  1  0.75228359  0.00555233  0.36909711  1
  O  O192  1  0.75252936  0.00572489  0.86403077  1
  O  O193  1  0.75892814  0.51285997  0.36990444  1
  O  O194  1  0.75068487  0.50745761  0.86710701  1
  O  O195  1  0.23978689  0.50475020  0.13470600  1
  O  O196  1  0.25575167  0.49247974  0.63697914  1
  O  O197  1  0.25526279  0.98830795  0.13800831  1
  O  O198  1  0.24183872  0.99318158  0.62504471  1
  O  O199  1  0.75406459  0.48579974  0.12673036  1
  O  O200  1  0.75482860  0.50067907  0.63064651  1
  O  O201  1  0.75007047  0.99119650  0.13205222  1
  O  O202  1  0.74262192  1.00464161  0.64112313  1
  O  O203  1  0.00970565  0.37530036  0.25700391  1
  O  O204  1  0.00620486  0.36589778  0.75527887  1
  O  O205  1  -0.00393263  0.86659841  0.25997458  1
  O  O206  1  0.00670580  0.86845751  0.75554320  1
  O  O207  1  0.50832621  0.36140036  0.24717545  1
  O  O208  1  0.50573593  0.38288848  0.76417849  1
  O  O209  1  0.49787542  0.86521341  0.24698254  1
  O  O210  1  0.49735559  0.87471973  0.76456063  1
  O  O211  1  0.50695176  0.13750691  0.24414979  1
  O  O212  1  0.50445738  0.12320424  0.74715324  1
  O  O213  1  0.49678931  0.63137917  0.24371698  1
  O  O214  1  0.48842398  0.62011231  0.74730814  1
  O  O215  1  0.99175721  0.12425025  0.24048181  1
  O  O216  1  1.00297747  0.13770184  0.74412840  1
  O  O217  1  0.99713456  0.63218934  0.24308278  1
  O  O218  1  0.99411057  0.63097754  0.74997979  1
  O  O219  1  0.37155068  0.26024981  0.00997810  1
  O  O220  1  0.37388993  0.25248769  0.51597573  1
  O  O221  1  0.36366262  0.75640538  0.00366838  1
  O  O222  1  0.36212511  0.75222393  0.50938118  1
  O  O223  1  0.86968932  0.25438261  0.00752521  1
  O  O224  1  0.86769128  0.25623560  0.50496118  1
  O  O225  1  0.86345913  0.74850298  0.00533981  1
  O  O226  1  0.87918614  0.75704342  0.50901141  1
  O  O227  1  0.12122532  0.25268770  0.48308203  1
  O  O228  1  0.12476337  0.24804386  0.98785188  1
  O  O229  1  0.13265413  0.74391550  0.49264779  1
  O  O230  1  0.13765349  0.74129853  1.00193203  1
  O  O231  1  0.63039122  0.24183794  0.49376598  1
  O  O232  1  0.62879633  0.24415995  0.98998459  1
  O  O233  1  0.62285207  0.75153367  0.50180707  1
  O  O234  1  0.63528029  0.74205203  0.99603716  1
  O  O235  1  0.48847891  0.24596746  0.12924094  1
  O  O236  1  0.49365481  0.23260737  0.63152096  1
  O  O237  1  0.49915020  0.74113390  0.13303604  1
  O  O238  1  0.48733680  0.74117013  0.62402974  1
  O  O239  1  0.98732146  0.24347178  0.12618665  1
  O  O240  1  0.99301326  0.24325148  0.63045852  1
  O  O241  1  0.99888190  0.74212950  0.12981364  1
  O  O242  1  0.99107044  0.74870191  0.63617873  1
  O  O243  1  0.00230632  0.26367998  0.37243779  1
  O  O244  1  0.00387754  0.25597317  0.86742175  1
  O  O245  1  0.00915058  0.75551281  0.37120738  1
  O  O246  1  -0.00653751  0.75912980  0.86006271  1
  O  O247  1  0.50714155  0.24829225  0.36670558  1
  O  O248  1  0.50751005  0.25943231  0.88173175  1
  O  O249  1  0.50124971  0.76560135  0.36079817  1
  O  O250  1  0.50911498  0.75875976  0.88316937  1
  O  O251  1  0.23766125  0.12900165  0.50745456  1
  O  O252  1  0.23449541  0.12708676  0.99328954  1
  O  O253  1  0.24526604  0.63234729  0.49901391  1
  O  O254  1  0.24525114  0.63270918  0.99583960  1
  O  O255  1  0.74343401  0.13075432  0.49562230  1
  O  O256  1  0.74305787  0.12993157  0.99091821  1
  O  O257  1  0.75497094  0.62771625  0.48197606  1
  O  O258  1  0.74205500  0.63096586  0.99852021  1
  O  O259  1  0.26138903  0.37691968  -0.00795890  1
  O  O260  1  0.24311943  0.37308612  0.51528932  1
  O  O261  1  0.25440200  0.87044926  0.00301841  1
  O  O262  1  0.24832491  0.86734191  0.50874133  1
  O  O263  1  0.74956778  0.36735446  0.00733709  1
  O  O264  1  0.74930327  0.37382875  0.50650744  1
  O  O265  1  0.75300664  0.86653402  0.00617451  1
  O  O266  1  0.76416580  0.87037511  0.49048167  1
  O  O267  1  0.12992466  0.49617713  0.24047713  1
  O  O268  1  0.13370856  0.49066567  0.75204894  1
  O  O269  1  0.14374754  0.99704234  0.25679035  1
  O  O270  1  0.12668616  0.99237257  0.73774232  1
  O  O271  1  0.62705561  0.48188668  0.25174482  1
  O  O272  1  0.63235258  0.48781133  0.75438221  1
  O  O273  1  0.63865124  1.01023597  0.24583610  1
  O  O274  1  0.63878792  1.00333048  0.74175615  1
  O  O275  1  0.35951890  -0.00328577  0.26034644  1
  O  O276  1  0.37057643  -0.00235810  0.75781115  1
  O  O277  1  0.36741723  0.50596230  0.24595983  1
  O  O278  1  0.36677617  0.50786424  0.75681594  1
  O  O279  1  0.86518004  0.01121513  0.25181783  1
  O  O280  1  0.86023808  -0.00192179  0.75755982  1
  O  O281  1  0.87618105  0.50437299  0.26070611  1
  O  O282  1  0.86893912  0.50617940  0.75351002  1
  O  O283  1  0.11780073  0.36900876  0.36685846  1
  O  O284  1  0.11632884  0.36878944  0.86667033  1
  O  O285  1  0.11334109  0.86630045  0.38347309  1
  O  O286  1  0.11879259  0.88161051  0.86134359  1
  O  O287  1  0.62642969  0.35864059  0.36318881  1
  O  O288  1  0.61709932  0.36860530  0.87178878  1
  O  O289  1  0.60722792  0.88979027  0.37284750  1
  O  O290  1  0.61402789  0.86511614  0.88341300  1
  O  O291  1  0.37329040  0.14120239  0.11399525  1
  O  O292  1  0.39034785  0.12544956  0.62660448  1
  O  O293  1  0.38508524  0.62804134  0.13223075  1
  O  O294  1  0.38077994  0.63266048  0.63372867  1
  O  O295  1  0.87844966  0.13016897  0.12922402  1
  O  O296  1  0.88654138  0.13295677  0.62016605  1
  O  O297  1  0.88301713  0.62977839  0.13081456  1
  O  O298  1  0.88056339  0.63019254  0.63572478  1
  O  O299  1  0.26011362  0.25199756  0.12311358  1
  O  O300  1  0.25599389  0.25706727  0.62787984  1
  O  O301  1  0.25130681  0.76133126  0.11721857  1
  O  O302  1  0.25757044  0.75678315  0.61902740  1
  O  O303  1  0.76119589  0.25472414  0.12052297  1
  O  O304  1  0.76075503  0.24307761  0.62200022  1
  O  O305  1  0.75485537  0.75504867  0.12055878  1
  O  O306  1  0.76477844  0.74254880  0.62057740  1
  O  O307  1  0.23531229  0.25459973  0.37540336  1
  O  O308  1  0.23975124  0.24189264  0.87766836  1
  O  O309  1  0.24541193  0.75031261  0.38250719  1
  O  O310  1  0.25391806  0.74276420  0.88324200  1
  O  O311  1  0.74221773  0.24411016  0.38049677  1
  O  O312  1  0.74447652  0.24420168  0.87944105  1
  O  O313  1  0.75428243  0.73540425  0.37339937  1
  O  O314  1  0.74593386  0.74482304  0.88392973  1
  O  O315  1  0.01104794  0.12762870  0.00451116  1
  O  O316  1  0.00301014  0.11664322  0.50804636  1
  O  O317  1  0.00989381  0.63405391  0.00762782  1
  O  O318  1  0.00838724  0.61585596  0.50150603  1
  O  O319  1  0.50748407  0.11481255  -0.00151635  1
  O  O320  1  0.51175732  0.12589141  0.50468953  1
  O  O321  1  0.50480376  0.61941247  0.00723009  1
  O  O322  1  0.50243622  0.62004903  0.51326059  1
  O  O323  1  0.50173030  0.37583823  0.49759841  1
  O  O324  1  0.49437201  0.38283273  0.99276225  1
  O  O325  1  0.49781304  0.87594331  0.48655103  1
  O  O326  1  0.49197211  0.88051878  0.99987961  1
  O  O327  1  0.99571747  0.38156607  0.49219393  1
  O  O328  1  1.00191601  0.36974952  0.98331466  1
  O  O329  1  0.99276240  0.87995619  0.49504071  1
  O  O330  1  1.00116525  0.86675810  0.98424219  1
  O  O331  1  0.50040180  0.49331028  0.37967002  1
  O  O332  1  0.49256515  0.49448249  0.88408540  1
  O  O333  1  0.48648914  0.98806826  0.36258536  1
  O  O334  1  0.50233042  0.98946170  0.88653646  1
  O  O335  1  0.99536418  0.49088865  0.37963673  1
  O  O336  1  1.00139949  0.48385855  0.86723665  1
  O  O337  1  0.99898403  0.99213893  0.38013729  1
  O  O338  1  0.99040301  0.99142108  0.86438563  1
  O  O339  1  -0.00975697  0.00908248  0.12430356  1
  O  O340  1  0.00345355  0.00650569  0.62427743  1
  O  O341  1  0.00870897  0.51416188  0.12915445  1
  O  O342  1  -0.00452194  0.49857459  0.61206258  1
  O  O343  1  0.49976534  0.00156562  0.11621371  1
  O  O344  1  0.51360954  0.01084081  0.63235591  1
  O  O345  1  0.49748507  0.51096720  0.11867915  1
  O  O346  1  0.49711341  0.51386938  0.62574136  1
  O  O347  1  0.23627498  0.38317153  0.24910473  1
  O  O348  1  0.24179026  0.38206136  0.74476251  1
  O  O349  1  0.25146146  0.86886577  0.23739391  1
  O  O350  1  0.24156882  0.87407134  0.74307353  1
  O  O351  1  0.74265542  0.37344495  0.24102342  1
  O  O352  1  0.74349019  0.38723664  0.75398955  1
  O  O353  1  0.75750598  0.88482263  0.24309702  1
  O  O354  1  0.75044781  0.88409321  0.75397151  1
  O  O355  1  0.24702756  0.11587076  0.24354815  1
  O  O356  1  0.23791274  0.12558931  0.76764584  1
  O  O357  1  0.25980025  0.61991077  0.24817326  1
  O  O358  1  0.25425326  0.61879803  0.75343615  1
  O  O359  1  0.75708427  0.12059284  0.25628064  1
  O  O360  1  0.74570401  0.12345492  0.76179285  1
  O  O361  1  0.75586528  0.62376905  0.25938181  1
  O  O362  1  0.75634864  0.61440093  0.75268261  1
  O  O363  1  0.38422797  0.11130708  0.37437675  1
  O  O364  1  0.35730680  0.12906804  0.88442868  1
  O  O365  1  0.37408717  0.62023851  0.36078805  1
  O  O366  1  0.37068350  0.62132608  0.86919882  1
  O  O367  1  0.87187717  0.12492651  0.36700084  1
  O  O368  1  0.86644400  0.11913383  0.87683908  1
  O  O369  1  0.87609797  0.61798008  0.36951457  1
  O  O370  1  0.86864717  0.62693328  0.86310077  1
  O  O371  1  0.11559732  0.38506034  0.13112932  1
  O  O372  1  0.13035404  0.36652068  0.63793495  1
  O  O373  1  0.13886019  0.87514680  0.12193910  1
  O  O374  1  0.12875357  0.88071646  0.63287145  1
  O  O375  1  0.63542328  0.36332424  0.13142250  1
  O  O376  1  0.62435391  0.36577588  0.63614169  1
  O  O377  1  0.63909989  0.87462412  0.12017234  1
  O  O378  1  0.61895457  0.89102541  0.62863191  1
  O  O379  1  0.12231565  0.25862744  0.25689461  1
  O  O380  1  0.11704546  0.25636879  0.76070423  1
  O  O381  1  0.12251131  0.74281822  0.26452322  1
  O  O382  1  0.11609359  0.75856704  0.74440485  1
  O  O383  1  0.61966027  0.25292073  0.25593066  1
  O  O384  1  0.63072247  0.26216211  0.76432155  1
  O  O385  1  0.61153851  0.74915971  0.24632896  1
  O  O386  1  0.63195404  0.74500469  0.76633509  1
  O  O387  1  0.38000373  0.25445892  0.23555375  1
  O  O388  1  0.37122644  0.25039178  0.74060713  1
  O  O389  1  0.38559482  0.74206879  0.24723859  1
  O  O390  1  0.36778034  0.74014927  0.74123656  1
  O  O391  1  0.87511785  0.23838180  0.24338663  1
  O  O392  1  0.88255691  0.25530069  0.74044133  1
  O  O393  1  0.88334767  0.74454973  0.24381819  1
  O  O394  1  0.87926877  0.74279333  0.74387515  1
  O  O395  1  0.37664889  0.49172470  0.49858329  1
  O  O396  1  0.38293081  0.49501370  0.99797830  1
  O  O397  1  0.36740214  0.99807712  0.48105105  1
  O  O398  1  0.38099029  0.99377291  0.99507935  1
  O  O399  1  0.88271796  0.49683163  0.48916993  1
  O  O400  1  0.87620820  0.49606124  0.99462849  1
  O  O401  1  0.87944199  0.99182235  0.50104036  1
  O  O402  1  0.86810536  0.99863809  0.98225115  1
  O  O403  1  0.12232007  0.01103703  -0.00243727  1
  O  O404  1  0.11706074  -0.00364114  0.51167366  1
  O  O405  1  0.13040489  0.50764912  0.01022291  1
  O  O406  1  0.11754535  0.50824068  0.49308566  1
  O  O407  1  0.61878478  0.00687623  0.00210028  1
  O  O408  1  0.63725764  0.00947353  0.52098697  1
  O  O409  1  0.61252812  0.50703504  -0.00521344  1
  O  O410  1  0.63470271  0.48691481  0.51149414  1
  O  O411  1  0.37926151  0.36440872  0.11517114  1
  O  O412  1  0.36581817  0.36521873  0.62908935  1
  O  O413  1  0.36625639  0.87418284  0.11255791  1
  O  O414  1  0.37125107  0.86859475  0.62213730  1
  O  O415  1  0.86988352  0.36640786  0.12717074  1
  O  O416  1  0.87998038  0.36319755  0.61594545  1
  O  O417  1  0.86728105  0.86759464  0.12153043  1
  O  O418  1  0.87918691  0.86627876  0.61654756  1
  O  O419  1  0.11208180  0.14355368  0.37212197  1
  O  O420  1  0.12648998  0.13058069  0.88452613  1
  O  O421  1  0.12703258  0.63380903  0.38599830  1
  O  O422  1  0.12968165  0.61944902  0.88739907  1
  O  O423  1  0.62771448  0.13085960  0.38324703  1
  O  O424  1  0.63056053  0.13132074  0.88331939  1
  O  O425  1  0.63258244  0.62406390  0.37208748  1
  O  O426  1  0.62850118  0.63016428  0.88640949  1
