# generated using pymatgen
data_V85Zn86O256
_symmetry_space_group_name_H-M   'P 1'
_cell_length_a   16.93418647
_cell_length_b   16.93171539
_cell_length_c   16.93746327
_cell_angle_alpha   89.90454939
_cell_angle_beta   89.95698977
_cell_angle_gamma   90.07022919
_symmetry_Int_Tables_number   1
_chemical_formula_structural   V85Zn86O256
_chemical_formula_sum   'V85 Zn86 O256'
_cell_volume   4856.37944158
_cell_formula_units_Z   1
loop_
 _symmetry_equiv_pos_site_id
 _symmetry_equiv_pos_as_xyz
  1  'x, y, z'
loop_
 _atom_site_type_symbol
 _atom_site_label
 _atom_site_symmetry_multiplicity
 _atom_site_fract_x
 _atom_site_fract_y
 _atom_site_fract_z
 _atom_site_occupancy
  V  V0  1  0.50018469  0.87297575  0.37305542  1
  V  V1  1  0.74537143  0.14228282  0.37933220  1
  V  V2  1  0.62429239  0.62282983  0.50453079  1
  V  V3  1  0.37454669  0.74049878  0.63031353  1
  V  V4  1  0.75899650  0.62033759  0.37963945  1
  V  V5  1  0.24596200  0.12393954  0.37269077  1
  V  V6  1  0.37481523  0.87178902  0.49773894  1
  V  V7  1  -0.00383654  0.24190212  0.75230308  1
  V  V8  1  0.12544502  0.49873811  0.12167562  1
  V  V9  1  0.87517398  0.00225719  0.86727901  1
  V  V10  1  0.62886009  0.13172635  -0.00082495  1
  V  V11  1  0.25650236  0.24729090  -0.00010261  1
  V  V12  1  0.38281543  0.74425979  0.12284229  1
  V  V13  1  0.37538678  0.13623896  0.24544664  1
  V  V14  1  0.12045974  0.36762277  0.24778219  1
  V  V15  1  0.50472019  -0.00071857  0.50028780  1
  V  V16  1  0.75482634  0.12788415  0.86759656  1
  V  V17  1  0.88014039  0.75236990  0.13678289  1
  V  V18  1  0.37236688  0.36826328  0.50108663  1
  V  V19  1  0.62194384  0.87585874  0.25059562  1
  V  V20  1  -0.00122368  0.13091387  0.13133340  1
  V  V21  1  0.12320245  0.61689886  0.50805416  1
  V  V22  1  0.75519406  0.37870872  0.11627248  1
  V  V23  1  0.24806970  0.24706816  0.49977505  1
  V  V24  1  0.74950254  0.87891788  0.12793602  1
  V  V25  1  -0.06430287  0.93728721  0.44313775  1
  V  V26  1  0.24805280  0.87794463  0.62697393  1
  V  V27  1  0.48441392  0.12887554  0.62785628  1
  V  V28  1  0.23797093  0.37842163  0.62144083  1
  V  V29  1  0.25509543  0.36974666  0.12334234  1
  V  V30  1  0.74547494  0.87328288  0.62930199  1
  V  V31  1  -0.00272562  0.36927342  0.87990419  1
  V  V32  1  0.11372979  0.11074487  0.49375117  1
  V  V33  1  0.87590150  0.12718780  0.25516181  1
  V  V34  1  0.62589486  0.50811313  0.12972569  1
  V  V35  1  0.37513494  -0.00118505  0.37142126  1
  V  V36  1  0.38139012  0.37487965  0.00299079  1
  V  V37  1  0.37948709  0.49890256  0.37471216  1
  V  V38  1  0.25014917  0.87309738  0.12244018  1
  V  V39  1  0.62796369  0.25564266  0.86181964  1
  V  V40  1  0.74704411  0.36915234  0.63511109  1
  V  V41  1  0.00394757  0.62941080  0.13297232  1
  V  V42  1  0.11387190  0.24516103  0.37305626  1
  V  V43  1  0.49762090  0.13772154  0.12330008  1
  V  V44  1  0.87007470  0.24353048  0.62307316  1
  V  V45  1  0.73959983  -0.00606281  0.75282269  1
  V  V46  1  0.00568303  0.86758804  0.87390114  1
  V  V47  1  0.62527216  0.13863709  0.50074803  1
  V  V48  1  0.12287000  0.38050343  0.75298615  1
  V  V49  1  0.75783965  0.62725344  0.87034562  1
  V  V50  1  0.86483564  0.37084938  0.49662331  1
  V  V51  1  0.36942598  0.01982709  0.86716815  1
  V  V52  1  -0.00710024  0.11491504  0.62372880  1
  V  V53  1  0.50854756  0.38161459  0.86789854  1
  V  V54  1  -0.00872667  0.49729646  0.00002791  1
  V  V55  1  0.62440763  0.49423948  0.63734078  1
  V  V56  1  0.62491557  0.75777162  0.86909890  1
  V  V57  1  0.49984066  0.00346624  -0.00076271  1
  V  V58  1  0.12559456  0.63062363  -0.00747778  1
  V  V59  1  0.87761686  0.25409930  0.12077509  1
  V  V60  1  0.12319245  -0.00051285  0.12640199  1
  V  V61  1  -0.00043851  0.00440999  -0.00203237  1
  V  V62  1  0.50085082  0.50639441  0.00597738  1
  V  V63  1  0.50037496  0.49675421  0.50543603  1
  V  V64  1  0.87522466  0.74671519  0.63798054  1
  V  V65  1  0.75726978  0.75344362  0.50343511  1
  V  V66  1  0.24962838  0.62354331  0.37237031  1
  V  V67  1  -0.00632605  0.37815799  0.37157289  1
  V  V68  1  0.12564839  0.13259657  -0.00054336  1
  V  V69  1  0.87525650  0.87806140  0.00269272  1
  V  V70  1  0.37624996  0.87643171  -0.00670328  1
  V  V71  1  0.62574991  0.74845239  0.37803543  1
  V  V72  1  0.25390689  0.63291866  0.86636081  1
  V  V73  1  0.76015313  0.50147823  0.25444600  1
  V  V74  1  0.74989325  0.00113234  0.26516851  1
  V  V75  1  0.62466345  0.63074712  0.00332130  1
  V  V76  1  -0.00478697  0.49535263  0.50360345  1
  V  V77  1  0.10880905  0.74719784  0.36974171  1
  V  V78  1  0.18217375  0.19257663  0.82973823  1
  V  V79  1  0.25064038  -0.00236435  0.24871470  1
  V  V80  1  -0.00557636  0.61732247  0.63441596  1
  V  V81  1  0.24997239  0.74679586  0.49683579  1
  V  V82  1  0.25206180  0.49660636  0.24778601  1
  V  V83  1  0.25675574  0.50114480  0.74709318  1
  V  V84  1  0.62800419  0.37023448  0.25612859  1
  Zn  Zn85  1  0.75624705  0.25696407  -0.00612707  1
  Zn  Zn86  1  0.50059588  0.75099349  0.74834427  1
  Zn  Zn87  1  0.49106113  0.24175050  0.74988598  1
  Zn  Zn88  1  0.87826828  0.50040343  0.86811351  1
  Zn  Zn89  1  0.75079058  0.75209294  0.00315637  1
  Zn  Zn90  1  0.50902370  0.36485189  0.38146950  1
  Zn  Zn91  1  0.88429466  0.62705442  0.25968400  1
  Zn  Zn92  1  0.37941893  0.50612397  0.87127079  1
  Zn  Zn93  1  0.50607708  0.73669549  0.24492212  1
  Zn  Zn94  1  0.24850638  0.01236156  0.74989218  1
  Zn  Zn95  1  0.75879274  0.50249396  0.74805454  1
  Zn  Zn96  1  0.11395515  0.85814317  0.24612418  1
  Zn  Zn97  1  0.24642557  0.75284525  -0.00685921  1
  Zn  Zn98  1  0.61880385  -0.00532890  0.63187529  1
  Zn  Zn99  1  0.38371684  0.61871133  0.24204963  1
  Zn  Zn100  1  0.50294939  0.25176259  0.25259220  1
  Zn  Zn101  1  0.00419176  0.74007459  0.75827158  1
  Zn  Zn102  1  0.48821823  0.61151311  0.63920701  1
  Zn  Zn103  1  0.50574287  0.88344070  0.86291203  1
  Zn  Zn104  1  0.11976003  -0.00704976  0.62538310  1
  Zn  Zn105  1  0.62492685  0.00481997  0.12637255  1
  Zn  Zn106  1  0.13154891  0.87121349  0.75780746  1
  Zn  Zn107  1  0.18800171  0.18849625  0.18653351  1
  Zn  Zn108  1  0.18051819  0.18843702  0.66748590  1
  Zn  Zn109  1  0.19222208  0.68545929  0.18669290  1
  Zn  Zn110  1  0.18252448  0.69287396  0.68995768  1
  Zn  Zn111  1  0.69194988  0.18947442  0.18453732  1
  Zn  Zn112  1  0.68623346  0.18244215  0.68460417  1
  Zn  Zn113  1  0.69210538  0.68939700  0.19154614  1
  Zn  Zn114  1  0.68318065  0.68436026  0.68879525  1
  Zn  Zn115  1  0.31084938  0.31181017  0.31603583  1
  Zn  Zn116  1  0.32048764  0.31975487  0.81400660  1
  Zn  Zn117  1  0.31178388  0.80975414  0.30733396  1
  Zn  Zn118  1  0.31576444  0.81507650  0.80953338  1
  Zn  Zn119  1  0.81421261  0.31138336  0.30654820  1
  Zn  Zn120  1  0.81921574  0.31431335  0.80972355  1
  Zn  Zn121  1  0.81532465  0.81412339  0.31937029  1
  Zn  Zn122  1  0.81412698  0.81246413  0.81356346  1
  Zn  Zn123  1  0.18266544  0.43738507  0.43455417  1
  Zn  Zn124  1  0.18508070  0.43988963  0.93332962  1
  Zn  Zn125  1  0.18351848  0.93031621  0.43481150  1
  Zn  Zn126  1  0.18952329  0.94462884  0.93820125  1
  Zn  Zn127  1  0.68948188  0.43847917  0.43959108  1
  Zn  Zn128  1  0.68813179  0.44402321  0.93749003  1
  Zn  Zn129  1  0.69046480  0.93660647  0.44156463  1
  Zn  Zn130  1  0.68816005  0.94079610  0.94072505  1
  Zn  Zn131  1  0.31463704  0.06390852  0.06106821  1
  Zn  Zn132  1  0.31080273  0.05895864  0.55739277  1
  Zn  Zn133  1  0.30980113  0.56231583  0.05593219  1
  Zn  Zn134  1  0.30838310  0.55641594  0.56220147  1
  Zn  Zn135  1  0.81177297  0.06339905  0.06249869  1
  Zn  Zn136  1  0.80889757  0.05931366  0.56068024  1
  Zn  Zn137  1  0.81294424  0.56794106  0.06344065  1
  Zn  Zn138  1  0.81471127  0.55719777  0.56492649  1
  Zn  Zn139  1  0.44214540  0.43727244  0.18621868  1
  Zn  Zn140  1  0.42305537  0.40404533  0.69660077  1
  Zn  Zn141  1  0.43815333  0.93965792  0.18208067  1
  Zn  Zn142  1  0.43487114  0.93472952  0.68841672  1
  Zn  Zn143  1  0.93892098  0.43900742  0.18725625  1
  Zn  Zn144  1  0.93450347  0.43406139  0.68831399  1
  Zn  Zn145  1  0.93332342  0.94182383  0.19197708  1
  Zn  Zn146  1  0.92842324  0.93245179  0.68686590  1
  Zn  Zn147  1  0.04234376  0.02432080  0.30084269  1
  Zn  Zn148  1  0.06019646  0.05233955  0.80431949  1
  Zn  Zn149  1  0.06498236  0.55575197  0.31441317  1
  Zn  Zn150  1  0.06743661  0.55758134  0.81478847  1
  Zn  Zn151  1  0.56376383  0.06581705  0.31369800  1
  Zn  Zn152  1  0.56046879  0.06677456  0.81340517  1
  Zn  Zn153  1  0.56483588  0.55997662  0.31571383  1
  Zn  Zn154  1  0.56331490  0.57096611  0.81559761  1
  Zn  Zn155  1  0.43897739  0.18728367  0.43338729  1
  Zn  Zn156  1  0.44156160  0.19488097  0.93687851  1
  Zn  Zn157  1  0.43939164  0.68422931  0.43798031  1
  Zn  Zn158  1  0.43875180  0.68769394  0.93634270  1
  Zn  Zn159  1  0.93362643  0.18380756  0.43780083  1
  Zn  Zn160  1  0.93707557  0.18843666  0.93758630  1
  Zn  Zn161  1  0.93700569  0.68810097  0.44756267  1
  Zn  Zn162  1  0.93581916  0.68977653  0.95011973  1
  Zn  Zn163  1  0.06383379  0.31044124  0.06023701  1
  Zn  Zn164  1  0.05736151  0.30644924  0.56103586  1
  Zn  Zn165  1  0.06172119  0.81217267  0.06035417  1
  Zn  Zn166  1  0.06010782  0.80667765  0.56039474  1
  Zn  Zn167  1  0.56945481  0.31686890  0.06266906  1
  Zn  Zn168  1  0.56127806  0.31198741  0.56627703  1
  Zn  Zn169  1  0.56282201  0.81620785  0.05889554  1
  Zn  Zn170  1  0.56252707  0.81170216  0.56588582  1
  O  O171  1  0.11776168  0.12333288  0.11935797  1
  O  O172  1  0.11200741  0.11843354  0.61098531  1
  O  O173  1  0.12171276  0.61904646  0.11961875  1
  O  O174  1  0.11777225  0.62944874  0.61123620  1
  O  O175  1  0.62069857  0.12547878  0.11661772  1
  O  O176  1  0.62240407  0.11739491  0.61010007  1
  O  O177  1  0.63445724  0.61593818  0.12118009  1
  O  O178  1  0.62519577  0.61539375  0.61474911  1
  O  O179  1  0.36934507  0.38654410  0.38415362  1
  O  O180  1  0.38788631  0.38468848  0.88935521  1
  O  O181  1  0.38013390  0.87819673  0.37633916  1
  O  O182  1  0.37625982  0.87870685  0.88648197  1
  O  O183  1  0.88285419  0.36442164  0.38162753  1
  O  O184  1  0.89168020  0.37576871  0.87468094  1
  O  O185  1  0.88126772  0.88555686  0.37217958  1
  O  O186  1  0.88062726  0.88268105  0.88397105  1
  O  O187  1  0.25329505  0.00197780  0.36586234  1
  O  O188  1  0.26551921  0.00363325  0.87534534  1
  O  O189  1  0.25489887  0.50707763  0.37024945  1
  O  O190  1  0.25246886  0.50777060  0.86512819  1
  O  O191  1  0.74491235  0.00731242  0.36738825  1
  O  O192  1  0.75502922  0.00638808  0.87114563  1
  O  O193  1  0.74750582  0.50940759  0.36831511  1
  O  O194  1  0.75199758  0.51549449  0.87584665  1
  O  O195  1  0.24548114  0.48923155  0.12585409  1
  O  O196  1  0.24434823  0.49124595  0.63144708  1
  O  O197  1  0.24881041  0.98979048  0.12805178  1
  O  O198  1  0.25070859  0.99129662  0.62658055  1
  O  O199  1  0.74702062  0.49677258  0.13250138  1
  O  O200  1  0.74143647  0.48961204  0.62447747  1
  O  O201  1  0.74785990  0.99132934  0.13346414  1
  O  O202  1  0.74784259  0.99145232  0.63625593  1
  O  O203  1  0.00897740  0.37867022  0.25724666  1
  O  O204  1  0.00892933  0.36205723  0.75250107  1
  O  O205  1  0.02132353  0.91970736  0.25250757  1
  O  O206  1  -0.00478611  0.87721107  0.76902066  1
  O  O207  1  0.51814508  0.37720675  0.24825888  1
  O  O208  1  0.51453432  0.39553913  0.76877281  1
  O  O209  1  0.51135331  0.87690553  0.25144405  1
  O  O210  1  0.49407561  0.86549968  0.75208266  1
  O  O211  1  0.49329488  0.12387422  0.24070589  1
  O  O212  1  0.50023518  0.12321507  0.73288139  1
  O  O213  1  0.49620730  0.62369149  0.25599809  1
  O  O214  1  0.50468753  0.63595533  0.74751801  1
  O  O215  1  0.98903167  0.11618337  0.24229000  1
  O  O216  1  1.00637127  0.13521800  0.74217887  1
  O  O217  1  1.00146040  0.61402607  0.23702617  1
  O  O218  1  1.00874410  0.61956494  0.73735862  1
  O  O219  1  0.36738825  0.26023207  -0.00309288  1
  O  O220  1  0.36171255  0.25781964  0.48807913  1
  O  O221  1  0.37356426  0.75880458  0.00704849  1
  O  O222  1  0.36833644  0.75356814  0.50223374  1
  O  O223  1  0.87334923  0.24579298  0.01503747  1
  O  O224  1  0.88113651  0.25890849  0.51186308  1
  O  O225  1  0.87198968  0.76081315  0.01671842  1
  O  O226  1  0.86097527  0.74466416  0.51171178  1
  O  O227  1  0.12820013  0.24053496  0.49052200  1
  O  O228  1  0.13471385  0.23980046  0.99948508  1
  O  O229  1  0.13047377  0.73703806  0.48727179  1
  O  O230  1  0.12712319  0.73522743  1.00494862  1
  O  O231  1  0.62257987  0.23710614  0.50045332  1
  O  O232  1  0.62929735  0.24162962  0.99382031  1
  O  O233  1  0.63103091  0.73950702  0.49864233  1
  O  O234  1  0.62904648  0.74471422  0.99776027  1
  O  O235  1  0.50571702  0.24102466  0.12782089  1
  O  O236  1  0.50299600  0.23199075  0.62325512  1
  O  O237  1  0.48599160  0.75727767  0.12418063  1
  O  O238  1  0.48188956  0.74795831  0.61832907  1
  O  O239  1  0.99551861  0.23926745  0.12318566  1
  O  O240  1  0.99335346  0.23948694  0.63273578  1
  O  O241  1  0.99411401  0.74221882  0.12455260  1
  O  O242  1  0.98896632  0.73741849  0.62243243  1
  O  O243  1  0.00927857  0.25758128  0.37845327  1
  O  O244  1  -0.00331643  0.25436194  0.86550670  1
  O  O245  1  0.01006151  0.73998432  0.37444858  1
  O  O246  1  -0.00767597  0.76462719  0.88034887  1
  O  O247  1  0.49653598  0.25403812  0.36616613  1
  O  O248  1  0.50980008  0.26147850  0.87124517  1
  O  O249  1  0.50722053  0.75687808  0.37492900  1
  O  O250  1  0.51629340  0.75191573  0.87988254  1
  O  O251  1  0.24176772  0.13013364  0.49186504  1
  O  O252  1  0.24513836  0.13872167  1.00590076  1
  O  O253  1  0.24069875  0.62328154  0.49149581  1
  O  O254  1  0.24174383  0.62614402  0.98755968  1
  O  O255  1  0.73750962  0.12119824  0.48905211  1
  O  O256  1  0.74271450  0.12589308  0.98948035  1
  O  O257  1  0.74382022  0.62748599  0.49689354  1
  O  O258  1  0.74003220  0.62808483  0.99497853  1
  O  O259  1  0.25663391  0.36970965  0.00417967  1
  O  O260  1  0.24829704  0.36846363  0.50156755  1
  O  O261  1  0.25658283  0.87448064  0.00525342  1
  O  O262  1  0.25836472  0.86793750  0.50102982  1
  O  O263  1  0.74907854  0.37892036  0.01283033  1
  O  O264  1  0.76150574  0.37747780  0.50514442  1
  O  O265  1  0.75635053  0.87860823  0.01220011  1
  O  O266  1  0.74351402  0.86147848  0.50915532  1
  O  O267  1  0.13287436  0.48732178  0.24424899  1
  O  O268  1  0.13343265  0.48524921  0.75057629  1
  O  O269  1  0.14495539  1.01584671  0.24039443  1
  O  O270  1  0.13140161  0.98919209  0.74438926  1
  O  O271  1  0.63603738  0.49453071  0.24462039  1
  O  O272  1  0.63136116  0.50766385  0.73821321  1
  O  O273  1  0.63138714  0.99402590  0.24838808  1
  O  O274  1  0.63513112  1.00239581  0.75341841  1
  O  O275  1  0.36599686  0.00529331  0.25060510  1
  O  O276  1  0.37229991  0.00239082  0.76440979  1
  O  O277  1  0.37062323  0.49565681  0.25774052  1
  O  O278  1  0.36066886  0.49195710  0.74923284  1
  O  O279  1  0.85964577  0.01720797  0.24368072  1
  O  O280  1  0.86400636  -0.00294195  0.76357139  1
  O  O281  1  0.86370642  0.50432002  0.24725414  1
  O  O282  1  0.87275455  0.49831757  0.75364137  1
  O  O283  1  0.11775138  0.36651259  0.36639778  1
  O  O284  1  0.11398858  0.37583001  0.86509161  1
  O  O285  1  0.13204973  0.84973859  0.37244631  1
  O  O286  1  0.10859518  0.88196746  0.88217126  1
  O  O287  1  0.62838944  0.38096411  0.35985965  1
  O  O288  1  0.62101574  0.36582109  0.88679393  1
  O  O289  1  0.62085291  0.87024665  0.36872790  1
  O  O290  1  0.62605815  0.86151037  0.88542548  1
  O  O291  1  0.38508042  0.12156861  0.13300379  1
  O  O292  1  0.38611491  0.12437830  0.61617682  1
  O  O293  1  0.36704852  0.64145669  0.12066692  1
  O  O294  1  0.37255176  0.63645134  0.61507222  1
  O  O295  1  0.88090988  0.13112686  0.13029798  1
  O  O296  1  0.87865012  0.13283832  0.61759448  1
  O  O297  1  0.88490045  0.63574334  0.12718824  1
  O  O298  1  0.88430544  0.63034840  0.62086437  1
  O  O299  1  0.24741844  0.26252951  0.11614665  1
  O  O300  1  0.24647231  0.25749943  0.60633749  1
  O  O301  1  0.25811495  0.76189232  0.12336404  1
  O  O302  1  0.25838302  0.75309727  0.61537510  1
  O  O303  1  0.75804580  0.26092781  0.12099993  1
  O  O304  1  0.75839938  0.25375828  0.62910111  1
  O  O305  1  0.75659169  0.76500491  0.12813802  1
  O  O306  1  0.75371443  0.75148408  0.62286749  1
  O  O307  1  0.23742798  0.24594277  0.38151302  1
  O  O308  1  0.25091038  0.25609057  0.88137443  1
  O  O309  1  0.25412677  0.73385307  0.37722918  1
  O  O310  1  0.25337644  0.73729335  0.87287154  1
  O  O311  1  0.74556313  0.24058784  0.37191982  1
  O  O312  1  0.74755470  0.24542077  0.87397991  1
  O  O313  1  0.74477566  0.74467309  0.38526654  1
  O  O314  1  0.74367710  0.74450924  0.88048998  1
  O  O315  1  0.00888577  0.12393040  0.00569909  1
  O  O316  1  0.00572509  0.13097615  0.50997308  1
  O  O317  1  0.00788657  0.61829575  0.00921487  1
  O  O318  1  0.00459409  0.61322568  0.50594974  1
  O  O319  1  0.50665565  0.12417583  0.00514641  1
  O  O320  1  0.50803227  0.11858192  0.50418782  1
  O  O321  1  0.51375065  0.62024647  -0.00168565  1
  O  O322  1  0.50792374  0.61324296  0.50274217  1
  O  O323  1  0.48936330  0.37800001  0.50102999  1
  O  O324  1  0.49651441  0.38297594  0.99868917  1
  O  O325  1  0.49471191  0.88104771  0.49509571  1
  O  O326  1  0.49363000  0.88831896  0.99763665  1
  O  O327  1  0.99400471  0.37871130  0.49325736  1
  O  O328  1  1.00894693  0.38387721  0.99219677  1
  O  O329  1  0.99770824  0.87446569  0.49524621  1
  O  O330  1  0.99501140  0.88330292  0.99382083  1
  O  O331  1  0.49413367  0.49191032  0.38698259  1
  O  O332  1  0.50562279  0.49884375  0.89031649  1
  O  O333  1  0.49513851  0.99429743  0.37980081  1
  O  O334  1  0.49047497  1.00353233  0.88394579  1
  O  O335  1  1.00159136  0.48481915  0.38163445  1
  O  O336  1  1.00057631  0.49285440  0.88440236  1
  O  O337  1  0.99162778  1.01277511  0.39972073  1
  O  O338  1  0.99090494  0.99516147  0.88002309  1
  O  O339  1  0.00237469  0.01415599  0.11472894  1
  O  O340  1  -0.00494398  0.01122114  0.63487047  1
  O  O341  1  0.00695853  0.50493967  0.11798242  1
  O  O342  1  -0.00230564  0.50344590  0.61516210  1
  O  O343  1  0.50164249  0.01032414  0.11186775  1
  O  O344  1  0.49789393  0.00790382  0.61614203  1
  O  O345  1  0.51166548  0.49799182  0.11519050  1
  O  O346  1  0.50506312  0.49416331  0.61654467  1
  O  O347  1  0.24534539  0.37674866  0.24145909  1
  O  O348  1  0.24119002  0.37997735  0.74077706  1
  O  O349  1  0.24652786  0.88256329  0.24120215  1
  O  O350  1  0.25186115  0.87782349  0.73877436  1
  O  O351  1  0.74400354  0.38299291  0.24337211  1
  O  O352  1  0.75062770  0.37533382  0.73820047  1
  O  O353  1  0.74108454  0.88271650  0.24886238  1
  O  O354  1  0.75191321  0.88298121  0.74548132  1
  O  O355  1  0.25894847  0.12095310  0.25199106  1
  O  O356  1  0.23408386  0.13609391  0.75714328  1
  O  O357  1  0.25711889  0.61534014  0.25597920  1
  O  O358  1  0.24214258  0.61735637  0.75955483  1
  O  O359  1  0.74870700  0.12099542  0.26210591  1
  O  O360  1  0.74642152  0.11757007  0.76276233  1
  O  O361  1  0.75137334  0.61831413  0.26214858  1
  O  O362  1  0.74723198  0.62700008  0.76750617  1
  O  O363  1  0.36729833  0.11646578  0.36594845  1
  O  O364  1  0.37835267  0.11852111  0.87682621  1
  O  O365  1  0.36829592  0.61081126  0.37753093  1
  O  O366  1  0.35914541  0.62278334  0.88049134  1
  O  O367  1  0.85821867  0.13197170  0.36883044  1
  O  O368  1  0.86608635  0.11585030  0.88094468  1
  O  O369  1  0.86330111  0.63080478  0.37758712  1
  O  O370  1  0.86002648  0.62946789  0.88655634  1
  O  O371  1  0.13150095  0.37704753  0.13096808  1
  O  O372  1  0.13178084  0.36516503  0.63143164  1
  O  O373  1  0.13377331  0.87967958  0.12420777  1
  O  O374  1  0.14022873  0.87293425  0.61364716  1
  O  O375  1  0.63538009  0.38793253  0.13225007  1
  O  O376  1  0.63520381  0.38177133  0.61776838  1
  O  O377  1  0.63191032  0.87788704  0.13288843  1
  O  O378  1  0.63775424  0.87554334  0.62388510  1
  O  O379  1  0.12928645  0.25978282  0.25670435  1
  O  O380  1  0.12380902  0.25287745  0.75638652  1
  O  O381  1  0.12798980  0.74257801  0.26380312  1
  O  O382  1  0.11495468  0.76018130  0.74568189  1
  O  O383  1  0.62938006  0.26813770  0.24257200  1
  O  O384  1  0.62124499  0.24599595  0.75978017  1
  O  O385  1  0.62536179  0.75900347  0.25764628  1
  O  O386  1  0.62939187  0.75112649  0.76702082  1
  O  O387  1  0.37261391  0.23904246  0.25034029  1
  O  O388  1  0.39439657  0.29653352  0.73620197  1
  O  O389  1  0.37779152  0.75082911  0.23282766  1
  O  O390  1  0.36951635  0.74762925  0.73183672  1
  O  O391  1  0.86868942  0.23572771  0.23731511  1
  O  O392  1  0.88565909  0.25207657  0.73721975  1
  O  O393  1  0.87064434  0.74877177  0.24085017  1
  O  O394  1  0.88118193  0.74747985  0.74231478  1
  O  O395  1  0.38216181  0.49390746  0.49359390  1
  O  O396  1  0.38623438  0.49578779  1.00102167  1
  O  O397  1  0.38461712  0.99364653  0.49095877  1
  O  O398  1  0.38109113  0.99663387  0.99149131  1
  O  O399  1  0.88589737  0.48742876  0.50118191  1
  O  O400  1  0.88887644  0.50517122  0.99995394  1
  O  O401  1  0.87048259  0.98409724  0.50583230  1
  O  O402  1  0.87928645  0.99622032  0.99306209  1
  O  O403  1  0.12354736  0.01383875  0.00741868  1
  O  O404  1  0.13081525  0.00897952  0.49948547  1
  O  O405  1  0.11956904  0.50915507  0.00532933  1
  O  O406  1  0.11209066  0.50695222  0.49264298  1
  O  O407  1  0.61684776  0.01404606  -0.00151356  1
  O  O408  1  0.61176635  0.00197436  0.49941940  1
  O  O409  1  0.62145231  0.50956555  0.01036982  1
  O  O410  1  0.61719977  0.50399160  0.50593483  1
  O  O411  1  0.36874367  0.38004249  0.11381903  1
  O  O412  1  0.35542698  0.38264560  0.60474811  1
  O  O413  1  0.36936203  0.87098238  0.11360635  1
  O  O414  1  0.36472029  0.86644862  0.61566000  1
  O  O415  1  0.86793251  0.36663173  0.13319256  1
  O  O416  1  0.86676305  0.36519003  0.61661947  1
  O  O417  1  0.86974506  0.87287865  0.12472607  1
  O  O418  1  0.86025271  0.86045542  0.62995593  1
  O  O419  1  0.12809120  0.13104453  0.37762893  1
  O  O420  1  0.12107240  0.12316348  0.88232835  1
  O  O421  1  0.13186106  0.62893614  0.37925272  1
  O  O422  1  0.13731239  0.62020265  0.88270363  1
  O  O423  1  0.63335003  0.12267975  0.38733092  1
  O  O424  1  0.63071148  0.13536101  0.88130804  1
  O  O425  1  0.63417583  0.62721821  0.38815205  1
  O  O426  1  0.63600335  0.63662453  0.88553408  1
