# generated using pymatgen
data_V85Zn86O256
_symmetry_space_group_name_H-M   'P 1'
_cell_length_a   16.93832597
_cell_length_b   16.94172375
_cell_length_c   16.93660851
_cell_angle_alpha   89.97388118
_cell_angle_beta   89.96986652
_cell_angle_gamma   90.03866192
_symmetry_Int_Tables_number   1
_chemical_formula_structural   V85Zn86O256
_chemical_formula_sum   'V85 Zn86 O256'
_cell_volume   4860.20207964
_cell_formula_units_Z   1
loop_
 _symmetry_equiv_pos_site_id
 _symmetry_equiv_pos_as_xyz
  1  'x, y, z'
loop_
 _atom_site_type_symbol
 _atom_site_label
 _atom_site_symmetry_multiplicity
 _atom_site_fract_x
 _atom_site_fract_y
 _atom_site_fract_z
 _atom_site_occupancy
  V  V0  1  0.88879510  0.12179220  0.76069812  1
  V  V1  1  0.25183566  0.74999026  -0.00005135  1
  V  V2  1  0.87317416  0.37106023  0.51501135  1
  V  V3  1  0.25195620  0.37034959  0.12325442  1
  V  V4  1  -0.00129452  0.75001411  0.75220611  1
  V  V5  1  0.37369574  0.50077257  0.86925336  1
  V  V6  1  0.50033761  0.00290511  0.50006435  1
  V  V7  1  0.24961902  0.62305095  0.86826913  1
  V  V8  1  0.25185603  0.49877070  0.24729194  1
  V  V9  1  0.00037090  0.50087039  0.00169350  1
  V  V10  1  0.74817275  0.37187495  0.13126646  1
  V  V11  1  0.12334790  0.62862250  0.49753066  1
  V  V12  1  0.62398252  0.12999133  0.50229133  1
  V  V13  1  -0.00683407  -0.00319216  0.00156159  1
  V  V14  1  0.37570057  0.49695664  0.37239065  1
  V  V15  1  0.87539603  0.12187934  0.24813670  1
  V  V16  1  0.74267188  0.74889072  0.50333856  1
  V  V17  1  0.12749501  0.00198702  0.12510289  1
  V  V18  1  0.37663417  0.87557297  0.49973435  1
  V  V19  1  0.74956676  0.24563022  0.00124415  1
  V  V20  1  0.12453931  0.87102910  0.25626979  1
  V  V21  1  0.87079362  0.50489943  0.88058223  1
  V  V22  1  0.25009994  0.23994573  -0.00435766  1
  V  V23  1  0.63843209  0.62378149  -0.00954765  1
  V  V24  1  0.12553918  0.37481128  0.25036538  1
  V  V25  1  0.62675379  0.00268635  0.62836984  1
  V  V26  1  0.37133871  0.00700989  0.37040070  1
  V  V27  1  0.37534733  0.37200309  0.00103611  1
  V  V28  1  0.36174267  0.00631860  0.86502532  1
  V  V29  1  0.88544128  -0.00224420  0.37924093  1
  V  V30  1  0.37787888  0.75253785  0.12627312  1
  V  V31  1  0.12952402  0.50126106  0.63107813  1
  V  V32  1  0.12204021  0.23504260  0.88070048  1
  V  V33  1  0.12505881  0.37949309  0.75755251  1
  V  V34  1  -0.00212973  0.37510204  0.37492893  1
  V  V35  1  0.74510765  0.49488101  0.25320905  1
  V  V36  1  -0.00599379  0.88595744  0.87511096  1
  V  V37  1  0.62397494  0.49430054  0.12528620  1
  V  V38  1  0.75301094  0.25297990  0.51450770  1
  V  V39  1  0.73521749  -0.00762777  0.24868898  1
  V  V40  1  0.38081140  0.62986003  0.24833811  1
  V  V41  1  0.37299124  0.87775793  -0.00536290  1
  V  V42  1  -0.00675407  0.12005690  0.61615443  1
  V  V43  1  0.50217306  0.62498150  0.12272474  1
  V  V44  1  0.12146484  0.11111586  0.50175918  1
  V  V45  1  0.87319873  0.62726735  0.25533600  1
  V  V46  1  0.62200784  0.12133650  0.01230192  1
  V  V47  1  0.24979434  0.25148645  0.49935271  1
  V  V48  1  0.48818221  0.13415597  0.63228969  1
  V  V49  1  0.12746621  0.88035981  0.74580575  1
  V  V50  1  0.87935744  0.87698097  0.50427873  1
  V  V51  1  0.24988856  0.87929740  0.13117007  1
  V  V52  1  0.55758531  0.80794193  0.20603549  1
  V  V53  1  0.62426655  0.87802740  0.75139410  1
  V  V54  1  0.24575758  0.62983315  0.37293165  1
  V  V55  1  0.00044416  0.62604464  0.62809055  1
  V  V56  1  0.25371856  0.37684980  0.63142359  1
  V  V57  1  0.12568410  0.62645583  0.00128406  1
  V  V58  1  0.24667163  0.75119266  0.49913306  1
  V  V59  1  0.37648966  0.37086780  0.50159547  1
  V  V60  1  0.50489378  0.24923567  0.23668006  1
  V  V61  1  0.50170575  0.51369369  0.50632537  1
  V  V62  1  0.87225339  0.49818468  0.37789737  1
  V  V63  1  -0.00006202  0.62830971  0.12697764  1
  V  V64  1  0.73897934  0.62253692  0.38361323  1
  V  V65  1  0.24746575  0.88653712  0.62565818  1
  V  V66  1  0.86612432  0.75573257  0.12127967  1
  V  V67  1  0.87608420  0.37208669  0.00244756  1
  V  V68  1  0.86490507  0.62618198  0.75556469  1
  V  V69  1  0.49975564  0.74633887  0.74600169  1
  V  V70  1  0.75383293  0.48048345  0.74648672  1
  V  V71  1  0.63818037  0.74557771  0.87210524  1
  V  V72  1  0.75286858  0.11403739  0.87630978  1
  V  V73  1  -0.00008901  0.50032534  0.50086962  1
  V  V74  1  0.75045023  0.12458179  0.37742650  1
  V  V75  1  0.50115561  0.50169971  -0.00893319  1
  V  V76  1  0.62320942  0.24765017  0.87026062  1
  V  V77  1  0.37269467  0.13158874  0.23409749  1
  V  V78  1  0.37517181  0.62357679  0.74271723  1
  V  V79  1  0.00404438  0.12478665  0.12111547  1
  V  V80  1  0.49909084  0.00769177  0.00537494  1
  V  V81  1  0.50834750  0.37263799  0.37135435  1
  V  V82  1  0.12282256  0.24794668  0.37519780  1
  V  V83  1  0.12447219  0.75144581  0.87520160  1
  V  V84  1  0.50855187  0.87424877  0.37468544  1
  Zn  Zn85  1  0.32428502  0.13674649  0.76155572  1
  Zn  Zn86  1  -0.00066319  0.24879381  0.24847608  1
  Zn  Zn87  1  0.50277906  0.37192651  0.87129828  1
  Zn  Zn88  1  0.12554380  0.50069589  0.12593438  1
  Zn  Zn89  1  0.75033899  0.87592766  0.62525391  1
  Zn  Zn90  1  0.87642723  0.24711065  0.12667096  1
  Zn  Zn91  1  0.73379213  0.87516248  0.12631372  1
  Zn  Zn92  1  0.49846289  0.87887656  0.87139279  1
  Zn  Zn93  1  0.62049229  0.36717153  0.73393750  1
  Zn  Zn94  1  0.87245346  0.75211214  0.62682852  1
  Zn  Zn95  1  0.24915994  0.12352509  0.36919837  1
  Zn  Zn96  1  0.00433296  0.74744190  0.25911982  1
  Zn  Zn97  1  0.63211224  0.50266650  0.61545134  1
  Zn  Zn98  1  -0.00304725  0.25467974  0.73869472  1
  Zn  Zn99  1  0.00058436  0.37443157  0.87635087  1
  Zn  Zn100  1  0.61913608  0.74566866  0.37691018  1
  Zn  Zn101  1  0.00618422  0.86732527  0.38340346  1
  Zn  Zn102  1  0.62726661  0.25397445  0.37152303  1
  Zn  Zn103  1  0.48081907  0.25188696  0.74967387  1
  Zn  Zn104  1  0.37957213  0.74704418  0.62189505  1
  Zn  Zn105  1  0.75977261  -0.00195162  0.75255255  1
  Zn  Zn106  1  0.85886698  0.87393180  -0.00974602  1
  Zn  Zn107  1  0.18960979  0.18791056  0.18497530  1
  Zn  Zn108  1  0.17923712  0.19878037  0.67820542  1
  Zn  Zn109  1  0.19002960  0.69055902  0.18742920  1
  Zn  Zn110  1  0.18954887  0.69396768  0.68493418  1
  Zn  Zn111  1  0.68681406  0.18586656  0.19063634  1
  Zn  Zn112  1  0.69169768  0.18297629  0.69246772  1
  Zn  Zn113  1  0.69161243  0.67692844  0.18482078  1
  Zn  Zn114  1  0.68580036  0.68292912  0.68155673  1
  Zn  Zn115  1  0.31636459  0.30773024  0.31141558  1
  Zn  Zn116  1  0.30966018  0.31363420  0.81506181  1
  Zn  Zn117  1  0.31527480  0.81436751  0.31345757  1
  Zn  Zn118  1  0.31177540  0.81279142  0.81017042  1
  Zn  Zn119  1  0.81361769  0.30832189  0.31585562  1
  Zn  Zn120  1  0.81853226  0.30234545  0.81811490  1
  Zn  Zn121  1  0.81069714  0.81195644  0.31619496  1
  Zn  Zn122  1  0.81203537  0.81612037  0.80918908  1
  Zn  Zn123  1  0.18745132  0.43880102  0.43831610  1
  Zn  Zn124  1  0.19010661  0.44083138  0.93983177  1
  Zn  Zn125  1  0.19337644  0.93758637  0.43491939  1
  Zn  Zn126  1  0.18096672  0.93918095  0.93999236  1
  Zn  Zn127  1  0.68474608  0.43593139  0.44647448  1
  Zn  Zn128  1  0.68967530  0.43435743  0.93501919  1
  Zn  Zn129  1  0.69144526  0.93941483  0.43953299  1
  Zn  Zn130  1  0.68519079  0.93470580  0.94146164  1
  Zn  Zn131  1  0.31233721  0.06013285  0.05995898  1
  Zn  Zn132  1  0.31071892  0.06535600  0.55886533  1
  Zn  Zn133  1  0.31358921  0.56082095  0.06041542  1
  Zn  Zn134  1  0.31282733  0.55919345  0.55928084  1
  Zn  Zn135  1  0.81042112  0.05606930  0.06587170  1
  Zn  Zn136  1  0.81494995  0.06360064  0.56534711  1
  Zn  Zn137  1  0.81314716  0.56227115  0.06669536  1
  Zn  Zn138  1  0.81500947  0.56366259  0.56626337  1
  Zn  Zn139  1  0.43958532  0.43283678  0.18480311  1
  Zn  Zn140  1  0.43959271  0.43456516  0.68821688  1
  Zn  Zn141  1  0.43139362  0.94786767  0.18518137  1
  Zn  Zn142  1  0.43784550  0.94142877  0.68698025  1
  Zn  Zn143  1  0.93626586  0.43936759  0.18874080  1
  Zn  Zn144  1  0.94134859  0.44009761  0.69141685  1
  Zn  Zn145  1  0.93910438  0.93845505  0.19271758  1
  Zn  Zn146  1  0.94338534  0.94324892  0.68450391  1
  Zn  Zn147  1  0.06498443  0.05856171  0.30767366  1
  Zn  Zn148  1  0.11270891  0.08573736  0.77946081  1
  Zn  Zn149  1  0.06277304  0.56169143  0.31222233  1
  Zn  Zn150  1  0.05971986  0.56187953  0.81475926  1
  Zn  Zn151  1  0.55702582  0.06860685  0.31275835  1
  Zn  Zn152  1  0.55779155  0.06279991  0.81812238  1
  Zn  Zn153  1  0.56096183  0.55879916  0.31096476  1
  Zn  Zn154  1  0.58364394  0.57633595  0.77830406  1
  Zn  Zn155  1  0.43904081  0.19033626  0.43616834  1
  Zn  Zn156  1  0.43376381  0.18499059  0.93249564  1
  Zn  Zn157  1  0.43458455  0.69235804  0.43133477  1
  Zn  Zn158  1  0.44351468  0.68854478  0.93036517  1
  Zn  Zn159  1  0.93669297  0.18857681  0.43876768  1
  Zn  Zn160  1  0.94060801  0.18527371  0.93897355  1
  Zn  Zn161  1  0.93365315  0.69310575  0.43853908  1
  Zn  Zn162  1  0.93524760  0.69088667  0.93875930  1
  Zn  Zn163  1  0.06468863  0.31081141  0.06379346  1
  Zn  Zn164  1  0.06134696  0.31134415  0.56311946  1
  Zn  Zn165  1  0.05935156  0.81353396  0.06475710  1
  Zn  Zn166  1  0.06258265  0.81258692  0.56304608  1
  Zn  Zn167  1  0.56438763  0.31239472  0.05584902  1
  Zn  Zn168  1  0.56467891  0.31671695  0.56318722  1
  Zn  Zn169  1  0.56369973  0.81446534  0.04068217  1
  Zn  Zn170  1  0.56286630  0.81240771  0.56450773  1
  O  O171  1  0.11726839  0.11510474  0.13226462  1
  O  O172  1  0.11842002  0.12545526  0.60484592  1
  O  O173  1  0.11669471  0.62531681  0.12235925  1
  O  O174  1  0.12161258  0.61888176  0.62149982  1
  O  O175  1  0.62959799  0.12529049  0.11140747  1
  O  O176  1  0.62019171  0.12111507  0.61693581  1
  O  O177  1  0.62055247  0.61510243  0.11416674  1
  O  O178  1  0.61377705  0.60126601  0.66788894  1
  O  O179  1  0.37888740  0.38246322  0.38027883  1
  O  O180  1  0.37212934  0.38603684  0.88485745  1
  O  O181  1  0.38221577  0.88238213  0.38297227  1
  O  O182  1  0.37283216  0.87943636  0.88444977  1
  O  O183  1  0.88218345  0.38084120  0.37837439  1
  O  O184  1  0.87740892  0.37885974  0.89040304  1
  O  O185  1  0.87387509  0.88304223  0.38361628  1
  O  O186  1  0.88716268  0.86844077  0.87582425  1
  O  O187  1  0.26696973  0.00194166  0.37509304  1
  O  O188  1  0.26302449  -0.00619306  0.88343708  1
  O  O189  1  0.26081184  0.50541090  0.37038167  1
  O  O190  1  0.26003933  0.51276262  0.88122559  1
  O  O191  1  0.75614974  0.00955935  0.36853389  1
  O  O192  1  0.74448386  0.01100532  0.87455017  1
  O  O193  1  0.75288246  0.50361646  0.37461259  1
  O  O194  1  0.76678624  0.49413918  0.87105581  1
  O  O195  1  0.24992879  0.49032239  0.12920908  1
  O  O196  1  0.23676353  0.49199243  0.61711717  1
  O  O197  1  0.24271412  0.98917413  0.11824196  1
  O  O198  1  0.25057966  0.98523657  0.61394192  1
  O  O199  1  0.74323975  0.49217353  0.13046833  1
  O  O200  1  0.75521021  0.50063818  0.64389352  1
  O  O201  1  0.74975197  0.99851656  0.14512867  1
  O  O202  1  0.73575667  1.00377683  0.62808684  1
  O  O203  1  0.00526577  0.37469089  0.25629629  1
  O  O204  1  0.00937023  0.37262356  0.75404804  1
  O  O205  1  0.01518520  0.87204421  0.25007154  1
  O  O206  1  0.00254356  0.86622513  0.75613898  1
  O  O207  1  0.49121544  0.36197506  0.25877136  1
  O  O208  1  0.50243283  0.36896439  0.75423497  1
  O  O209  1  0.49492128  0.87718259  0.25588708  1
  O  O210  1  0.50998418  0.87105559  0.74961335  1
  O  O211  1  0.49011636  0.14029287  0.25226431  1
  O  O212  1  0.50546120  0.12743799  0.73459892  1
  O  O213  1  0.48793776  0.61770731  0.24149466  1
  O  O214  1  0.48432609  0.63484210  0.76137841  1
  O  O215  1  0.99233176  0.12261855  0.24072208  1
  O  O216  1  0.99904385  0.12615568  0.74215900  1
  O  O217  1  0.99167215  0.62315828  0.24401203  1
  O  O218  1  0.99420886  0.63226906  0.74779405  1
  O  O219  1  0.36112955  0.25906476  -0.00991528  1
  O  O220  1  0.36580931  0.26252040  0.49397599  1
  O  O221  1  0.37508263  0.75920222  0.00427848  1
  O  O222  1  0.36980841  0.75959829  0.50081335  1
  O  O223  1  0.86955915  0.25691999  0.00320889  1
  O  O224  1  0.86608860  0.25950348  0.49482585  1
  O  O225  1  0.87680823  0.75055559  0.01777666  1
  O  O226  1  0.86223737  0.75833346  0.50453288  1
  O  O227  1  0.12988945  0.24746138  0.48709477  1
  O  O228  1  0.13593074  0.25872794  0.98870747  1
  O  O229  1  0.13406105  0.74085942  0.50351469  1
  O  O230  1  0.12924117  0.74495036  0.99582360  1
  O  O231  1  0.63262243  0.24379904  0.49597365  1
  O  O232  1  0.63055178  0.23893614  0.99487217  1
  O  O233  1  0.63701960  0.75352567  0.49883075  1
  O  O234  1  0.62137476  0.73882661  0.98138312  1
  O  O235  1  0.50371452  0.25901398  0.13778175  1
  O  O236  1  0.50120827  0.23654950  0.62334242  1
  O  O237  1  0.49955669  0.74990326  0.12968892  1
  O  O238  1  0.49853928  0.75305015  0.63927820  1
  O  O239  1  0.99974615  0.24003130  0.12764422  1
  O  O240  1  1.01240404  0.23152990  0.62594220  1
  O  O241  1  0.99160528  0.73886621  0.13097181  1
  O  O242  1  0.99928655  0.74490568  0.63858314  1
  O  O243  1  0.00722825  0.25589862  0.37215271  1
  O  O244  1  0.01474191  0.25603961  0.88284690  1
  O  O245  1  -0.00160022  0.75303946  0.37217393  1
  O  O246  1  0.00516297  0.75326070  0.86650171  1
  O  O247  1  0.50305684  0.25974714  0.36929258  1
  O  O248  1  0.50975770  0.24720970  0.87237282  1
  O  O249  1  0.50178972  0.76312860  0.37354627  1
  O  O250  1  0.50703688  0.75681885  0.86225872  1
  O  O251  1  0.23870103  0.13411405  0.49657050  1
  O  O252  1  0.25149816  0.14185265  1.00630331  1
  O  O253  1  0.24701784  0.63081446  0.49139253  1
  O  O254  1  0.24576398  0.63116927  0.99351658  1
  O  O255  1  0.74440926  0.12993857  0.49486505  1
  O  O256  1  0.74486023  0.12472019  0.99595040  1
  O  O257  1  0.75511819  0.63180877  0.49377763  1
  O  O258  1  0.73735844  0.61777174  1.00107896  1
  O  O259  1  0.25656558  0.37246759  0.00665591  1
  O  O260  1  0.25631858  0.37122507  0.50446654  1
  O  O261  1  0.25651767  0.86911555  0.00791553  1
  O  O262  1  0.25644220  0.86758821  0.50190462  1
  O  O263  1  0.75799315  0.37002421  0.01107956  1
  O  O264  1  0.76079031  0.36527627  0.49504425  1
  O  O265  1  0.74889498  0.88153581  0.01384524  1
  O  O266  1  0.75755747  0.86737634  0.50230653  1
  O  O267  1  0.13444576  0.49314677  0.24984743  1
  O  O268  1  0.12078153  0.49526422  0.74127228  1
  O  O269  1  0.12401521  0.98644586  0.23653164  1
  O  O270  1  0.11535406  0.97803723  0.75159662  1
  O  O271  1  0.63084814  0.50297242  0.23671118  1
  O  O272  1  0.65114109  0.48084165  0.77310160  1
  O  O273  1  0.63694876  1.00599834  0.25776269  1
  O  O274  1  0.62292754  0.99399161  0.74505811  1
  O  O275  1  0.38330339  0.02030626  0.25726506  1
  O  O276  1  0.37207801  -0.00189929  0.76281988  1
  O  O277  1  0.37106359  0.50537365  0.25422389  1
  O  O278  1  0.37963893  0.50685819  0.76248554  1
  O  O279  1  0.86852467  0.00798978  0.25886252  1
  O  O280  1  0.87667588  0.01568310  0.74656403  1
  O  O281  1  0.86757737  0.50918736  0.25550653  1
  O  O282  1  0.87145191  0.50444765  0.76054074  1
  O  O283  1  0.11870595  0.36965586  0.37116766  1
  O  O284  1  0.12623761  0.38235890  0.86435416  1
  O  O285  1  0.12796096  0.88158551  0.35963992  1
  O  O286  1  0.11855851  0.86578383  0.86989149  1
  O  O287  1  0.61172036  0.37768315  0.37602609  1
  O  O288  1  0.62615870  0.35539087  0.88263673  1
  O  O289  1  0.61148784  0.87785172  0.37911122  1
  O  O290  1  0.62303997  0.86479332  0.86791208  1
  O  O291  1  0.37339576  0.12355157  0.13544623  1
  O  O292  1  0.38752746  0.11895065  0.62527143  1
  O  O293  1  0.38195218  0.63066838  0.12853597  1
  O  O294  1  0.36469826  0.62277155  0.63954281  1
  O  O295  1  0.88132854  0.12353728  0.13393660  1
  O  O296  1  0.88793860  0.12479818  0.63142495  1
  O  O297  1  0.87960496  0.63196234  0.13378060  1
  O  O298  1  0.88531268  0.62543811  0.63658098  1
  O  O299  1  0.24307611  0.26289414  0.11132638  1
  O  O300  1  0.24022459  0.26442254  0.60782758  1
  O  O301  1  0.25825860  0.75674554  0.11782880  1
  O  O302  1  0.25623992  0.75530470  0.61087724  1
  O  O303  1  0.75100981  0.25687419  0.12147176  1
  O  O304  1  0.74968433  0.24266763  0.61310411  1
  O  O305  1  0.76312362  0.75060892  0.13235699  1
  O  O306  1  0.75088958  0.75036511  0.61877201  1
  O  O307  1  0.24189648  0.25220348  0.38441008  1
  O  O308  1  0.23568735  0.25485268  0.88752280  1
  O  O309  1  0.25718566  0.74159567  0.38608360  1
  O  O310  1  0.24505685  0.74387458  0.88176647  1
  O  O311  1  0.74787685  0.23564165  0.37847558  1
  O  O312  1  0.74598671  0.23740591  0.88424584  1
  O  O313  1  0.74629774  0.73938859  0.38277475  1
  O  O314  1  0.73697221  0.75003975  0.86888296  1
  O  O315  1  -0.00465430  0.11540921  0.01396896  1
  O  O316  1  0.00893595  0.12645852  0.50410473  1
  O  O317  1  0.00469416  0.62233966  0.00849026  1
  O  O318  1  0.00330906  0.62105068  0.50756137  1
  O  O319  1  0.50465343  0.11551889  -0.00404657  1
  O  O320  1  0.50720512  0.12359617  0.50788402  1
  O  O321  1  0.50599759  0.61768571  0.00386458  1
  O  O322  1  0.48822586  0.61148508  0.49275067  1
  O  O323  1  0.49027685  0.37983622  0.48978681  1
  O  O324  1  0.49162954  0.38192186  0.99573780  1
  O  O325  1  0.49345116  0.88050342  0.49472936  1
  O  O326  1  0.48841993  0.88551096  0.99424010  1
  O  O327  1  0.99530063  0.37995598  0.49341703  1
  O  O328  1  0.99229780  0.38334851  1.00539804  1
  O  O329  1  0.98516697  0.87040202  0.50202102  1
  O  O330  1  0.99580908  0.87768207  0.99224083  1
  O  O331  1  0.48901959  0.49373955  0.37769818  1
  O  O332  1  0.49370757  0.49991935  0.88489438  1
  O  O333  1  0.49179308  0.99579753  0.38094419  1
  O  O334  1  0.48530909  0.99804938  0.88228468  1
  O  O335  1  0.99389410  0.49605393  0.38172247  1
  O  O336  1  0.99066992  0.49758049  0.88504032  1
  O  O337  1  0.98806823  0.99491760  0.37053720  1
  O  O338  1  1.00734961  0.98697565  0.88606599  1
  O  O339  1  0.00607227  0.00450014  0.12207734  1
  O  O340  1  0.00605243  0.01977658  0.62499201  1
  O  O341  1  -0.00147955  0.51302195  0.12031283  1
  O  O342  1  0.01041013  0.50589946  0.62066410  1
  O  O343  1  0.49438241  -0.00184736  0.10471923  1
  O  O344  1  0.50934256  0.00967963  0.61964720  1
  O  O345  1  0.50721372  0.50136384  0.11400074  1
  O  O346  1  0.48970434  0.49992325  0.60620233  1
  O  O347  1  0.24914088  0.37696776  0.24160248  1
  O  O348  1  0.24163530  0.37347229  0.73828967  1
  O  O349  1  0.24364068  0.87073859  0.23920897  1
  O  O350  1  0.24124189  0.86579384  0.73742110  1
  O  O351  1  0.75639686  0.37729459  0.23889221  1
  O  O352  1  0.76516441  0.38031209  0.75070089  1
  O  O353  1  0.74867828  0.88818093  0.25211281  1
  O  O354  1  0.73798539  0.87975210  0.74716526  1
  O  O355  1  0.26712203  0.13626538  0.25224797  1
  O  O356  1  0.21712016  0.11723071  0.74230110  1
  O  O357  1  0.25823005  0.62058917  0.25426408  1
  O  O358  1  0.25549781  0.63327849  0.76250065  1
  O  O359  1  0.75603639  0.11794797  0.25843015  1
  O  O360  1  0.76413290  0.12211288  0.76025355  1
  O  O361  1  0.75711139  0.61528457  0.25890768  1
  O  O362  1  0.76396459  0.61690964  0.75192479  1
  O  O363  1  0.37405435  0.11941901  0.37288169  1
  O  O364  1  0.36848173  0.11078293  0.87255734  1
  O  O365  1  0.36697041  0.61896470  0.36531113  1
  O  O366  1  0.36684729  0.62010412  0.87042157  1
  O  O367  1  0.86924679  0.11758288  0.37133896  1
  O  O368  1  0.87174064  0.12285737  0.86882961  1
  O  O369  1  0.86614148  0.61788811  0.37011929  1
  O  O370  1  0.88175481  0.61656272  0.86911283  1
  O  O371  1  0.13281327  0.37820963  0.13257891  1
  O  O372  1  0.12917932  0.38305004  0.63406154  1
  O  O373  1  0.13278809  0.87833841  0.13170574  1
  O  O374  1  0.13500149  0.86723864  0.63277100  1
  O  O375  1  0.63394189  0.38615210  0.11601968  1
  O  O376  1  0.62431294  0.38849342  0.62249710  1
  O  O377  1  0.61420126  0.85976160  0.13480082  1
  O  O378  1  0.62506035  0.88572268  0.63253360  1
  O  O379  1  0.12599009  0.25523836  0.26119944  1
  O  O380  1  0.12170145  0.26069973  0.76708404  1
  O  O381  1  0.12576222  0.76611600  0.24429516  1
  O  O382  1  0.11642681  0.75350018  0.75615771  1
  O  O383  1  0.61071971  0.24404650  0.25409387  1
  O  O384  1  0.62946865  0.25083814  0.76002365  1
  O  O385  1  0.62278199  0.74300583  0.25299876  1
  O  O386  1  0.62044556  0.75675415  0.75662650  1
  O  O387  1  0.38651925  0.23981767  0.25130268  1
  O  O388  1  0.36759354  0.24010286  0.75631402  1
  O  O389  1  0.37076577  0.74032532  0.24181121  1
  O  O390  1  0.38168410  0.74246070  0.74832488  1
  O  O391  1  0.87621622  0.23415382  0.25047192  1
  O  O392  1  0.88266059  0.23099574  0.75584031  1
  O  O393  1  0.87327823  0.73687968  0.24602486  1
  O  O394  1  0.88151422  0.74231336  0.75031561  1
  O  O395  1  0.37835849  0.49125490  0.48915955  1
  O  O396  1  0.38276253  0.49599295  0.99165754  1
  O  O397  1  0.38155325  0.99510054  0.49281911  1
  O  O398  1  0.38057735  0.99451976  0.99272740  1
  O  O399  1  0.87999775  0.49300765  0.49653491  1
  O  O400  1  0.87940114  0.49472351  0.99791787  1
  O  O401  1  0.86637267  0.99089866  0.49083008  1
  O  O402  1  0.88875565  0.99276940  1.00946644  1
  O  O403  1  0.11175384  -0.00894965  0.01626441  1
  O  O404  1  0.12682606  0.01325209  0.49001742  1
  O  O405  1  0.11816886  0.50860474  0.00292536  1
  O  O406  1  0.11892521  0.50720289  0.50616947  1
  O  O407  1  0.60686464  0.00685405  -0.00918370  1
  O  O408  1  0.62053346  0.00815268  0.50782936  1
  O  O409  1  0.61864802  0.50454612  0.00026647  1
  O  O410  1  0.60709434  0.50440793  0.49742252  1
  O  O411  1  0.36765431  0.38018723  0.10987158  1
  O  O412  1  0.36344164  0.38285910  0.61503942  1
  O  O413  1  0.36776890  0.87371630  0.11789486  1
  O  O414  1  0.37133323  0.87647985  0.61222415  1
  O  O415  1  0.86833402  0.37446326  0.11749264  1
  O  O416  1  0.88451426  0.37745455  0.61366716  1
  O  O417  1  0.87784032  0.85808936  0.13358473  1
  O  O418  1  0.87162739  0.87646578  0.61976735  1
  O  O419  1  0.12505964  0.13152679  0.37938197  1
  O  O420  1  0.11663796  0.13690039  0.88360933  1
  O  O421  1  0.13988931  0.61866220  0.37779474  1
  O  O422  1  0.13186476  0.62992710  0.87962607  1
  O  O423  1  0.63121519  0.12324820  0.38897564  1
  O  O424  1  0.63321063  0.13184507  0.88044126  1
  O  O425  1  0.63608286  0.62226110  0.37130890  1
  O  O426  1  0.62241305  0.63696590  0.87505009  1
