# generated using pymatgen
data_V85Zn86O256
_symmetry_space_group_name_H-M   'P 1'
_cell_length_a   16.93863323
_cell_length_b   16.93217773
_cell_length_c   16.93282721
_cell_angle_alpha   89.97133106
_cell_angle_beta   89.99533351
_cell_angle_gamma   90.00911711
_symmetry_Int_Tables_number   1
_chemical_formula_structural   V85Zn86O256
_chemical_formula_sum   'V85 Zn86 O256'
_cell_volume   4856.46874792
_cell_formula_units_Z   1
loop_
 _symmetry_equiv_pos_site_id
 _symmetry_equiv_pos_as_xyz
  1  'x, y, z'
loop_
 _atom_site_type_symbol
 _atom_site_label
 _atom_site_symmetry_multiplicity
 _atom_site_fract_x
 _atom_site_fract_y
 _atom_site_fract_z
 _atom_site_occupancy
  V  V0  1  0.87078528  0.12304546  0.25060801  1
  V  V1  1  0.75288654  0.74926651  0.49532350  1
  V  V2  1  0.50727701  0.75428621  0.75266767  1
  V  V3  1  0.74498243  0.63403049  0.87113701  1
  V  V4  1  0.13226975  0.49773526  0.12594043  1
  V  V5  1  0.12489217  0.24747703  0.87735236  1
  V  V6  1  0.25643257  0.36876647  0.63517246  1
  V  V7  1  0.74376871  0.24207341  0.50011280  1
  V  V8  1  0.49860336  0.37528908  0.87235994  1
  V  V9  1  0.74926801  0.87627027  0.62519757  1
  V  V10  1  0.62591620  0.87640839  0.24695472  1
  V  V11  1  0.37491693  0.75414532  0.62300049  1
  V  V12  1  0.01123023  0.50285637  0.50116413  1
  V  V13  1  0.75435435  0.51607140  0.25147250  1
  V  V14  1  0.87610781  0.24898517  0.12335186  1
  V  V15  1  0.87392021  0.51298771  0.37289240  1
  V  V16  1  0.49730137  0.50000065  -0.00291469  1
  V  V17  1  0.26435393  0.11783252  0.38112544  1
  V  V18  1  0.87416018  0.50107652  0.87392921  1
  V  V19  1  -0.00534584  0.62596248  0.13697251  1
  V  V20  1  0.25011547  0.75421548  -0.00096626  1
  V  V21  1  0.37271692  0.62331858  0.25673830  1
  V  V22  1  0.37227701  0.75360463  0.12059177  1
  V  V23  1  0.75134914  0.01179757  0.74940556  1
  V  V24  1  0.24731105  0.61967222  0.86854438  1
  V  V25  1  0.50092347  0.62821773  0.62394553  1
  V  V26  1  0.49385955  0.25244967  0.74282040  1
  V  V27  1  0.12138027  0.76415595  0.87274715  1
  V  V28  1  0.37283399  -0.00952875  0.87549182  1
  V  V29  1  0.12961716  0.49778436  0.63726273  1
  V  V30  1  0.49181420  0.87823229  0.37496577  1
  V  V31  1  0.24758200  0.62486971  0.38489407  1
  V  V32  1  0.00311840  0.11655696  0.12599184  1
  V  V33  1  0.00939357  0.62779156  0.62501242  1
  V  V34  1  0.87993801  0.87660722  0.49531749  1
  V  V35  1  0.11891404  0.74983135  0.38072866  1
  V  V36  1  0.00096029  0.37460999  0.37612301  1
  V  V37  1  0.75332240  0.37598684  0.62401776  1
  V  V38  1  0.75110368  0.50173572  0.75057496  1
  V  V39  1  0.62539287  0.00596568  0.61708853  1
  V  V40  1  0.00221629  0.76376997  0.75299666  1
  V  V41  1  0.63162640  0.62218041  0.49504631  1
  V  V42  1  0.49943425  0.12912456  0.61779806  1
  V  V43  1  0.88352317  -0.00093347  0.86852353  1
  V  V44  1  0.13042495  0.37141555  0.24867632  1
  V  V45  1  0.12727862  0.11812485  0.00598048  1
  V  V46  1  0.87581463  0.37564677  0.49560393  1
  V  V47  1  0.25260004  0.24687261  0.50532183  1
  V  V48  1  0.62095344  0.63045612  -0.00654500  1
  V  V49  1  0.25082695  0.25023934  0.00647679  1
  V  V50  1  0.00414530  0.12476797  0.61956177  1
  V  V51  1  0.00213036  -0.00936006  -0.00006099  1
  V  V52  1  0.00125576  0.50240111  0.00176012  1
  V  V53  1  0.24817565  0.87909016  0.63679545  1
  V  V54  1  0.49793604  0.12754343  0.14155913  1
  V  V55  1  0.12342135  0.23581543  0.38071045  1
  V  V56  1  0.13005395  -0.00054111  0.64429644  1
  V  V57  1  0.62768223  0.00341340  0.11827115  1
  V  V58  1  0.74896039  0.75451354  -0.00210155  1
  V  V59  1  -0.00085775  0.37359836  0.87417454  1
  V  V60  1  0.37002572  0.37511604  0.00442734  1
  V  V61  1  0.87348263  0.37264291  -0.00031539  1
  V  V62  1  0.25331043  0.49655097  0.25721724  1
  V  V63  1  -0.00220678  0.24292745  0.75266101  1
  V  V64  1  0.49710365  0.01049865  -0.00181387  1
  V  V65  1  0.62682721  0.74671654  0.37335009  1
  V  V66  1  0.01133468  -0.00040722  0.49698459  1
  V  V67  1  0.62878080  0.50063316  0.62146632  1
  V  V68  1  0.50713195  0.87340239  0.88200443  1
  V  V69  1  0.37595066  0.24683354  0.13530288  1
  V  V70  1  0.26330175  0.00343894  0.25198334  1
  V  V71  1  0.24900929  0.88028543  0.12666101  1
  V  V72  1  0.11893452  0.88147857  0.25446717  1
  V  V73  1  0.87788815  -0.00248006  0.37459824  1
  V  V74  1  0.62309549  0.24006651  0.87967702  1
  V  V75  1  0.25198783  0.11906783  0.87173071  1
  V  V76  1  0.87814170  0.62796350  0.74887950  1
  V  V77  1  0.49855809  0.74869512  0.24948376  1
  V  V78  1  0.37328067  0.12047024  0.74471176  1
  V  V79  1  -0.00184634  0.24977574  0.25133695  1
  V  V80  1  0.49689284  0.62617267  0.12264941  1
  V  V81  1  0.49368989  0.00334398  0.49585511  1
  V  V82  1  0.74934979  0.37829360  0.12732621  1
  V  V83  1  0.62265830  0.37481172  0.74925042  1
  V  V84  1  0.87688579  0.24499522  0.62900463  1
  Zn  Zn85  1  0.74241909  0.11878566  0.38612440  1
  Zn  Zn86  1  0.12673745  0.37495374  0.75435902  1
  Zn  Zn87  1  0.62864354  0.87496640  0.75270073  1
  Zn  Zn88  1  0.24639660  0.75258150  0.50310650  1
  Zn  Zn89  1  0.37393782  0.37804289  0.49473522  1
  Zn  Zn90  1  0.74943279  -0.00196032  0.25033369  1
  Zn  Zn91  1  0.74046298  0.24461877  0.00305283  1
  Zn  Zn92  1  -0.00607773  0.75363223  0.25665032  1
  Zn  Zn93  1  0.62495104  0.50008350  0.12541575  1
  Zn  Zn94  1  0.75301068  0.12326549  0.88214126  1
  Zn  Zn95  1  0.87060132  0.74947581  0.13166782  1
  Zn  Zn96  1  0.48883479  0.49868659  0.48884769  1
  Zn  Zn97  1  0.48786793  0.37873548  0.36432250  1
  Zn  Zn98  1  0.87889837  0.75194225  0.62510180  1
  Zn  Zn99  1  0.60633677  0.24386088  0.35965728  1
  Zn  Zn100  1  0.61751046  0.37218924  0.25120799  1
  Zn  Zn101  1  0.37256568  0.62084114  0.74859507  1
  Zn  Zn102  1  0.88243606  0.86992171  -0.00274372  1
  Zn  Zn103  1  0.36988021  0.87846461  0.49726149  1
  Zn  Zn104  1  0.75231452  0.87471190  0.12291193  1
  Zn  Zn105  1  0.12473595  0.62772978  0.00179932  1
  Zn  Zn106  1  0.36586084  0.49285733  0.86311471  1
  Zn  Zn107  1  0.18977836  0.18374664  0.19080389  1
  Zn  Zn108  1  0.18430202  0.18476450  0.68976566  1
  Zn  Zn109  1  0.18263840  0.68772990  0.19178269  1
  Zn  Zn110  1  0.18567818  0.69239887  0.68916585  1
  Zn  Zn111  1  0.68588059  0.18460212  0.18185125  1
  Zn  Zn112  1  0.68313645  0.18881839  0.68590955  1
  Zn  Zn113  1  0.68439707  0.68744305  0.18166606  1
  Zn  Zn114  1  0.68808080  0.69128709  0.68424541  1
  Zn  Zn115  1  0.31515538  0.30927461  0.31980171  1
  Zn  Zn116  1  0.31353923  0.30788388  0.81457788  1
  Zn  Zn117  1  0.30821448  0.81001497  0.31114391  1
  Zn  Zn118  1  0.31596259  0.80808987  0.81001558  1
  Zn  Zn119  1  0.77726094  0.29538327  0.29680149  1
  Zn  Zn120  1  0.80979844  0.31039545  0.81189319  1
  Zn  Zn121  1  0.81429031  0.80956969  0.31127114  1
  Zn  Zn122  1  0.81642538  0.81816843  0.81210689  1
  Zn  Zn123  1  0.19142874  0.43073652  0.43841537  1
  Zn  Zn124  1  0.18596384  0.43546156  0.93935713  1
  Zn  Zn125  1  0.19126862  0.93386502  0.43845528  1
  Zn  Zn126  1  0.19008058  0.93818077  0.93921437  1
  Zn  Zn127  1  0.68505188  0.43338227  0.42903345  1
  Zn  Zn128  1  0.68487988  0.43887494  0.93719167  1
  Zn  Zn129  1  0.68618070  0.93687031  0.43600460  1
  Zn  Zn130  1  0.68608300  0.94276440  0.93527677  1
  Zn  Zn131  1  0.31577714  0.06021942  0.06327269  1
  Zn  Zn132  1  0.31131557  0.06270407  0.56210437  1
  Zn  Zn133  1  0.31111313  0.56534993  0.06047501  1
  Zn  Zn134  1  0.30872465  0.56169130  0.56724980  1
  Zn  Zn135  1  0.81264424  0.06171358  0.05730016  1
  Zn  Zn136  1  0.81983323  0.06231873  0.56624379  1
  Zn  Zn137  1  0.81207491  0.56521616  0.06023243  1
  Zn  Zn138  1  0.81861077  0.56558099  0.56030772  1
  Zn  Zn139  1  0.43455603  0.43715129  0.18629135  1
  Zn  Zn140  1  0.42215274  0.45381371  0.66123094  1
  Zn  Zn141  1  0.43801274  0.93757756  0.18510644  1
  Zn  Zn142  1  0.43759245  0.93861752  0.68843060  1
  Zn  Zn143  1  0.93642976  0.43986902  0.19033227  1
  Zn  Zn144  1  0.94092280  0.43581607  0.68707420  1
  Zn  Zn145  1  0.93360671  0.93319765  0.18301705  1
  Zn  Zn146  1  0.93537405  0.94104853  0.68360817  1
  Zn  Zn147  1  0.06098444  0.05676071  0.31057058  1
  Zn  Zn148  1  0.05942714  0.06539522  0.81481090  1
  Zn  Zn149  1  0.06740835  0.56207550  0.31602770  1
  Zn  Zn150  1  0.06368164  0.56890381  0.81486458  1
  Zn  Zn151  1  0.56664053  0.06302895  0.31557126  1
  Zn  Zn152  1  0.56017053  0.05962673  0.80526232  1
  Zn  Zn153  1  0.56554966  0.55590035  0.31063711  1
  Zn  Zn154  1  0.55850687  0.56158606  0.80943124  1
  Zn  Zn155  1  0.43859415  0.19463285  0.43710110  1
  Zn  Zn156  1  0.43593566  0.18714982  0.93607138  1
  Zn  Zn157  1  0.43855508  0.68690144  0.43854036  1
  Zn  Zn158  1  0.43267332  0.69054281  0.93450966  1
  Zn  Zn159  1  0.93356650  0.18526733  0.43868329  1
  Zn  Zn160  1  0.93395813  0.18027611  0.93807930  1
  Zn  Zn161  1  0.94170211  0.68809314  0.44187748  1
  Zn  Zn162  1  0.93767237  0.68784776  0.93788695  1
  Zn  Zn163  1  0.06316650  0.31123924  0.06466608  1
  Zn  Zn164  1  0.06778329  0.31354573  0.56240255  1
  Zn  Zn165  1  0.06941536  0.81066566  0.06811371  1
  Zn  Zn166  1  0.06519954  0.81777287  0.56439131  1
  Zn  Zn167  1  0.55841678  0.31379462  0.06755245  1
  Zn  Zn168  1  0.56002305  0.31518672  0.55535191  1
  Zn  Zn169  1  0.56148526  0.81525670  0.05818548  1
  Zn  Zn170  1  0.56364391  0.81556414  0.56012040  1
  O  O171  1  0.11634069  0.12947675  0.11728190  1
  O  O172  1  0.11822601  0.11069588  0.62768099  1
  O  O173  1  0.11573768  0.61578069  0.12342494  1
  O  O174  1  0.11765319  0.61670227  0.63083745  1
  O  O175  1  0.61045670  0.11726717  0.12840170  1
  O  O176  1  0.61399720  0.11655653  0.62795807  1
  O  O177  1  0.61344010  0.62289252  0.11408667  1
  O  O178  1  0.62308890  0.62166392  0.61533833  1
  O  O179  1  0.36654868  0.38343125  0.38031447  1
  O  O180  1  0.38087600  0.37324077  0.88512683  1
  O  O181  1  0.38846676  0.86556251  0.37443320  1
  O  O182  1  0.38074818  0.88672792  0.86806602  1
  O  O183  1  0.88278889  0.38237296  0.38826029  1
  O  O184  1  0.87826331  0.37980172  0.88111004  1
  O  O185  1  0.87110032  0.88230518  0.38706872  1
  O  O186  1  0.87147080  0.89218906  0.88097742  1
  O  O187  1  0.24753144  0.01018931  0.36906892  1
  O  O188  1  0.25790298  0.01012033  0.88003948  1
  O  O189  1  0.23790857  0.50974799  0.36633245  1
  O  O190  1  0.24666797  0.51567453  0.88195674  1
  O  O191  1  0.76199767  0.00080197  0.37456170  1
  O  O192  1  0.75583205  0.00199066  0.86495831  1
  O  O193  1  0.75975150  0.49794457  0.36067791  1
  O  O194  1  0.75518012  0.50908449  0.86998053  1
  O  O195  1  0.23664479  0.50563223  0.13088061  1
  O  O196  1  0.23904004  0.48361003  0.62452169  1
  O  O197  1  0.25441664  0.99406665  0.13833880  1
  O  O198  1  0.23616205  0.99727989  0.62437159  1
  O  O199  1  0.75272082  0.49750042  0.13190903  1
  O  O200  1  0.74522728  0.49898478  0.62943537  1
  O  O201  1  0.74030503  0.99647548  0.12537156  1
  O  O202  1  0.74556573  0.99634040  0.62863883  1
  O  O203  1  0.00667083  0.36967134  0.25646846  1
  O  O204  1  -0.00010826  0.36288382  0.75751614  1
  O  O205  1  0.01649362  0.87757728  0.24380780  1
  O  O206  1  -0.00631727  0.86257846  0.74344823  1
  O  O207  1  0.50491079  0.37935263  0.24489341  1
  O  O208  1  0.50445299  0.36657873  0.75162460  1
  O  O209  1  0.50812200  0.86982868  0.25463409  1
  O  O210  1  0.50202147  0.86951511  0.75748794  1
  O  O211  1  0.49468804  0.11760842  0.23916461  1
  O  O212  1  0.49325902  0.13098435  0.73980118  1
  O  O213  1  0.49157006  0.62912183  0.24403251  1
  O  O214  1  0.50531050  0.63454589  0.73680611  1
  O  O215  1  0.99238777  0.12720038  0.24307432  1
  O  O216  1  1.00204974  0.13668549  0.74128897  1
  O  O217  1  1.00406749  0.62210915  0.23854127  1
  O  O218  1  0.99518867  0.63303870  0.74452076  1
  O  O219  1  0.36800792  0.25490753  0.00410936  1
  O  O220  1  0.35521394  0.24753188  0.50093045  1
  O  O221  1  0.36692840  0.74777719  0.01264457  1
  O  O222  1  0.37656095  0.75226719  0.51316559  1
  O  O223  1  0.87994502  0.26274083  0.00247444  1
  O  O224  1  0.87575638  0.25818375  0.51355016  1
  O  O225  1  0.86390662  0.74987228  -0.00063424  1
  O  O226  1  0.86963365  0.75815988  0.50141323  1
  O  O227  1  0.13272913  0.25336232  0.48834069  1
  O  O228  1  0.13074331  0.24133922  0.99705652  1
  O  O229  1  0.12600674  0.75779146  0.48539064  1
  O  O230  1  0.13094535  0.74909024  0.98977707  1
  O  O231  1  0.64404257  0.25225904  0.50643070  1
  O  O232  1  0.62081323  0.25882445  0.98222866  1
  O  O233  1  0.63179431  0.74393065  0.49322072  1
  O  O234  1  0.62829295  0.73708735  1.00052725  1
  O  O235  1  0.49378995  0.23535719  0.12256161  1
  O  O236  1  0.50835223  0.24172008  0.63288828  1
  O  O237  1  0.49119337  0.74747138  0.12906035  1
  O  O238  1  0.49613536  0.74705199  0.62880233  1
  O  O239  1  0.99493214  0.24124928  0.13137337  1
  O  O240  1  0.99795004  0.24350404  0.63028822  1
  O  O241  1  1.00448506  0.73257009  0.12395996  1
  O  O242  1  1.00400908  0.74325947  0.63236578  1
  O  O243  1  0.00456799  0.25248389  0.37093935  1
  O  O244  1  0.00108995  0.25057707  0.86911188  1
  O  O245  1  0.01444958  0.74605512  0.37496869  1
  O  O246  1  0.01318919  0.74671751  0.87019000  1
  O  O247  1  0.49496366  0.25986153  0.37148373  1
  O  O248  1  0.50753156  0.25469661  0.86729498  1
  O  O249  1  0.50715736  0.75469521  0.36859089  1
  O  O250  1  0.49200636  0.76109903  0.86600992  1
  O  O251  1  0.24777247  0.12650111  0.48836008  1
  O  O252  1  0.24336244  0.12723662  0.99534720  1
  O  O253  1  0.25569465  0.62584063  0.48852607  1
  O  O254  1  0.24725440  0.63841514  0.99327692  1
  O  O255  1  0.75686034  0.13828481  0.50757620  1
  O  O256  1  0.75180800  0.13219078  0.99664651  1
  O  O257  1  0.74307269  0.63666488  0.50593712  1
  O  O258  1  0.74188467  0.63191663  0.99074216  1
  O  O259  1  0.25689962  0.36304842  -0.00522258  1
  O  O260  1  0.24909740  0.36497606  0.51323765  1
  O  O261  1  0.24497430  0.86444126  0.01116434  1
  O  O262  1  0.25366050  0.87371117  0.51259922  1
  O  O263  1  0.75887323  0.37667036  0.00678642  1
  O  O264  1  0.75987695  0.36877898  0.50619102  1
  O  O265  1  0.74196339  0.85990051  -0.00560981  1
  O  O266  1  0.75564535  0.86964301  0.50591327  1
  O  O267  1  0.13206951  0.49237669  0.24509666  1
  O  O268  1  0.11708705  0.49713531  0.74110803  1
  O  O269  1  0.13439052  0.98573952  0.25629679  1
  O  O270  1  0.12274272  1.00105934  0.74270828  1
  O  O271  1  0.64348146  0.49968224  0.24546721  1
  O  O272  1  0.63257143  0.49614338  0.74217653  1
  O  O273  1  0.62357543  0.99119922  0.23845850  1
  O  O274  1  0.63273721  0.99725901  0.73710524  1
  O  O275  1  0.36199417  -0.00511896  0.25281805  1
  O  O276  1  0.38204770  0.01228591  0.76009153  1
  O  O277  1  0.35837962  0.50910356  0.23793431  1
  O  O278  1  0.38669753  0.50758465  0.75270982  1
  O  O279  1  0.87677316  0.00406077  0.25816991  1
  O  O280  1  0.86878389  -0.00316437  0.75959498  1
  O  O281  1  0.86800316  0.50197937  0.25961230  1
  O  O282  1  0.87121519  0.50590258  0.75404486  1
  O  O283  1  0.11896840  0.36551794  0.36775429  1
  O  O284  1  0.11655733  0.36658487  0.87657042  1
  O  O285  1  0.13220628  0.86359371  0.36329523  1
  O  O286  1  0.12967749  0.86274211  0.87616157  1
  O  O287  1  0.62435876  0.36307672  0.37061355  1
  O  O288  1  0.61849234  0.37067285  0.86674257  1
  O  O289  1  0.61628732  0.86510687  0.36868349  1
  O  O290  1  0.61122910  0.88078891  0.87107206  1
  O  O291  1  0.38911711  0.13192509  0.11900198  1
  O  O292  1  0.38238144  0.11966672  0.63510688  1
  O  O293  1  0.37730908  0.63279311  0.13283396  1
  O  O294  1  0.38551159  0.63504333  0.62604750  1
  O  O295  1  0.88423617  0.12909232  0.12984172  1
  O  O296  1  0.88802015  0.13421316  0.62633046  1
  O  O297  1  0.89227462  0.62402780  0.11865890  1
  O  O298  1  0.88727675  0.62742236  0.63283360  1
  O  O299  1  0.25596883  0.23926625  0.11185726  1
  O  O300  1  0.23376189  0.25938014  0.61776943  1
  O  O301  1  0.25401842  0.75379404  0.11976717  1
  O  O302  1  0.25679896  0.75638201  0.62438543  1
  O  O303  1  0.76002983  0.26055085  0.12015771  1
  O  O304  1  0.75923689  0.25416376  0.62044798  1
  O  O305  1  0.74947588  0.75010493  0.11186335  1
  O  O306  1  0.75264202  0.75959191  0.61504154  1
  O  O307  1  0.24170518  0.23422797  0.37984101  1
  O  O308  1  0.24743086  0.23737328  0.88629133  1
  O  O309  1  0.24135006  0.74211095  0.37758374  1
  O  O310  1  0.24277509  0.74672456  0.88112290  1
  O  O311  1  0.76826362  0.24508486  0.39878270  1
  O  O312  1  0.73418987  0.24908046  0.87247909  1
  O  O313  1  0.74149069  0.75694586  0.38739602  1
  O  O314  1  0.75363374  0.73896718  0.87634374  1
  O  O315  1  0.00830945  0.11809567  0.00754810  1
  O  O316  1  -0.00436293  0.11664583  0.51174443  1
  O  O317  1  0.00185094  0.61196835  0.00328452  1
  O  O318  1  -0.00222113  0.61579666  0.51348802  1
  O  O319  1  0.49971893  0.11324305  -0.00051620  1
  O  O320  1  0.49326004  0.12042558  0.51065042  1
  O  O321  1  0.50348007  0.62089892  -0.00160742  1
  O  O322  1  0.51077974  0.62504251  0.51028462  1
  O  O323  1  0.49263000  0.37996369  0.49960816  1
  O  O324  1  0.49324417  0.38325168  0.99520790  1
  O  O325  1  0.49905482  0.88291407  0.49098924  1
  O  O326  1  0.49974587  0.88533080  0.99025951  1
  O  O327  1  0.99447395  0.38180070  0.49764358  1
  O  O328  1  0.99436684  0.38444735  0.99636156  1
  O  O329  1  0.98926723  0.88490260  0.50799920  1
  O  O330  1  1.00798822  0.88788941  1.00792511  1
  O  O331  1  0.50208769  0.49786217  0.37788316  1
  O  O332  1  0.49922273  0.49469468  0.88506656  1
  O  O333  1  0.50654733  0.99035215  0.38380567  1
  O  O334  1  0.49449665  0.99480778  0.88025056  1
  O  O335  1  0.99743428  0.49615231  0.38327310  1
  O  O336  1  0.99555805  0.49639195  0.88287060  1
  O  O337  1  0.98808357  1.00467689  0.38375056  1
  O  O338  1  0.99178738  1.00224861  0.88194115  1
  O  O339  1  -0.00362589  0.01095076  0.11773706  1
  O  O340  1  0.00970408  0.00668390  0.62121887  1
  O  O341  1  0.00640129  0.50759801  0.12030833  1
  O  O342  1  0.00726595  0.50625172  0.62015076  1
  O  O343  1  0.50163968  0.00944792  0.11795383  1
  O  O344  1  0.50804289  0.00628921  0.61898861  1
  O  O345  1  0.49675433  0.50827550  0.10988961  1
  O  O346  1  0.52182775  0.51172606  0.62773067  1
  O  O347  1  0.23691719  0.38148159  0.25514902  1
  O  O348  1  0.24466652  0.36432179  0.74093995  1
  O  O349  1  0.24472895  0.88570719  0.24813869  1
  O  O350  1  0.25455378  0.87176991  0.73702874  1
  O  O351  1  0.76287313  0.39012640  0.23236060  1
  O  O352  1  0.74512060  0.38138450  0.74307377  1
  O  O353  1  0.73475332  0.87524856  0.25065700  1
  O  O354  1  0.74975772  0.88278813  0.74013515  1
  O  O355  1  0.24495457  0.10997997  0.26093932  1
  O  O356  1  0.25987745  0.13198211  0.76030033  1
  O  O357  1  0.25485825  0.61875198  0.25857077  1
  O  O358  1  0.24965187  0.63144704  0.76540649  1
  O  O359  1  0.76538225  0.11919261  0.24375856  1
  O  O360  1  0.74726993  0.11428702  0.74919567  1
  O  O361  1  0.75112591  0.61492728  0.24315554  1
  O  O362  1  0.75536465  0.62341767  0.75415916  1
  O  O363  1  0.36191518  0.12363160  0.37751684  1
  O  O364  1  0.36868036  0.11677213  0.86884647  1
  O  O365  1  0.36744975  0.63157955  0.36298035  1
  O  O366  1  0.35755055  0.62704547  0.87469090  1
  O  O367  1  0.87211741  0.11686295  0.36665054  1
  O  O368  1  0.87314162  0.10692718  0.87541609  1
  O  O369  1  0.87807778  0.61165222  0.38539931  1
  O  O370  1  0.86800106  0.61913782  0.86831669  1
  O  O371  1  0.11735213  0.38403466  0.13624060  1
  O  O372  1  0.12870837  0.38291614  0.63149514  1
  O  O373  1  0.14018405  0.86831965  0.14120073  1
  O  O374  1  0.13122554  0.89092511  0.62553164  1
  O  O375  1  0.63668674  0.37907656  0.12230912  1
  O  O376  1  0.63284130  0.38427703  0.62830552  1
  O  O377  1  0.62372412  0.88206953  0.13192242  1
  O  O378  1  0.63706069  0.88195223  0.62370271  1
  O  O379  1  0.11976136  0.25571584  0.25524675  1
  O  O380  1  0.11481233  0.24897101  0.76052997  1
  O  O381  1  0.12213649  0.76047210  0.26042398  1
  O  O382  1  0.11750769  0.74888901  0.76443542  1
  O  O383  1  0.66793019  0.26369352  0.25813961  1
  O  O384  1  0.61600307  0.25566932  0.75689373  1
  O  O385  1  0.61982293  0.75398958  0.25535908  1
  O  O386  1  0.61212665  0.75431002  0.74383253  1
  O  O387  1  0.35814027  0.24973253  0.23281592  1
  O  O388  1  0.38861155  0.23825480  0.75845163  1
  O  O389  1  0.37658136  0.74171844  0.24052045  1
  O  O390  1  0.38664697  0.74586679  0.73863487  1
  O  O391  1  0.87773452  0.24155896  0.24521435  1
  O  O392  1  0.88128311  0.25674190  0.73758057  1
  O  O393  1  0.88200359  0.75418580  0.24592542  1
  O  O394  1  0.88294619  0.74477521  0.74904544  1
  O  O395  1  0.38805707  0.48694317  0.54667149  1
  O  O396  1  0.37861567  0.49225751  0.99677366  1
  O  O397  1  0.38968545  0.99714607  0.50478618  1
  O  O398  1  0.38311749  1.00201478  0.98856112  1
  O  O399  1  0.88384740  0.49219789  0.49688239  1
  O  O400  1  0.88114551  0.49097399  0.99530855  1
  O  O401  1  0.88301483  0.99439756  0.49483441  1
  O  O402  1  0.88668828  0.99713717  0.99088190  1
  O  O403  1  0.11920814  0.01134683  -0.00479265  1
  O  O404  1  0.11260613  -0.00523305  0.50002570  1
  O  O405  1  0.11710822  0.49868907  0.00909634  1
  O  O406  1  0.11404775  0.49286523  0.50819700  1
  O  O407  1  0.61575260  -0.00463683  0.01197066  1
  O  O408  1  0.61713212  -0.00440661  0.51100076  1
  O  O409  1  0.61610891  0.51079106  0.00027094  1
  O  O410  1  0.63537134  0.51071132  0.50514000  1
  O  O411  1  0.37833459  0.36413115  0.11042100  1
  O  O412  1  0.35644875  0.35957140  0.63407218  1
  O  O413  1  0.36210762  0.86533159  0.13307380  1
  O  O414  1  0.36920780  0.87016486  0.62476550  1
  O  O415  1  0.87386598  0.37162076  0.11578873  1
  O  O416  1  0.87249211  0.37069881  0.61627952  1
  O  O417  1  0.86979480  0.87086447  0.11464631  1
  O  O418  1  0.86385515  0.87705380  0.61450157  1
  O  O419  1  0.12440037  0.13412881  0.36910707  1
  O  O420  1  0.13256492  0.12864920  0.88261432  1
  O  O421  1  0.13359773  0.63972882  0.37060816  1
  O  O422  1  0.13518728  0.63394728  0.87939328  1
  O  O423  1  0.63228433  0.13261152  0.37017617  1
  O  O424  1  0.62153842  0.13839430  0.86784235  1
  O  O425  1  0.62237746  0.63810804  0.38161579  1
  O  O426  1  0.63381636  0.62001685  0.87971111  1
