# generated using pymatgen
data_V85Zn86O256
_symmetry_space_group_name_H-M   'P 1'
_cell_length_a   16.94529172
_cell_length_b   16.95210513
_cell_length_c   16.94878520
_cell_angle_alpha   89.97903117
_cell_angle_beta   90.02274731
_cell_angle_gamma   90.02298681
_symmetry_Int_Tables_number   1
_chemical_formula_structural   V85Zn86O256
_chemical_formula_sum   'V85 Zn86 O256'
_cell_volume   4868.67925501
_cell_formula_units_Z   1
loop_
 _symmetry_equiv_pos_site_id
 _symmetry_equiv_pos_as_xyz
  1  'x, y, z'
loop_
 _atom_site_type_symbol
 _atom_site_label
 _atom_site_symmetry_multiplicity
 _atom_site_fract_x
 _atom_site_fract_y
 _atom_site_fract_z
 _atom_site_occupancy
  V  V0  1  0.87381420  0.62337719  0.75078874  1
  V  V1  1  0.24744792  0.63880882  0.38196510  1
  V  V2  1  0.62327476  0.75010099  0.37538093  1
  V  V3  1  0.24309869  0.00101126  0.24293913  1
  V  V4  1  0.24459467  0.87208685  0.62623977  1
  V  V5  1  0.75027567  0.62748574  0.39109408  1
  V  V6  1  0.87578991  0.00008577  0.87188105  1
  V  V7  1  0.25369608  0.49682976  0.25490066  1
  V  V8  1  0.38131729  0.62708229  0.25062748  1
  V  V9  1  0.12480255  0.49676136  0.12474400  1
  V  V10  1  0.49777771  0.50089700  0.00884195  1
  V  V11  1  0.25039849  0.12692189  0.37460857  1
  V  V12  1  0.37656525  0.49636760  0.38980297  1
  V  V13  1  0.25064821  0.62609587  0.86206942  1
  V  V14  1  0.12540487  0.12622267  0.50216625  1
  V  V15  1  0.50385728  0.25292401  0.25368846  1
  V  V16  1  0.87723567  0.75266701  0.12894065  1
  V  V17  1  0.60928273  0.50047630  0.62071094  1
  V  V18  1  0.49797557  -0.00069346  0.49839973  1
  V  V19  1  0.12580037  0.62559856  -0.00543403  1
  V  V20  1  0.12330820  -0.00124890  0.63387013  1
  V  V21  1  0.49907730  0.74479732  0.74961521  1
  V  V22  1  0.87338599  0.87609144  -0.00434283  1
  V  V23  1  0.62276201  0.12785055  0.50254557  1
  V  V24  1  0.74603426  0.86949094  0.61583525  1
  V  V25  1  0.12511463  0.75274974  0.86405483  1
  V  V26  1  0.37484608  0.00010119  0.37354551  1
  V  V27  1  0.37688588  0.75810451  0.12796216  1
  V  V28  1  0.62446227  0.24800975  0.88017495  1
  V  V29  1  0.37094232  0.24719511  0.63846564  1
  V  V30  1  0.25269063  0.37438920  0.12674615  1
  V  V31  1  0.60812782  0.62815683  0.50640380  1
  V  V32  1  0.75064686  0.12918646  0.88004020  1
  V  V33  1  0.87541311  -0.00366252  0.37146218  1
  V  V34  1  0.37662143  0.74597634  0.62251472  1
  V  V35  1  0.63088164  0.38426916  0.25648558  1
  V  V36  1  -0.00015393  0.62546087  0.12425066  1
  V  V37  1  0.01785021  0.87238751  0.36850744  1
  V  V38  1  -0.00213034  0.48751719  -0.00736099  1
  V  V39  1  -0.00032041  0.39294966  0.37545569  1
  V  V40  1  0.49788847  0.37915435  0.38766055  1
  V  V41  1  0.37654438  0.24706209  0.12507157  1
  V  V42  1  0.87662017  0.13144311  0.74104764  1
  V  V43  1  0.25412484  0.12658828  0.86607230  1
  V  V44  1  0.11492867  0.49360488  0.62290379  1
  V  V45  1  0.49958106  0.37424566  0.87762714  1
  V  V46  1  0.75166252  0.75089793  -0.00122552  1
  V  V47  1  0.74983545  0.12877615  0.37594182  1
  V  V48  1  0.86927367  0.26318645  0.10878672  1
  V  V49  1  0.00263246  0.13038230  0.12368091  1
  V  V50  1  0.26308819  0.00009129  0.74741873  1
  V  V51  1  0.75088885  0.62136498  0.87496074  1
  V  V52  1  0.37781674  0.12462592  0.25088108  1
  V  V53  1  0.11471877  0.25085743  0.37043050  1
  V  V54  1  0.86855195  0.74723021  0.61536046  1
  V  V55  1  0.61857740  0.75255488  0.87724867  1
  V  V56  1  0.74802925  -0.00171705  0.74975782  1
  V  V57  1  0.87367036  0.62420808  0.25452084  1
  V  V58  1  0.50424842  -0.00981076  0.00241879  1
  V  V59  1  0.00100126  0.75148141  0.74417833  1
  V  V60  1  0.74851312  0.88065747  0.12557484  1
  V  V61  1  0.61940712  0.87293920  0.24907462  1
  V  V62  1  0.87964079  0.13685583  0.24839216  1
  V  V63  1  0.23991721  0.24600529  -0.00165576  1
  V  V64  1  0.37164247  0.87048100  0.50075949  1
  V  V65  1  0.37324690  0.50265812  0.87582810  1
  V  V66  1  0.62030633  0.87411981  0.75350255  1
  V  V67  1  0.00477091  0.87753227  0.86570378  1
  V  V68  1  -0.00008527  -0.00110275  0.50078709  1
  V  V69  1  0.62652027  0.62602775  0.00570633  1
  V  V70  1  0.37770243  0.61907723  0.74577790  1
  V  V71  1  0.75033393  0.37019918  0.62118049  1
  V  V72  1  0.62673959  0.12256519  0.00946496  1
  V  V73  1  0.61915772  0.37346134  0.74908661  1
  V  V74  1  0.24848748  0.75927711  -0.00393774  1
  V  V75  1  0.37646575  0.37341013  0.00172542  1
  V  V76  1  0.25808375  0.25731832  0.49866205  1
  V  V77  1  0.25616256  0.38584101  0.62529297  1
  V  V78  1  0.19053287  0.82923966  0.18031486  1
  V  V79  1  0.67699304  0.44611977  0.08018845  1
  V  V80  1  0.50423684  0.62930517  0.12930493  1
  V  V81  1  0.74579952  0.00335374  0.24530061  1
  V  V82  1  0.62224192  -0.00050122  0.62584712  1
  V  V83  1  -0.00541183  0.61722465  0.61113455  1
  V  V84  1  0.01369164  0.26266978  0.75124897  1
  Zn  Zn85  1  0.48852286  0.12036738  0.63269233  1
  Zn  Zn86  1  0.12667761  -0.00023603  0.11951233  1
  Zn  Zn87  1  0.00295926  0.00150375  -0.00116308  1
  Zn  Zn88  1  0.76184391  0.24319200  0.51164082  1
  Zn  Zn89  1  0.12527672  0.38516167  0.76867117  1
  Zn  Zn90  1  0.12142859  0.63003475  0.49214349  1
  Zn  Zn91  1  0.12379126  0.36860458  0.24915127  1
  Zn  Zn92  1  0.87003368  0.87174630  0.49448687  1
  Zn  Zn93  1  0.89342497  0.47884158  0.86671388  1
  Zn  Zn94  1  0.74847674  0.50269194  0.25125309  1
  Zn  Zn95  1  0.49869069  0.86885742  0.37074421  1
  Zn  Zn96  1  0.87436342  0.50424449  0.38981062  1
  Zn  Zn97  1  -0.00906623  0.13675962  0.61864751  1
  Zn  Zn98  1  0.01371077  0.75426906  0.25139854  1
  Zn  Zn99  1  0.12332997  0.12236531  -0.00811212  1
  Zn  Zn100  1  0.49022875  0.23851357  0.75911364  1
  Zn  Zn101  1  0.50868392  0.12046017  0.12874365  1
  Zn  Zn102  1  0.37630788  0.87465887  -0.00745386  1
  Zn  Zn103  1  0.38391749  -0.00550396  0.87256066  1
  Zn  Zn104  1  0.88743215  0.37148578  0.50864845  1
  Zn  Zn105  1  0.62790886  0.25567889  0.37942156  1
  Zn  Zn106  1  0.74846387  0.49904771  0.74735791  1
  Zn  Zn107  1  0.18825141  0.18495250  0.18728283  1
  Zn  Zn108  1  0.18758907  0.18855208  0.68691082  1
  Zn  Zn109  1  0.19305894  0.66737613  0.18734605  1
  Zn  Zn110  1  0.16738568  0.70548671  0.64724960  1
  Zn  Zn111  1  0.69318893  0.19736348  0.18967247  1
  Zn  Zn112  1  0.68055502  0.18644036  0.69321338  1
  Zn  Zn113  1  0.69033193  0.68950196  0.19260294  1
  Zn  Zn114  1  0.68527129  0.68512491  0.68501045  1
  Zn  Zn115  1  0.31317939  0.31327539  0.31517703  1
  Zn  Zn116  1  0.28219361  0.32996225  0.82705732  1
  Zn  Zn117  1  0.31999153  0.81179518  0.31360665  1
  Zn  Zn118  1  0.31469536  0.81719210  0.80941671  1
  Zn  Zn119  1  0.81500379  0.31465780  0.31554541  1
  Zn  Zn120  1  0.81135335  0.30679395  0.80129206  1
  Zn  Zn121  1  0.80811305  0.80956240  0.31292137  1
  Zn  Zn122  1  0.80957314  0.81012757  0.80687200  1
  Zn  Zn123  1  0.18338961  0.43992162  0.44312571  1
  Zn  Zn124  1  0.18863034  0.44102455  0.94090707  1
  Zn  Zn125  1  0.19146358  0.94024047  0.44024328  1
  Zn  Zn126  1  0.18582239  0.94179910  0.93244682  1
  Zn  Zn127  1  0.68913958  0.44363140  0.44093597  1
  Zn  Zn128  1  0.73064753  0.40743419  0.90848188  1
  Zn  Zn129  1  0.68563497  0.94035821  0.43433623  1
  Zn  Zn130  1  0.68449336  0.94101412  0.93761401  1
  Zn  Zn131  1  0.31555449  0.06144009  0.05981699  1
  Zn  Zn132  1  0.31072729  0.06399634  0.56234716  1
  Zn  Zn133  1  0.31175835  0.56800694  0.06118328  1
  Zn  Zn134  1  0.31105473  0.56419419  0.56347990  1
  Zn  Zn135  1  0.81701080  0.06633974  0.06174608  1
  Zn  Zn136  1  0.80914313  0.05646224  0.56050963  1
  Zn  Zn137  1  0.82087351  0.56400959  0.05962082  1
  Zn  Zn138  1  0.80760023  0.55065840  0.56409591  1
  Zn  Zn139  1  0.44163072  0.43729893  0.19280807  1
  Zn  Zn140  1  0.43332751  0.43231903  0.68745144  1
  Zn  Zn141  1  0.43874749  0.94299532  0.18137819  1
  Zn  Zn142  1  0.44009743  0.93159834  0.68644851  1
  Zn  Zn143  1  0.94047361  0.43598256  0.19369634  1
  Zn  Zn144  1  0.93573523  0.43538087  0.68823860  1
  Zn  Zn145  1  0.93944622  0.94299006  0.18816504  1
  Zn  Zn146  1  0.93377701  0.93695645  0.68465490  1
  Zn  Zn147  1  0.06145752  0.06441724  0.31083547  1
  Zn  Zn148  1  0.06475664  0.06997936  0.81242174  1
  Zn  Zn149  1  0.06612075  0.56664359  0.30913030  1
  Zn  Zn150  1  0.06538762  0.56404281  0.80318392  1
  Zn  Zn151  1  0.56471556  0.06208864  0.31378075  1
  Zn  Zn152  1  0.55847510  0.06324460  0.81619000  1
  Zn  Zn153  1  0.56293231  0.56136858  0.31710333  1
  Zn  Zn154  1  0.56310882  0.56121721  0.81500384  1
  Zn  Zn155  1  0.43865775  0.18910845  0.43962596  1
  Zn  Zn156  1  0.43541183  0.17943652  0.93804487  1
  Zn  Zn157  1  0.43696159  0.68879670  0.43483419  1
  Zn  Zn158  1  0.43678358  0.69039625  0.93895050  1
  Zn  Zn159  1  0.93446061  0.19031791  0.43963143  1
  Zn  Zn160  1  0.93853649  0.19158004  0.93508244  1
  Zn  Zn161  1  0.93809289  0.69400406  0.43408866  1
  Zn  Zn162  1  0.93886703  0.68542089  0.93556491  1
  Zn  Zn163  1  0.05790487  0.31067201  0.06602063  1
  Zn  Zn164  1  0.06147736  0.31024125  0.56271778  1
  Zn  Zn165  1  0.05588804  0.81122606  0.05013958  1
  Zn  Zn166  1  0.05936250  0.81198147  0.55339117  1
  Zn  Zn167  1  0.56221203  0.30514141  0.06267756  1
  Zn  Zn168  1  0.55892984  0.30916456  0.56591570  1
  Zn  Zn169  1  0.56474756  0.81098730  0.06773704  1
  Zn  Zn170  1  0.55849233  0.80936276  0.56173291  1
  O  O171  1  0.11154495  0.12617061  0.12593111  1
  O  O172  1  0.12412917  0.11880285  0.61375937  1
  O  O173  1  0.12084436  0.61339269  0.11775606  1
  O  O174  1  0.10552200  0.60931056  0.63366119  1
  O  O175  1  0.63114072  0.13594466  0.11220452  1
  O  O176  1  0.62605491  0.11532737  0.61738028  1
  O  O177  1  0.61612471  0.63555821  0.12000820  1
  O  O178  1  0.62458369  0.61580066  0.61547799  1
  O  O179  1  0.38085370  0.38940730  0.37034107  1
  O  O180  1  0.37713778  0.38395478  0.88245842  1
  O  O181  1  0.37865547  0.88079768  0.38269056  1
  O  O182  1  0.37397636  0.87988067  0.87811424  1
  O  O183  1  0.89208155  0.38051771  0.37003109  1
  O  O184  1  0.83667262  0.38372439  0.87590424  1
  O  O185  1  0.87269177  0.88718132  0.37399619  1
  O  O186  1  0.87739940  0.88213891  0.87382683  1
  O  O187  1  0.25658109  0.00729440  0.36853718  1
  O  O188  1  0.25174078  0.00547466  0.86128851  1
  O  O189  1  0.25971562  0.50103673  0.36969925  1
  O  O190  1  0.26274624  0.51665336  0.88627030  1
  O  O191  1  0.75737462  0.01009295  0.36983795  1
  O  O192  1  0.75650777  0.00519058  0.86781907  1
  O  O193  1  0.75162789  0.51292670  0.37258400  1
  O  O194  1  0.73653842  0.51851730  0.86961343  1
  O  O195  1  0.24518148  0.49672183  0.13034128  1
  O  O196  1  0.24428289  0.48966078  0.62095765  1
  O  O197  1  0.24894000  1.00370768  0.13502475  1
  O  O198  1  0.24341436  0.99591740  0.62959598  1
  O  O199  1  0.74823968  0.50415315  0.12832989  1
  O  O200  1  0.73282306  0.48728897  0.62934951  1
  O  O201  1  0.75798900  0.99232744  0.13278493  1
  O  O202  1  0.74173193  0.99076235  0.63124196  1
  O  O203  1  0.00988390  0.37964482  0.26809098  1
  O  O204  1  0.00344075  0.36754053  0.75447933  1
  O  O205  1  -0.00104321  0.87722851  0.26450142  1
  O  O206  1  -0.00872624  0.86594527  0.75643765  1
  O  O207  1  0.50862828  0.36930098  0.25874450  1
  O  O208  1  0.50647731  0.37250109  0.75940254  1
  O  O209  1  0.51635371  0.88540388  0.24905420  1
  O  O210  1  0.51292014  0.86364238  0.74740114  1
  O  O211  1  0.49758676  0.13326976  0.25042129  1
  O  O212  1  0.50459269  0.12675567  0.74412375  1
  O  O213  1  0.48983437  0.61883466  0.24372032  1
  O  O214  1  0.49433649  0.63665405  0.75613766  1
  O  O215  1  0.99065324  0.11887707  0.23829263  1
  O  O216  1  0.98486463  0.12002036  0.74285012  1
  O  O217  1  0.99686001  0.63344088  0.24313950  1
  O  O218  1  0.98654936  0.63119945  0.74390491  1
  O  O219  1  0.37297939  0.25355910  0.01070113  1
  O  O220  1  0.36096052  0.24700382  0.50248121  1
  O  O221  1  0.36499390  0.74944146  0.00918893  1
  O  O222  1  0.38097018  0.75850480  0.50849519  1
  O  O223  1  0.87683077  0.25148585  0.00882766  1
  O  O224  1  0.87358347  0.25785560  0.50139931  1
  O  O225  1  0.87044467  0.75574479  0.00550322  1
  O  O226  1  0.87377241  0.75248684  0.51147093  1
  O  O227  1  0.13261763  0.24174138  0.49166397  1
  O  O228  1  0.13796025  0.24889752  1.00644759  1
  O  O229  1  0.13416461  0.73377705  0.53810333  1
  O  O230  1  0.12972706  0.74447247  0.98869963  1
  O  O231  1  0.62272947  0.23548538  0.49990819  1
  O  O232  1  0.62180871  0.24231856  0.98741353  1
  O  O233  1  0.62230332  0.73581079  0.49850384  1
  O  O234  1  0.63195013  0.74738779  0.99348650  1
  O  O235  1  0.49382954  0.24853970  0.13810544  1
  O  O236  1  0.47916037  0.25237725  0.62640023  1
  O  O237  1  0.49114313  0.73722452  0.12004724  1
  O  O238  1  0.48741435  0.75293391  0.63574292  1
  O  O239  1  0.99142475  0.23738928  0.12475428  1
  O  O240  1  1.00207401  0.24951572  0.64129852  1
  O  O241  1  0.98915708  0.74942617  0.12512137  1
  O  O242  1  0.98661151  0.74281035  0.62955871  1
  O  O243  1  0.01430922  0.24634622  0.37325027  1
  O  O244  1  -0.00421908  0.23719490  0.84843236  1
  O  O245  1  0.00137579  0.76742622  0.37235637  1
  O  O246  1  0.00334572  0.75588570  0.86417710  1
  O  O247  1  0.49905073  0.25771261  0.36606951  1
  O  O248  1  0.50341609  0.25699639  0.87826970  1
  O  O249  1  0.51511042  0.75107091  0.37696417  1
  O  O250  1  0.51242787  0.74730878  0.87092073  1
  O  O251  1  0.24138435  0.13013682  0.49326207  1
  O  O252  1  0.24827869  0.13164445  0.99480654  1
  O  O253  1  0.25532495  0.62493902  0.48314333  1
  O  O254  1  0.24418201  0.63834048  0.99343225  1
  O  O255  1  0.74198744  0.12343872  0.49368100  1
  O  O256  1  0.74382840  0.11607180  0.98752790  1
  O  O257  1  0.74283818  0.62310878  0.49330002  1
  O  O258  1  0.74782667  0.63136260  0.99440319  1
  O  O259  1  0.25995985  0.36741621  0.01097520  1
  O  O260  1  0.24399832  0.36636396  0.51018172  1
  O  O261  1  0.24721239  0.86227607  -0.00451828  1
  O  O262  1  0.26437302  0.88257737  0.50886879  1
  O  O263  1  0.72697841  0.38614314  0.02078480  1
  O  O264  1  0.73800380  0.36953950  0.51516970  1
  O  O265  1  0.75381849  0.87154707  0.00668713  1
  O  O266  1  0.74857798  0.88213592  0.51213836  1
  O  O267  1  0.13906895  0.50298538  0.24134343  1
  O  O268  1  0.12281296  0.49617423  0.73223501  1
  O  O269  1  0.13964208  1.00456436  0.24931212  1
  O  O270  1  0.13016557  1.00614782  0.73566146  1
  O  O271  1  0.62505507  0.49239151  0.25043489  1
  O  O272  1  0.62156259  0.49353901  0.74087332  1
  O  O273  1  0.64006084  0.99424385  0.25621743  1
  O  O274  1  0.62746983  0.98999505  0.74755155  1
  O  O275  1  0.36957321  0.00479194  0.25428605  1
  O  O276  1  0.36601449  -0.00175620  0.74394018  1
  O  O277  1  0.36580422  0.50624645  0.25210602  1
  O  O278  1  0.38332505  0.51204115  0.75669322  1
  O  O279  1  0.86491906  0.00736516  0.25611004  1
  O  O280  1  0.86873382  0.00423457  0.75747127  1
  O  O281  1  0.87722840  0.51642271  0.25162679  1
  O  O282  1  0.87150509  0.50932840  0.75289606  1
  O  O283  1  0.11983311  0.36541045  0.37544053  1
  O  O284  1  0.17578658  0.36334856  0.86629368  1
  O  O285  1  0.11631483  0.87958497  0.37730731  1
  O  O286  1  0.11248319  0.86897013  0.87312009  1
  O  O287  1  0.61662767  0.37740613  0.37245021  1
  O  O288  1  0.62441016  0.36703312  0.86858143  1
  O  O289  1  0.62563844  0.86781646  0.36836175  1
  O  O290  1  0.63450923  0.86439446  0.86526839  1
  O  O291  1  0.37693728  0.13664061  0.13158813  1
  O  O292  1  0.36955517  0.14241633  0.62210328  1
  O  O293  1  0.37911444  0.63431642  0.13266438  1
  O  O294  1  0.36974115  0.63223627  0.63427938  1
  O  O295  1  0.88370045  0.13158532  0.13088424  1
  O  O296  1  0.87212682  0.11415362  0.63777102  1
  O  O297  1  0.88089174  0.63436631  0.13175267  1
  O  O298  1  0.87533413  0.62835453  0.63088685  1
  O  O299  1  0.25794104  0.25343549  0.12020736  1
  O  O300  1  0.25576785  0.25714795  0.61744531  1
  O  O301  1  0.25137474  0.75513137  0.12134616  1
  O  O302  1  0.26667560  0.76228637  0.63621757  1
  O  O303  1  0.77036628  0.25008270  0.12740643  1
  O  O304  1  0.73559860  0.26507396  0.62762635  1
  O  O305  1  0.76244777  0.75647989  0.12098994  1
  O  O306  1  0.75600383  0.75820896  0.63150948  1
  O  O307  1  0.24448982  0.24614683  0.38203263  1
  O  O308  1  0.26576179  0.23282916  0.88706028  1
  O  O309  1  0.25593311  0.73696819  0.37207413  1
  O  O310  1  0.24383945  0.74551547  0.87780464  1
  O  O311  1  0.74958938  0.23731195  0.37739927  1
  O  O312  1  0.73956885  0.23672806  0.86741707  1
  O  O313  1  0.73739345  0.74104492  0.37470906  1
  O  O314  1  0.74149623  0.74074730  0.87725944  1
  O  O315  1  0.00104321  0.12509405  0.00949956  1
  O  O316  1  0.00653999  0.11634310  0.50086523  1
  O  O317  1  0.00870245  0.62277528  0.00615259  1
  O  O318  1  -0.00295978  0.62814876  0.50885662  1
  O  O319  1  0.51153690  0.11984566  0.00513310  1
  O  O320  1  0.50519740  0.11708370  0.50456103  1
  O  O321  1  0.50504005  0.61876980  0.00741751  1
  O  O322  1  0.50987022  0.62420264  0.49921821  1
  O  O323  1  0.50197536  0.36881338  0.48640086  1
  O  O324  1  0.49630924  0.38250759  0.99900484  1
  O  O325  1  0.48994023  0.88277974  0.49914019  1
  O  O326  1  0.50634805  0.88661109  1.00546572  1
  O  O327  1  1.00647167  0.36804123  0.47927494  1
  O  O328  1  1.00881551  0.38898275  0.99778356  1
  O  O329  1  0.99622578  0.88204736  0.48683223  1
  O  O330  1  0.98921883  0.87624276  0.98281005  1
  O  O331  1  0.48438749  0.49439174  0.37181003  1
  O  O332  1  0.49527398  0.49643196  0.88980916  1
  O  O333  1  0.49537213  0.99839583  0.38562941  1
  O  O334  1  0.50164856  1.00493106  0.89551990  1
  O  O335  1  1.00357369  0.49565479  0.37662362  1
  O  O336  1  1.00610528  0.50504613  0.88714806  1
  O  O337  1  0.99488198  0.99275542  0.38040977  1
  O  O338  1  0.99278003  0.99334098  0.86962787  1
  O  O339  1  -0.00078240  0.01349090  0.12071085  1
  O  O340  1  0.00595686  -0.00427972  0.61306911  1
  O  O341  1  0.00893742  0.50325913  0.11754104  1
  O  O342  1  0.00447277  0.50230445  0.62360692  1
  O  O343  1  0.50331179  0.00590728  0.11221060  1
  O  O344  1  0.50373045  -0.00163693  0.61341725  1
  O  O345  1  0.49077724  0.51226250  0.11654468  1
  O  O346  1  0.51012007  0.49445522  0.62660881  1
  O  O347  1  0.24848840  0.38206216  0.24510686  1
  O  O348  1  0.24799754  0.37414583  0.72583612  1
  O  O349  1  0.25265076  0.88208943  0.24768562  1
  O  O350  1  0.25031857  0.88544779  0.73614385  1
  O  O351  1  0.73581659  0.37769081  0.25909148  1
  O  O352  1  0.73170023  0.37483201  0.73987534  1
  O  O353  1  0.74566138  0.88357398  0.24332203  1
  O  O354  1  0.73874296  0.87766414  0.74055513  1
  O  O355  1  0.25806245  0.11924989  0.25562122  1
  O  O356  1  0.24980518  0.11887496  0.75799840  1
  O  O357  1  0.26288048  0.61559165  0.26029537  1
  O  O358  1  0.26142014  0.63056222  0.76030831  1
  O  O359  1  0.75470509  0.12000550  0.25680420  1
  O  O360  1  0.75726300  0.11822135  0.75609354  1
  O  O361  1  0.75881334  0.62544121  0.26008461  1
  O  O362  1  0.75873238  0.62714755  0.75573747  1
  O  O363  1  0.37128987  0.12045529  0.37007477  1
  O  O364  1  0.36004035  0.11200801  0.88123532  1
  O  O365  1  0.37073690  0.61581423  0.36871615  1
  O  O366  1  0.37115890  0.62277347  0.86886114  1
  O  O367  1  0.87118943  0.11545787  0.36818258  1
  O  O368  1  0.86820331  0.11786070  0.86563383  1
  O  O369  1  0.86804361  0.62758641  0.37113750  1
  O  O370  1  0.86624032  0.62613028  0.86694354  1
  O  O371  1  0.13029874  0.38382432  0.12730392  1
  O  O372  1  0.13154277  0.38514269  0.62096413  1
  O  O373  1  0.12186743  0.87729626  0.12053547  1
  O  O374  1  0.13602773  0.88610485  0.61464521  1
  O  O375  1  0.61796333  0.37982610  0.13554338  1
  O  O376  1  0.62205910  0.38246599  0.63107931  1
  O  O377  1  0.64131502  0.86676273  0.13361159  1
  O  O378  1  0.62839066  0.87776205  0.63036989  1
  O  O379  1  0.13419552  0.24923550  0.26718167  1
  O  O380  1  0.11642339  0.25446726  0.74827087  1
  O  O381  1  0.13460267  0.75814645  0.23274982  1
  O  O382  1  0.10785831  0.74527742  0.74565906  1
  O  O383  1  0.61796325  0.25873121  0.25484361  1
  O  O384  1  0.61742557  0.25668595  0.76192659  1
  O  O385  1  0.62965582  0.76157995  0.26006370  1
  O  O386  1  0.61826419  0.75248151  0.75608280  1
  O  O387  1  0.38204910  0.24656425  0.24516375  1
  O  O388  1  0.36814163  0.25693479  0.73847197  1
  O  O389  1  0.37303863  0.73951200  0.24156272  1
  O  O390  1  0.38343828  0.74130314  0.74627233  1
  O  O391  1  0.87354250  0.23795704  0.25110872  1
  O  O392  1  0.87607926  0.23337086  0.74430330  1
  O  O393  1  0.87646120  0.74247468  0.24310749  1
  O  O394  1  0.88098594  0.74281080  0.74124254  1
  O  O395  1  0.37344764  0.50130065  0.48783870  1
  O  O396  1  0.38167843  0.49666560  0.99823055  1
  O  O397  1  0.38130147  0.99558632  0.49580366  1
  O  O398  1  0.39024527  0.99493430  1.00396830  1
  O  O399  1  0.87035302  0.48450095  0.50167642  1
  O  O400  1  0.89513722  0.50495345  0.99621942  1
  O  O401  1  0.88402809  0.99849452  0.49110424  1
  O  O402  1  0.87605463  0.99571186  0.98480243  1
  O  O403  1  0.12084523  0.00332327  0.00150515  1
  O  O404  1  0.11870371  0.00858980  0.50435779  1
  O  O405  1  0.12080478  0.50622603  0.00671217  1
  O  O406  1  0.12994670  0.51130439  0.51685421  1
  O  O407  1  0.61777262  0.00937566  -0.00009756  1
  O  O408  1  0.61641294  0.00763418  0.50254819  1
  O  O409  1  0.61744524  0.50563634  0.01386871  1
  O  O410  1  0.62419411  0.51248415  0.51199036  1
  O  O411  1  0.37386405  0.36477299  0.12437772  1
  O  O412  1  0.36293892  0.36776622  0.62133245  1
  O  O413  1  0.38091371  0.86083120  0.12294514  1
  O  O414  1  0.36906318  0.86818080  0.61807660  1
  O  O415  1  0.88577506  0.36129048  0.12866017  1
  O  O416  1  0.85284664  0.37671553  0.63264601  1
  O  O417  1  0.86886806  0.87048709  0.12086731  1
  O  O418  1  0.86398041  0.86592240  0.62319199  1
  O  O419  1  0.12811806  0.13293533  0.38223482  1
  O  O420  1  0.14514079  0.12155308  0.87562081  1
  O  O421  1  0.14226705  0.62457094  0.37364564  1
  O  O422  1  0.13327400  0.63176410  0.87317518  1
  O  O423  1  0.63396553  0.12522678  0.38382026  1
  O  O424  1  0.63294113  0.13058642  0.88246418  1
  O  O425  1  0.62854770  0.62927074  0.38731124  1
  O  O426  1  0.62915019  0.63339840  0.88470038  1
