# generated using pymatgen
data_V85Zn86O256
_symmetry_space_group_name_H-M   'P 1'
_cell_length_a   16.93840241
_cell_length_b   16.94306877
_cell_length_c   16.94148284
_cell_angle_alpha   89.95307509
_cell_angle_beta   90.00026733
_cell_angle_gamma   90.10268566
_symmetry_Int_Tables_number   1
_chemical_formula_structural   V85Zn86O256
_chemical_formula_sum   'V85 Zn86 O256'
_cell_volume   4862.00159432
_cell_formula_units_Z   1
loop_
 _symmetry_equiv_pos_site_id
 _symmetry_equiv_pos_as_xyz
  1  'x, y, z'
loop_
 _atom_site_type_symbol
 _atom_site_label
 _atom_site_symmetry_multiplicity
 _atom_site_fract_x
 _atom_site_fract_y
 _atom_site_fract_z
 _atom_site_occupancy
  V  V0  1  0.62466112  0.49939633  0.62371581  1
  V  V1  1  0.87497076  0.37264699  -0.00227254  1
  V  V2  1  0.37057504  0.24549267  0.13006019  1
  V  V3  1  0.24734990  0.37038305  0.11589011  1
  V  V4  1  0.37873640  0.88457664  0.49203114  1
  V  V5  1  0.60906928  0.37115688  0.75150054  1
  V  V6  1  0.87727595  0.12874454  0.75021000  1
  V  V7  1  0.74835801  0.25075873  -0.00515505  1
  V  V8  1  0.74193374  0.24718871  0.50287088  1
  V  V9  1  0.37742479  0.75213419  0.62245181  1
  V  V10  1  0.75136197  0.37408052  0.62230074  1
  V  V11  1  0.50074483  0.62604790  0.62407440  1
  V  V12  1  0.12591452  0.86753607  0.75477981  1
  V  V13  1  0.50610163  0.37794597  0.36612255  1
  V  V14  1  0.87439053  0.24854287  0.12479133  1
  V  V15  1  0.00215324  0.00307228  0.50102382  1
  V  V16  1  0.00299132  0.86814759  0.87853958  1
  V  V17  1  0.01586982  0.25301712  0.75402971  1
  V  V18  1  0.00320865  0.12826111  0.62481931  1
  V  V19  1  0.87713747  0.62344808  0.75086430  1
  V  V20  1  0.74588574  0.49601451  0.25135219  1
  V  V21  1  0.49848576  0.12743970  0.13201823  1
  V  V22  1  0.19640741  0.30697125  0.55443193  1
  V  V23  1  0.01856886  0.37140514  0.87407199  1
  V  V24  1  0.62281796  0.12343874  -0.00125595  1
  V  V25  1  -0.00026009  0.87478665  0.37963344  1
  V  V26  1  0.87898024  0.74768150  0.62556777  1
  V  V27  1  0.87874826  0.12605320  0.25297632  1
  V  V28  1  0.62286397  0.62784206  0.49729911  1
  V  V29  1  0.87587686  0.00223935  0.37777683  1
  V  V30  1  0.12811363  0.63930697  -0.00179921  1
  V  V31  1  0.00075603  0.62463166  0.12420753  1
  V  V32  1  0.12993534  0.25010009  0.36370890  1
  V  V33  1  0.12085537  -0.00214155  0.11417717  1
  V  V34  1  0.24480960  0.63518866  0.87616890  1
  V  V35  1  0.62441182  0.87264988  0.75104972  1
  V  V36  1  0.75126032  0.87374436  0.62632813  1
  V  V37  1  0.74147820  0.37090717  0.13092585  1
  V  V38  1  -0.00187468  0.74882621  0.25312290  1
  V  V39  1  0.01517836  0.38905315  0.40694702  1
  V  V40  1  0.37226398  0.62220511  0.74905776  1
  V  V41  1  0.49929034  0.62393071  0.11530328  1
  V  V42  1  0.60732050  0.25384649  0.87271650  1
  V  V43  1  0.61961869  0.75527577  0.35996013  1
  V  V44  1  0.37977290  0.62291480  0.24487548  1
  V  V45  1  0.74834710  -0.00690603  0.25095805  1
  V  V46  1  0.26300532  0.12561806  0.37156523  1
  V  V47  1  0.74377392  0.62415280  0.88253789  1
  V  V48  1  0.87911417  0.25362582  0.61871226  1
  V  V49  1  0.12454691  0.49596745  0.12612398  1
  V  V50  1  0.12318528  0.87640562  0.25444642  1
  V  V51  1  0.24712422  0.86111153  0.12368586  1
  V  V52  1  0.37719187  0.50119069  0.37487586  1
  V  V53  1  0.25055090  0.87746082  0.62561226  1
  V  V54  1  0.74831989  0.49645854  0.75012155  1
  V  V55  1  0.49940083  0.87601739  0.87608930  1
  V  V56  1  0.43013680  0.79322497  0.18285989  1
  V  V57  1  0.37663315  0.49783486  0.87630017  1
  V  V58  1  0.87603324  0.49658025  0.87681675  1
  V  V59  1  0.24888242  0.49578305  0.24463072  1
  V  V60  1  0.23675876  0.48754379  0.74029498  1
  V  V61  1  0.37600216  0.36734789  0.50125666  1
  V  V62  1  0.00097429  0.26357421  0.24955909  1
  V  V63  1  0.25438914  0.00498628  0.25276967  1
  V  V64  1  0.87571767  0.87968459  0.00269947  1
  V  V65  1  0.87574572  0.49130477  0.38535623  1
  V  V66  1  0.87321062  0.74948157  0.12603895  1
  V  V67  1  0.62363542  0.50158455  0.11989459  1
  V  V68  1  0.00337814  0.49940603  -0.00088788  1
  V  V69  1  0.88163953  0.00143282  0.87889535  1
  V  V70  1  0.24371181  0.74078961  0.50107409  1
  V  V71  1  0.62914080  0.25484868  0.36504310  1
  V  V72  1  0.25004215  0.00107653  0.75518117  1
  V  V73  1  0.62725795  -0.00648568  0.12590189  1
  V  V74  1  0.38490869  0.13059964  0.75309774  1
  V  V75  1  0.74395275  0.12348901  0.38064287  1
  V  V76  1  0.24825866  0.13629282  0.88143013  1
  V  V77  1  0.00984309  0.61398073  0.61432333  1
  V  V78  1  0.50438518  0.13059318  0.61317045  1
  V  V79  1  0.12058281  0.13706078  -0.00427552  1
  V  V80  1  0.75137468  0.00021721  0.74936176  1
  V  V81  1  0.38191222  0.36786511  -0.00468763  1
  V  V82  1  0.37130074  0.86213434  -0.00069652  1
  V  V83  1  0.13516767  0.12455030  0.49855836  1
  V  V84  1  0.75095806  0.74924385  0.49818374  1
  Zn  Zn85  1  0.50213202  0.25208477  0.24806443  1
  Zn  Zn86  1  0.50999651  0.00529116  0.48530797  1
  Zn  Zn87  1  0.12531021  0.00077032  0.62785635  1
  Zn  Zn88  1  0.74711232  0.74763974  0.00273393  1
  Zn  Zn89  1  0.37318446  -0.00016409  0.88143236  1
  Zn  Zn90  1  0.62205451  0.00395364  0.62079480  1
  Zn  Zn91  1  0.11642307  0.73926874  0.38585813  1
  Zn  Zn92  1  0.74781764  0.12587323  0.87299805  1
  Zn  Zn93  1  0.62098511  0.74469120  0.88054563  1
  Zn  Zn94  1  0.49611169  -0.00113380  0.00094678  1
  Zn  Zn95  1  0.49927489  0.49964980  0.49837531  1
  Zn  Zn96  1  0.87755026  0.87524899  0.50275385  1
  Zn  Zn97  1  0.24474356  0.62174885  0.37523901  1
  Zn  Zn98  1  0.00647686  0.74430536  0.75301613  1
  Zn  Zn99  1  0.50083823  0.87737709  0.35919702  1
  Zn  Zn100  1  0.50571247  0.50008067  -0.00883996  1
  Zn  Zn101  1  -0.00275083  0.12072615  0.11945553  1
  Zn  Zn102  1  0.37548090  0.25736778  0.63163906  1
  Zn  Zn103  1  0.75142797  0.62368730  0.37219923  1
  Zn  Zn104  1  0.87494118  0.62042592  0.25200229  1
  Zn  Zn105  1  0.50118630  0.75052339  0.74979983  1
  Zn  Zn106  1  0.74672723  0.87119825  0.12777923  1
  Zn  Zn107  1  0.18673693  0.18588526  0.18299879  1
  Zn  Zn108  1  0.19050013  0.18298385  0.69183752  1
  Zn  Zn109  1  0.18346929  0.68241099  0.19595408  1
  Zn  Zn110  1  0.18950849  0.68499922  0.68784620  1
  Zn  Zn111  1  0.68935183  0.18110568  0.18826615  1
  Zn  Zn112  1  0.68449246  0.18894993  0.69088682  1
  Zn  Zn113  1  0.68809575  0.68006205  0.18522033  1
  Zn  Zn114  1  0.68972223  0.68759140  0.69024720  1
  Zn  Zn115  1  0.31329374  0.31511008  0.30788104  1
  Zn  Zn116  1  0.31030601  0.31251411  0.81381549  1
  Zn  Zn117  1  0.30330506  0.81585662  0.31889138  1
  Zn  Zn118  1  0.31486763  0.81172878  0.81127971  1
  Zn  Zn119  1  0.81770348  0.31599272  0.31618470  1
  Zn  Zn120  1  0.81054852  0.31273914  0.81041710  1
  Zn  Zn121  1  0.81314786  0.81220609  0.31571381  1
  Zn  Zn122  1  0.81530581  0.81071515  0.81382738  1
  Zn  Zn123  1  0.18820630  0.43749731  0.42409604  1
  Zn  Zn124  1  0.19489734  0.44571172  0.93856110  1
  Zn  Zn125  1  0.18995527  0.93726462  0.43821580  1
  Zn  Zn126  1  0.19000708  0.93438097  0.93817589  1
  Zn  Zn127  1  0.68886734  0.43574021  0.44047128  1
  Zn  Zn128  1  0.68496017  0.43503879  0.93684905  1
  Zn  Zn129  1  0.68326715  0.93462277  0.43898509  1
  Zn  Zn130  1  0.69088607  0.93588489  0.93721768  1
  Zn  Zn131  1  0.31039153  0.05675997  0.06245454  1
  Zn  Zn132  1  0.31581302  0.06497233  0.56720825  1
  Zn  Zn133  1  0.31447782  0.56423906  0.05885655  1
  Zn  Zn134  1  0.31182704  0.55772273  0.56364816  1
  Zn  Zn135  1  0.81113426  0.06335944  0.06218425  1
  Zn  Zn136  1  0.81232740  0.06431465  0.56333592  1
  Zn  Zn137  1  0.81387022  0.55896980  0.06512418  1
  Zn  Zn138  1  0.81399761  0.56309825  0.56190622  1
  Zn  Zn139  1  0.43680582  0.43629655  0.18354749  1
  Zn  Zn140  1  0.43303695  0.44126151  0.68414936  1
  Zn  Zn141  1  0.43546611  0.95674026  0.18634237  1
  Zn  Zn142  1  0.43765064  0.94426597  0.68658220  1
  Zn  Zn143  1  0.93101670  0.43833764  0.18699070  1
  Zn  Zn144  1  0.93687757  0.43350357  0.69452110  1
  Zn  Zn145  1  0.93813156  0.93834895  0.18873058  1
  Zn  Zn146  1  0.94061447  0.93778906  0.68944657  1
  Zn  Zn147  1  0.06521191  0.06402546  0.31170894  1
  Zn  Zn148  1  0.06374286  0.05921566  0.81511326  1
  Zn  Zn149  1  0.06238734  0.56063692  0.31493123  1
  Zn  Zn150  1  0.06399780  0.56090324  0.81173871  1
  Zn  Zn151  1  0.56316470  0.06002177  0.31302591  1
  Zn  Zn152  1  0.56372347  0.05917042  0.81326048  1
  Zn  Zn153  1  0.56416105  0.56508300  0.30666095  1
  Zn  Zn154  1  0.56018635  0.55971414  0.80861334  1
  Zn  Zn155  1  0.44063429  0.19250167  0.43444962  1
  Zn  Zn156  1  0.43394066  0.18558873  0.94277554  1
  Zn  Zn157  1  0.43754547  0.69091496  0.43426516  1
  Zn  Zn158  1  0.43633177  0.68855344  0.93544078  1
  Zn  Zn159  1  0.94169442  0.19626401  0.43856134  1
  Zn  Zn160  1  0.94068620  0.18745753  0.93560948  1
  Zn  Zn161  1  0.93507413  0.68032428  0.43724303  1
  Zn  Zn162  1  0.93517474  0.68850077  0.93963304  1
  Zn  Zn163  1  0.06065889  0.31169135  0.06407771  1
  Zn  Zn164  1  0.05589077  0.43485769  0.56439445  1
  Zn  Zn165  1  0.05759223  0.81570265  0.06344368  1
  Zn  Zn166  1  0.06251316  0.81329480  0.56895245  1
  Zn  Zn167  1  0.56104089  0.31258577  0.06125670  1
  Zn  Zn168  1  0.56027332  0.31054415  0.55916864  1
  Zn  Zn169  1  0.56855225  0.81210100  0.05318643  1
  Zn  Zn170  1  0.56343565  0.81569437  0.56124346  1
  O  O171  1  0.12616431  0.11498135  0.11064109  1
  O  O172  1  0.12228681  0.12455789  0.61572552  1
  O  O173  1  0.11977766  0.61872388  0.11843414  1
  O  O174  1  0.10743879  0.62804799  0.63119632  1
  O  O175  1  0.62001053  0.11977750  0.11635010  1
  O  O176  1  0.60709191  0.12620918  0.63384512  1
  O  O177  1  0.61384675  0.61416131  0.12800030  1
  O  O178  1  0.62149364  0.62212219  0.61902413  1
  O  O179  1  0.38021249  0.38388872  0.37947940  1
  O  O180  1  0.36904378  0.38048803  0.88814673  1
  O  O181  1  0.37684182  0.86907699  0.38967391  1
  O  O182  1  0.38070801  0.87555345  0.88093038  1
  O  O183  1  0.88700646  0.38494832  0.37626436  1
  O  O184  1  0.87543672  0.38143038  0.88044641  1
  O  O185  1  0.88297803  0.88315773  0.37917327  1
  O  O186  1  0.87957135  0.88179802  0.88139694  1
  O  O187  1  0.24156469  0.00753972  0.36090634  1
  O  O188  1  0.25125261  0.00457135  0.86581447  1
  O  O189  1  0.25968769  0.49976087  0.36228069  1
  O  O190  1  0.26115133  0.50923116  0.86611308  1
  O  O191  1  0.75439899  0.00682152  0.37050384  1
  O  O192  1  0.76056351  0.00016812  0.86337876  1
  O  O193  1  0.75827216  0.49436265  0.36815605  1
  O  O194  1  0.75472961  0.50676210  0.87123259  1
  O  O195  1  0.24323282  0.49506231  0.12609211  1
  O  O196  1  0.24908118  0.50534169  0.64068365  1
  O  O197  1  0.23781595  0.99326403  0.13549105  1
  O  O198  1  0.25074521  0.99662194  0.63859726  1
  O  O199  1  0.74415377  0.49099401  0.12995157  1
  O  O200  1  0.74596224  0.49221737  0.62827968  1
  O  O201  1  0.74420340  1.00066647  0.13368430  1
  O  O202  1  0.75353455  0.99423727  0.63694444  1
  O  O203  1  -0.00186023  0.36366804  0.24244032  1
  O  O204  1  -0.00118562  0.36473476  0.76167363  1
  O  O205  1  0.00510880  0.87097523  0.25852591  1
  O  O206  1  0.00930106  0.87267723  0.75699654  1
  O  O207  1  0.49584835  0.37462798  0.26220090  1
  O  O208  1  0.50992072  0.37919110  0.74362930  1
  O  O209  1  0.48244256  0.86295667  0.23835756  1
  O  O210  1  0.50785330  0.87581782  0.75472718  1
  O  O211  1  0.50568135  0.12859943  0.23538260  1
  O  O212  1  0.48659424  0.12175707  0.75189157  1
  O  O213  1  0.48717455  0.62242211  0.23981954  1
  O  O214  1  0.49050841  0.62797655  0.74307536  1
  O  O215  1  0.98737229  0.13005075  0.25284400  1
  O  O216  1  0.99425470  0.13015156  0.74845325  1
  O  O217  1  0.99826959  0.63230682  0.24100803  1
  O  O218  1  0.98871959  0.62374003  0.74699728  1
  O  O219  1  0.37614337  0.26265781  0.00725545  1
  O  O220  1  0.37409435  0.26492942  0.49649894  1
  O  O221  1  0.37534906  0.76177949  -0.00063908  1
  O  O222  1  0.36736065  0.75530210  0.50888770  1
  O  O223  1  0.86674962  0.25047647  0.00416335  1
  O  O224  1  0.86464003  0.24191625  0.51451835  1
  O  O225  1  0.87152584  0.75744746  0.00990735  1
  O  O226  1  0.86768607  0.74834808  0.50765676  1
  O  O227  1  0.14094181  0.24379030  0.49027105  1
  O  O228  1  0.12563850  0.23522942  1.00427876  1
  O  O229  1  0.14065165  0.75664115  0.50468855  1
  O  O230  1  0.11953827  0.73841823  1.00570633  1
  O  O231  1  0.63719743  0.25182033  0.49014366  1
  O  O232  1  0.63091259  0.24516474  0.99353836  1
  O  O233  1  0.63214717  0.74168296  0.49805820  1
  O  O234  1  0.63491234  0.74926231  0.99284558  1
  O  O235  1  0.49364251  0.24427033  0.12552878  1
  O  O236  1  0.49521767  0.23692725  0.62100919  1
  O  O237  1  0.50057461  0.74367050  0.12452266  1
  O  O238  1  0.49238105  0.74528694  0.62633109  1
  O  O239  1  0.99225299  0.24447291  0.13155983  1
  O  O240  1  0.98869085  0.24276610  0.63849728  1
  O  O241  1  0.98943383  0.74733554  0.13132323  1
  O  O242  1  0.98970277  0.74151794  0.62790390  1
  O  O243  1  0.00761589  0.26047949  0.36777926  1
  O  O244  1  -0.00531508  0.26046837  0.86593187  1
  O  O245  1  -0.00236695  0.75613413  0.37256768  1
  O  O246  1  -0.00866417  0.76339168  0.87100529  1
  O  O247  1  0.51190813  0.25726396  0.37112003  1
  O  O248  1  0.50845644  0.24793229  0.88077517  1
  O  O249  1  0.51472692  0.75457787  0.37565189  1
  O  O250  1  0.49996490  0.76140708  0.86965165  1
  O  O251  1  0.24145154  0.11477092  0.49065619  1
  O  O252  1  0.24179759  0.11796936  0.98721061  1
  O  O253  1  0.25553036  0.63822611  0.50103694  1
  O  O254  1  0.24341139  0.62098313  0.98559949  1
  O  O255  1  0.75302346  0.13283498  0.49181150  1
  O  O256  1  0.73909052  0.13322502  0.99926971  1
  O  O257  1  0.74327406  0.63523308  0.49973221  1
  O  O258  1  0.75737421  0.62094626  0.98459509  1
  O  O259  1  0.26212847  0.38097843  0.01007179  1
  O  O260  1  0.25552027  0.37384541  0.49758366  1
  O  O261  1  0.25721151  0.87748860  0.01231345  1
  O  O262  1  0.26043573  0.86911815  0.50570882  1
  O  O263  1  0.75398726  0.36658836  0.00624081  1
  O  O264  1  0.74761235  0.36635956  0.51469339  1
  O  O265  1  0.76365111  0.87378182  0.00295777  1
  O  O266  1  0.75314300  0.86212689  0.50665560  1
  O  O267  1  0.13373625  0.50377936  0.23442181  1
  O  O268  1  0.13740491  0.49713818  0.75459928  1
  O  O269  1  0.12829472  0.98995456  0.24328235  1
  O  O270  1  0.13304420  0.99166963  0.74963611  1
  O  O271  1  0.63705699  0.50051534  0.23991397  1
  O  O272  1  0.63016541  0.49262989  0.74308168  1
  O  O273  1  0.63825696  1.00953648  0.23872904  1
  O  O274  1  0.63477795  0.99043570  0.74784466  1
  O  O275  1  0.35376061  0.00120927  0.24727552  1
  O  O276  1  0.36718116  0.01223467  0.75435119  1
  O  O277  1  0.37051012  0.50490172  0.25457671  1
  O  O278  1  0.36998349  0.51079736  0.75383168  1
  O  O279  1  0.87115829  0.00817160  0.25696506  1
  O  O280  1  0.87119926  0.01039586  0.75435161  1
  O  O281  1  0.85984418  0.49858829  0.25256926  1
  O  O282  1  0.86805182  0.50488695  0.75706486  1
  O  O283  1  0.12182445  0.35678238  0.36619532  1
  O  O284  1  0.11693868  0.37826432  0.88690936  1
  O  O285  1  0.11793133  0.87246179  0.36891489  1
  O  O286  1  0.11459739  0.88016088  0.86990690  1
  O  O287  1  0.61819955  0.36813938  0.37927643  1
  O  O288  1  0.62649628  0.36675102  0.86503925  1
  O  O289  1  0.62675023  0.85868307  0.37258120  1
  O  O290  1  0.61811844  0.87599260  0.86756307  1
  O  O291  1  0.38378916  0.13368671  0.11377238  1
  O  O292  1  0.38353990  0.12963066  0.63736774  1
  O  O293  1  0.38311373  0.62253255  0.13154176  1
  O  O294  1  0.37944676  0.63111661  0.63019357  1
  O  O295  1  0.87563850  0.13016448  0.13339041  1
  O  O296  1  0.88134868  0.13063960  0.63325761  1
  O  O297  1  0.88194797  0.63250392  0.12494218  1
  O  O298  1  0.88109478  0.62854856  0.63288291  1
  O  O299  1  0.25575370  0.25860203  0.12749836  1
  O  O300  1  0.25262583  0.24957272  0.61952594  1
  O  O301  1  0.24178067  0.76247816  0.13406311  1
  O  O302  1  0.25719577  0.75411088  0.61749195  1
  O  O303  1  0.75182675  0.25375268  0.11616623  1
  O  O304  1  0.75304085  0.25381961  0.61981048  1
  O  O305  1  0.76179096  0.75036308  0.12804101  1
  O  O306  1  0.76081157  0.75126826  0.61967891  1
  O  O307  1  0.24188264  0.23953993  0.35801790  1
  O  O308  1  0.24881971  0.23470361  0.87524410  1
  O  O309  1  0.24776766  0.74809333  0.39185171  1
  O  O310  1  0.25289525  0.73397614  0.87042100  1
  O  O311  1  0.74807022  0.24608036  0.38279055  1
  O  O312  1  0.74673356  0.24896527  0.88652492  1
  O  O313  1  0.74290122  0.74757545  0.38338342  1
  O  O314  1  0.75494937  0.73156446  0.87314082  1
  O  O315  1  0.01514071  0.12441300  -0.00191763  1
  O  O316  1  0.01262583  0.12424275  0.50318375  1
  O  O317  1  0.00650107  0.61969976  0.00370292  1
  O  O318  1  -0.00149745  0.62485023  0.51591526  1
  O  O319  1  0.51106193  0.12393023  0.00704558  1
  O  O320  1  0.49456916  0.12396225  0.50978626  1
  O  O321  1  0.49225927  0.62133193  0.01110786  1
  O  O322  1  0.50736070  0.62571491  0.50458761  1
  O  O323  1  0.49184455  0.37745920  0.48742962  1
  O  O324  1  0.48527264  0.37961161  1.00370089  1
  O  O325  1  0.48375984  0.87380343  0.50332217  1
  O  O326  1  0.49227366  0.87602850  0.99201947  1
  O  O327  1  0.98946703  0.35526117  0.49699321  1
  O  O328  1  0.99315730  0.37722101  0.99355325  1
  O  O329  1  1.00074218  0.88258608  0.49691773  1
  O  O330  1  0.98712172  0.87402695  0.99300639  1
  O  O331  1  0.49493328  0.49583339  0.37456032  1
  O  O332  1  0.48315792  0.50756333  0.87418222  1
  O  O333  1  0.50260945  0.99002552  0.37149652  1
  O  O334  1  0.49771263  0.98765849  0.87707955  1
  O  O335  1  0.98177997  0.49021443  0.35763336  1
  O  O336  1  0.99519369  0.49173034  0.88001995  1
  O  O337  1  0.99702791  0.99641012  0.38210788  1
  O  O338  1  0.98666018  0.98954823  0.86842222  1
  O  O339  1  0.01603891  0.00276315  0.13205960  1
  O  O340  1  0.00078499  0.00869460  0.61792166  1
  O  O341  1  0.00589443  0.50272538  0.12009762  1
  O  O342  1  -0.00313293  0.50711285  0.62846805  1
  O  O343  1  0.50993758  0.00957413  0.12140886  1
  O  O344  1  0.49919052  0.01739268  0.62416549  1
  O  O345  1  0.50799113  0.50565997  0.12377510  1
  O  O346  1  0.50685178  0.50867412  0.62032898  1
  O  O347  1  0.25802038  0.38902786  0.23417859  1
  O  O348  1  0.25563698  0.38880786  0.75123261  1
  O  O349  1  0.24075349  0.88305732  0.24704587  1
  O  O350  1  0.24581251  0.88153802  0.74776992  1
  O  O351  1  0.75486522  0.37800289  0.23931250  1
  O  O352  1  0.74238826  0.37901004  0.73997228  1
  O  O353  1  0.75780054  0.88973918  0.24917942  1
  O  O354  1  0.74619470  0.88069760  0.74770639  1
  O  O355  1  0.24039209  0.11137514  0.25536435  1
  O  O356  1  0.25541368  0.11830978  0.76225444  1
  O  O357  1  0.26192412  0.61242842  0.24595337  1
  O  O358  1  0.25469339  0.61962723  0.75889660  1
  O  O359  1  0.76234349  0.11869129  0.25790712  1
  O  O360  1  0.75744032  0.11715433  0.75039670  1
  O  O361  1  0.75307590  0.61166965  0.25223060  1
  O  O362  1  0.76069652  0.61709876  0.75521908  1
  O  O363  1  0.36230374  0.13139002  0.37761577  1
  O  O364  1  0.36527046  0.12346006  0.87097665  1
  O  O365  1  0.37436412  0.61504832  0.36790658  1
  O  O366  1  0.36589313  0.62127416  0.86757914  1
  O  O367  1  0.86790376  0.12348404  0.37069806  1
  O  O368  1  0.87339869  0.11821633  0.86851640  1
  O  O369  1  0.87238726  0.60953119  0.37208163  1
  O  O370  1  0.87025501  0.61685697  0.86851934  1
  O  O371  1  0.13373577  0.38375442  0.11611383  1
  O  O372  1  0.13280848  0.36018935  0.60834189  1
  O  O373  1  0.12829815  0.88265622  0.13003166  1
  O  O374  1  0.13281841  0.87902220  0.63482478  1
  O  O375  1  0.63564074  0.37839986  0.12198769  1
  O  O376  1  0.62989550  0.37859624  0.62925813  1
  O  O377  1  0.62624975  0.88963689  0.12058678  1
  O  O378  1  0.63362553  0.87291707  0.63529311  1
  O  O379  1  0.11112151  0.23695300  0.25366164  1
  O  O380  1  0.11473185  0.24363880  0.75098059  1
  O  O381  1  0.11630130  0.76363277  0.24944938  1
  O  O382  1  0.12640031  0.76314952  0.74727019  1
  O  O383  1  0.62981104  0.24924135  0.26137270  1
  O  O384  1  0.62879237  0.25918379  0.76189616  1
  O  O385  1  0.63025809  0.74483830  0.26209277  1
  O  O386  1  0.62663403  0.76140738  0.75531078  1
  O  O387  1  0.37896990  0.25434778  0.23360839  1
  O  O388  1  0.36910825  0.23481027  0.75073614  1
  O  O389  1  0.36835870  0.74232440  0.25131972  1
  O  O390  1  0.37288130  0.73996701  0.73769330  1
  O  O391  1  0.88034436  0.24362171  0.24647415  1
  O  O392  1  0.87347894  0.23781328  0.74457388  1
  O  O393  1  0.88094979  0.74861520  0.24439108  1
  O  O394  1  0.87544414  0.73987074  0.74159189  1
  O  O395  1  0.37433623  0.49298785  0.48907650  1
  O  O396  1  0.37604201  0.49013515  0.99159313  1
  O  O397  1  0.37457791  0.98569060  0.50478548  1
  O  O398  1  0.37677058  0.98595403  1.00123021  1
  O  O399  1  0.87040299  0.49930855  0.48486082  1
  O  O400  1  0.88321895  0.49332366  0.99675032  1
  O  O401  1  0.88345814  1.00111134  0.49490396  1
  O  O402  1  0.87086556  0.99497086  0.99066545  1
  O  O403  1  0.12819424  0.00195479  0.01207153  1
  O  O404  1  0.11923782  0.00775368  0.50156650  1
  O  O405  1  0.12081848  0.50895331  0.00926187  1
  O  O406  1  0.08599275  0.46551716  0.45990795  1
  O  O407  1  0.62723918  0.00876777  0.00550228  1
  O  O408  1  0.62255979  -0.00589457  0.50816085  1
  O  O409  1  0.62393881  0.49469595  0.01310199  1
  O  O410  1  0.62680122  0.51353845  0.50405886  1
  O  O411  1  0.36909570  0.36888319  0.11386376  1
  O  O412  1  0.37990060  0.37497447  0.60838800  1
  O  O413  1  0.37048889  0.86656872  0.12446845  1
  O  O414  1  0.37002215  0.86753149  0.62210893  1
  O  O415  1  0.86420986  0.36758753  0.11685106  1
  O  O416  1  0.86468993  0.36320425  0.63538565  1
  O  O417  1  0.87572966  0.86912583  0.11900853  1
  O  O418  1  0.87124855  0.86476934  0.62652782  1
  O  O419  1  0.12895326  0.13356136  0.38268921  1
  O  O420  1  0.13444324  0.11882263  0.88689008  1
  O  O421  1  0.13160176  0.62900950  0.36651438  1
  O  O422  1  0.13641149  0.62210537  0.88173878  1
  O  O423  1  0.63964298  0.13378699  0.36951712  1
  O  O424  1  0.62625588  0.13136599  0.88159687  1
  O  O425  1  0.62660225  0.63344780  0.38230731  1
  O  O426  1  0.64092644  0.62191349  0.86580442  1
