# generated using pymatgen
data_V85Zn86O256
_symmetry_space_group_name_H-M   'P 1'
_cell_length_a   16.93809425
_cell_length_b   16.93535312
_cell_length_c   16.93125487
_cell_angle_alpha   89.97333965
_cell_angle_beta   90.03877305
_cell_angle_gamma   90.01890095
_symmetry_Int_Tables_number   1
_chemical_formula_structural   V85Zn86O256
_chemical_formula_sum   'V85 Zn86 O256'
_cell_volume   4856.77270176
_cell_formula_units_Z   1
loop_
 _symmetry_equiv_pos_site_id
 _symmetry_equiv_pos_as_xyz
  1  'x, y, z'
loop_
 _atom_site_type_symbol
 _atom_site_label
 _atom_site_symmetry_multiplicity
 _atom_site_fract_x
 _atom_site_fract_y
 _atom_site_fract_z
 _atom_site_occupancy
  V  V0  1  0.49530439  0.37294309  0.87968384  1
  V  V1  1  0.00125352  0.50287489  -0.00298683  1
  V  V2  1  0.50222056  0.00048120  0.00141000  1
  V  V3  1  0.74847367  0.12194556  0.37310574  1
  V  V4  1  0.00139751  0.37481693  0.87518010  1
  V  V5  1  0.37534348  0.87150762  0.49977647  1
  V  V6  1  0.24480059  0.12453375  0.89185191  1
  V  V7  1  0.12669694  0.50078042  0.62568723  1
  V  V8  1  0.00220455  0.74925658  0.25812284  1
  V  V9  1  0.62476500  0.24621046  0.87744579  1
  V  V10  1  0.44222225  0.18423593  0.58064887  1
  V  V11  1  0.12843304  0.24441836  0.38821322  1
  V  V12  1  0.87911100  0.12337235  0.75386584  1
  V  V13  1  0.49865605  0.49512960  0.49768451  1
  V  V14  1  0.00117130  0.37363845  0.37580267  1
  V  V15  1  0.87652236  -0.00640064  0.37698205  1
  V  V16  1  0.00250573  0.87388384  0.88978151  1
  V  V17  1  0.00523314  0.11952108  0.10861558  1
  V  V18  1  0.75214052  0.37663522  0.62683856  1
  V  V19  1  0.87061022  0.61925360  0.25065987  1
  V  V20  1  0.00043662  0.63886487  0.62781670  1
  V  V21  1  0.87672865  0.50288298  0.87140467  1
  V  V22  1  0.12614079  0.37338365  0.25066838  1
  V  V23  1  0.50322291  0.74170047  0.24951258  1
  V  V24  1  0.87826224  0.64067216  0.74636119  1
  V  V25  1  0.62642840  -0.00160112  0.12491441  1
  V  V26  1  0.37595877  -0.00255753  0.36487142  1
  V  V27  1  0.87567293  0.24843522  0.62674815  1
  V  V28  1  0.24840034  0.86983664  0.62714623  1
  V  V29  1  0.75769237  0.87246833  0.62542246  1
  V  V30  1  0.75087330  0.12068048  0.88036597  1
  V  V31  1  -0.00147524  0.62790846  0.12457621  1
  V  V32  1  0.87282683  0.25071723  0.12442161  1
  V  V33  1  0.62454225  0.87608219  0.74972533  1
  V  V34  1  0.87791520  0.12166400  0.24874672  1
  V  V35  1  0.63466909  0.87125447  0.24767793  1
  V  V36  1  0.12748930  0.62820672  0.48834172  1
  V  V37  1  0.12556823  0.50004614  0.12486057  1
  V  V38  1  0.86618459  0.75534913  0.12335991  1
  V  V39  1  0.37642349  0.14386084  0.24323666  1
  V  V40  1  0.50344940  0.13847968  0.12508494  1
  V  V41  1  0.12144097  0.63116060  -0.00541878  1
  V  V42  1  0.24475429  0.61786279  0.87280188  1
  V  V43  1  0.75226507  0.50158322  0.74917497  1
  V  V44  1  0.37018223  0.62593401  0.25938014  1
  V  V45  1  0.36985229  0.35498602  -0.00039129  1
  V  V46  1  0.12938778  0.37257310  0.75218375  1
  V  V47  1  0.00721085  0.12513645  0.62247944  1
  V  V48  1  0.11581502  0.85881177  0.75522107  1
  V  V49  1  0.62667491  0.50556907  0.61949171  1
  V  V50  1  0.37056847  0.12611417  0.75113569  1
  V  V51  1  0.62457459  0.12652989  0.50505363  1
  V  V52  1  0.74758430  0.61595307  0.37656508  1
  V  V53  1  0.37709535  0.48783508  0.37481791  1
  V  V54  1  0.74784501  0.62674775  0.88266017  1
  V  V55  1  0.61417283  0.51418254  0.11682398  1
  V  V56  1  0.62581004  0.73675486  0.38094209  1
  V  V57  1  0.43152772  0.54817687  0.93070307  1
  V  V58  1  0.74806143  0.38675499  0.13330402  1
  V  V59  1  0.24782191  0.12592724  0.38433719  1
  V  V60  1  0.37707243  0.61940670  0.74446137  1
  V  V61  1  0.50425570  0.62766994  0.61941058  1
  V  V62  1  0.75332273  0.00158360  0.75045956  1
  V  V63  1  0.61780770  0.25785266  0.36506212  1
  V  V64  1  0.50352722  0.87255988  0.37435427  1
  V  V65  1  0.24117108  -0.00078292  0.75221474  1
  V  V66  1  0.24798928  0.74735553  0.48596720  1
  V  V67  1  0.00095504  0.24799045  0.24964096  1
  V  V68  1  0.75490948  0.74521832  0.50388765  1
  V  V69  1  0.12418076  0.87442753  0.25528956  1
  V  V70  1  0.12805421  0.24580622  0.88962215  1
  V  V71  1  0.00830254  0.00178669  0.49890434  1
  V  V72  1  0.74396350  0.25091490  0.00293214  1
  V  V73  1  0.25533175  0.36073034  0.61853717  1
  V  V74  1  0.25271017  0.36328553  0.12286968  1
  V  V75  1  0.62560108  0.75079941  0.88102073  1
  V  V76  1  0.49901092  0.00004805  0.50441166  1
  V  V77  1  0.49832013  0.24368187  0.74959363  1
  V  V78  1  0.86709489  0.88914364  0.00018124  1
  V  V79  1  0.24756096  0.50475391  0.25598974  1
  V  V80  1  0.75017659  0.24860383  0.49961796  1
  V  V81  1  0.37359012  0.74945841  0.12577502  1
  V  V82  1  0.87657212  0.37626672  0.50039507  1
  V  V83  1  0.24677206  0.87590765  0.12440270  1
  V  V84  1  0.24620723  0.75057702  -0.00715204  1
  Zn  Zn85  1  0.87049560  0.49469669  0.36968387  1
  Zn  Zn86  1  0.49973998  0.88008622  0.87334619  1
  Zn  Zn87  1  0.49751238  0.62675516  0.10592821  1
  Zn  Zn88  1  0.12144380  -0.00140371  0.11368686  1
  Zn  Zn89  1  0.00481334  0.87026131  0.38006244  1
  Zn  Zn90  1  0.62337064  0.00288456  0.62587333  1
  Zn  Zn91  1  0.74541892  0.75364929  0.00605024  1
  Zn  Zn92  1  0.37663856  0.74829112  0.62371374  1
  Zn  Zn93  1  0.75249764  -0.00663114  0.24528220  1
  Zn  Zn94  1  0.24690818  0.00263234  0.24648343  1
  Zn  Zn95  1  0.61372826  0.37990789  0.24751195  1
  Zn  Zn96  1  0.12467011  -0.00005397  0.62339296  1
  Zn  Zn97  1  0.87279522  0.37784746  -0.00035061  1
  Zn  Zn98  1  0.00082955  0.24765984  0.75269976  1
  Zn  Zn99  1  0.37467410  0.87753178  -0.00329197  1
  Zn  Zn100  1  0.00063178  0.50153262  0.50072461  1
  Zn  Zn101  1  0.37642950  0.36120195  0.50186224  1
  Zn  Zn102  1  0.62185267  0.37558163  0.75075625  1
  Zn  Zn103  1  0.37600900  -0.00255123  0.87480965  1
  Zn  Zn104  1  0.50039466  0.75305337  0.74596307  1
  Zn  Zn105  1  0.88106549  0.87090492  0.50908169  1
  Zn  Zn106  1  0.25769953  0.49405797  0.75170125  1
  Zn  Zn107  1  0.18526751  0.18551112  0.19228855  1
  Zn  Zn108  1  0.18500664  0.18795797  0.69441904  1
  Zn  Zn109  1  0.18514060  0.68937086  0.18744409  1
  Zn  Zn110  1  0.19078666  0.68636203  0.68381056  1
  Zn  Zn111  1  0.68677496  0.18637818  0.18744736  1
  Zn  Zn112  1  0.68688874  0.18845133  0.68960306  1
  Zn  Zn113  1  0.68605069  0.67850165  0.18911034  1
  Zn  Zn114  1  0.68916465  0.68952573  0.69004524  1
  Zn  Zn115  1  0.30729074  0.31361267  0.31390652  1
  Zn  Zn116  1  0.31266681  0.30717152  0.81336209  1
  Zn  Zn117  1  0.31249726  0.81427726  0.31026456  1
  Zn  Zn118  1  0.31492396  0.80995826  0.81090722  1
  Zn  Zn119  1  0.81016004  0.30963349  0.31189339  1
  Zn  Zn120  1  0.81357352  0.31237418  0.81379444  1
  Zn  Zn121  1  0.81386523  0.80518793  0.31504503  1
  Zn  Zn122  1  0.81514640  0.81705763  0.81973764  1
  Zn  Zn123  1  0.18913987  0.43757007  0.43992517  1
  Zn  Zn124  1  0.19068445  0.43778737  0.93928398  1
  Zn  Zn125  1  0.18967166  0.93842145  0.43605280  1
  Zn  Zn126  1  0.18708467  0.93497809  0.93524015  1
  Zn  Zn127  1  0.68617638  0.43791535  0.44039481  1
  Zn  Zn128  1  0.68598639  0.43499977  0.93857326  1
  Zn  Zn129  1  0.68734644  0.93418292  0.43772711  1
  Zn  Zn130  1  0.68579709  0.93935805  0.93943517  1
  Zn  Zn131  1  0.31892419  0.06100616  0.06589324  1
  Zn  Zn132  1  0.30823945  0.05307608  0.55986611  1
  Zn  Zn133  1  0.30621950  0.56424149  0.07066875  1
  Zn  Zn134  1  0.31008031  0.55935573  0.56108607  1
  Zn  Zn135  1  0.80902600  0.06528967  0.06420975  1
  Zn  Zn136  1  0.81561460  0.05838056  0.56348074  1
  Zn  Zn137  1  0.81622143  0.56420833  0.06021656  1
  Zn  Zn138  1  0.81641567  0.56503252  0.56074459  1
  Zn  Zn139  1  0.43768199  0.43416179  0.17988116  1
  Zn  Zn140  1  0.43728265  0.43577779  0.68798150  1
  Zn  Zn141  1  0.44340045  0.93300927  0.18491895  1
  Zn  Zn142  1  0.43471451  0.94067530  0.68692930  1
  Zn  Zn143  1  0.93676368  0.43750334  0.18593998  1
  Zn  Zn144  1  0.94125103  0.44132260  0.68816018  1
  Zn  Zn145  1  0.93765901  0.93593160  0.18552638  1
  Zn  Zn146  1  0.93991765  0.94114104  0.69326223  1
  Zn  Zn147  1  0.06466078  0.05830518  0.30846607  1
  Zn  Zn148  1  0.05603417  0.05200855  0.92964850  1
  Zn  Zn149  1  0.05733414  0.55965772  0.31233530  1
  Zn  Zn150  1  0.06450875  0.56455749  0.80823745  1
  Zn  Zn151  1  0.56159557  0.06346363  0.30895218  1
  Zn  Zn152  1  0.56465020  0.06405339  0.81358767  1
  Zn  Zn153  1  0.54524315  0.52830035  0.29004539  1
  Zn  Zn154  1  0.56882866  0.56651007  0.80475547  1
  Zn  Zn155  1  0.43933493  0.18626469  0.41576146  1
  Zn  Zn156  1  0.43700790  0.18075273  0.93880770  1
  Zn  Zn157  1  0.43659996  0.68185789  0.43785133  1
  Zn  Zn158  1  0.43127901  0.71254302  0.92821853  1
  Zn  Zn159  1  0.93845065  0.18580683  0.43797572  1
  Zn  Zn160  1  0.93097298  0.19399364  0.93614650  1
  Zn  Zn161  1  0.93513284  0.68523854  0.43974704  1
  Zn  Zn162  1  0.93683970  0.69773944  0.93264190  1
  Zn  Zn163  1  0.06091235  0.31266707  0.06429916  1
  Zn  Zn164  1  0.06379376  0.31155368  0.56551260  1
  Zn  Zn165  1  0.05957953  0.81218705  0.06661123  1
  Zn  Zn166  1  0.06652069  0.81385553  0.56135532  1
  Zn  Zn167  1  0.56440053  0.31871686  0.05995607  1
  Zn  Zn168  1  0.56957319  0.32004814  0.55825836  1
  Zn  Zn169  1  0.56203438  0.81555112  0.06315770  1
  Zn  Zn170  1  0.56926484  0.81288683  0.56281493  1
  O  O171  1  0.10680512  0.12726636  0.12857958  1
  O  O172  1  0.11034048  0.12301478  0.63388234  1
  O  O173  1  0.11847751  0.61971783  0.11674902  1
  O  O174  1  0.11690463  0.61840034  0.62228056  1
  O  O175  1  0.60899402  0.11659968  0.13791613  1
  O  O176  1  0.63035374  0.12515672  0.60953331  1
  O  O177  1  0.61928355  0.62064635  0.11645810  1
  O  O178  1  0.61833566  0.61606660  0.63140380  1
  O  O179  1  0.37042584  0.38442015  0.38027819  1
  O  O180  1  0.37823848  0.37066990  0.88765524  1
  O  O181  1  0.38258905  0.88034594  0.37852477  1
  O  O182  1  0.37955314  0.87745071  0.87614625  1
  O  O183  1  0.88095719  0.37261450  0.38169862  1
  O  O184  1  0.88514138  0.38224240  0.87430521  1
  O  O185  1  0.87512591  0.88730887  0.37246322  1
  O  O186  1  0.88258380  0.87534834  0.89274677  1
  O  O187  1  0.25965994  0.00490625  0.36969962  1
  O  O188  1  0.25146388  0.01003163  0.86851162  1
  O  O189  1  0.25583123  0.49517872  0.36289570  1
  O  O190  1  0.24833897  0.51303068  0.87295615  1
  O  O191  1  0.75556661  0.00910904  0.37424778  1
  O  O192  1  0.74289087  0.01409107  0.86889001  1
  O  O193  1  0.75018735  0.51162215  0.38035237  1
  O  O194  1  0.75316311  0.50563813  0.86709537  1
  O  O195  1  0.24302647  0.49269935  0.13581091  1
  O  O196  1  0.23848873  0.49307232  0.62807599  1
  O  O197  1  0.25393683  0.98484859  0.12513200  1
  O  O198  1  0.24766816  0.98642109  0.63019884  1
  O  O199  1  0.75570702  0.48717091  0.12069819  1
  O  O200  1  0.74580286  0.49906202  0.62963391  1
  O  O201  1  0.73192375  1.00984778  0.12863243  1
  O  O202  1  0.74614158  0.99443612  0.63279094  1
  O  O203  1  0.00413262  0.36935771  0.25645623  1
  O  O204  1  0.00819951  0.37549734  0.76127421  1
  O  O205  1  0.00660023  0.86690597  0.25023504  1
  O  O206  1  0.01458146  0.87310351  0.74595568  1
  O  O207  1  0.50696914  0.41727586  0.26362682  1
  O  O208  1  0.49458528  0.36274691  0.76173760  1
  O  O209  1  0.50600494  0.85926562  0.25572262  1
  O  O210  1  0.51398389  0.87964811  0.74646629  1
  O  O211  1  0.48531221  0.12250590  0.24180134  1
  O  O212  1  0.49221658  0.13543451  0.75286086  1
  O  O213  1  0.49094395  0.63300462  0.24856167  1
  O  O214  1  0.49432727  0.62519026  0.73752777  1
  O  O215  1  0.98907933  0.12903612  0.24855833  1
  O  O216  1  0.98374789  0.12518412  0.74129366  1
  O  O217  1  0.99501688  0.63157353  0.24541899  1
  O  O218  1  0.99440972  0.62287536  0.73694304  1
  O  O219  1  0.37258875  0.25672306  0.00024496  1
  O  O220  1  0.39282979  0.24224195  0.50640307  1
  O  O221  1  0.36421709  0.75209768  0.01017018  1
  O  O222  1  0.36804391  0.75448370  0.49990469  1
  O  O223  1  0.86379802  0.25535302  0.00678753  1
  O  O224  1  0.87013483  0.25839999  0.50465758  1
  O  O225  1  0.87205354  0.75668160  0.01017491  1
  O  O226  1  0.86103960  0.75482307  0.49432662  1
  O  O227  1  0.11883955  0.24888437  0.48718034  1
  O  O228  1  0.12508610  0.25683432  0.98874672  1
  O  O229  1  0.13143013  0.73659634  0.50182434  1
  O  O230  1  0.13135774  0.73915710  1.00607009  1
  O  O231  1  0.63120962  0.24444028  0.49093794  1
  O  O232  1  0.63511442  0.25391210  0.99268901  1
  O  O233  1  0.63678201  0.75433068  0.48888106  1
  O  O234  1  0.62643319  0.75714423  0.98640173  1
  O  O235  1  0.50844972  0.23758730  0.12264843  1
  O  O236  1  0.50725211  0.25129334  0.63252668  1
  O  O237  1  0.49193434  0.74619455  0.13028429  1
  O  O238  1  0.50140263  0.74208211  0.62467918  1
  O  O239  1  0.99315229  0.24058044  0.12800275  1
  O  O240  1  0.99380031  0.24311634  0.62814991  1
  O  O241  1  0.98972813  0.74361958  0.13375958  1
  O  O242  1  1.00297610  0.73714140  0.62264701  1
  O  O243  1  0.00396510  0.25713118  0.37042135  1
  O  O244  1  0.00642645  0.25877746  0.87434363  1
  O  O245  1  -0.00707616  0.75100599  0.36255649  1
  O  O246  1  -0.00631457  0.77215323  0.86825692  1
  O  O247  1  0.51889720  0.25225943  0.37295147  1
  O  O248  1  0.50573461  0.25288169  0.87119273  1
  O  O249  1  0.50780430  0.74908916  0.36970015  1
  O  O250  1  0.51129324  0.75704486  0.86534053  1
  O  O251  1  0.25557561  0.11936608  0.48385282  1
  O  O252  1  0.25558807  0.12142099  0.98997298  1
  O  O253  1  0.23608214  0.63229697  0.50515289  1
  O  O254  1  0.24144340  0.62946325  0.99483364  1
  O  O255  1  0.74355933  0.12637509  0.49242042  1
  O  O256  1  0.75485065  0.13588058  0.99061033  1
  O  O257  1  0.75439044  0.63263521  0.49212670  1
  O  O258  1  0.75653484  0.62792243  0.98520044  1
  O  O259  1  0.26202318  0.37683081  0.00622352  1
  O  O260  1  0.25208430  0.37392360  0.51393421  1
  O  O261  1  0.25053719  0.86483032  0.00538268  1
  O  O262  1  0.25301796  0.86837053  0.50607723  1
  O  O263  1  0.75244801  0.36661147  0.00889943  1
  O  O264  1  0.75834639  0.36988798  0.50606329  1
  O  O265  1  0.76269024  0.87397086  -0.00311255  1
  O  O266  1  0.75218730  0.86958298  0.50944048  1
  O  O267  1  0.12943232  0.49462059  0.24694625  1
  O  O268  1  0.12836833  0.48801861  0.74453600  1
  O  O269  1  0.12687482  0.99029300  0.23873219  1
  O  O270  1  0.13952167  0.98780509  0.74713121  1
  O  O271  1  0.63601001  0.50445546  0.22266870  1
  O  O272  1  0.63508107  0.49670428  0.74020861  1
  O  O273  1  0.62447275  0.98784680  0.24675363  1
  O  O274  1  0.63520616  0.99676775  0.74807938  1
  O  O275  1  0.37705569  -0.00383545  0.25904259  1
  O  O276  1  0.36679894  0.01052218  0.75012730  1
  O  O277  1  0.36593161  0.50768493  0.25485227  1
  O  O278  1  0.37509525  0.51239672  0.74832579  1
  O  O279  1  0.87330984  0.00569142  0.25582322  1
  O  O280  1  0.86152555  0.00801214  0.74827932  1
  O  O281  1  0.88120276  0.51441683  0.25054979  1
  O  O282  1  0.86912355  0.50687825  0.75341281  1
  O  O283  1  0.11892671  0.36813268  0.37209324  1
  O  O284  1  0.12221884  0.37093423  0.86984437  1
  O  O285  1  0.12470737  0.87982867  0.36011410  1
  O  O286  1  0.11744290  0.87101317  0.86433190  1
  O  O287  1  0.63757688  0.36032817  0.37238794  1
  O  O288  1  0.61535269  0.36576249  0.87370207  1
  O  O289  1  0.61999135  0.86558445  0.36796049  1
  O  O290  1  0.62651742  0.87025895  0.86532115  1
  O  O291  1  0.38512772  0.12477006  0.13714803  1
  O  O292  1  0.37359370  0.12124005  0.62974934  1
  O  O293  1  0.37460095  0.63585477  0.13338014  1
  O  O294  1  0.38157686  0.62497658  0.62978884  1
  O  O295  1  0.88264769  0.13019469  0.13128277  1
  O  O296  1  0.87854391  0.13114019  0.63105549  1
  O  O297  1  0.88019209  0.63110431  0.13156360  1
  O  O298  1  0.89271326  0.61901308  0.63001013  1
  O  O299  1  0.24379460  0.26433086  0.13228765  1
  O  O300  1  0.24302398  0.26248012  0.62736601  1
  O  O301  1  0.25480362  0.75638213  0.11687128  1
  O  O302  1  0.25236991  0.75951530  0.61639179  1
  O  O303  1  0.75229692  0.25462508  0.11850210  1
  O  O304  1  0.75479571  0.25580744  0.61959522  1
  O  O305  1  0.76227397  0.74342975  0.12621179  1
  O  O306  1  0.74397810  0.75788586  0.61551750  1
  O  O307  1  0.24057101  0.24018964  0.37171702  1
  O  O308  1  0.24188623  0.23269828  0.87025744  1
  O  O309  1  0.25228717  0.75390921  0.38643597  1
  O  O310  1  0.25829655  0.73701310  0.88769065  1
  O  O311  1  0.74773530  0.23663910  0.38070289  1
  O  O312  1  0.74279104  0.24728425  0.88168196  1
  O  O313  1  0.74361672  0.74079927  0.38249023  1
  O  O314  1  0.74364468  0.74271708  0.87578707  1
  O  O315  1  -0.00426577  0.12570279  0.00460400  1
  O  O316  1  -0.00703815  0.11647237  0.51095628  1
  O  O317  1  0.00543608  0.62480004  0.00087745  1
  O  O318  1  0.00894672  0.62381501  0.50953989  1
  O  O319  1  0.49503437  0.11878243  0.01745315  1
  O  O320  1  0.50232459  0.12282094  0.50375292  1
  O  O321  1  0.48278047  0.61850201  -0.01560407  1
  O  O322  1  0.49555769  0.61590015  0.51391719  1
  O  O323  1  0.49424426  0.38938487  0.50704238  1
  O  O324  1  0.48683188  0.37052577  0.98909200  1
  O  O325  1  0.49830203  0.88138080  0.49327424  1
  O  O326  1  0.49666067  0.88509069  0.99902138  1
  O  O327  1  0.99333422  0.37340477  0.49336012  1
  O  O328  1  1.00014092  0.38158177  0.98873842  1
  O  O329  1  0.99835380  0.88200641  0.49849054  1
  O  O330  1  0.99207241  0.87266805  0.99599962  1
  O  O331  1  0.48872501  0.51456966  0.38976853  1
  O  O332  1  0.50056129  0.49374375  0.87309785  1
  O  O333  1  0.49403474  0.99717745  0.38256197  1
  O  O334  1  0.50078586  1.00364550  0.88639446  1
  O  O335  1  0.99775949  0.48427794  0.37795542  1
  O  O336  1  0.99822837  0.49469154  0.87742487  1
  O  O337  1  0.99254449  1.00046131  0.38142302  1
  O  O338  1  0.99904205  0.97510858  0.86616062  1
  O  O339  1  -0.00303526  0.01832809  0.12789723  1
  O  O340  1  -0.00060234  0.00787691  0.61713544  1
  O  O341  1  0.00509284  0.50623674  0.11748606  1
  O  O342  1  0.01465225  0.50200031  0.62232684  1
  O  O343  1  0.50746857  0.00591364  0.12132255  1
  O  O344  1  0.50189380  -0.00326850  0.60900737  1
  O  O345  1  0.50892024  0.50815643  0.11601291  1
  O  O346  1  0.50874495  0.50482974  0.62141840  1
  O  O347  1  0.24499956  0.38303277  0.24318743  1
  O  O348  1  0.24479058  0.37442070  0.74409376  1
  O  O349  1  0.24193560  0.87294673  0.24096981  1
  O  O350  1  0.24594239  0.87743517  0.74421116  1
  O  O351  1  0.74996088  0.37077180  0.23496331  1
  O  O352  1  0.75239802  0.38746161  0.74618959  1
  O  O353  1  0.73835099  0.87236952  0.25569637  1
  O  O354  1  0.74486184  0.88357451  0.74794730  1
  O  O355  1  0.26484011  0.12214410  0.25016537  1
  O  O356  1  0.25459890  0.11637366  0.75316902  1
  O  O357  1  0.25571419  0.61675664  0.24362527  1
  O  O358  1  0.25749616  0.62369810  0.75713744  1
  O  O359  1  0.76151956  0.12381593  0.25671676  1
  O  O360  1  0.75641606  0.11983039  0.75504240  1
  O  O361  1  0.76063890  0.63142425  0.26226175  1
  O  O362  1  0.75839270  0.61534630  0.75294711  1
  O  O363  1  0.36984462  0.11694366  0.35960953  1
  O  O364  1  0.36254446  0.12304087  0.86821844  1
  O  O365  1  0.37281115  0.61836585  0.36334192  1
  O  O366  1  0.37360097  0.61799969  0.87153243  1
  O  O367  1  0.86891588  0.11594481  0.36897623  1
  O  O368  1  0.86372696  0.13264151  0.86507253  1
  O  O369  1  0.86801457  0.62092099  0.36838051  1
  O  O370  1  0.87052268  0.62151708  0.86519472  1
  O  O371  1  0.12948765  0.38162693  0.12978205  1
  O  O372  1  0.13193574  0.37973956  0.63245102  1
  O  O373  1  0.13268091  0.87349130  0.13274560  1
  O  O374  1  0.13254052  0.87556620  0.63471769  1
  O  O375  1  0.63624568  0.37947445  0.12657707  1
  O  O376  1  0.63541475  0.38416776  0.62899043  1
  O  O377  1  0.62002510  0.88313695  0.13665472  1
  O  O378  1  0.63659100  0.87903316  0.63334369  1
  O  O379  1  0.11733378  0.25668471  0.25719934  1
  O  O380  1  0.12152320  0.26119366  0.75987261  1
  O  O381  1  0.11329536  0.75770619  0.24445686  1
  O  O382  1  0.13103803  0.76111605  0.74821767  1
  O  O383  1  0.62960572  0.25338990  0.26192036  1
  O  O384  1  0.61700985  0.25285452  0.75738626  1
  O  O385  1  0.61850136  0.75228826  0.25457902  1
  O  O386  1  0.62692197  0.76153467  0.75770002  1
  O  O387  1  0.37701966  0.24197588  0.25396876  1
  O  O388  1  0.38056906  0.23572023  0.74968388  1
  O  O389  1  0.38086862  0.74410360  0.24571819  1
  O  O390  1  0.37834647  0.73532022  0.74738602  1
  O  O391  1  0.88028726  0.24156177  0.24503195  1
  O  O392  1  0.87483758  0.24307781  0.74347670  1
  O  O393  1  0.88188864  0.74237735  0.24344624  1
  O  O394  1  0.86516415  0.73912219  0.74962514  1
  O  O395  1  0.37949738  0.49937409  0.49081054  1
  O  O396  1  0.37239613  0.49889983  0.99575708  1
  O  O397  1  0.38170567  0.99316673  0.48783725  1
  O  O398  1  0.38820381  0.99775235  1.00018872  1
  O  O399  1  0.87797871  0.48611918  0.49897677  1
  O  O400  1  0.88405540  0.49989867  0.99025590  1
  O  O401  1  0.88389011  0.99651541  0.49165532  1
  O  O402  1  0.87204196  0.98812437  1.00741597  1
  O  O403  1  0.12294019  -0.00308838  0.00097231  1
  O  O404  1  0.11292933  -0.00287721  0.50082581  1
  O  O405  1  0.12072973  0.51031247  0.00364016  1
  O  O406  1  0.12580140  0.51089315  0.50707034  1
  O  O407  1  0.61401916  -0.00371646  0.01041247  1
  O  O408  1  0.61590520  0.01003893  0.49559648  1
  O  O409  1  0.63517885  0.49661898  0.01823639  1
  O  O410  1  0.61714099  0.49674180  0.51152621  1
  O  O411  1  0.36831621  0.37891813  0.10881374  1
  O  O412  1  0.35921074  0.37632303  0.62543139  1
  O  O413  1  0.36783552  0.86192882  0.12782869  1
  O  O414  1  0.36751985  0.87317543  0.61780937  1
  O  O415  1  0.86604307  0.36902839  0.12429002  1
  O  O416  1  0.87318720  0.37004024  0.61966423  1
  O  O417  1  0.87979345  0.86733778  0.11344048  1
  O  O418  1  0.86164149  0.88043744  0.62928423  1
  O  O419  1  0.13630437  0.13170201  0.36440918  1
  O  O420  1  0.13549571  0.13031739  0.87865589  1
  O  O421  1  0.11892567  0.61979353  0.39011306  1
  O  O422  1  0.13160593  0.62448980  0.88195812  1
  O  O423  1  0.63139676  0.13185722  0.38006826  1
  O  O424  1  0.63445001  0.13925692  0.87016872  1
  O  O425  1  0.63211802  0.63426840  0.36756862  1
  O  O426  1  0.63631691  0.63604417  0.86615494  1
