# generated using pymatgen
data_V85Zn86O256
_symmetry_space_group_name_H-M   'P 1'
_cell_length_a   16.93822515
_cell_length_b   16.93075383
_cell_length_c   16.93334028
_cell_angle_alpha   90.05572185
_cell_angle_beta   90.01646897
_cell_angle_gamma   90.02982520
_symmetry_Int_Tables_number   1
_chemical_formula_structural   V85Zn86O256
_chemical_formula_sum   'V85 Zn86 O256'
_cell_volume   4856.08802008
_cell_formula_units_Z   1
loop_
 _symmetry_equiv_pos_site_id
 _symmetry_equiv_pos_as_xyz
  1  'x, y, z'
loop_
 _atom_site_type_symbol
 _atom_site_label
 _atom_site_symmetry_multiplicity
 _atom_site_fract_x
 _atom_site_fract_y
 _atom_site_fract_z
 _atom_site_occupancy
  V  V0  1  0.11615547  0.86673258  0.25202708  1
  V  V1  1  0.50016640  0.00294551  0.00079725  1
  V  V2  1  0.62385199  0.62221748  0.01527182  1
  V  V3  1  0.12263928  0.49874112  0.12264170  1
  V  V4  1  0.75530328  0.62209098  0.87601426  1
  V  V5  1  0.25070505  0.50351905  0.74534169  1
  V  V6  1  0.62824293  -0.00203664  0.63172555  1
  V  V7  1  0.43331924  0.58091970  0.69843188  1
  V  V8  1  0.49903435  0.87763573  0.87071708  1
  V  V9  1  0.24947648  0.88257973  0.63122220  1
  V  V10  1  0.00067084  0.49931713  -0.00744352  1
  V  V11  1  0.23986349  0.86228425  0.11202778  1
  V  V12  1  -0.00486469  0.86756851  0.38291089  1
  V  V13  1  0.74692314  0.37080817  0.60937546  1
  V  V14  1  0.86490537  0.00116318  0.86677581  1
  V  V15  1  0.87619978  0.49740670  0.37850707  1
  V  V16  1  0.40235277  0.85475367  0.03280021  1
  V  V17  1  0.62138757  0.25304360  0.37619703  1
  V  V18  1  -0.00141323  0.37115685  0.38355802  1
  V  V19  1  0.62605626  0.73165241  0.37246240  1
  V  V20  1  0.74754138  0.49418306  0.74590391  1
  V  V21  1  0.74659669  0.50470115  0.24959018  1
  V  V22  1  0.37132844  -0.00307861  0.86714567  1
  V  V23  1  0.37682892  0.37699489  0.00369603  1
  V  V24  1  0.11619773  0.37602154  0.75346430  1
  V  V25  1  0.25069708  0.37397354  0.12646217  1
  V  V26  1  0.87434289  -0.00179037  0.38429487  1
  V  V27  1  0.12169188  0.00183612  0.12595538  1
  V  V28  1  0.49376417  0.12960861  0.62470607  1
  V  V29  1  0.25203934  0.62850600  0.37069921  1
  V  V30  1  0.37319801  0.36908076  0.48650702  1
  V  V31  1  0.37510160  0.11937222  0.24905683  1
  V  V32  1  0.74996100  0.13014584  0.38091928  1
  V  V33  1  0.25351462  0.37060321  0.62559290  1
  V  V34  1  0.49646538  0.74871710  0.75397173  1
  V  V35  1  0.11581192  0.25212890  0.87693071  1
  V  V36  1  0.50386780  0.50374207  0.01822917  1
  V  V37  1  0.24472988  0.23901378  0.50491435  1
  V  V38  1  0.87867220  0.37407074  -0.00649434  1
  V  V39  1  0.50922407  0.87227520  0.37281821  1
  V  V40  1  0.87403113  0.12652600  0.74011089  1
  V  V41  1  0.37562639  0.75178924  0.62966217  1
  V  V42  1  0.49494039  0.24912885  0.74974489  1
  V  V43  1  -0.00392638  0.87537230  0.87205237  1
  V  V44  1  0.25129607  0.62913285  0.87695075  1
  V  V45  1  0.38217616  0.64455534  0.23167000  1
  V  V46  1  0.62629005  0.25061924  0.87561448  1
  V  V47  1  0.74739373  0.37843694  0.12574669  1
  V  V48  1  0.00001270  0.62794566  0.12911573  1
  V  V49  1  0.37804103  0.24816729  0.12612099  1
  V  V50  1  0.12666031  0.75235081  0.88039812  1
  V  V51  1  0.88064320  0.25695575  0.61155571  1
  V  V52  1  0.25010473  0.50173810  0.24896018  1
  V  V53  1  0.63140676  -0.00480543  0.12627290  1
  V  V54  1  0.00642359  0.01150384  0.50308808  1
  V  V55  1  0.12133713  0.23939099  0.37346652  1
  V  V56  1  0.62871706  0.13083326  0.50361016  1
  V  V57  1  0.24871302  -0.00411610  0.24774352  1
  V  V58  1  0.11539650  0.36963327  0.25022684  1
  V  V59  1  0.12305198  0.01089024  0.62553926  1
  V  V60  1  0.87801008  0.75662343  0.13449860  1
  V  V61  1  0.75034548  0.73328190  0.49605945  1
  V  V62  1  0.87493811  0.75313542  0.62113696  1
  V  V63  1  0.87672022  0.62563852  0.25595680  1
  V  V64  1  0.25053889  0.75153916  0.50034569  1
  V  V65  1  0.62855157  0.75061955  0.87495328  1
  V  V66  1  0.75198622  -0.00651840  0.25066394  1
  V  V67  1  0.86960947  0.87760424  0.00445703  1
  V  V68  1  0.13050638  0.62113256  0.50230852  1
  V  V69  1  0.75374527  0.87914760  0.61966323  1
  V  V70  1  0.75277937  0.75066214  0.00746525  1
  V  V71  1  0.37543674  -0.00278277  0.37388435  1
  V  V72  1  -0.00465592  0.00192861  0.00035720  1
  V  V73  1  0.25059821  0.24753747  -0.00148285  1
  V  V74  1  -0.00037707  0.13450292  0.12961738  1
  V  V75  1  0.50110867  0.37633455  0.87773855  1
  V  V76  1  0.24837549  0.12158585  0.86972577  1
  V  V77  1  0.12564972  0.88031428  0.74964537  1
  V  V78  1  0.37701956  0.87522460  0.49927839  1
  V  V79  1  0.87721311  0.13281976  0.25381523  1
  V  V80  1  0.37870770  0.50639977  0.87685798  1
  V  V81  1  0.50182933  -0.00087559  0.50059943  1
  V  V82  1  0.00090900  0.62411219  0.62513822  1
  V  V83  1  0.75106193  0.24771028  0.00288397  1
  V  V84  1  0.62189985  0.37606575  0.24966490  1
  Zn  Zn85  1  0.63365674  0.87751986  0.74969135  1
  Zn  Zn86  1  0.62928755  0.87077320  0.25058942  1
  Zn  Zn87  1  0.56138362  0.57270062  0.54877317  1
  Zn  Zn88  1  0.49796797  0.24813996  0.25619977  1
  Zn  Zn89  1  0.12822973  0.63131862  0.00262749  1
  Zn  Zn90  1  -0.00327846  0.49690824  0.50252490  1
  Zn  Zn91  1  0.37116425  0.12541417  0.74639813  1
  Zn  Zn92  1  0.87588394  0.62369605  0.74854462  1
  Zn  Zn93  1  0.87771176  0.25407027  0.13110921  1
  Zn  Zn94  1  0.87876920  0.49501588  0.87119528  1
  Zn  Zn95  1  0.37936236  0.50482265  0.37394618  1
  Zn  Zn96  1  0.62582664  0.37705446  0.74429007  1
  Zn  Zn97  1  0.12415100  0.49738294  0.62520469  1
  Zn  Zn98  1  0.12365608  0.12460412  -0.00100581  1
  Zn  Zn99  1  0.50268252  0.12128587  0.12713442  1
  Zn  Zn100  1  0.11928496  0.74612273  0.37301412  1
  Zn  Zn101  1  0.24453315  0.11778421  0.37871355  1
  Zn  Zn102  1  -0.00107140  0.75056785  0.74826625  1
  Zn  Zn103  1  0.62754723  0.12470693  0.00265827  1
  Zn  Zn104  1  0.74766599  0.12289867  0.86946035  1
  Zn  Zn105  1  -0.00055589  0.24785348  0.74606044  1
  Zn  Zn106  1  0.53377262  0.43173603  0.42169516  1
  Zn  Zn107  1  0.18958280  0.18567458  0.18932099  1
  Zn  Zn108  1  0.18627366  0.18994252  0.69187251  1
  Zn  Zn109  1  0.18441196  0.68805438  0.18760320  1
  Zn  Zn110  1  0.18854983  0.69019222  0.69192614  1
  Zn  Zn111  1  0.68892988  0.18400789  0.18974104  1
  Zn  Zn112  1  0.69122320  0.19206461  0.68782184  1
  Zn  Zn113  1  0.69328075  0.68954211  0.19155988  1
  Zn  Zn114  1  0.68684103  0.67934296  0.68635536  1
  Zn  Zn115  1  0.30259730  0.30503900  0.31081306  1
  Zn  Zn116  1  0.31039115  0.31395102  0.81553613  1
  Zn  Zn117  1  0.30747652  0.81560466  0.31037361  1
  Zn  Zn118  1  0.31175853  0.81343055  0.81557122  1
  Zn  Zn119  1  0.80852551  0.31446643  0.31848264  1
  Zn  Zn120  1  0.81325491  0.30930139  0.81001467  1
  Zn  Zn121  1  0.81236467  0.81071431  0.31946981  1
  Zn  Zn122  1  0.81242948  0.81168220  0.80689291  1
  Zn  Zn123  1  0.19005918  0.43569680  0.43574610  1
  Zn  Zn124  1  0.18924839  0.43824993  0.93585646  1
  Zn  Zn125  1  0.18472098  0.93642567  0.43873327  1
  Zn  Zn126  1  0.18423819  0.94151175  0.93634340  1
  Zn  Zn127  1  0.69540193  0.45017138  0.44010766  1
  Zn  Zn128  1  0.68804971  0.43797108  0.93960551  1
  Zn  Zn129  1  0.68966215  0.93541547  0.44576572  1
  Zn  Zn130  1  0.68747016  0.93592635  0.93963823  1
  Zn  Zn131  1  0.31324097  0.05590858  0.05763737  1
  Zn  Zn132  1  0.31212214  0.06072409  0.56360077  1
  Zn  Zn133  1  0.31138661  0.56449311  0.06166485  1
  Zn  Zn134  1  0.35450672  0.57849913  0.53557772  1
  Zn  Zn135  1  0.81265514  0.06503340  0.06523058  1
  Zn  Zn136  1  0.81545828  0.06381852  0.56288685  1
  Zn  Zn137  1  0.81522442  0.56222711  0.06550748  1
  Zn  Zn138  1  0.81326719  0.55855401  0.56597946  1
  Zn  Zn139  1  0.44314799  0.44440948  0.20993345  1
  Zn  Zn140  1  0.43456072  0.41509903  0.68276750  1
  Zn  Zn141  1  0.44185889  0.92239727  0.18429274  1
  Zn  Zn142  1  0.44166403  0.93773779  0.68736505  1
  Zn  Zn143  1  0.93495317  0.43898363  0.18537240  1
  Zn  Zn144  1  0.93348145  0.43837288  0.68576942  1
  Zn  Zn145  1  0.93614871  0.94089201  0.19349486  1
  Zn  Zn146  1  0.93595949  0.93865195  0.68543594  1
  Zn  Zn147  1  0.05823117  0.05717122  0.31126360  1
  Zn  Zn148  1  0.05659601  0.06341493  0.81024793  1
  Zn  Zn149  1  0.06278926  0.55993027  0.31268007  1
  Zn  Zn150  1  0.06562876  0.56555632  0.81105968  1
  Zn  Zn151  1  0.56331108  0.06171541  0.31258612  1
  Zn  Zn152  1  0.56374563  0.06613232  0.81212463  1
  Zn  Zn153  1  0.55601680  0.56469822  0.29630184  1
  Zn  Zn154  1  0.57310349  0.55958986  0.82424553  1
  Zn  Zn155  1  0.43456547  0.18787918  0.43791423  1
  Zn  Zn156  1  0.43647075  0.18580090  0.93625413  1
  Zn  Zn157  1  0.44067064  0.68843266  0.42900921  1
  Zn  Zn158  1  0.43895620  0.68596558  0.94267305  1
  Zn  Zn159  1  0.94087327  0.18832507  0.43709938  1
  Zn  Zn160  1  0.93368549  0.18434072  0.93764583  1
  Zn  Zn161  1  0.93670011  0.68444865  0.44276552  1
  Zn  Zn162  1  0.94030733  0.68877612  0.94044981  1
  Zn  Zn163  1  0.06217306  0.31341972  0.06008984  1
  Zn  Zn164  1  0.06614369  0.30967458  0.56280427  1
  Zn  Zn165  1  0.05666110  0.81344268  0.06102395  1
  Zn  Zn166  1  0.06331096  0.81313868  0.56033608  1
  Zn  Zn167  1  0.56324056  0.31322925  0.06535169  1
  Zn  Zn168  1  0.56326056  0.31294359  0.56302665  1
  Zn  Zn169  1  0.57237844  0.81679288  0.06419486  1
  Zn  Zn170  1  0.57941103  0.76096421  0.57739663  1
  O  O171  1  0.11715697  0.11860987  0.12623311  1
  O  O172  1  0.12803774  0.11004867  0.63518586  1
  O  O173  1  0.11705917  0.61980929  0.12234247  1
  O  O174  1  0.12209089  0.62477295  0.61880483  1
  O  O175  1  0.62251712  0.11336018  0.12400048  1
  O  O176  1  0.62159269  0.12031566  0.61976977  1
  O  O177  1  0.62807033  0.63527376  0.11423215  1
  O  O178  1  0.60677428  0.65244885  0.61499357  1
  O  O179  1  0.36650741  0.36789005  0.38344821  1
  O  O180  1  0.37946571  0.38667882  0.88153562  1
  O  O181  1  0.37997240  0.87958327  0.37908188  1
  O  O182  1  0.38579004  0.88165265  0.87358233  1
  O  O183  1  0.88807583  0.38252738  0.36617503  1
  O  O184  1  0.87116429  0.37450941  0.88960522  1
  O  O185  1  0.88734134  0.88308543  0.37290934  1
  O  O186  1  0.87713945  0.88038087  0.87898123  1
  O  O187  1  0.25526952  -0.00262825  0.36793063  1
  O  O188  1  0.25990639  0.00730071  0.88143913  1
  O  O189  1  0.24945339  0.50869639  0.36399693  1
  O  O190  1  0.26040458  0.50214687  0.86466136  1
  O  O191  1  0.75862529  0.00537249  0.37519372  1
  O  O192  1  0.76122801  -0.00061965  0.87760636  1
  O  O193  1  0.76306860  0.49403429  0.36082878  1
  O  O194  1  0.75374443  0.50796090  0.87202905  1
  O  O195  1  0.24061993  0.49453405  0.12775074  1
  O  O196  1  0.25108698  0.49108820  0.63944410  1
  O  O197  1  0.23250577  0.99981873  0.12658611  1
  O  O198  1  0.24086456  0.98935287  0.61971307  1
  O  O199  1  0.75711806  0.49060939  0.13581449  1
  O  O200  1  0.75820489  0.48345572  0.63251351  1
  O  O201  1  0.74540094  1.00689834  0.13793330  1
  O  O202  1  0.74520081  0.98780577  0.61683287  1
  O  O203  1  0.01211761  0.37990367  0.25279773  1
  O  O204  1  0.01344862  0.37742022  0.74777777  1
  O  O205  1  0.00618541  0.88454720  0.26677958  1
  O  O206  1  0.00549183  0.87367989  0.75523246  1
  O  O207  1  0.51919890  0.36303939  0.23306758  1
  O  O208  1  0.50500865  0.36721354  0.75761664  1
  O  O209  1  0.50513398  0.88068020  0.26931725  1
  O  O210  1  0.50702260  0.86866457  0.75807852  1
  O  O211  1  0.48689047  0.12388514  0.24785404  1
  O  O212  1  0.49809206  0.13178491  0.74258586  1
  O  O213  1  0.48190348  0.63249499  0.24168567  1
  O  O214  1  0.50007051  0.63204970  0.76400860  1
  O  O215  1  0.98922969  0.11845984  0.24232703  1
  O  O216  1  0.98113662  0.12873983  0.75426029  1
  O  O217  1  0.99485863  0.61892833  0.23714125  1
  O  O218  1  1.00203886  0.62786882  0.73667643  1
  O  O219  1  0.37014758  0.25558344  0.00569553  1
  O  O220  1  0.35590847  0.25511566  0.49394485  1
  O  O221  1  0.37496277  0.76823925  -0.00901327  1
  O  O222  1  0.37022390  0.75717384  0.50992916  1
  O  O223  1  0.86866224  0.25667309  0.00339789  1
  O  O224  1  0.87569622  0.24431512  0.51301848  1
  O  O225  1  0.87015530  0.75758354  0.00869232  1
  O  O226  1  0.86315811  0.74520878  0.50830204  1
  O  O227  1  0.13600110  0.25122155  0.49012479  1
  O  O228  1  0.13302741  0.24861954  0.99443009  1
  O  O229  1  0.13353308  0.73835453  0.50027472  1
  O  O230  1  0.11859768  0.75259179  0.98495278  1
  O  O231  1  0.62235634  0.23725420  0.49497559  1
  O  O232  1  0.63258372  0.24848207  0.99526537  1
  O  O233  1  0.64047145  0.75279571  0.48360316  1
  O  O234  1  0.63365171  0.74825125  0.99439294  1
  O  O235  1  0.48631455  0.24421131  0.12201972  1
  O  O236  1  0.50585049  0.24074564  0.63579601  1
  O  O237  1  0.46981413  0.82157323  0.11122124  1
  O  O238  1  0.48355324  0.76107929  0.63797481  1
  O  O239  1  0.99969118  0.23810682  0.12348250  1
  O  O240  1  0.98649151  0.25586198  0.62566662  1
  O  O241  1  0.98950700  0.74192117  0.12179577  1
  O  O242  1  0.99198731  0.74487312  0.62140109  1
  O  O243  1  0.00840425  0.25750217  0.37663557  1
  O  O244  1  0.01343875  0.24625105  0.87923492  1
  O  O245  1  -0.00110383  0.76360850  0.38250257  1
  O  O246  1  0.00557288  0.75723497  0.87209889  1
  O  O247  1  0.51495319  0.24124117  0.37402063  1
  O  O248  1  0.50697396  0.25506745  0.87338299  1
  O  O249  1  0.51852066  0.75718427  0.38176966  1
  O  O250  1  0.50693679  0.75762928  0.87258321  1
  O  O251  1  0.25094556  0.13501340  0.49973104  1
  O  O252  1  0.24881933  0.12959214  0.99068671  1
  O  O253  1  0.25155972  0.63074797  0.49091857  1
  O  O254  1  0.24484697  0.61535822  0.98225578  1
  O  O255  1  0.74277930  0.11943592  0.49017259  1
  O  O256  1  0.75188032  0.13799708  0.99808196  1
  O  O257  1  0.74876113  0.63417537  0.50515670  1
  O  O258  1  0.74733443  0.63165721  0.99640096  1
  O  O259  1  0.25710249  0.36961753  0.00666771  1
  O  O260  1  0.25129941  0.36267161  0.50591941  1
  O  O261  1  0.24142905  0.87698547  0.01199311  1
  O  O262  1  0.25501166  0.86943949  0.50769646  1
  O  O263  1  0.75568159  0.36792665  0.00757690  1
  O  O264  1  0.75245198  0.37643971  0.51068760  1
  O  O265  1  0.76196882  0.86644574  -0.00305452  1
  O  O266  1  0.75029625  0.86335025  0.51389887  1
  O  O267  1  0.13279527  0.49304802  0.24302575  1
  O  O268  1  0.13451578  0.49228608  0.75177058  1
  O  O269  1  0.12745845  0.99124992  0.24283323  1
  O  O270  1  0.11704077  0.98799987  0.74349301  1
  O  O271  1  0.63687750  0.49167744  0.25239395  1
  O  O272  1  0.64147657  0.49803199  0.75626405  1
  O  O273  1  0.63520840  1.00043932  0.24505048  1
  O  O274  1  0.62292726  1.00123364  0.73564392  1
  O  O275  1  0.37071986  0.00184001  0.25291284  1
  O  O276  1  0.38052740  0.00133384  0.76377611  1
  O  O277  1  0.35627635  0.51141026  0.24179772  1
  O  O278  1  0.37368640  0.50374583  0.75555217  1
  O  O279  1  0.87006284  0.00951717  0.26334484  1
  O  O280  1  0.87739336  0.01169365  0.75448126  1
  O  O281  1  0.87101077  0.50757553  0.25579488  1
  O  O282  1  0.86514105  0.50328896  0.75433862  1
  O  O283  1  0.11930027  0.36742974  0.36711550  1
  O  O284  1  0.13434411  0.36431104  0.86568183  1
  O  O285  1  0.11368523  0.87346309  0.36864325  1
  O  O286  1  0.11920564  0.87289579  0.86802497  1
  O  O287  1  0.62627432  0.36703428  0.36737853  1
  O  O288  1  0.61919034  0.36462398  0.87715448  1
  O  O289  1  0.62006083  0.87433967  0.37630611  1
  O  O290  1  0.62141239  0.86732330  0.87169940  1
  O  O291  1  0.37392136  0.12860200  0.13097535  1
  O  O292  1  0.38909418  0.11822882  0.62730583  1
  O  O293  1  0.36443294  0.63344653  0.13227667  1
  O  O294  1  0.36376853  0.63612955  0.63815081  1
  O  O295  1  0.88291492  0.12592515  0.13593219  1
  O  O296  1  0.87018257  0.13700521  0.63285057  1
  O  O297  1  0.88183934  0.63307952  0.13391469  1
  O  O298  1  0.88532114  0.63139640  0.62368306  1
  O  O299  1  0.25975350  0.25146981  0.11912029  1
  O  O300  1  0.24215362  0.25355137  0.61304674  1
  O  O301  1  0.23760810  0.76329148  0.11963107  1
  O  O302  1  0.25924240  0.75995008  0.62457630  1
  O  O303  1  0.75299171  0.25498337  0.11838138  1
  O  O304  1  0.76201461  0.26329932  0.62801502  1
  O  O305  1  0.76041579  0.74803556  0.11374265  1
  O  O306  1  0.75529996  0.75366708  0.61433943  1
  O  O307  1  0.23876616  0.24325446  0.38488068  1
  O  O308  1  0.24409740  0.24283311  0.88230367  1
  O  O309  1  0.24505748  0.74466587  0.38071264  1
  O  O310  1  0.24176161  0.74084322  0.86929810  1
  O  O311  1  0.73833284  0.24013203  0.37386260  1
  O  O312  1  0.74187876  0.25136310  0.88447514  1
  O  O313  1  0.74500135  0.74742378  0.38782072  1
  O  O314  1  0.74543768  0.74596900  0.88372351  1
  O  O315  1  -0.00190568  0.11793987  0.01052253  1
  O  O316  1  0.00289964  0.11050891  0.49627035  1
  O  O317  1  0.00042281  0.61793792  0.01201968  1
  O  O318  1  0.01260018  0.62345261  0.50914588  1
  O  O319  1  0.49943905  0.11155117  0.00047068  1
  O  O320  1  0.50585228  0.12074125  0.50763180  1
  O  O321  1  0.51133387  0.61675601  -0.00273781  1
  O  O322  1  0.46151713  0.60837812  0.50207979  1
  O  O323  1  0.47846182  0.36177315  0.50019886  1
  O  O324  1  0.49533864  0.38192046  0.99719682  1
  O  O325  1  0.49154846  0.88284309  0.49068461  1
  O  O326  1  0.50628325  0.88543553  0.98308530  1
  O  O327  1  1.00857050  0.37885750  0.48756686  1
  O  O328  1  0.99039164  0.38531244  1.00702291  1
  O  O329  1  1.00540826  0.88399646  0.48657700  1
  O  O330  1  0.98707954  0.88105846  0.99355684  1
  O  O331  1  0.48449366  0.48375403  0.33458089  1
  O  O332  1  0.49403332  0.49467724  0.88176468  1
  O  O333  1  0.49573839  0.99599209  0.38296741  1
  O  O334  1  0.49594175  0.99531273  0.87914889  1
  O  O335  1  0.99509965  0.49065492  0.37586927  1
  O  O336  1  0.99907504  0.50938603  0.88844029  1
  O  O337  1  0.99509742  0.99336093  0.38613690  1
  O  O338  1  0.98802271  0.99487876  0.88123921  1
  O  O339  1  0.00697330  0.00650724  0.12244977  1
  O  O340  1  0.00657138  -0.00715731  0.61006837  1
  O  O341  1  0.00458652  0.50662692  0.11705869  1
  O  O342  1  0.00236441  0.50814578  0.62144334  1
  O  O343  1  0.50781372  -0.00266542  0.11609371  1
  O  O344  1  0.50885757  0.00571940  0.61930978  1
  O  O345  1  0.49346180  0.49617998  0.11654747  1
  O  O346  1  0.48636450  0.51209078  0.64252073  1
  O  O347  1  0.24222042  0.38257280  0.24475997  1
  O  O348  1  0.24598527  0.37866355  0.74317968  1
  O  O349  1  0.23599999  0.88037046  0.24133789  1
  O  O350  1  0.24171088  0.87352419  0.74136852  1
  O  O351  1  0.74337901  0.37953883  0.24294892  1
  O  O352  1  0.74885320  0.38109894  0.74653054  1
  O  O353  1  0.75391962  0.89018304  0.25850550  1
  O  O354  1  0.74770655  0.86531625  0.72890673  1
  O  O355  1  0.26034291  0.11505557  0.25088158  1
  O  O356  1  0.25424351  0.13124557  0.76479846  1
  O  O357  1  0.24692274  0.61977628  0.25523991  1
  O  O358  1  0.24384584  0.61428242  0.76202602  1
  O  O359  1  0.75617471  0.11566148  0.26318572  1
  O  O360  1  0.76616886  0.13097262  0.75275545  1
  O  O361  1  0.76227191  0.61463133  0.24503004  1
  O  O362  1  0.75150056  0.61802972  0.75858613  1
  O  O363  1  0.37251606  0.11509928  0.36682461  1
  O  O364  1  0.36753326  0.11428328  0.87665994  1
  O  O365  1  0.36152220  0.62688627  0.36029515  1
  O  O366  1  0.36979925  0.61386650  0.88004848  1
  O  O367  1  0.86927180  0.11978465  0.37276558  1
  O  O368  1  0.87090693  0.11671910  0.86730418  1
  O  O369  1  0.88689787  0.61908906  0.36119582  1
  O  O370  1  0.86371393  0.62831432  0.87596862  1
  O  O371  1  0.13045872  0.37678777  0.13198535  1
  O  O372  1  0.13546090  0.37595995  0.63342721  1
  O  O373  1  0.12439569  0.88168835  0.13056562  1
  O  O374  1  0.13174242  0.87922978  0.63191925  1
  O  O375  1  0.64047392  0.36976681  0.13019576  1
  O  O376  1  0.64151971  0.36737852  0.62635839  1
  O  O377  1  0.63158363  0.88881450  0.13104720  1
  O  O378  1  0.63512178  0.88081217  0.62426932  1
  O  O379  1  0.13406996  0.26003797  0.25866487  1
  O  O380  1  0.12090588  0.25757205  0.75875892  1
  O  O381  1  0.12207799  0.76268463  0.25175516  1
  O  O382  1  0.12234539  0.76292956  0.75852939  1
  O  O383  1  0.62619501  0.25514790  0.25834744  1
  O  O384  1  0.61589083  0.25035434  0.76014206  1
  O  O385  1  0.63851592  0.75396852  0.26837186  1
  O  O386  1  0.61585073  0.74822127  0.76318989  1
  O  O387  1  0.37366904  0.23955232  0.24301705  1
  O  O388  1  0.39036986  0.24927273  0.76023043  1
  O  O389  1  0.36674987  0.74309476  0.24710452  1
  O  O390  1  0.38736747  0.75327771  0.74815092  1
  O  O391  1  0.86791688  0.23643863  0.25240218  1
  O  O392  1  0.87957147  0.24202437  0.74366472  1
  O  O393  1  0.86783410  0.74366765  0.24168139  1
  O  O394  1  0.87661802  0.74508865  0.73511006  1
  O  O395  1  0.35896439  0.47411940  0.48893526  1
  O  O396  1  0.38139760  0.49570575  0.99462427  1
  O  O397  1  0.37976212  0.99498253  0.49362229  1
  O  O398  1  0.38670050  0.98201554  0.99733830  1
  O  O399  1  0.87637885  0.50865309  0.48256195  1
  O  O400  1  0.88293329  0.49248999  0.99948190  1
  O  O401  1  0.88638868  1.00379260  0.49115701  1
  O  O402  1  0.87585653  0.99391538  0.99498830  1
  O  O403  1  0.11379734  0.00215330  0.00814870  1
  O  O404  1  0.11510599  -0.00181354  0.50815943  1
  O  O405  1  0.11755119  0.49834122  0.00567116  1
  O  O406  1  0.13033816  0.51224979  0.50208919  1
  O  O407  1  0.62040036  0.00138478  0.00699439  1
  O  O408  1  0.62058444  0.01046978  0.50941534  1
  O  O409  1  0.61679741  0.50964956  -0.00172862  1
  O  O410  1  0.60485881  0.48722561  0.49088379  1
  O  O411  1  0.36937460  0.36594616  0.12566425  1
  O  O412  1  0.35923291  0.36946942  0.61283391  1
  O  O413  1  0.34356724  0.89001867  0.12478379  1
  O  O414  1  0.36719211  0.87300710  0.62259419  1
  O  O415  1  0.86569955  0.37224255  0.11830724  1
  O  O416  1  0.86765830  0.36327357  0.62608660  1
  O  O417  1  0.88214565  0.86862966  0.11834648  1
  O  O418  1  0.86508968  0.86810394  0.62523600  1
  O  O419  1  0.12383000  0.13536187  0.36515057  1
  O  O420  1  0.13119568  0.13026842  0.87561832  1
  O  O421  1  0.13387245  0.62606084  0.38109395  1
  O  O422  1  0.13120151  0.63607122  0.87608565  1
  O  O423  1  0.63256131  0.12803794  0.38283479  1
  O  O424  1  0.62732789  0.13641632  0.87897336  1
  O  O425  1  0.61768225  0.63295282  0.36973560  1
  O  O426  1  0.63869430  0.63452150  0.88625639  1
