# generated using pymatgen
data_V85Zn86O256
_symmetry_space_group_name_H-M   'P 1'
_cell_length_a   16.95539345
_cell_length_b   16.95771449
_cell_length_c   16.97554484
_cell_angle_alpha   89.89687704
_cell_angle_beta   90.02959240
_cell_angle_gamma   89.99996441
_symmetry_Int_Tables_number   1
_chemical_formula_structural   V85Zn86O256
_chemical_formula_sum   'V85 Zn86 O256'
_cell_volume   4880.88023886
_cell_formula_units_Z   1
loop_
 _symmetry_equiv_pos_site_id
 _symmetry_equiv_pos_as_xyz
  1  'x, y, z'
loop_
 _atom_site_type_symbol
 _atom_site_label
 _atom_site_symmetry_multiplicity
 _atom_site_fract_x
 _atom_site_fract_y
 _atom_site_fract_z
 _atom_site_occupancy
  V  V0  1  0.62496591  0.37464195  0.24785742  1
  V  V1  1  0.37908858  0.75334408  0.12297211  1
  V  V2  1  0.12810121  0.50138538  0.12341801  1
  V  V3  1  -0.00630668  0.11906504  0.62959296  1
  V  V4  1  0.75715380  0.10432991  0.86531777  1
  V  V5  1  0.62969088  0.50269472  0.62114802  1
  V  V6  1  0.25465790  0.12780996  0.37385320  1
  V  V7  1  0.86879304  0.37606282  0.50870227  1
  V  V8  1  0.74851275  0.24671490  -0.01262900  1
  V  V9  1  0.50387207  0.62696798  0.61787505  1
  V  V10  1  0.50854702  0.75225569  0.74907980  1
  V  V11  1  0.12812326  0.74903208  0.37918451  1
  V  V12  1  0.00139800  0.62666985  0.62454048  1
  V  V13  1  -0.00059356  0.62404764  0.12339280  1
  V  V14  1  0.87434751  0.62336497  0.25187125  1
  V  V15  1  0.37240517  0.00883394  0.87020091  1
  V  V16  1  0.25738063  0.24900041  0.50255741  1
  V  V17  1  0.74482390  0.25202180  0.50836447  1
  V  V18  1  0.49794053  -0.00636495  0.48886746  1
  V  V19  1  0.87518140  0.74819560  0.12523965  1
  V  V20  1  0.50137755  0.37606077  0.37455281  1
  V  V21  1  0.37864458  0.37533394  0.50394270  1
  V  V22  1  0.73234812  0.88534618  0.63290465  1
  V  V23  1  0.73575031  0.74686049  0.49697566  1
  V  V24  1  0.13719264  -0.00227972  0.62250699  1
  V  V25  1  0.33971762  0.19249036  0.68459247  1
  V  V26  1  0.51464927  0.08746802  0.65537107  1
  V  V27  1  0.25496745  0.36780643  0.12422975  1
  V  V28  1  0.74144408  0.62677388  0.87780702  1
  V  V29  1  0.25139098  0.62735509  0.87596264  1
  V  V30  1  0.37829855  0.62801002  0.74783599  1
  V  V31  1  0.87570498  0.87763636  0.00069939  1
  V  V32  1  0.50499195  0.25744202  0.73980207  1
  V  V33  1  0.63108447  0.37734204  0.75112704  1
  V  V34  1  0.50498843  0.62112511  0.11191512  1
  V  V35  1  0.37404891  0.11865892  0.24762942  1
  V  V36  1  0.12515018  0.62739524  -0.00242361  1
  V  V37  1  0.75401351  0.36134740  0.12763158  1
  V  V38  1  0.50066118  0.87319814  0.87638579  1
  V  V39  1  0.49681800  0.13018110  0.12234149  1
  V  V40  1  0.00195073  0.37249317  0.87315675  1
  V  V41  1  0.61548057  0.12048273  0.50154399  1
  V  V42  1  0.25417449  0.87861953  0.12101656  1
  V  V43  1  0.25693611  0.37536977  0.62901507  1
  V  V44  1  0.12053112  0.87269859  0.24121559  1
  V  V45  1  0.00568501  0.75200442  0.74936571  1
  V  V46  1  0.37577540  0.50274360  0.37579116  1
  V  V47  1  0.62361175  0.24964590  0.37668534  1
  V  V48  1  0.75641426  0.11797498  0.37688092  1
  V  V49  1  0.12669175  0.25179765  0.37371818  1
  V  V50  1  0.74220952  0.74660104  -0.00038470  1
  V  V51  1  0.13967323  0.87658059  0.74988220  1
  V  V52  1  0.75319588  0.49973083  0.74430359  1
  V  V53  1  0.38227599  0.36968398  0.00462039  1
  V  V54  1  -0.02489627  0.89462616  0.85127079  1
  V  V55  1  0.62564049  -0.00159580  0.13325419  1
  V  V56  1  0.62679786  0.50099337  0.11030185  1
  V  V57  1  0.25221068  0.50161883  0.75287333  1
  V  V58  1  0.49218960  0.25149962  0.24617452  1
  V  V59  1  0.38383564  0.50386152  0.88569814  1
  V  V60  1  0.25117357  0.50229380  0.25012013  1
  V  V61  1  0.49187313  -0.01022802  0.00522903  1
  V  V62  1  0.12753932  0.50004192  0.62542319  1
  V  V63  1  0.73573505  0.62666021  0.37747722  1
  V  V64  1  -0.00009137  0.50255035  0.50276160  1
  V  V65  1  0.87749254  0.36848347  0.00383554  1
  V  V66  1  0.31846042  -0.05954753  0.42276693  1
  V  V67  1  -0.00018050  0.00274003  0.00258910  1
  V  V68  1  0.62511378  0.12636292  -0.00443810  1
  V  V69  1  0.87494210  0.50244104  0.37725305  1
  V  V70  1  0.25409944  0.75582870  -0.00143639  1
  V  V71  1  0.13223230  0.24128352  0.87659159  1
  V  V72  1  0.36696365  0.76217316  0.61218405  1
  V  V73  1  0.87532122  0.62954168  0.75178293  1
  V  V74  1  0.87291815  0.88027744  0.49261109  1
  V  V75  1  0.74513244  0.87532173  0.13149342  1
  V  V76  1  0.87659965  0.50107160  0.87587905  1
  V  V77  1  0.51926421  0.87282009  0.36861771  1
  V  V78  1  0.50674679  0.50361880  0.49823076  1
  V  V79  1  0.87242388  0.75444571  0.62086337  1
  V  V80  1  0.51519031  0.75017314  0.25153256  1
  V  V81  1  0.00190949  0.37527223  0.37880043  1
  V  V82  1  0.74995685  0.49823127  0.24858302  1
  V  V83  1  0.50697238  0.37419715  0.88031693  1
  V  V84  1  0.87236968  0.24532211  0.63155399  1
  Zn  Zn85  1  0.37903209  0.62484708  0.24850727  1
  Zn  Zn86  1  0.00019003  0.50099745  -0.00127844  1
  Zn  Zn87  1  -0.01197065  0.00820585  0.49433517  1
  Zn  Zn88  1  -0.01347169  0.25156167  0.24740161  1
  Zn  Zn89  1  0.13595423  0.11915465  -0.00064189  1
  Zn  Zn90  1  0.87844558  0.12274393  0.23937777  1
  Zn  Zn91  1  -0.00027860  0.75013319  0.24998651  1
  Zn  Zn92  1  0.75352733  -0.00826503  0.26142595  1
  Zn  Zn93  1  0.63088093  0.75969640  0.87001324  1
  Zn  Zn94  1  0.12359589  0.75630095  0.87520369  1
  Zn  Zn95  1  -0.00156557  0.14595111  0.12482184  1
  Zn  Zn96  1  0.25851427  0.24386114  -0.00094880  1
  Zn  Zn97  1  0.12438092  0.37397980  0.75211941  1
  Zn  Zn98  1  0.12412007  0.00541765  0.12478966  1
  Zn  Zn99  1  -0.00590973  0.24349974  0.75422541  1
  Zn  Zn100  1  0.25407583  0.62906389  0.38193118  1
  Zn  Zn101  1  0.12235840  0.37602251  0.24786275  1
  Zn  Zn102  1  -0.00955766  0.87980628  0.36406618  1
  Zn  Zn103  1  0.25799246  0.01087127  0.75180129  1
  Zn  Zn104  1  0.25004052  -0.00066861  0.24675200  1
  Zn  Zn105  1  0.12179492  0.12851320  0.50154841  1
  Zn  Zn106  1  0.13207418  0.63577357  0.50525872  1
  Zn  Zn107  1  0.17818624  0.18627392  0.18544147  1
  Zn  Zn108  1  0.17150475  0.18686726  0.69163293  1
  Zn  Zn109  1  0.18989466  0.68828321  0.18852812  1
  Zn  Zn110  1  0.19141962  0.68901799  0.68571825  1
  Zn  Zn111  1  0.68527955  0.18501834  0.18997190  1
  Zn  Zn112  1  0.68429587  0.18428174  0.69062389  1
  Zn  Zn113  1  0.68847046  0.68324048  0.18458876  1
  Zn  Zn114  1  0.68917428  0.68794999  0.68489840  1
  Zn  Zn115  1  0.31380444  0.31529550  0.31124657  1
  Zn  Zn116  1  0.31333814  0.32123380  0.82100721  1
  Zn  Zn117  1  0.30908961  0.80500259  0.30196447  1
  Zn  Zn118  1  0.32269709  0.81571829  0.81474577  1
  Zn  Zn119  1  0.81211780  0.30871515  0.31937949  1
  Zn  Zn120  1  0.81161375  0.31329814  0.81405802  1
  Zn  Zn121  1  0.80777819  0.80890458  0.31345157  1
  Zn  Zn122  1  0.81627834  0.83098370  0.80429581  1
  Zn  Zn123  1  0.18990380  0.44159270  0.44194855  1
  Zn  Zn124  1  0.19073245  0.43559679  0.93941554  1
  Zn  Zn125  1  0.14818755  0.94990166  0.42136940  1
  Zn  Zn126  1  0.18539572  0.93793395  0.93176259  1
  Zn  Zn127  1  0.68916516  0.43783559  0.43751665  1
  Zn  Zn128  1  0.69356416  0.43564239  0.93417781  1
  Zn  Zn129  1  0.68481708  0.93658188  0.44683000  1
  Zn  Zn130  1  0.68275032  0.93764426  0.94459254  1
  Zn  Zn131  1  0.31455235  0.06591634  0.05944528  1
  Zn  Zn132  1  0.31777820  0.06090377  0.56371105  1
  Zn  Zn133  1  0.31506740  0.56528457  0.06301142  1
  Zn  Zn134  1  0.31502739  0.56782202  0.56157201  1
  Zn  Zn135  1  0.81608543  0.06280558  0.06401352  1
  Zn  Zn136  1  0.80502471  0.06240444  0.56633277  1
  Zn  Zn137  1  0.81100212  0.55878290  0.06083664  1
  Zn  Zn138  1  0.81240744  0.56879739  0.56197916  1
  Zn  Zn139  1  0.43884010  0.44133686  0.18520295  1
  Zn  Zn140  1  0.44017667  0.44179651  0.69038818  1
  Zn  Zn141  1  0.43753457  0.93504317  0.19026496  1
  Zn  Zn142  1  0.44552985  0.93480613  0.69170516  1
  Zn  Zn143  1  0.93949527  0.43353477  0.18755137  1
  Zn  Zn144  1  0.93698801  0.43576512  0.68864257  1
  Zn  Zn145  1  0.93133771  0.94535105  0.18830365  1
  Zn  Zn146  1  0.93756152  0.93489881  0.68017808  1
  Zn  Zn147  1  0.05940451  0.06086229  0.30832224  1
  Zn  Zn148  1  0.06211531  0.06169388  0.80777600  1
  Zn  Zn149  1  0.06271964  0.56453099  0.31148108  1
  Zn  Zn150  1  0.06346914  0.56263463  0.81263563  1
  Zn  Zn151  1  0.56403445  0.06229670  0.31369428  1
  Zn  Zn152  1  0.55779996  0.06580014  0.82324027  1
  Zn  Zn153  1  0.56146167  0.56223179  0.30326512  1
  Zn  Zn154  1  0.56329098  0.56240020  0.81152950  1
  Zn  Zn155  1  0.43583300  0.18748923  0.43574431  1
  Zn  Zn156  1  0.44221447  0.19110555  0.93280581  1
  Zn  Zn157  1  0.44037811  0.69099071  0.43582086  1
  Zn  Zn158  1  0.43868808  0.69187742  0.93810237  1
  Zn  Zn159  1  0.93636342  0.19049016  0.44097519  1
  Zn  Zn160  1  0.93293665  0.18519449  0.93536457  1
  Zn  Zn161  1  0.94030354  0.69235464  0.43597395  1
  Zn  Zn162  1  0.93550251  0.69245721  0.93582873  1
  Zn  Zn163  1  0.06619154  0.31393615  0.05868504  1
  Zn  Zn164  1  0.06291343  0.31041349  0.56400223  1
  Zn  Zn165  1  0.06054610  0.81522304  0.05714361  1
  Zn  Zn166  1  0.06265843  0.81947028  0.56185273  1
  Zn  Zn167  1  0.56632256  0.31150626  0.06136251  1
  Zn  Zn168  1  0.56607842  0.31813127  0.56735344  1
  Zn  Zn169  1  0.56464877  0.81239941  0.06376650  1
  Zn  Zn170  1  0.55420331  0.81434833  0.55840434  1
  O  O171  1  0.11574648  0.12226330  0.11762647  1
  O  O172  1  0.11537506  0.11367645  0.62550839  1
  O  O173  1  0.12264835  0.61724303  0.11919840  1
  O  O174  1  0.11946973  0.61731769  0.62623678  1
  O  O175  1  0.61672511  0.11872001  0.11900824  1
  O  O176  1  0.60584450  0.13132834  0.61771257  1
  O  O177  1  0.61546824  0.61558885  0.12636314  1
  O  O178  1  0.61722568  0.61304644  0.62985907  1
  O  O179  1  0.38136647  0.38555885  0.38018244  1
  O  O180  1  0.38449875  0.38654363  0.88442082  1
  O  O181  1  0.37465740  0.87676139  0.36580220  1
  O  O182  1  0.39137688  0.88455927  0.87643985  1
  O  O183  1  0.88100141  0.38206258  0.38910322  1
  O  O184  1  0.88117419  0.38075396  0.88176641  1
  O  O185  1  0.87241354  0.86988255  0.38821953  1
  O  O186  1  0.87916110  0.84758812  0.89895924  1
  O  O187  1  0.24934208  0.00807233  0.37034961  1
  O  O188  1  0.26744309  -0.00345158  0.87489708  1
  O  O189  1  0.25946608  0.49674936  0.36639575  1
  O  O190  1  0.25929055  0.50634966  0.87080750  1
  O  O191  1  0.73892544  0.01475184  0.37947976  1
  O  O192  1  0.74943437  0.00472418  0.87996968  1
  O  O193  1  0.75698781  0.50575468  0.37022494  1
  O  O194  1  0.75808697  0.50790616  0.86621749  1
  O  O195  1  0.24555608  0.49754225  0.13104251  1
  O  O196  1  0.24447308  0.49403477  0.63150071  1
  O  O197  1  0.25101991  0.98670954  0.12077459  1
  O  O198  1  0.24087517  1.00701096  0.63108436  1
  O  O199  1  0.74385609  0.49234064  0.13109604  1
  O  O200  1  0.74574268  0.50873423  0.63564738  1
  O  O201  1  0.74052774  0.98999487  0.11949518  1
  O  O202  1  0.74876876  0.98511206  0.62734780  1
  O  O203  1  0.00063214  0.37776102  0.26886344  1
  O  O204  1  -0.00092947  0.37436694  0.76382217  1
  O  O205  1  0.00656740  0.87299248  0.24455723  1
  O  O206  1  0.01849692  0.86608732  0.74590359  1
  O  O207  1  0.50340938  0.36905247  0.25275388  1
  O  O208  1  0.50794300  0.37347313  0.75650721  1
  O  O209  1  0.49808967  0.85937053  0.25274175  1
  O  O210  1  0.49885774  0.86014140  0.76029838  1
  O  O211  1  0.49419898  0.13206184  0.24510860  1
  O  O212  1  0.50166803  0.15178066  0.75275075  1
  O  O213  1  0.49995200  0.63685074  0.24051083  1
  O  O214  1  0.49418051  0.62757087  0.74085969  1
  O  O215  1  0.99990267  0.13189695  0.25002228  1
  O  O216  1  0.99847410  0.12504306  0.73589294  1
  O  O217  1  0.99037279  0.62417013  0.24127114  1
  O  O218  1  0.99601404  0.63244414  0.74438097  1
  O  O219  1  0.37742203  0.26555405  -0.00656743  1
  O  O220  1  0.36585678  0.25896015  0.49590492  1
  O  O221  1  0.36718630  0.74486095  0.01217541  1
  O  O222  1  0.38107028  0.74883560  0.51303329  1
  O  O223  1  0.86741508  0.26221487  -0.00429152  1
  O  O224  1  0.86489541  0.25830528  0.50888192  1
  O  O225  1  0.86766706  0.75007504  0.01401507  1
  O  O226  1  0.86842807  0.75609305  0.50652662  1
  O  O227  1  0.13997371  0.25108588  0.49491610  1
  O  O228  1  0.12703134  0.25166854  0.98339733  1
  O  O229  1  0.12036992  0.75555831  0.48396633  1
  O  O230  1  0.13205081  0.74242721  0.99709958  1
  O  O231  1  0.62783129  0.24669666  0.49944523  1
  O  O232  1  0.63471584  0.23796450  1.00497088  1
  O  O233  1  0.63753189  0.74900439  0.50331580  1
  O  O234  1  0.63950822  0.75072083  0.99914870  1
  O  O235  1  0.50716824  0.24177537  0.13456394  1
  O  O236  1  0.49284176  0.26397758  0.63978637  1
  O  O237  1  0.49773204  0.74245293  0.12991307  1
  O  O238  1  0.49497816  0.74250209  0.63119783  1
  O  O239  1  1.01041306  0.26248121  0.13654503  1
  O  O240  1  0.99069544  0.24245777  0.62610379  1
  O  O241  1  0.99060807  0.74254339  0.12300607  1
  O  O242  1  0.99477056  0.74854520  0.63152564  1
  O  O243  1  0.01141268  0.26003238  0.38391373  1
  O  O244  1  0.00540913  0.25686089  0.87471803  1
  O  O245  1  0.00971817  0.75599658  0.36925025  1
  O  O246  1  -0.00131622  0.75606251  0.85780965  1
  O  O247  1  0.50476325  0.25724793  0.36831806  1
  O  O248  1  0.49791050  0.26856728  0.86372398  1
  O  O249  1  0.49829636  0.75436448  0.35828806  1
  O  O250  1  0.50237149  0.75502801  0.86801210  1
  O  O251  1  0.25493500  0.13451050  0.49378612  1
  O  O252  1  0.24907023  0.13244619  1.00240328  1
  O  O253  1  0.24154537  0.61073509  0.49311168  1
  O  O254  1  0.24531817  0.63500122  0.99659201  1
  O  O255  1  0.73351140  0.12933098  0.49735336  1
  O  O256  1  0.74303093  0.13000402  0.99354752  1
  O  O257  1  0.75296720  0.63755745  0.49162372  1
  O  O258  1  0.75853127  0.63338673  0.98945764  1
  O  O259  1  0.26197912  0.37282039  0.00782827  1
  O  O260  1  0.25655430  0.36942793  0.51045019  1
  O  O261  1  0.24293108  0.86181464  0.00385946  1
  O  O262  1  0.25174477  0.89233531  0.47539153  1
  O  O263  1  0.75638478  0.36622900  0.00634492  1
  O  O264  1  0.75708693  0.36555599  0.49835019  1
  O  O265  1  0.75699645  0.86646132  0.00934278  1
  O  O266  1  0.75638835  0.86354965  0.50484237  1
  O  O267  1  0.13305828  0.49879594  0.24257725  1
  O  O268  1  0.13051573  0.49860034  0.73984103  1
  O  O269  1  0.13004524  0.98735920  0.24337409  1
  O  O270  1  0.13402458  0.99560614  0.74223264  1
  O  O271  1  0.63225891  0.49132807  0.24214303  1
  O  O272  1  0.63532964  0.49752449  0.74402927  1
  O  O273  1  0.63071002  1.00659480  0.23674668  1
  O  O274  1  0.54922122  1.01407353  0.72313114  1
  O  O275  1  0.37330291  0.01443957  0.24642552  1
  O  O276  1  0.37667350  -0.00119898  0.76506899  1
  O  O277  1  0.36998307  0.50113432  0.25846884  1
  O  O278  1  0.37302048  0.51176171  0.75878674  1
  O  O279  1  0.86543574  0.00722370  0.25071797  1
  O  O280  1  0.89369955  -0.07228010  0.78369574  1
  O  O281  1  0.86883896  0.50330010  0.25579128  1
  O  O282  1  0.86908633  0.50629398  0.75372946  1
  O  O283  1  0.11765469  0.37170047  0.37940489  1
  O  O284  1  0.11639740  0.37166515  0.87505058  1
  O  O285  1  0.12699698  0.85969571  0.35467198  1
  O  O286  1  0.11561351  0.87500325  0.86139408  1
  O  O287  1  0.62058176  0.37023939  0.36835860  1
  O  O288  1  0.61942568  0.38440744  0.86257746  1
  O  O289  1  0.61878845  0.87562340  0.37248662  1
  O  O290  1  0.60952056  0.87577358  0.88142104  1
  O  O291  1  0.38963316  0.12449670  0.13139663  1
  O  O292  1  0.39573583  0.12411213  0.62850835  1
  O  O293  1  0.38987085  0.62864910  0.12528505  1
  O  O294  1  0.38566726  0.62637094  0.63318922  1
  O  O295  1  0.88520858  0.12479694  0.12181419  1
  O  O296  1  0.87949980  0.13316770  0.61896541  1
  O  O297  1  0.87744491  0.62865845  0.13035105  1
  O  O298  1  0.88085509  0.63656960  0.63002033  1
  O  O299  1  0.24459585  0.26635367  0.12789480  1
  O  O300  1  0.26116536  0.25185293  0.62532140  1
  O  O301  1  0.25932751  0.75496175  0.11818958  1
  O  O302  1  0.26810117  0.74480312  0.62593660  1
  O  O303  1  0.74382673  0.25931871  0.11897654  1
  O  O304  1  0.75351246  0.24136620  0.61519939  1
  O  O305  1  0.75509019  0.75300683  0.11879183  1
  O  O306  1  0.75641668  0.74919803  0.61240409  1
  O  O307  1  0.24737914  0.24830152  0.38349359  1
  O  O308  1  0.23496590  0.25799065  0.87415655  1
  O  O309  1  0.23405029  0.74464179  0.36527950  1
  O  O310  1  0.25381263  0.74492092  0.88289202  1
  O  O311  1  0.74107944  0.24256117  0.39141228  1
  O  O312  1  0.74707190  0.25028348  0.88581661  1
  O  O313  1  0.75065199  0.74152523  0.38763311  1
  O  O314  1  0.75073677  0.74366641  0.88155574  1
  O  O315  1  -0.00162395  0.10751542  -0.00805320  1
  O  O316  1  0.00194347  0.12499038  0.51140237  1
  O  O317  1  0.00688686  0.62458796  0.00398968  1
  O  O318  1  0.00337396  0.62010204  0.50796160  1
  O  O319  1  0.50663194  0.12349975  0.00717682  1
  O  O320  1  0.50661369  0.11664493  0.49089405  1
  O  O321  1  0.50197566  0.62978825  0.01322576  1
  O  O322  1  0.49895737  0.62047385  0.51062761  1
  O  O323  1  0.49719213  0.38169680  0.49473407  1
  O  O324  1  0.49755153  0.37432522  0.99304588  1
  O  O325  1  0.50055438  0.87998130  0.48164596  1
  O  O326  1  0.50156858  0.88291829  0.99833292  1
  O  O327  1  0.99371708  0.38096745  0.49478402  1
  O  O328  1  0.99283013  0.37856159  0.98930273  1
  O  O329  1  0.97930285  0.87485579  0.50237623  1
  O  O330  1  0.99243428  0.88186727  0.98808803  1
  O  O331  1  0.49556311  0.49575060  0.37637259  1
  O  O332  1  0.49289143  0.49101782  0.86913750  1
  O  O333  1  0.50174218  0.98842546  0.37686968  1
  O  O334  1  0.49433005  0.99298974  0.88835942  1
  O  O335  1  0.99601414  0.49571907  0.38303645  1
  O  O336  1  0.99315496  0.49420400  0.87578479  1
  O  O337  1  1.03375874  0.98592066  0.39027111  1
  O  O338  1  1.00274314  0.99153334  0.88013298  1
  O  O339  1  0.00268640  -0.01012917  0.10641710  1
  O  O340  1  0.00500139  0.00521632  0.62098697  1
  O  O341  1  0.01065719  0.50405294  0.12278861  1
  O  O342  1  0.00765516  0.50441050  0.62362470  1
  O  O343  1  0.50494673  0.00541666  0.12136355  1
  O  O344  1  0.47953334  -0.00197272  0.59719618  1
  O  O345  1  0.50970137  0.51351179  0.12850698  1
  O  O346  1  0.50833250  0.50809453  0.62016571  1
  O  O347  1  0.25131537  0.38670544  0.24217815  1
  O  O348  1  0.25079781  0.38387127  0.74460543  1
  O  O349  1  0.24284667  0.87458578  0.23543714  1
  O  O350  1  0.24184652  0.87321592  0.75584951  1
  O  O351  1  0.74706708  0.37656525  0.24428622  1
  O  O352  1  0.74383079  0.38779171  0.75521080  1
  O  O353  1  0.75298824  0.87263370  0.23577193  1
  O  O354  1  0.73734947  0.86115852  0.73101556  1
  O  O355  1  0.25726247  0.12667553  0.25422963  1
  O  O356  1  0.26760902  0.13691705  0.73579549  1
  O  O357  1  0.25436738  0.61183751  0.25075293  1
  O  O358  1  0.25924090  0.62106244  0.75606035  1
  O  O359  1  0.74482185  0.12815865  0.27142738  1
  O  O360  1  0.73604532  0.12039978  0.76721075  1
  O  O361  1  0.75603811  0.61970147  0.25674706  1
  O  O362  1  0.75759482  0.62071106  0.75642109  1
  O  O363  1  0.36221104  0.13204696  0.36478873  1
  O  O364  1  0.38622376  0.10777611  0.87763305  1
  O  O365  1  0.37748052  0.61322635  0.37287302  1
  O  O366  1  0.37388817  0.62032397  0.86955584  1
  O  O367  1  0.85517816  0.12341757  0.39363756  1
  O  O368  1  0.85544964  0.12681127  0.87481977  1
  O  O369  1  0.87093918  0.61976681  0.36942521  1
  O  O370  1  0.87053716  0.62063618  0.86864963  1
  O  O371  1  0.13596037  0.39025287  0.12224478  1
  O  O372  1  0.13757420  0.37969515  0.62782205  1
  O  O373  1  0.13372498  0.87055244  0.12926956  1
  O  O374  1  0.12394466  0.89047409  0.63091664  1
  O  O375  1  0.63374075  0.38102370  0.12977746  1
  O  O376  1  0.62267003  0.39133059  0.63852265  1
  O  O377  1  0.63370744  0.88463872  0.12015450  1
  O  O378  1  0.63423149  0.87370381  0.61432357  1
  O  O379  1  0.13052874  0.25792405  0.26786154  1
  O  O380  1  0.11729741  0.25551955  0.76255584  1
  O  O381  1  0.12102991  0.75428900  0.25169489  1
  O  O382  1  0.12068513  0.75559336  0.74873533  1
  O  O383  1  0.61537964  0.25557853  0.25563911  1
  O  O384  1  0.61508161  0.26406700  0.74289002  1
  O  O385  1  0.61377149  0.74822608  0.24396582  1
  O  O386  1  0.61208481  0.73941466  0.75162711  1
  O  O387  1  0.38747655  0.24434751  0.25412613  1
  O  O388  1  0.38378092  0.26040836  0.75138354  1
  O  O389  1  0.38143119  0.74389219  0.23479662  1
  O  O390  1  0.38457405  0.73794212  0.74725524  1
  O  O391  1  0.87587159  0.23592687  0.26922524  1
  O  O392  1  0.87234149  0.25789535  0.73461028  1
  O  O393  1  0.87326236  0.74297987  0.23889651  1
  O  O394  1  0.88304246  0.74901053  0.73907905  1
  O  O395  1  0.38494916  0.49490466  0.49254289  1
  O  O396  1  0.37265577  0.49593646  0.98923049  1
  O  O397  1  0.37604807  1.00159072  0.48447019  1
  O  O398  1  0.38883426  1.00219106  0.99602804  1
  O  O399  1  0.87904589  0.49489971  0.49909439  1
  O  O400  1  0.87426049  0.48829691  0.99228163  1
  O  O401  1  0.86911806  0.98349401  0.50398119  1
  O  O402  1  0.88493933  0.98663076  1.00044323  1
  O  O403  1  0.11208029  -0.00225467  -0.00112205  1
  O  O404  1  0.12945412  0.00761128  0.51806643  1
  O  O405  1  0.12725862  0.50949795  0.00673198  1
  O  O406  1  0.11788818  0.49670381  0.51502399  1
  O  O407  1  0.61349232  0.00846571  0.01173899  1
  O  O408  1  0.61162682  0.00927232  0.49929390  1
  O  O409  1  0.63431033  0.49562647  0.01137383  1
  O  O410  1  0.62066540  0.49452671  0.50989414  1
  O  O411  1  0.36895826  0.38470432  0.11481606  1
  O  O412  1  0.36415668  0.38585008  0.62131099  1
  O  O413  1  0.36741389  0.86575879  0.12712426  1
  O  O414  1  0.37985825  0.86011475  0.63002601  1
  O  O415  1  0.86506386  0.38177863  0.11587414  1
  O  O416  1  0.87989841  0.36901051  0.61349958  1
  O  O417  1  0.86983603  0.86486778  0.11727442  1
  O  O418  1  0.86408446  0.86480244  0.61607479  1
  O  O419  1  0.13957527  0.13498571  0.37818057  1
  O  O420  1  0.12139831  0.13858340  0.87326707  1
  O  O421  1  0.12234184  0.63926322  0.37460509  1
  O  O422  1  0.13250035  0.62823225  0.88059300  1
  O  O423  1  0.62768812  0.13326918  0.38436860  1
  O  O424  1  0.63115181  0.11905758  0.89024177  1
  O  O425  1  0.63707162  0.61628910  0.37086759  1
  O  O426  1  0.63923013  0.62499544  0.87181261  1
