# generated using pymatgen
data_V85Zn86O256
_symmetry_space_group_name_H-M   'P 1'
_cell_length_a   16.93625456
_cell_length_b   16.92934429
_cell_length_c   16.93108064
_cell_angle_alpha   89.99244679
_cell_angle_beta   89.98835678
_cell_angle_gamma   89.99837939
_symmetry_Int_Tables_number   1
_chemical_formula_structural   V85Zn86O256
_chemical_formula_sum   'V85 Zn86 O256'
_cell_volume   4854.47395189
_cell_formula_units_Z   1
loop_
 _symmetry_equiv_pos_site_id
 _symmetry_equiv_pos_as_xyz
  1  'x, y, z'
loop_
 _atom_site_type_symbol
 _atom_site_label
 _atom_site_symmetry_multiplicity
 _atom_site_fract_x
 _atom_site_fract_y
 _atom_site_fract_z
 _atom_site_occupancy
  V  V0  1  0.49859450  0.37445227  0.87532816  1
  V  V1  1  0.87224861  0.37015816  0.01261210  1
  V  V2  1  0.00518102  0.74846051  0.25375224  1
  V  V3  1  0.74934921  0.00804715  0.75427477  1
  V  V4  1  0.12325565  0.61507510  0.49818971  1
  V  V5  1  0.74837276  0.75027483  0.49677088  1
  V  V6  1  0.12381012  0.75001427  0.87570591  1
  V  V7  1  0.11945062  0.24705188  0.37098132  1
  V  V8  1  0.50403560  0.75871590  0.75065624  1
  V  V9  1  -0.00307359  0.00779857  0.50318720  1
  V  V10  1  0.37200203  0.49955915  0.87202031  1
  V  V11  1  0.87985602  0.24578732  0.62243598  1
  V  V12  1  0.62056362  0.62767065  0.49547019  1
  V  V13  1  0.00356017  0.87028411  0.37378536  1
  V  V14  1  0.25067847  0.25892764  0.49790561  1
  V  V15  1  0.63438382  0.24746124  0.87719445  1
  V  V16  1  0.24645525  0.37827731  0.63934769  1
  V  V17  1  0.51454302  0.75073440  0.25202507  1
  V  V18  1  0.63324241  0.13229414  0.50293113  1
  V  V19  1  0.87059299  0.00808157  0.88248418  1
  V  V20  1  0.37259593  0.12495226  0.75111843  1
  V  V21  1  0.87491799  0.74977874  0.62627284  1
  V  V22  1  0.37523946  0.11233995  0.25722796  1
  V  V23  1  0.24542863  0.62596269  0.37308960  1
  V  V24  1  0.49467619  0.49772031  0.49865740  1
  V  V25  1  0.50122926  0.25256273  0.24734696  1
  V  V26  1  0.12350920  0.12836196  0.50511393  1
  V  V27  1  0.00241544  0.26519958  0.75283331  1
  V  V28  1  0.37301220  0.25882164  0.62081788  1
  V  V29  1  0.49097327  0.00631008  0.49141731  1
  V  V30  1  0.62949114  0.11263839  -0.00053294  1
  V  V31  1  0.87406827  0.49106736  0.87285576  1
  V  V32  1  0.74725648  0.87714986  0.63183904  1
  V  V33  1  0.11905063  0.26042476  0.87485068  1
  V  V34  1  0.73252484  0.87945157  0.13836244  1
  V  V35  1  0.49827023  0.11145050  0.11590830  1
  V  V36  1  0.85662165  0.22906739  0.15016626  1
  V  V37  1  -0.00183321  0.74930205  0.74880540  1
  V  V38  1  0.50026849  0.25211662  0.75096849  1
  V  V39  1  0.12803524  0.49036128  0.12141697  1
  V  V40  1  0.36897468  0.25172151  0.12621012  1
  V  V41  1  0.00174718  0.38198010  0.38339349  1
  V  V42  1  0.74597883  0.25375530  0.01166628  1
  V  V43  1  0.12630675  0.87623799  0.75042453  1
  V  V44  1  0.75070871  0.37301370  0.62080049  1
  V  V45  1  -0.00121600  0.87626784  0.87696056  1
  V  V46  1  0.36796651  0.75497951  0.12585476  1
  V  V47  1  0.24617872  0.62079932  0.86836958  1
  V  V48  1  0.37341023  0.88199478  -0.00414907  1
  V  V49  1  0.11949736  0.36874765  0.24609106  1
  V  V50  1  0.87336181  0.87690515  0.00298850  1
  V  V51  1  0.00478910  0.13341659  0.14326612  1
  V  V52  1  0.25097225  0.49121976  0.24461650  1
  V  V53  1  0.74760774  0.48666015  0.24815169  1
  V  V54  1  0.74892041  0.75050576  -0.00210364  1
  V  V55  1  0.12351835  0.12462709  0.00187697  1
  V  V56  1  0.12051822  0.00427473  0.62728802  1
  V  V57  1  0.13056713  -0.01511905  0.13526418  1
  V  V58  1  -0.00118020  0.48971349  -0.00491705  1
  V  V59  1  0.49897970  0.13001455  0.62762942  1
  V  V60  1  0.87268796  0.00695510  0.36061221  1
  V  V61  1  0.49862949  0.62535484  0.12294003  1
  V  V62  1  0.49950470  0.49879537  -0.00032653  1
  V  V63  1  0.62291099  0.00041122  0.62884653  1
  V  V64  1  0.62833189  0.48634918  0.12694063  1
  V  V65  1  0.74554464  0.62755438  0.37311269  1
  V  V66  1  0.12571981  0.49657195  0.64043153  1
  V  V67  1  0.37098823  0.62127188  0.74822366  1
  V  V68  1  -0.00316646  0.61914119  0.61987974  1
  V  V69  1  0.62714840  0.62328341  -0.00311888  1
  V  V70  1  0.62716447  0.25488190  0.37391981  1
  V  V71  1  0.87582031  0.75138294  0.12600871  1
  V  V72  1  0.87463439  0.87792040  0.50067249  1
  V  V73  1  0.87386387  0.62090333  0.25042882  1
  V  V74  1  0.88470235  0.12596432  0.75178267  1
  V  V75  1  0.12286518  0.62205340  -0.00098467  1
  V  V76  1  0.37280509  0.75398063  0.62417387  1
  V  V77  1  0.00009386  0.00172931  0.00407186  1
  V  V78  1  0.49777505  0.62494306  0.62363776  1
  V  V79  1  0.49952703  0.37649139  0.37211700  1
  V  V80  1  0.24433496  0.75080470  0.49779863  1
  V  V81  1  0.24715799  0.12600579  0.87648758  1
  V  V82  1  0.36672385  0.37515937  0.00456846  1
  V  V83  1  0.37119373  0.49442517  0.37631394  1
  V  V84  1  0.62757429  0.37737162  0.75068869  1
  Zn  Zn85  1  0.87160366  0.62288669  0.75111145  1
  Zn  Zn86  1  0.62510385  0.49873541  0.62355945  1
  Zn  Zn87  1  0.25279375  -0.02265586  0.25722944  1
  Zn  Zn88  1  0.36942878  0.88582712  0.49531623  1
  Zn  Zn89  1  0.76135119  0.12202751  0.32062643  1
  Zn  Zn90  1  0.75818726  0.24946843  0.48911737  1
  Zn  Zn91  1  0.88056551  0.38035706  0.50369414  1
  Zn  Zn92  1  0.37788484  0.00473677  0.88142396  1
  Zn  Zn93  1  0.87783188  0.50100042  0.38196560  1
  Zn  Zn94  1  0.25475355  0.11864800  0.37832050  1
  Zn  Zn95  1  0.62663860  0.75262770  0.86887489  1
  Zn  Zn96  1  0.75190816  0.62338055  0.87116280  1
  Zn  Zn97  1  0.51160399  0.88900822  0.88072874  1
  Zn  Zn98  1  0.24827729  0.87776661  0.62344957  1
  Zn  Zn99  1  -0.00133610  0.62003795  0.12495480  1
  Zn  Zn100  1  0.17204411  0.81088736  0.31185664  1
  Zn  Zn101  1  0.75069256  0.50240130  0.74881064  1
  Zn  Zn102  1  0.24655848  0.75241264  0.00377936  1
  Zn  Zn103  1  0.24856393  0.00077987  0.75099001  1
  Zn  Zn104  1  0.51349395  0.88279524  0.36325533  1
  Zn  Zn105  1  0.24469206  0.25461580  0.00487967  1
  Zn  Zn106  1  0.37474611  0.62288256  0.24820799  1
  Zn  Zn107  1  0.19088823  0.18392194  0.18867102  1
  Zn  Zn108  1  0.18446756  0.19054315  0.68784911  1
  Zn  Zn109  1  0.18778859  0.67739453  0.18446292  1
  Zn  Zn110  1  0.18600423  0.68671232  0.68561537  1
  Zn  Zn111  1  0.67478260  0.16984929  0.19417344  1
  Zn  Zn112  1  0.69277812  0.18854910  0.68929631  1
  Zn  Zn113  1  0.69063538  0.68137264  0.17958043  1
  Zn  Zn114  1  0.68577516  0.68452803  0.68316646  1
  Zn  Zn115  1  0.31107778  0.31080735  0.31227276  1
  Zn  Zn116  1  0.30988027  0.30889018  0.81583220  1
  Zn  Zn117  1  0.33856533  0.81860294  0.31409033  1
  Zn  Zn118  1  0.31162246  0.81006057  0.81597207  1
  Zn  Zn119  1  0.81456092  0.31148241  0.31519113  1
  Zn  Zn120  1  0.81395542  0.31467131  0.81575769  1
  Zn  Zn121  1  0.81440382  0.81240228  0.31286554  1
  Zn  Zn122  1  0.81095162  0.81612055  0.81332781  1
  Zn  Zn123  1  0.18556960  0.43621934  0.44025905  1
  Zn  Zn124  1  0.18837929  0.43840924  0.93212201  1
  Zn  Zn125  1  0.18911090  0.94205318  0.43818846  1
  Zn  Zn126  1  0.19251069  0.93860000  0.94259664  1
  Zn  Zn127  1  0.68810030  0.43943420  0.43644444  1
  Zn  Zn128  1  0.69041182  0.43597110  0.93747990  1
  Zn  Zn129  1  0.68895340  0.94621761  0.43217665  1
  Zn  Zn130  1  0.68856653  0.93155525  0.93681071  1
  Zn  Zn131  1  0.30790330  0.06160956  0.06851948  1
  Zn  Zn132  1  0.30717246  0.06920516  0.56565226  1
  Zn  Zn133  1  0.31023121  0.56341203  0.06076734  1
  Zn  Zn134  1  0.30933214  0.56018662  0.56210305  1
  Zn  Zn135  1  0.79982309  0.07417570  0.10012950  1
  Zn  Zn136  1  0.81380437  0.06482243  0.56481692  1
  Zn  Zn137  1  0.81180343  0.55979725  0.06363447  1
  Zn  Zn138  1  0.81227664  0.55748441  0.55974164  1
  Zn  Zn139  1  0.43915332  0.43660378  0.18734776  1
  Zn  Zn140  1  0.43575470  0.43830919  0.68658102  1
  Zn  Zn141  1  0.44203578  0.93100879  0.18475521  1
  Zn  Zn142  1  0.43611625  0.93915942  0.68495984  1
  Zn  Zn143  1  0.93857777  0.43279087  0.18791372  1
  Zn  Zn144  1  0.93773604  0.43758988  0.68447478  1
  Zn  Zn145  1  0.94436477  0.93477564  0.18675240  1
  Zn  Zn146  1  0.93807578  0.93951579  0.68865461  1
  Zn  Zn147  1  0.06624198  0.05724380  0.31787179  1
  Zn  Zn148  1  0.06030101  0.06500620  0.81583935  1
  Zn  Zn149  1  0.06454070  0.56095629  0.30947226  1
  Zn  Zn150  1  0.05479781  0.56087595  0.81171344  1
  Zn  Zn151  1  0.56867911  0.07091586  0.31232154  1
  Zn  Zn152  1  0.56282066  0.06223195  0.81577320  1
  Zn  Zn153  1  0.56434996  0.56405165  0.30923519  1
  Zn  Zn154  1  0.56047326  0.56524848  0.81196744  1
  Zn  Zn155  1  0.43893754  0.19006642  0.43901855  1
  Zn  Zn156  1  0.43919829  0.18824871  0.93837690  1
  Zn  Zn157  1  0.43139662  0.69339901  0.43276723  1
  Zn  Zn158  1  0.43522166  0.69112025  0.93745281  1
  Zn  Zn159  1  0.93818028  0.18826759  0.43101959  1
  Zn  Zn160  1  0.93547034  0.18922491  0.94189600  1
  Zn  Zn161  1  0.93517402  0.68505440  0.43784110  1
  Zn  Zn162  1  0.93625315  0.68221899  0.93693084  1
  Zn  Zn163  1  0.05710900  0.30964891  0.06281894  1
  Zn  Zn164  1  0.06320708  0.31229094  0.56694319  1
  Zn  Zn165  1  0.05951418  0.80898184  0.06364791  1
  Zn  Zn166  1  0.06358540  0.81151049  0.56106405  1
  Zn  Zn167  1  0.55615211  0.30801979  0.06159652  1
  Zn  Zn168  1  0.56195161  0.31680406  0.55950802  1
  Zn  Zn169  1  0.55928513  0.81217705  0.05911559  1
  Zn  Zn170  1  0.58603707  0.83762177  0.51920256  1
  O  O171  1  0.11763932  0.12148245  0.12022042  1
  O  O172  1  0.12520699  0.12056244  0.61419146  1
  O  O173  1  0.12231138  0.61010446  0.11513093  1
  O  O174  1  0.11938864  0.61443254  0.62063466  1
  O  O175  1  0.60644384  0.13269381  0.10916251  1
  O  O176  1  0.61906621  0.12597793  0.62104838  1
  O  O177  1  0.61829664  0.61594525  0.11152958  1
  O  O178  1  0.61505003  0.61839608  0.61648612  1
  O  O179  1  0.38000843  0.38708567  0.37219721  1
  O  O180  1  0.37873716  0.37907780  0.87954890  1
  O  O181  1  0.40572903  0.85355957  0.39293756  1
  O  O182  1  0.37421627  0.87653172  0.88628743  1
  O  O183  1  0.89327663  0.37228143  0.37530718  1
  O  O184  1  0.87303726  0.38485755  0.88676065  1
  O  O185  1  0.88185250  0.88223482  0.38394089  1
  O  O186  1  0.88045528  0.88495760  0.88099753  1
  O  O187  1  0.24358427  0.00646894  0.36803781  1
  O  O188  1  0.25313223  0.01405846  0.87309833  1
  O  O189  1  0.25532857  0.50172341  0.37031692  1
  O  O190  1  0.25528186  0.51236478  0.87597937  1
  O  O191  1  0.77037649  0.00216871  0.37966420  1
  O  O192  1  0.75956139  -0.00547695  0.86562838  1
  O  O193  1  0.74995996  0.51050688  0.36544190  1
  O  O194  1  0.75923207  0.50090868  0.87236288  1
  O  O195  1  0.24142327  0.50146501  0.13205509  1
  O  O196  1  0.23756632  0.49257135  0.62323274  1
  O  O197  1  0.23376943  1.00220284  0.13336954  1
  O  O198  1  0.23456723  1.00015709  0.62699587  1
  O  O199  1  0.74137072  0.50249633  0.13522366  1
  O  O200  1  0.74701765  0.48558235  0.62746841  1
  O  O201  1  0.75332822  0.97690713  0.12526177  1
  O  O202  1  0.74489593  0.99638295  0.63184906  1
  O  O203  1  0.01541936  0.37885261  0.25863115  1
  O  O204  1  -0.00257338  0.36356880  0.75387775  1
  O  O205  1  -0.00305165  0.86204419  0.26064335  1
  O  O206  1  0.00920255  0.87166236  0.75584966  1
  O  O207  1  0.49625324  0.36853542  0.26213867  1
  O  O208  1  0.50626507  0.37031815  0.75415913  1
  O  O209  1  0.50375708  0.85788983  0.24827087  1
  O  O210  1  0.49158558  0.85997317  0.74819397  1
  O  O211  1  0.48955188  0.13118926  0.23979906  1
  O  O212  1  0.49259116  0.13511393  0.74602582  1
  O  O213  1  0.49879910  0.62409777  0.23323708  1
  O  O214  1  0.49075228  0.62978831  0.74229240  1
  O  O215  1  1.00492185  0.12269004  0.24146980  1
  O  O216  1  0.98795538  0.12838195  0.75118768  1
  O  O217  1  0.98825831  0.62668282  0.24989249  1
  O  O218  1  0.99753045  0.63136584  0.73727363  1
  O  O219  1  0.37430096  0.25819553  0.00744326  1
  O  O220  1  0.36522562  0.24612423  0.50954803  1
  O  O221  1  0.37051570  0.75207936  0.01114152  1
  O  O222  1  0.36052313  0.74151898  0.51067142  1
  O  O223  1  0.86378252  0.25241119  0.00669206  1
  O  O224  1  0.87714883  0.25233294  0.50805550  1
  O  O225  1  0.87056738  0.75219539  0.00740454  1
  O  O226  1  0.86922250  0.75828591  0.50646106  1
  O  O227  1  0.12872058  0.24401997  0.49605879  1
  O  O228  1  0.12416005  0.24257645  0.99392451  1
  O  O229  1  0.13775412  0.73670769  0.51004449  1
  O  O230  1  0.12351381  0.73925040  0.99538173  1
  O  O231  1  0.62946370  0.24825213  0.49589256  1
  O  O232  1  0.62921073  0.24816780  0.99335757  1
  O  O233  1  0.63328504  0.73339666  0.50985652  1
  O  O234  1  0.63413322  0.73944707  1.00152195  1
  O  O235  1  0.48993111  0.24374267  0.13226598  1
  O  O236  1  0.49132596  0.25066044  0.62905645  1
  O  O237  1  0.49240074  0.74081327  0.12805616  1
  O  O238  1  0.48369679  0.74232351  0.63458103  1
  O  O239  1  0.99804640  0.23586766  0.12809534  1
  O  O240  1  0.99365348  0.25446504  0.63993299  1
  O  O241  1  0.99191917  0.74398921  0.13235134  1
  O  O242  1  0.99483683  0.74374437  0.62946591  1
  O  O243  1  0.01361584  0.25947348  0.37624286  1
  O  O244  1  0.00518626  0.24422584  0.86348009  1
  O  O245  1  -0.00827414  0.75679302  0.36639768  1
  O  O246  1  0.00408942  0.75449547  0.87000519  1
  O  O247  1  0.50083712  0.26058668  0.36939742  1
  O  O248  1  0.50911517  0.25591931  0.86994788  1
  O  O249  1  0.50316306  0.72929381  0.35121046  1
  O  O250  1  0.49707303  0.74598088  0.85674840  1
  O  O251  1  0.24055239  0.13811701  0.49969341  1
  O  O252  1  0.23934261  0.12661094  0.99572413  1
  O  O253  1  0.24234067  0.62809566  0.49250178  1
  O  O254  1  0.23557383  0.62342383  0.99197238  1
  O  O255  1  0.73774472  0.12904591  0.50598461  1
  O  O256  1  0.73435777  0.13410774  1.01351614  1
  O  O257  1  0.74136441  0.62677658  0.49256771  1
  O  O258  1  0.74267860  0.63088606  0.99975903  1
  O  O259  1  0.26277437  0.37492951  -0.00460599  1
  O  O260  1  0.24324669  0.36334375  0.51006665  1
  O  O261  1  0.26386314  0.86768643  -0.00249972  1
  O  O262  1  0.25005833  0.86547187  0.50140482  1
  O  O263  1  0.75955104  0.36582055  -0.00419461  1
  O  O264  1  0.75051194  0.37020087  0.50712898  1
  O  O265  1  0.75738272  0.86510839  0.00845177  1
  O  O266  1  0.76227182  0.87528967  0.50954064  1
  O  O267  1  0.13070731  0.49288417  0.23906558  1
  O  O268  1  0.12522144  0.50434137  0.73936992  1
  O  O269  1  0.12205019  0.99622120  0.23847250  1
  O  O270  1  0.12223215  0.99496863  0.74440288  1
  O  O271  1  0.63577670  0.50567335  0.23936204  1
  O  O272  1  0.62241015  0.48660031  0.75004782  1
  O  O273  1  0.66883913  1.07972843  0.26740100  1
  O  O274  1  0.63535690  1.01203450  0.73793505  1
  O  O275  1  0.37695490  0.00977860  0.24435429  1
  O  O276  1  0.36934141  0.01711429  0.74275465  1
  O  O277  1  0.36685243  0.50040009  0.25484587  1
  O  O278  1  0.37941305  0.51283753  0.75574546  1
  O  O279  1  0.87995348  -0.00571671  0.26237559  1
  O  O280  1  0.87134941  0.00774511  0.75711191  1
  O  O281  1  0.86753774  0.50596311  0.24970741  1
  O  O282  1  0.87564408  0.49851198  0.75972039  1
  O  O283  1  0.11839236  0.36929463  0.36899357  1
  O  O284  1  0.12800481  0.35987297  0.87775308  1
  O  O285  1  0.10807534  0.87215087  0.38694697  1
  O  O286  1  0.11943865  0.87181773  0.87089243  1
  O  O287  1  0.61728971  0.36337006  0.37902624  1
  O  O288  1  0.61974146  0.36841549  0.86876908  1
  O  O289  1  0.61516834  0.86810087  0.41092145  1
  O  O290  1  0.62243424  0.86510665  0.87887568  1
  O  O291  1  0.38388279  0.13045951  0.12859210  1
  O  O292  1  0.37627350  0.13925553  0.63288549  1
  O  O293  1  0.38354038  0.63093017  0.12155011  1
  O  O294  1  0.37627113  0.62801312  0.63195981  1
  O  O295  1  0.90158485  0.12828591  0.10915599  1
  O  O296  1  0.87184594  0.13848826  0.63391947  1
  O  O297  1  0.87479358  0.63386463  0.13130877  1
  O  O298  1  0.88240697  0.63000677  0.62433460  1
  O  O299  1  0.26405670  0.24612691  0.12341410  1
  O  O300  1  0.25375422  0.25771020  0.62024938  1
  O  O301  1  0.26509701  0.73821613  0.12469440  1
  O  O302  1  0.25780703  0.75022488  0.62001834  1
  O  O303  1  0.74849249  0.26245858  0.11450669  1
  O  O304  1  0.75983260  0.26014455  0.62590526  1
  O  O305  1  0.75778342  0.75388336  0.11483043  1
  O  O306  1  0.75440066  0.75952251  0.62021916  1
  O  O307  1  0.24049273  0.24849724  0.38272051  1
  O  O308  1  0.23996654  0.23995266  0.87866710  1
  O  O309  1  0.24828526  0.73986016  0.38153357  1
  O  O310  1  0.24083669  0.73747111  0.87704576  1
  O  O311  1  0.74204151  0.23820266  0.36776739  1
  O  O312  1  0.73833056  0.25270778  0.88207520  1
  O  O313  1  0.75793356  0.73662371  0.38218490  1
  O  O314  1  0.75331276  0.74757194  0.88725242  1
  O  O315  1  0.01358706  0.11964194  -0.00138957  1
  O  O316  1  0.00496228  0.11461752  0.49609489  1
  O  O317  1  0.01078665  0.61571887  0.00036792  1
  O  O318  1  0.00851340  0.63234907  0.51163204  1
  O  O319  1  0.50543022  0.12607782  0.00944618  1
  O  O320  1  0.50403345  0.12098300  0.51042328  1
  O  O321  1  0.50581361  0.62132989  0.00560466  1
  O  O322  1  0.50354334  0.62169027  0.50243111  1
  O  O323  1  0.50146114  0.38569752  0.48676056  1
  O  O324  1  0.48983187  0.37900362  0.99246324  1
  O  O325  1  0.49319851  0.90550302  0.51968477  1
  O  O326  1  0.48007628  0.86405181  0.99571624  1
  O  O327  1  1.00637503  0.37307746  0.48606780  1
  O  O328  1  0.98953471  0.37946637  1.00047169  1
  O  O329  1  0.98987308  0.88107715  0.49774313  1
  O  O330  1  0.99314454  0.88027450  0.99650458  1
  O  O331  1  0.49252834  0.49639478  0.37661576  1
  O  O332  1  0.49288822  0.49545310  0.88072240  1
  O  O333  1  0.50735254  1.00557956  0.38827910  1
  O  O334  1  0.48891838  0.99932251  0.86584763  1
  O  O335  1  1.00261040  0.48529435  0.37115042  1
  O  O336  1  0.99342464  0.50085983  0.88790489  1
  O  O337  1  0.99072594  0.99246067  0.38383859  1
  O  O338  1  0.99304894  0.99511941  0.88330183  1
  O  O339  1  0.00989364  0.00804682  0.12134117  1
  O  O340  1  0.01031907  -0.00352638  0.61696734  1
  O  O341  1  0.00710602  0.49872241  0.11383491  1
  O  O342  1  0.01204833  0.50704754  0.62807494  1
  O  O343  1  0.50000980  0.01329203  0.12755008  1
  O  O344  1  0.50795508  0.01305982  0.62794952  1
  O  O345  1  0.50434497  0.50661908  0.11823057  1
  O  O346  1  0.49853025  0.50445380  0.61422823  1
  O  O347  1  0.23915950  0.38550134  0.25587888  1
  O  O348  1  0.25014862  0.36976198  0.73901071  1
  O  O349  1  0.25425166  0.86266072  0.25789706  1
  O  O350  1  0.23661320  0.87663173  0.75206841  1
  O  O351  1  0.75072322  0.38823527  0.25801661  1
  O  O352  1  0.74169807  0.37432675  0.74387654  1
  O  O353  1  0.74757851  0.86242132  0.23747093  1
  O  O354  1  0.75735599  0.88797097  0.73786072  1
  O  O355  1  0.27006422  0.12658079  0.24999276  1
  O  O356  1  0.25520994  0.12828243  0.75819994  1
  O  O357  1  0.24891470  0.61060452  0.25758965  1
  O  O358  1  0.25727850  0.62919849  0.75713361  1
  O  O359  1  0.78934002  0.14925577  0.19844298  1
  O  O360  1  0.76284521  0.11487279  0.74778312  1
  O  O361  1  0.75941760  0.62257649  0.25492806  1
  O  O362  1  0.75191196  0.62189793  0.75108258  1
  O  O363  1  0.37930103  0.12911941  0.35955321  1
  O  O364  1  0.36557105  0.13019614  0.86842115  1
  O  O365  1  0.36161867  0.61406499  0.37229459  1
  O  O366  1  0.36577767  0.62177354  0.86872566  1
  O  O367  1  0.87426217  0.11299539  0.36957237  1
  O  O368  1  0.87757486  0.11428126  0.87096864  1
  O  O369  1  0.86823893  0.62151789  0.36644707  1
  O  O370  1  0.87453072  0.60879358  0.87523309  1
  O  O371  1  0.12192157  0.38152958  0.12969251  1
  O  O372  1  0.12916633  0.38926092  0.62447472  1
  O  O373  1  0.12098814  0.88661421  0.12109854  1
  O  O374  1  0.12438042  0.88262934  0.63440377  1
  O  O375  1  0.61520984  0.38786180  0.11935254  1
  O  O376  1  0.63176699  0.37392480  0.63357530  1
  O  O377  1  0.63360109  0.87102518  0.12174036  1
  O  O378  1  0.63640246  0.88828838  0.61631594  1
  O  O379  1  0.13388662  0.25702930  0.25810309  1
  O  O380  1  0.10904946  0.24411484  0.75745187  1
  O  O381  1  0.11039401  0.73668793  0.24725911  1
  O  O382  1  0.11843229  0.75753243  0.75430528  1
  O  O383  1  0.60847713  0.24641582  0.25777047  1
  O  O384  1  0.62258555  0.25771770  0.75736127  1
  O  O385  1  0.61243823  0.73857683  0.23923389  1
  O  O386  1  0.60691544  0.74435996  0.74528901  1
  O  O387  1  0.38310536  0.24581643  0.24417309  1
  O  O388  1  0.37890907  0.24270422  0.74467139  1
  O  O389  1  0.38724433  0.74171822  0.23533763  1
  O  O390  1  0.37740485  0.74027465  0.74424816  1
  O  O391  1  0.88537945  0.26547470  0.23789650  1
  O  O392  1  0.88428770  0.24512680  0.74911177  1
  O  O393  1  0.88231286  0.74124911  0.24306696  1
  O  O394  1  0.88123248  0.75092893  0.74417090  1
  O  O395  1  0.38571986  0.50591507  0.49124084  1
  O  O396  1  0.37960223  0.49402823  0.99460893  1
  O  O397  1  0.38682184  1.01089796  0.50395114  1
  O  O398  1  0.36899029  0.98570440  1.00508027  1
  O  O399  1  0.87646152  0.49431941  0.49565845  1
  O  O400  1  0.88086224  0.49061299  0.99889757  1
  O  O401  1  0.88258878  0.99568748  0.50004026  1
  O  O402  1  0.87911530  0.99608585  0.99490429  1
  O  O403  1  0.12197170  0.00658088  0.00966083  1
  O  O404  1  0.11651986  0.00766081  0.50767154  1
  O  O405  1  0.11897400  0.50038802  0.00314127  1
  O  O406  1  0.12802371  0.51174574  0.50955822  1
  O  O407  1  0.63239363  0.01460316  -0.00377282  1
  O  O408  1  0.61776504  0.01485052  0.51224274  1
  O  O409  1  0.61996874  0.50480969  0.00311872  1
  O  O410  1  0.61218565  0.50901447  0.49800515  1
  O  O411  1  0.38125729  0.36625919  0.11582068  1
  O  O412  1  0.36663630  0.36551751  0.62885440  1
  O  O413  1  0.37844549  0.86033263  0.11671441  1
  O  O414  1  0.36814325  0.86697092  0.62176439  1
  O  O415  1  0.87823787  0.36569030  0.11543570  1
  O  O416  1  0.86893822  0.36423256  0.62565660  1
  O  O417  1  0.87678646  0.86226841  0.12166261  1
  O  O418  1  0.87060183  0.87192291  0.61920132  1
  O  O419  1  0.12339480  0.13220605  0.38642293  1
  O  O420  1  0.13061043  0.12986348  0.88314524  1
  O  O421  1  0.13542149  0.61628066  0.38249361  1
  O  O422  1  0.12804544  0.62708045  0.87862027  1
  O  O423  1  0.60720771  0.14681424  0.39547316  1
  O  O424  1  0.61993070  0.13465199  0.89026336  1
  O  O425  1  0.63376452  0.62164367  0.38228881  1
  O  O426  1  0.62540570  0.62823406  0.88588898  1
