# generated using pymatgen
data_V85Zn86O256
_symmetry_space_group_name_H-M   'P 1'
_cell_length_a   16.91374214
_cell_length_b   16.92145980
_cell_length_c   16.92225291
_cell_angle_alpha   90.10150046
_cell_angle_beta   89.97743102
_cell_angle_gamma   89.91802839
_symmetry_Int_Tables_number   1
_chemical_formula_structural   V85Zn86O256
_chemical_formula_sum   'V85 Zn86 O256'
_cell_volume   4843.22397372
_cell_formula_units_Z   1
loop_
 _symmetry_equiv_pos_site_id
 _symmetry_equiv_pos_as_xyz
  1  'x, y, z'
loop_
 _atom_site_type_symbol
 _atom_site_label
 _atom_site_symmetry_multiplicity
 _atom_site_fract_x
 _atom_site_fract_y
 _atom_site_fract_z
 _atom_site_occupancy
  V  V0  1  0.37257623  0.12703874  0.76151121  1
  V  V1  1  0.24743133  0.75397527  0.50844867  1
  V  V2  1  0.62322038  0.37906967  0.75713027  1
  V  V3  1  -0.00339749  0.24448722  0.23706239  1
  V  V4  1  0.24706382  0.00275248  0.24618608  1
  V  V5  1  0.12475128  0.12585917  0.00158827  1
  V  V6  1  0.75001478  0.62037344  0.37013610  1
  V  V7  1  0.61668784  0.87814305  0.75569918  1
  V  V8  1  0.88086769  0.25225018  0.62486161  1
  V  V9  1  0.00295854  0.88009968  0.87439689  1
  V  V10  1  0.37119535  0.62964810  0.74926624  1
  V  V11  1  0.38020105  0.37332571  -0.01178043  1
  V  V12  1  0.87408874  0.61038214  0.24653280  1
  V  V13  1  0.62984409  0.49700535  0.13029631  1
  V  V14  1  0.62163459  0.00864314  0.12919080  1
  V  V15  1  -0.00421989  0.37402236  0.38605559  1
  V  V16  1  0.24256637  0.74531713  -0.00114469  1
  V  V17  1  0.62681040  0.00226210  0.62689621  1
  V  V18  1  0.87744928  0.49539828  0.39051620  1
  V  V19  1  0.12186130  0.48860761  0.62509066  1
  V  V20  1  0.37424763  0.49905917  0.37534528  1
  V  V21  1  0.24870305  0.87652378  0.12097074  1
  V  V22  1  0.87226555  0.00547372  0.87771060  1
  V  V23  1  0.86604424  0.00323086  0.37447168  1
  V  V24  1  0.37447418  0.62454455  0.24824520  1
  V  V25  1  0.88266330  0.38017696  -0.00594326  1
  V  V26  1  0.74847884  0.87833680  0.12617681  1
  V  V27  1  0.37050546  0.87869445  0.50466972  1
  V  V28  1  0.49990357  0.74996135  0.24895888  1
  V  V29  1  0.37164139  0.25708515  0.62779430  1
  V  V30  1  0.50052200  0.62103275  0.12074909  1
  V  V31  1  0.00639052  0.00297616  0.01432954  1
  V  V32  1  0.24260883  0.00635340  0.74561190  1
  V  V33  1  0.49882026  0.12903359  0.62652484  1
  V  V34  1  0.76096921  0.24479176  -0.00000008  1
  V  V35  1  0.62946853  0.62146375  -0.00702980  1
  V  V36  1  0.50134063  0.63154295  0.62626635  1
  V  V37  1  0.24889585  0.24282450  -0.01920533  1
  V  V38  1  0.37863237  0.12354955  0.24943779  1
  V  V39  1  0.12207213  0.24764801  0.37333487  1
  V  V40  1  0.61639864  0.75391263  0.87754404  1
  V  V41  1  0.00268503  0.00112933  0.50584113  1
  V  V42  1  0.00277851  0.62045844  0.10980249  1
  V  V43  1  0.49900094  0.87667547  0.37555184  1
  V  V44  1  0.75085225  0.50499360  0.76260283  1
  V  V45  1  0.87064341  0.63011099  0.75600189  1
  V  V46  1  0.62921139  0.87848684  0.25073004  1
  V  V47  1  0.25047698  0.36902382  0.12556784  1
  V  V48  1  0.62680582  0.25166083  0.37615522  1
  V  V49  1  0.37711077  0.87275797  -0.00942017  1
  V  V50  1  -0.00261398  0.87569452  0.37427757  1
  V  V51  1  0.75583440  0.25555813  0.50075627  1
  V  V52  1  0.50404660  0.24743549  0.24646979  1
  V  V53  1  0.24958770  0.48702173  0.74134248  1
  V  V54  1  0.75112754  0.74779862  -0.00645627  1
  V  V55  1  0.50086639  0.37505030  0.37535902  1
  V  V56  1  0.87325640  0.74808030  0.12522387  1
  V  V57  1  0.01350970  0.25461610  0.76069001  1
  V  V58  1  0.12927395  0.87792274  0.73355904  1
  V  V59  1  0.87213068  0.12262844  0.23688202  1
  V  V60  1  0.12732878  0.12049240  0.50528528  1
  V  V61  1  0.62366000  0.12517682  -0.00264074  1
  V  V62  1  0.24221268  0.62374765  0.87286313  1
  V  V63  1  0.50155351  0.50182625  0.50147654  1
  V  V64  1  0.49629461  0.25575274  0.75918283  1
  V  V65  1  0.75589869  0.37849595  0.62722228  1
  V  V66  1  0.76026959  0.37330905  0.12864394  1
  V  V67  1  0.24595458  0.49838121  0.24963326  1
  V  V68  1  0.49938961  -0.00134283  -0.00305269  1
  V  V69  1  0.62670582  0.12754687  0.50123233  1
  V  V70  1  0.87387705  0.87374750  0.50566396  1
  V  V71  1  0.12333891  0.74951349  0.37385796  1
  V  V72  1  0.12385881  0.50318439  0.11134450  1
  V  V73  1  -0.00635041  0.75431579  0.74391210  1
  V  V74  1  0.75234220  0.74748045  0.50241589  1
  V  V75  1  0.86994845  0.12868883  0.75485624  1
  V  V76  1  0.24737788  0.62504881  0.37562760  1
  V  V77  1  -0.00158121  0.74724482  0.24719399  1
  V  V78  1  0.11751496  0.62066088  0.50108566  1
  V  V79  1  0.63159333  0.24777597  0.87497391  1
  V  V80  1  0.24955180  0.25709857  0.50223688  1
  V  V81  1  -0.00567743  0.62421370  0.62508857  1
  V  V82  1  0.12360720  0.88108301  0.24609813  1
  V  V83  1  0.75042305  0.87238443  0.62970966  1
  V  V84  1  0.37744211  0.24650362  0.12554665  1
  Zn  Zn85  1  0.62650445  0.62626873  0.50022098  1
  Zn  Zn86  1  0.50570882  0.48848240  -0.00762271  1
  Zn  Zn87  1  0.37155945  0.37782833  0.50394498  1
  Zn  Zn88  1  0.11912692  0.37358914  0.24810203  1
  Zn  Zn89  1  0.37373679  -0.00088523  0.87452404  1
  Zn  Zn90  1  0.49372766  0.75681897  0.75575037  1
  Zn  Zn91  1  0.00356214  0.12129222  0.63214757  1
  Zn  Zn92  1  0.87616118  0.87681269  0.00027853  1
  Zn  Zn93  1  0.75011522  0.12521602  0.37092208  1
  Zn  Zn94  1  0.88483269  0.50643787  0.87859092  1
  Zn  Zn95  1  0.62640600  0.74815787  0.37448653  1
  Zn  Zn96  1  0.37951044  0.49522364  0.86771300  1
  Zn  Zn97  1  0.49772401  0.00231939  0.49948063  1
  Zn  Zn98  1  0.02247811  0.38330326  0.87909622  1
  Zn  Zn99  1  0.37366865  0.00125294  0.37520708  1
  Zn  Zn100  1  0.37113625  0.75728031  0.62809619  1
  Zn  Zn101  1  0.12190326  0.74982114  0.87494626  1
  Zn  Zn102  1  0.37464709  0.74901162  0.12265682  1
  Zn  Zn103  1  0.74799518  0.00488290  0.75792534  1
  Zn  Zn104  1  0.63233899  0.37693059  0.25076801  1
  Zn  Zn105  1  0.25057022  0.12477520  0.37498424  1
  Zn  Zn106  1  0.62714674  0.50360712  0.62769864  1
  Zn  Zn107  1  0.18302000  0.18236959  0.18307578  1
  Zn  Zn108  1  0.19185299  0.18069593  0.68167820  1
  Zn  Zn109  1  0.18522925  0.68864453  0.18470289  1
  Zn  Zn110  1  0.18170355  0.68675404  0.68840577  1
  Zn  Zn111  1  0.69283646  0.19006522  0.18554656  1
  Zn  Zn112  1  0.69003228  0.19072583  0.68887433  1
  Zn  Zn113  1  0.68741257  0.68783861  0.18630860  1
  Zn  Zn114  1  0.68584977  0.69044528  0.68955060  1
  Zn  Zn115  1  0.31180589  0.31213827  0.31407163  1
  Zn  Zn116  1  0.19045180  0.31108132  0.80821520  1
  Zn  Zn117  1  0.31209545  0.81256866  0.31450607  1
  Zn  Zn118  1  0.30596708  0.81484970  0.81228959  1
  Zn  Zn119  1  0.81771332  0.30993650  0.31130907  1
  Zn  Zn120  1  0.81321345  0.31216429  0.81333525  1
  Zn  Zn121  1  0.81223810  0.80881358  0.31327673  1
  Zn  Zn122  1  0.81152065  0.81502178  0.81454300  1
  Zn  Zn123  1  0.18172700  0.43562194  0.43821221  1
  Zn  Zn124  1  0.19858820  0.44026232  0.93745050  1
  Zn  Zn125  1  0.18809625  0.93821151  0.43384770  1
  Zn  Zn126  1  0.18638755  0.94476396  0.93090353  1
  Zn  Zn127  1  0.68917723  0.43827901  0.43858652  1
  Zn  Zn128  1  0.69105036  0.43400380  0.94002241  1
  Zn  Zn129  1  0.68578363  0.93800694  0.43962517  1
  Zn  Zn130  1  0.68793868  0.93645763  0.93961553  1
  Zn  Zn131  1  0.31148352  0.06301535  0.06446515  1
  Zn  Zn132  1  0.31168069  0.06407881  0.56599066  1
  Zn  Zn133  1  0.31081683  0.56034923  0.06050021  1
  Zn  Zn134  1  0.31136020  0.56553824  0.56411742  1
  Zn  Zn135  1  0.80902787  0.05929268  0.05946455  1
  Zn  Zn136  1  0.81373296  0.06495786  0.56583670  1
  Zn  Zn137  1  0.81158455  0.55911421  0.06188167  1
  Zn  Zn138  1  0.81262797  0.56291070  0.56713117  1
  Zn  Zn139  1  0.43898842  0.43469353  0.18482918  1
  Zn  Zn140  1  0.43866259  0.43938373  0.68810848  1
  Zn  Zn141  1  0.43781240  0.93784185  0.18172218  1
  Zn  Zn142  1  0.43537792  0.94353867  0.68614166  1
  Zn  Zn143  1  0.94157572  0.43308729  0.18671269  1
  Zn  Zn144  1  0.93961825  0.43831387  0.69438303  1
  Zn  Zn145  1  0.93185412  0.93784508  0.19002513  1
  Zn  Zn146  1  0.93533763  0.94019068  0.68862720  1
  Zn  Zn147  1  0.05747563  0.06327214  0.31478893  1
  Zn  Zn148  1  0.06408783  0.06692814  0.81806274  1
  Zn  Zn149  1  0.05818977  0.55973845  0.30903866  1
  Zn  Zn150  1  0.06312203  0.55954567  0.80983141  1
  Zn  Zn151  1  0.56309599  0.06317263  0.31340347  1
  Zn  Zn152  1  0.56077715  0.06451346  0.81596113  1
  Zn  Zn153  1  0.56437794  0.56197097  0.31140706  1
  Zn  Zn154  1  0.55803563  0.56296062  0.81469583  1
  Zn  Zn155  1  0.43669785  0.18859253  0.43692024  1
  Zn  Zn156  1  0.44399123  0.18888149  0.94075533  1
  Zn  Zn157  1  0.43542879  0.69011097  0.43787875  1
  Zn  Zn158  1  0.43349332  0.68407436  0.93740261  1
  Zn  Zn159  1  0.93797326  0.18593936  0.43718218  1
  Zn  Zn160  1  0.94294179  0.18504791  0.93888360  1
  Zn  Zn161  1  0.93463664  0.68696763  0.43677712  1
  Zn  Zn162  1  0.93780481  0.69193887  0.93308842  1
  Zn  Zn163  1  0.06907620  0.31201061  0.05823384  1
  Zn  Zn164  1  0.06045561  0.30767830  0.56311426  1
  Zn  Zn165  1  0.06263194  0.81436432  0.06224343  1
  Zn  Zn166  1  0.05862659  0.80912582  0.56169589  1
  Zn  Zn167  1  0.56528050  0.31039376  0.06410164  1
  Zn  Zn168  1  0.56491307  0.31622463  0.56683342  1
  Zn  Zn169  1  0.56094164  0.81277690  0.06341798  1
  Zn  Zn170  1  0.56441932  0.81312033  0.56166765  1
  O  O171  1  0.13697717  0.11553910  0.10514882  1
  O  O172  1  0.12170566  0.12545430  0.60975636  1
  O  O173  1  0.11441541  0.61604638  0.13079362  1
  O  O174  1  0.11488999  0.61977608  0.61786341  1
  O  O175  1  0.63142229  0.11289972  0.12228149  1
  O  O176  1  0.61964071  0.12390430  0.62201918  1
  O  O177  1  0.61971007  0.61771258  0.11799553  1
  O  O178  1  0.61589775  0.62448151  0.62306650  1
  O  O179  1  0.38215668  0.38189226  0.37769573  1
  O  O180  1  0.37282625  0.37074990  0.89060599  1
  O  O181  1  0.38293250  0.87558907  0.38328455  1
  O  O182  1  0.37332067  0.87390573  0.88728600  1
  O  O183  1  0.87784495  0.38840810  0.37232138  1
  O  O184  1  0.87312753  0.37524750  0.88922927  1
  O  O185  1  0.87771701  0.88109485  0.38212933  1
  O  O186  1  0.88709379  0.88205905  0.87497213  1
  O  O187  1  0.25305718  0.00085138  0.35947665  1
  O  O188  1  0.25723194  -0.00884520  0.85458515  1
  O  O189  1  0.25261789  0.50366601  0.36924890  1
  O  O190  1  0.25739056  0.50746316  0.86022607  1
  O  O191  1  0.76198279  0.00113646  0.37995895  1
  O  O192  1  0.76717155  -0.00681560  0.87769001  1
  O  O193  1  0.76220646  0.50913931  0.37990054  1
  O  O194  1  0.75348735  0.49894860  0.86497929  1
  O  O195  1  0.24659492  0.49209155  0.13298863  1
  O  O196  1  0.24035880  0.50398669  0.63307918  1
  O  O197  1  0.25414003  0.99069787  0.13696299  1
  O  O198  1  0.25727949  0.99993765  0.64477393  1
  O  O199  1  0.74427038  0.48406856  0.12042819  1
  O  O200  1  0.74839591  0.49208590  0.63174312  1
  O  O201  1  0.74040117  0.98514009  0.11970130  1
  O  O202  1  0.74433476  0.99020081  0.62659599  1
  O  O203  1  -0.00181248  0.35969319  0.25771340  1
  O  O204  1  -0.00058679  0.35685066  0.75123595  1
  O  O205  1  0.00628765  0.86986871  0.25202948  1
  O  O206  1  0.00568401  0.87287404  0.75296679  1
  O  O207  1  0.50152536  0.36468848  0.25689777  1
  O  O208  1  0.50988782  0.36709856  0.74421749  1
  O  O209  1  0.50568379  0.86998184  0.25469962  1
  O  O210  1  0.51242743  0.87583565  0.74323587  1
  O  O211  1  0.49341590  0.13759493  0.25495548  1
  O  O212  1  0.49520942  0.13308267  0.74404877  1
  O  O213  1  0.49671339  0.62829999  0.24027765  1
  O  O214  1  0.49129747  0.62948363  0.74190090  1
  O  O215  1  0.99101679  0.13565036  0.25299167  1
  O  O216  1  0.99526251  0.13604111  0.75093723  1
  O  O217  1  0.99114316  0.63064588  0.24374794  1
  O  O218  1  0.99498441  0.63608033  0.74307017  1
  O  O219  1  0.36822496  0.25262542  0.00673056  1
  O  O220  1  0.36663580  0.24950725  0.50749783  1
  O  O221  1  0.36554952  0.75685205  0.00122797  1
  O  O222  1  0.36357712  0.75768602  0.50010205  1
  O  O223  1  0.86512593  0.25352270  -0.00533470  1
  O  O224  1  0.86846535  0.24447445  0.51273195  1
  O  O225  1  0.86686460  0.75202043  0.00557392  1
  O  O226  1  0.86374258  0.76015757  0.49539695  1
  O  O227  1  0.13084327  0.24257990  0.49398124  1
  O  O228  1  0.14065105  0.24107812  1.00185610  1
  O  O229  1  0.12894949  0.74427376  0.49324492  1
  O  O230  1  0.13809407  0.75495650  0.99686520  1
  O  O231  1  0.63178067  0.24651261  0.49682421  1
  O  O232  1  0.63006345  0.24415694  0.99298525  1
  O  O233  1  0.63909483  0.75050914  0.49582217  1
  O  O234  1  0.63021415  0.74438649  0.99610973  1
  O  O235  1  0.49213801  0.25406477  0.13555805  1
  O  O236  1  0.49845730  0.24274602  0.63356949  1
  O  O237  1  0.49846802  0.74019394  0.13151269  1
  O  O238  1  0.49811569  0.74025543  0.62422645  1
  O  O239  1  1.00702676  0.25229140  0.13898838  1
  O  O240  1  0.99354322  0.24752212  0.63479315  1
  O  O241  1  0.99438361  0.74345090  0.12841415  1
  O  O242  1  1.00174988  0.74210409  0.63584140  1
  O  O243  1  0.00530549  0.25442766  0.36930797  1
  O  O244  1  0.00128883  0.25170155  0.86258296  1
  O  O245  1  0.00270410  0.75549013  0.36818042  1
  O  O246  1  0.00208144  0.75976300  0.86370639  1
  O  O247  1  0.50620759  0.25715277  0.37031429  1
  O  O248  1  0.51120510  0.24824085  0.86442328  1
  O  O249  1  0.50192498  0.75967841  0.36880852  1
  O  O250  1  0.51233308  0.74652466  0.87716995  1
  O  O251  1  0.24371219  0.13178691  0.49646378  1
  O  O252  1  0.25178873  0.13883151  1.00094793  1
  O  O253  1  0.24032519  0.63226526  0.49412127  1
  O  O254  1  0.25887973  0.63340245  0.98748707  1
  O  O255  1  0.74302372  0.13791542  0.50276099  1
  O  O256  1  0.73824056  0.13371287  1.00639676  1
  O  O257  1  0.75160360  0.63250476  0.49560490  1
  O  O258  1  0.74075524  0.63424411  1.00794214  1
  O  O259  1  0.26049762  0.36047343  0.00882012  1
  O  O260  1  0.25080647  0.36151533  0.49486363  1
  O  O261  1  0.25417588  0.87161843  0.00552940  1
  O  O262  1  0.25746133  0.86661814  0.49202207  1
  O  O263  1  0.76018802  0.36619060  0.00694990  1
  O  O264  1  0.74481135  0.36395507  0.51093900  1
  O  O265  1  0.75142226  0.86639324  0.00933428  1
  O  O266  1  0.75580336  0.86955268  0.50594728  1
  O  O267  1  0.13646097  0.49760202  0.24672840  1
  O  O268  1  0.13907727  0.50465342  0.73536642  1
  O  O269  1  0.12916832  0.98898187  0.25534281  1
  O  O270  1  0.13240435  0.99300183  0.75033093  1
  O  O271  1  0.62252479  0.49764620  0.23518971  1
  O  O272  1  0.63103387  0.49510974  0.75051677  1
  O  O273  1  0.61983044  0.99136934  0.24198237  1
  O  O274  1  0.62745877  0.99600612  0.74740352  1
  O  O275  1  0.37022298  0.00888178  0.24794140  1
  O  O276  1  0.37037227  0.01057635  0.75257663  1
  O  O277  1  0.36448926  0.50329958  0.25300466  1
  O  O278  1  0.36340041  0.50829523  0.74383204  1
  O  O279  1  0.88176722  0.01346762  0.25992388  1
  O  O280  1  0.87567381  0.01080127  0.75808561  1
  O  O281  1  0.87817550  0.50846586  0.25376109  1
  O  O282  1  0.86605403  0.50984221  0.75039970  1
  O  O283  1  0.11625143  0.36448100  0.37189138  1
  O  O284  1  0.13397058  0.36888715  0.88437760  1
  O  O285  1  0.11716948  0.86926858  0.36693266  1
  O  O286  1  0.11250398  0.87728539  0.86529092  1
  O  O287  1  0.62051545  0.37062105  0.37171660  1
  O  O288  1  0.62926073  0.36833390  0.86444758  1
  O  O289  1  0.61887596  0.87474247  0.36724839  1
  O  O290  1  0.62775899  0.86809070  0.86767049  1
  O  O291  1  0.37114745  0.13752208  0.13560410  1
  O  O292  1  0.38396434  0.13452410  0.63135592  1
  O  O293  1  0.38368873  0.62272085  0.12974623  1
  O  O294  1  0.38011462  0.63017629  0.63406776  1
  O  O295  1  0.87269934  0.11648315  0.13805372  1
  O  O296  1  0.87884417  0.13427260  0.63452548  1
  O  O297  1  0.88002921  0.62650669  0.13051016  1
  O  O298  1  0.88860720  0.61979539  0.63296960  1
  O  O299  1  0.25695215  0.25854296  0.12756349  1
  O  O300  1  0.26003375  0.24654482  0.61630778  1
  O  O301  1  0.25204415  0.75506930  0.11721921  1
  O  O302  1  0.24683691  0.74686359  0.61134177  1
  O  O303  1  0.74506361  0.26355627  0.11289853  1
  O  O304  1  0.75899108  0.25795579  0.62128108  1
  O  O305  1  0.75189681  0.75836033  0.11689445  1
  O  O306  1  0.74550126  0.76390512  0.61824135  1
  O  O307  1  0.23974112  0.24806394  0.37991519  1
  O  O308  1  0.25692228  0.24718998  0.88350148  1
  O  O309  1  0.24204853  0.74291856  0.38016863  1
  O  O310  1  0.24617725  0.74309663  0.88087889  1
  O  O311  1  0.74666935  0.25209498  0.38475013  1
  O  O312  1  0.73940937  0.25367430  0.88329835  1
  O  O313  1  0.75143554  0.73693873  0.38231630  1
  O  O314  1  0.74089791  0.75546486  0.88850927  1
  O  O315  1  0.00827387  0.11352964  0.00287332  1
  O  O316  1  0.00735191  0.11649672  0.50070858  1
  O  O317  1  -0.00462665  0.62969825  0.01076880  1
  O  O318  1  0.00916028  0.63265482  0.50747783  1
  O  O319  1  0.51437767  0.12016329  0.00312402  1
  O  O320  1  0.50811378  0.12809800  0.50820250  1
  O  O321  1  0.50625479  0.62608147  0.01146887  1
  O  O322  1  0.50028533  0.61989424  0.50577183  1
  O  O323  1  0.49970561  0.38383548  0.49479773  1
  O  O324  1  0.48458617  0.36925676  1.00559186  1
  O  O325  1  0.49489185  0.87602261  0.49069525  1
  O  O326  1  0.48834626  0.88236108  1.00755558  1
  O  O327  1  0.99998403  0.36769534  0.48583189  1
  O  O328  1  0.98514180  0.36344836  0.99915202  1
  O  O329  1  0.99122244  0.87864934  0.49581349  1
  O  O330  1  0.99932727  0.88378186  0.99243715  1
  O  O331  1  0.49527052  0.49609655  0.38085889  1
  O  O332  1  0.49117934  0.50521515  0.88156321  1
  O  O333  1  0.49808795  0.98808543  0.37571676  1
  O  O334  1  0.49798554  1.00278289  0.89128163  1
  O  O335  1  0.98712042  0.49049342  0.37041727  1
  O  O336  1  0.99663087  0.49276810  0.86444627  1
  O  O337  1  0.98987265  0.99335370  0.38443488  1
  O  O338  1  0.99151974  0.99523575  0.88168659  1
  O  O339  1  -0.00299660  -0.00865880  0.11192774  1
  O  O340  1  -0.00628952  0.00117323  0.60981606  1
  O  O341  1  0.01156133  0.50656019  0.12914506  1
  O  O342  1  0.01383747  0.50735536  0.63380871  1
  O  O343  1  0.51133816  -0.00292720  0.11430146  1
  O  O344  1  0.50629584  0.01534789  0.62430002  1
  O  O345  1  0.50780092  0.50467423  0.11919729  1
  O  O346  1  0.50016295  0.51172008  0.61753004  1
  O  O347  1  0.24808760  0.38115064  0.24273523  1
  O  O348  1  0.25455221  0.38874291  0.74747984  1
  O  O349  1  0.24320169  0.87944755  0.24383929  1
  O  O350  1  0.23459253  0.88014051  0.74658731  1
  O  O351  1  0.75294180  0.36618642  0.23295461  1
  O  O352  1  0.74513951  0.38351090  0.74613396  1
  O  O353  1  0.73726224  0.86765504  0.24434085  1
  O  O354  1  0.74116113  0.87762569  0.74317451  1
  O  O355  1  0.25597545  0.11752633  0.25021155  1
  O  O356  1  0.25717437  0.11605653  0.75033269  1
  O  O357  1  0.25321423  0.61817569  0.25451897  1
  O  O358  1  0.25562516  0.62222691  0.75252867  1
  O  O359  1  0.76715826  0.13295942  0.25290192  1
  O  O360  1  0.76423420  0.12483296  0.74744932  1
  O  O361  1  0.76001344  0.63001450  0.25843432  1
  O  O362  1  0.75878840  0.61791450  0.74137141  1
  O  O363  1  0.37335066  0.12530327  0.36201132  1
  O  O364  1  0.38274569  0.12669154  0.86378488  1
  O  O365  1  0.36923084  0.61853157  0.36870714  1
  O  O366  1  0.36651856  0.62678650  0.86038812  1
  O  O367  1  0.87304662  0.11654814  0.37048221  1
  O  O368  1  0.87985233  0.11796322  0.86815066  1
  O  O369  1  0.87229462  0.61331813  0.36845163  1
  O  O370  1  0.87685436  0.62622465  0.86077416  1
  O  O371  1  0.13454595  0.38173516  0.12608684  1
  O  O372  1  0.12116164  0.38987040  0.61740932  1
  O  O373  1  0.13757866  0.86955133  0.13365796  1
  O  O374  1  0.11751152  0.87721917  0.63521084  1
  O  O375  1  0.63588332  0.38153734  0.12412705  1
  O  O376  1  0.63690407  0.37532052  0.63892417  1
  O  O377  1  0.62958728  0.88119216  0.13247341  1
  O  O378  1  0.63108945  0.88221456  0.63130620  1
  O  O379  1  0.11514823  0.24624174  0.25684255  1
  O  O380  1  0.11861769  0.24490035  0.74573679  1
  O  O381  1  0.12008221  0.75930831  0.25478968  1
  O  O382  1  0.11783818  0.76485086  0.74949587  1
  O  O383  1  0.61902136  0.25039006  0.25588667  1
  O  O384  1  0.62112597  0.25663989  0.75740950  1
  O  O385  1  0.61684519  0.75811544  0.25070703  1
  O  O386  1  0.62352365  0.75869529  0.76122637  1
  O  O387  1  0.38143343  0.24455743  0.24461658  1
  O  O388  1  0.38506328  0.24326049  0.74278860  1
  O  O389  1  0.38145116  0.74251306  0.24883180  1
  O  O390  1  0.37453235  0.74673413  0.74675995  1
  O  O391  1  0.88766496  0.23730438  0.25199931  1
  O  O392  1  0.88115417  0.24471545  0.74484034  1
  O  O393  1  0.87974406  0.74156553  0.24347454  1
  O  O394  1  0.88154103  0.74601792  0.75151926  1
  O  O395  1  0.38420478  0.50075612  0.49584844  1
  O  O396  1  0.37103414  0.48040554  1.00173830  1
  O  O397  1  0.37544953  0.99474212  0.49616051  1
  O  O398  1  0.38122803  0.99348433  1.00100602  1
  O  O399  1  0.87787316  0.50375712  0.48896763  1
  O  O400  1  0.87233419  0.48469830  0.99754010  1
  O  O401  1  0.87959976  0.99415549  0.49396996  1
  O  O402  1  0.88606012  1.00019462  0.99489718  1
  O  O403  1  0.11156616  -0.00100114  0.00179422  1
  O  O404  1  0.11599181  0.00776734  0.49036198  1
  O  O405  1  0.13910526  0.50380550  0.01306290  1
  O  O406  1  0.13042995  0.51001762  0.51204432  1
  O  O407  1  0.62058564  0.00597957  0.00570692  1
  O  O408  1  0.62311785  0.00958252  0.50760037  1
  O  O409  1  0.62665683  0.50603862  0.00767956  1
  O  O410  1  0.61283890  0.50216538  0.50211087  1
  O  O411  1  0.36749426  0.36366444  0.12330081  1
  O  O412  1  0.38318546  0.36087707  0.62240636  1
  O  O413  1  0.36249697  0.87185849  0.11882116  1
  O  O414  1  0.38269416  0.87486685  0.60908136  1
  O  O415  1  0.86631162  0.37783722  0.11454866  1
  O  O416  1  0.86492932  0.36751089  0.63316772  1
  O  O417  1  0.86462911  0.86807525  0.12640033  1
  O  O418  1  0.86667970  0.88043420  0.61389378  1
  O  O419  1  0.12359988  0.13483415  0.38273229  1
  O  O420  1  0.13193349  0.10997360  0.89818296  1
  O  O421  1  0.12528743  0.62679199  0.38217143  1
  O  O422  1  0.13839922  0.62854667  0.86550812  1
  O  O423  1  0.62844592  0.13190915  0.38262700  1
  O  O424  1  0.62505245  0.13430680  0.88359112  1
  O  O425  1  0.63597221  0.62489072  0.37609393  1
  O  O426  1  0.62375369  0.63206317  0.88818620  1
