# generated using pymatgen
data_V85Zn86O256
_symmetry_space_group_name_H-M   'P 1'
_cell_length_a   16.95836472
_cell_length_b   16.96755063
_cell_length_c   16.98228027
_cell_angle_alpha   90.02915278
_cell_angle_beta   90.00835433
_cell_angle_gamma   90.03687962
_symmetry_Int_Tables_number   1
_chemical_formula_structural   V85Zn86O256
_chemical_formula_sum   'V85 Zn86 O256'
_cell_volume   4886.51209619
_cell_formula_units_Z   1
loop_
 _symmetry_equiv_pos_site_id
 _symmetry_equiv_pos_as_xyz
  1  'x, y, z'
loop_
 _atom_site_type_symbol
 _atom_site_label
 _atom_site_symmetry_multiplicity
 _atom_site_fract_x
 _atom_site_fract_y
 _atom_site_fract_z
 _atom_site_occupancy
  V  V0  1  0.87476102  0.62102259  0.76764143  1
  V  V1  1  0.24600230  0.75265449  -0.00248866  1
  V  V2  1  0.62659817  0.62476727  0.49885431  1
  V  V3  1  0.38882396  0.38193526  0.00594236  1
  V  V4  1  0.74822121  0.75448226  0.00470007  1
  V  V5  1  0.36929853  0.86625731  0.50187430  1
  V  V6  1  0.24688692  0.62913408  0.37569423  1
  V  V7  1  0.75271710  0.00163130  0.24461825  1
  V  V8  1  0.38379034  0.00561223  0.87218320  1
  V  V9  1  0.62948751  0.87404520  0.24631871  1
  V  V10  1  0.01677046  0.00018293  0.00892392  1
  V  V11  1  0.24545795  0.12692841  0.38022499  1
  V  V12  1  0.49797883  0.24833525  0.24938784  1
  V  V13  1  0.12454162  0.75416206  0.38142452  1
  V  V14  1  0.75211124  0.87694388  0.62263892  1
  V  V15  1  0.76061603  0.24846267  0.00056746  1
  V  V16  1  0.48578833  0.12754984  0.62454672  1
  V  V17  1  0.49717166  0.62603338  0.62522514  1
  V  V18  1  0.87939660  0.12633609  0.74801094  1
  V  V19  1  0.87892944  -0.00059792  0.37123867  1
  V  V20  1  0.00098051  0.87684263  0.87576416  1
  V  V21  1  0.00259483  0.75895522  0.25218251  1
  V  V22  1  0.74995144  0.62308527  0.37273225  1
  V  V23  1  0.60624650  0.50095691  0.12159413  1
  V  V24  1  0.37825782  0.75249693  0.12076593  1
  V  V25  1  0.37417673  0.62382449  0.23533867  1
  V  V26  1  0.87099492  0.76021940  0.13010598  1
  V  V27  1  0.75271813  0.12496926  0.87257665  1
  V  V28  1  0.49984886  0.74405469  0.24686958  1
  V  V29  1  0.62631534  0.00411073  0.62376444  1
  V  V30  1  0.11811257  0.25210458  0.38172981  1
  V  V31  1  0.37491852  0.12414418  0.25007842  1
  V  V32  1  0.62242386  0.12094739  -0.00194981  1
  V  V33  1  0.23964773  0.37467798  0.11339565  1
  V  V34  1  0.00624444  0.12670126  0.61968608  1
  V  V35  1  0.88069759  0.87624874  0.49643423  1
  V  V36  1  0.37183279  0.49764425  0.36606808  1
  V  V37  1  0.01453929  0.25495829  0.75292899  1
  V  V38  1  0.62736119  0.24821568  0.87452403  1
  V  V39  1  0.86865332  0.23021505  0.13487401  1
  V  V40  1  0.80962274  0.42403303  0.06663548  1
  V  V41  1  0.49618735  0.37419359  0.37777682  1
  V  V42  1  0.50060212  0.00059634  0.49961334  1
  V  V43  1  0.50272530  0.49744033  0.49839733  1
  V  V44  1  0.26219831  0.25045626  0.49957284  1
  V  V45  1  0.62768785  0.87694978  0.75090632  1
  V  V46  1  0.24285400  0.00193607  0.24727028  1
  V  V47  1  0.00828580  0.51391349  0.49741282  1
  V  V48  1  0.63110273  0.50040526  0.62415905  1
  V  V49  1  0.75380124  0.12544195  0.37068101  1
  V  V50  1  0.36816667  0.24423960  0.11370843  1
  V  V51  1  0.25536329  -0.00215310  0.74905327  1
  V  V52  1  0.62564823  0.37466220  0.24320901  1
  V  V53  1  0.62471592  -0.00609376  0.12001069  1
  V  V54  1  0.00701035  0.00125116  0.49543962  1
  V  V55  1  0.23867712  0.12021950  0.88684869  1
  V  V56  1  0.50125274  0.75040303  0.74734922  1
  V  V57  1  0.37521751  0.00013439  0.37508580  1
  V  V58  1  0.87637373  0.00464463  0.88145290  1
  V  V59  1  0.12097326  0.37759622  0.25239651  1
  V  V60  1  0.12560493  0.61802052  0.00227189  1
  V  V61  1  0.62525638  0.74918818  0.37284718  1
  V  V62  1  0.62548991  0.25017293  0.37336569  1
  V  V63  1  0.76135263  0.37755955  0.62455225  1
  V  V64  1  0.50018243  0.87411426  0.37450463  1
  V  V65  1  0.31761961  0.44302671  0.55282748  1
  V  V66  1  0.87656362  0.74357428  0.62559999  1
  V  V67  1  0.01839470  0.12125121  0.13081958  1
  V  V68  1  0.12712043  -0.00190493  0.62409445  1
  V  V69  1  0.61472849  0.62239714  0.00019891  1
  V  V70  1  -0.00433860  0.39080733  0.88847721  1
  V  V71  1  0.63277956  0.74631656  0.87443430  1
  V  V72  1  0.75135191  0.75028143  0.49776422  1
  V  V73  1  0.50280825  0.24760394  0.74438658  1
  V  V74  1  0.88948826  0.37414555  0.49450380  1
  V  V75  1  0.38307431  0.88151608  -0.00429834  1
  V  V76  1  0.63040676  0.37462125  0.74836694  1
  V  V77  1  0.24267651  0.87995396  0.12588123  1
  V  V78  1  0.75301172  0.25205317  0.49847042  1
  V  V79  1  0.49973060  0.11867628  0.12156278  1
  V  V80  1  0.31766587  0.30702373  0.67765738  1
  V  V81  1  0.75707344  0.50374643  0.76409757  1
  V  V82  1  0.75077288  0.49489078  0.24775773  1
  V  V83  1  0.87982554  0.49621415  0.37212950  1
  V  V84  1  0.00331542  0.62329649  0.12962795  1
  Zn  Zn85  1  0.86857856  0.87893061  0.00534379  1
  Zn  Zn86  1  0.38456830  0.50379161  0.87159186  1
  Zn  Zn87  1  0.19070730  0.67317465  0.54560505  1
  Zn  Zn88  1  -0.00410250  0.24584127  0.25530609  1
  Zn  Zn89  1  0.36177835  0.74181028  0.61978749  1
  Zn  Zn90  1  0.12478126  0.87254862  0.75019607  1
  Zn  Zn91  1  0.62541913  0.12753020  0.50008136  1
  Zn  Zn92  1  -0.01161966  0.50485235  0.00577012  1
  Zn  Zn93  1  0.24180349  0.50361070  0.23713600  1
  Zn  Zn94  1  0.87594951  0.62688469  0.25016615  1
  Zn  Zn95  1  0.12696027  0.25166924  0.89170059  1
  Zn  Zn96  1  0.88206885  0.25051871  0.62289566  1
  Zn  Zn97  1  0.37420212  0.61808086  0.75542248  1
  Zn  Zn98  1  0.12010864  0.75034021  0.87849240  1
  Zn  Zn99  1  -0.00203914  0.75188338  0.75220267  1
  Zn  Zn100  1  0.75413198  0.00144258  0.74837421  1
  Zn  Zn101  1  0.23172854  0.58311160  0.83605087  1
  Zn  Zn102  1  0.01406074  0.62761711  0.62499304  1
  Zn  Zn103  1  0.50365533  0.37274200  0.88013961  1
  Zn  Zn104  1  0.50290792  0.87806791  0.87777400  1
  Zn  Zn105  1  0.24194072  0.86263678  0.62265917  1
  Zn  Zn106  1  0.12164145  0.87923216  0.25197991  1
  Zn  Zn107  1  0.18888519  0.19353916  0.19269615  1
  Zn  Zn108  1  0.18741035  0.17422155  0.69283372  1
  Zn  Zn109  1  0.18825895  0.69117904  0.18611191  1
  Zn  Zn110  1  0.18108286  0.68332789  0.70155278  1
  Zn  Zn111  1  0.68764541  0.18486230  0.18649594  1
  Zn  Zn112  1  0.69090632  0.18813384  0.68470664  1
  Zn  Zn113  1  0.68763196  0.68300656  0.18355947  1
  Zn  Zn114  1  0.69139686  0.68616094  0.68765114  1
  Zn  Zn115  1  0.30756138  0.31275550  0.30577464  1
  Zn  Zn116  1  0.31036958  0.30666436  0.83864906  1
  Zn  Zn117  1  0.31126528  0.81241065  0.31185122  1
  Zn  Zn118  1  0.29715082  0.78591039  0.79563458  1
  Zn  Zn119  1  0.81305165  0.31497303  0.31032647  1
  Zn  Zn120  1  0.82195279  0.31240418  0.81199220  1
  Zn  Zn121  1  0.81292937  0.81653447  0.31164456  1
  Zn  Zn122  1  0.81473136  0.81415790  0.81331827  1
  Zn  Zn123  1  0.18406445  0.44151821  0.42737225  1
  Zn  Zn124  1  0.18133738  0.43364215  0.92938413  1
  Zn  Zn125  1  0.18832707  0.93729281  0.43548473  1
  Zn  Zn126  1  0.19263856  0.93631065  0.93661905  1
  Zn  Zn127  1  0.68997831  0.43405406  0.43538925  1
  Zn  Zn128  1  0.67694716  0.44082756  0.93454736  1
  Zn  Zn129  1  0.68900167  0.93806482  0.43592272  1
  Zn  Zn130  1  0.69017983  0.93696277  0.93613036  1
  Zn  Zn131  1  0.31212837  0.05759135  0.05964153  1
  Zn  Zn132  1  0.30930547  0.05853191  0.55936908  1
  Zn  Zn133  1  0.29176874  0.54200288  0.02436526  1
  Zn  Zn134  1  0.15328086  0.49851795  0.66058864  1
  Zn  Zn135  1  0.80903237  0.06088797  0.06115814  1
  Zn  Zn136  1  0.81526876  0.06488114  0.55998694  1
  Zn  Zn137  1  0.80781748  0.58980860  0.06253047  1
  Zn  Zn138  1  0.81812893  0.55930468  0.56052593  1
  Zn  Zn139  1  0.43302949  0.43245865  0.18710485  1
  Zn  Zn140  1  0.44796891  0.44896661  0.70532370  1
  Zn  Zn141  1  0.43651849  0.93593191  0.18761566  1
  Zn  Zn142  1  0.43754311  0.93535349  0.68690677  1
  Zn  Zn143  1  0.94385683  0.43671006  0.19140840  1
  Zn  Zn144  1  0.98133339  0.42252423  0.66751905  1
  Zn  Zn145  1  0.93885670  0.93981672  0.18810785  1
  Zn  Zn146  1  0.93871172  0.93882305  0.68671463  1
  Zn  Zn147  1  0.06359109  0.06777793  0.31358535  1
  Zn  Zn148  1  0.06212229  0.05746194  0.80916065  1
  Zn  Zn149  1  0.06251577  0.56538680  0.31109911  1
  Zn  Zn150  1  0.05683207  0.56385104  0.81324244  1
  Zn  Zn151  1  0.56537236  0.06255103  0.31159324  1
  Zn  Zn152  1  0.56197466  0.06489294  0.80726345  1
  Zn  Zn153  1  0.56180828  0.56146843  0.30783189  1
  Zn  Zn154  1  0.56290442  0.56180318  0.81594823  1
  Zn  Zn155  1  0.43503926  0.18794711  0.44059266  1
  Zn  Zn156  1  0.43864104  0.18375839  0.93323204  1
  Zn  Zn157  1  0.43515189  0.68151404  0.43334782  1
  Zn  Zn158  1  0.43955902  0.68978750  0.93424955  1
  Zn  Zn159  1  0.93618749  0.18302901  0.43747125  1
  Zn  Zn160  1  0.96793744  0.20102034  0.95828507  1
  Zn  Zn161  1  0.93738827  0.68864864  0.43161201  1
  Zn  Zn162  1  0.93727257  0.69073689  0.94412392  1
  Zn  Zn163  1  0.05552416  0.31369029  0.06314402  1
  Zn  Zn164  1  0.07961766  0.32111196  0.56647591  1
  Zn  Zn165  1  0.05985980  0.81393011  0.06439484  1
  Zn  Zn166  1  0.05823473  0.81347742  0.56104436  1
  Zn  Zn167  1  0.56818305  0.30523412  0.06655486  1
  Zn  Zn168  1  0.56520755  0.31312643  0.56242640  1
  Zn  Zn169  1  0.56126423  0.81071885  0.06164008  1
  Zn  Zn170  1  0.56307095  0.81455187  0.56116742  1
  O  O171  1  0.11636976  0.12890902  0.12847731  1
  O  O172  1  0.11852276  0.11004678  0.62414175  1
  O  O173  1  0.11311812  0.63527619  0.11781051  1
  O  O174  1  0.12973911  0.61563553  0.62376371  1
  O  O175  1  0.61878670  0.11645202  0.11811028  1
  O  O176  1  0.62430447  0.11315245  0.62290498  1
  O  O177  1  0.62993955  0.61315495  0.11297112  1
  O  O178  1  0.62476952  0.61837223  0.61624855  1
  O  O179  1  0.38117667  0.38825054  0.36194774  1
  O  O180  1  0.37841307  0.37111291  0.89845348  1
  O  O181  1  0.38049387  0.87819961  0.38251708  1
  O  O182  1  0.37834142  0.88619508  0.88361675  1
  O  O183  1  0.87100644  0.38456992  0.38158833  1
  O  O184  1  0.89924555  0.36029948  0.87890880  1
  O  O185  1  0.86860229  0.88897943  0.38400325  1
  O  O186  1  0.88174068  0.88974338  0.87505921  1
  O  O187  1  0.25590110  0.00891431  0.37160387  1
  O  O188  1  0.25983987  0.00224950  0.86809052  1
  O  O189  1  0.25706846  0.50956207  0.36513683  1
  O  O190  1  0.26573265  0.50529541  0.91263070  1
  O  O191  1  0.75428628  0.00722655  0.36756414  1
  O  O192  1  0.75812642  0.00722632  0.87183963  1
  O  O193  1  0.75576894  0.50346446  0.36565341  1
  O  O194  1  0.74959259  0.49292413  0.86250907  1
  O  O195  1  0.25311289  0.47855122  0.12109924  1
  O  O196  1  0.25925771  0.50332955  0.60260972  1
  O  O197  1  0.25778665  0.99351283  0.13719940  1
  O  O198  1  0.24293640  0.99678221  0.62954011  1
  O  O199  1  0.75244480  0.49150069  0.12634500  1
  O  O200  1  0.75154694  0.48861583  0.62656141  1
  O  O201  1  0.73922504  1.00431142  0.13565661  1
  O  O202  1  0.74427501  0.99558933  0.62362914  1
  O  O203  1  0.01651725  0.36511182  0.24091817  1
  O  O204  1  -0.00581317  0.35698951  0.76102681  1
  O  O205  1  0.00266418  0.86419400  0.24803049  1
  O  O206  1  -0.00189697  0.87729390  0.76234255  1
  O  O207  1  0.50437981  0.36842457  0.25847949  1
  O  O208  1  0.51436952  0.36069317  0.74026615  1
  O  O209  1  0.50848007  0.86674466  0.25512346  1
  O  O210  1  0.51690178  0.87015367  0.74478876  1
  O  O211  1  0.49526744  0.12843735  0.24338079  1
  O  O212  1  0.50429215  0.13863701  0.73973116  1
  O  O213  1  0.49378113  0.63797412  0.25314180  1
  O  O214  1  0.50920923  0.63512158  0.74033044  1
  O  O215  1  1.00106676  0.12366447  0.23549822  1
  O  O216  1  0.99656792  0.12550084  0.73671830  1
  O  O217  1  0.99921506  0.63746233  0.24511316  1
  O  O218  1  0.98390431  0.62816073  0.74678283  1
  O  O219  1  0.38045586  0.24988337  0.01136055  1
  O  O220  1  0.36309109  0.25789903  0.49691753  1
  O  O221  1  0.36908345  0.75779677  0.00695042  1
  O  O222  1  0.38490122  0.76307100  0.49829912  1
  O  O223  1  0.86596857  0.24119554  0.01299443  1
  O  O224  1  0.87111275  0.25789950  0.49883765  1
  O  O225  1  0.86524393  0.75275367  0.01074710  1
  O  O226  1  0.87135947  0.75843420  0.50214950  1
  O  O227  1  0.14200778  0.26454128  0.49062252  1
  O  O228  1  0.07551848  0.23386001  0.99062461  1
  O  O229  1  0.12154323  0.74896888  0.48572499  1
  O  O230  1  0.13091158  0.74735028  1.00311306  1
  O  O231  1  0.63504000  0.25182494  0.49027985  1
  O  O232  1  0.63834877  0.24155227  0.99706134  1
  O  O233  1  0.63199254  0.74681957  0.49228378  1
  O  O234  1  0.62858784  0.74685088  0.99394689  1
  O  O235  1  0.49555967  0.23580297  0.13121762  1
  O  O236  1  0.50754081  0.23878809  0.62868231  1
  O  O237  1  0.48716354  0.75721984  0.13354470  1
  O  O238  1  0.51260332  0.73995918  0.63108851  1
  O  O239  1  0.98473327  0.23222686  0.12750596  1
  O  O240  1  1.00514805  0.24231751  0.63317344  1
  O  O241  1  0.99248113  0.74629869  0.13358368  1
  O  O242  1  0.99022580  0.74700285  0.62589007  1
  O  O243  1  0.01374480  0.23974272  0.37577272  1
  O  O244  1  -0.00002562  0.23288730  0.85216647  1
  O  O245  1  0.01537431  0.74463922  0.36718173  1
  O  O246  1  -0.00523456  0.76561847  0.87972174  1
  O  O247  1  0.50286067  0.25607348  0.37050868  1
  O  O248  1  0.50720693  0.24986669  0.86378129  1
  O  O249  1  0.50620952  0.75356322  0.36670994  1
  O  O250  1  0.51442514  0.75611538  0.86445191  1
  O  O251  1  0.25626496  0.13514712  0.49039645  1
  O  O252  1  0.24713091  0.11357286  0.98587804  1
  O  O253  1  0.26361055  0.62361458  0.47371463  1
  O  O254  1  0.23332689  0.63919562  1.01628439  1
  O  O255  1  0.74949640  0.13411700  0.49199019  1
  O  O256  1  0.74203708  0.13163668  0.99383399  1
  O  O257  1  0.74550371  0.62943116  0.49284029  1
  O  O258  1  0.73505624  0.64411091  0.99804736  1
  O  O259  1  0.25815758  0.36833587  0.01170187  1
  O  O260  1  0.25630033  0.37942311  0.49941350  1
  O  O261  1  0.25986800  0.87436064  0.01083213  1
  O  O262  1  0.26686966  0.87982272  0.49935367  1
  O  O263  1  0.74957663  0.36919179  0.00176512  1
  O  O264  1  0.76008670  0.37057096  0.50565790  1
  O  O265  1  0.74889916  0.86143439  -0.00209147  1
  O  O266  1  0.75993971  0.87177748  0.50278975  1
  O  O267  1  0.12348659  0.48334725  0.25535832  1
  O  O268  1  0.15233088  0.52994515  0.76924743  1
  O  O269  1  0.13911028  0.99773757  0.25991843  1
  O  O270  1  0.13183308  0.99383707  0.73941358  1
  O  O271  1  0.63209033  0.49689119  0.23942804  1
  O  O272  1  0.63865607  0.49613154  0.74143818  1
  O  O273  1  0.63050986  0.99235197  0.24285916  1
  O  O274  1  0.62864705  0.99408796  0.74148856  1
  O  O275  1  0.36919644  0.00505395  0.25773411  1
  O  O276  1  0.37087330  -0.00791040  0.76253116  1
  O  O277  1  0.37399286  0.50835407  0.25160880  1
  O  O278  1  0.36711252  0.50250616  0.75438096  1
  O  O279  1  0.86336198  -0.00782286  0.25826747  1
  O  O280  1  0.87633058  0.01145809  0.75568596  1
  O  O281  1  0.86845718  0.49833608  0.25572316  1
  O  O282  1  0.86885582  0.51744422  0.74685091  1
  O  O283  1  0.12990195  0.36607292  0.36033342  1
  O  O284  1  0.10482791  0.36813389  0.87926465  1
  O  O285  1  0.13458885  0.85779673  0.37194610  1
  O  O286  1  0.10972075  0.88056401  0.87845688  1
  O  O287  1  0.61771117  0.37020671  0.36516942  1
  O  O288  1  0.62716361  0.36342472  0.86634615  1
  O  O289  1  0.62002272  0.86949000  0.36698752  1
  O  O290  1  0.62377182  0.87221183  0.86491995  1
  O  O291  1  0.38144858  0.12696568  0.12704658  1
  O  O292  1  0.38696422  0.11863729  0.62038993  1
  O  O293  1  0.37105997  0.63655585  0.13392862  1
  O  O294  1  0.39514571  0.62816821  0.62712060  1
  O  O295  1  0.87052294  0.12970299  0.13187088  1
  O  O296  1  0.88397659  0.12577729  0.63155926  1
  O  O297  1  0.88279458  0.64155836  0.13068317  1
  O  O298  1  0.86952314  0.64018326  0.62245224  1
  O  O299  1  0.25999394  0.25779000  0.12927678  1
  O  O300  1  0.25399701  0.24510194  0.62194624  1
  O  O301  1  0.26149603  0.76155951  0.12170742  1
  O  O302  1  0.24665065  0.74670448  0.61763024  1
  O  O303  1  0.76019063  0.24531255  0.11887309  1
  O  O304  1  0.75393724  0.26225240  0.61838484  1
  O  O305  1  0.75777991  0.74812463  0.12001171  1
  O  O306  1  0.75452915  0.75794387  0.61609779  1
  O  O307  1  0.24709727  0.24462949  0.38130415  1
  O  O308  1  0.24236272  0.22698958  0.87543085  1
  O  O309  1  0.24080289  0.73858629  0.36643558  1
  O  O310  1  0.24442383  0.76798661  0.89692328  1
  O  O311  1  0.74757741  0.24272840  0.37645592  1
  O  O312  1  0.74965240  0.24458139  0.88247111  1
  O  O313  1  0.74461821  0.74460033  0.37753032  1
  O  O314  1  0.73786119  0.75658090  0.87961818  1
  O  O315  1  -0.01104585  0.10406678  0.01954911  1
  O  O316  1  -0.00574941  0.11607188  0.51214397  1
  O  O317  1  0.00669598  0.62568215  0.01052668  1
  O  O318  1  -0.00119712  0.61722749  0.49618344  1
  O  O319  1  0.51398391  0.12961867  0.00654657  1
  O  O320  1  0.50324612  0.11894890  0.50551098  1
  O  O321  1  0.51694528  0.63930039  0.00561389  1
  O  O322  1  0.50727758  0.61823780  0.50373051  1
  O  O323  1  0.50655079  0.37960678  0.48501986  1
  O  O324  1  0.49114145  0.36368882  1.00414617  1
  O  O325  1  0.49501578  0.88155327  0.49301774  1
  O  O326  1  0.48721405  0.87228242  0.99917519  1
  O  O327  1  0.99078065  0.38368340  0.49861764  1
  O  O328  1  0.99699793  0.38862111  0.99482276  1
  O  O329  1  0.98711070  0.88437041  0.50079265  1
  O  O330  1  0.99438816  0.88876432  0.99932267  1
  O  O331  1  0.49290041  0.49422249  0.37627828  1
  O  O332  1  0.50090252  0.48396790  0.86302606  1
  O  O333  1  0.49604912  0.99500091  0.37844882  1
  O  O334  1  0.48834949  1.00020227  0.86787636  1
  O  O335  1  0.98711654  0.50751119  0.38010965  1
  O  O336  1  0.99334445  0.49396619  0.88096371  1
  O  O337  1  0.99032179  1.00945354  0.38202605  1
  O  O338  1  0.99443644  0.99945623  0.88987426  1
  O  O339  1  0.00254245  0.00693421  0.12016582  1
  O  O340  1  0.00583032  0.00585873  0.61604244  1
  O  O341  1  -0.00858747  0.51921165  0.12805577  1
  O  O342  1  -0.01826726  0.51506375  0.60077593  1
  O  O343  1  0.50733885  0.01156291  0.13123182  1
  O  O344  1  0.50810842  0.00672709  0.62098507  1
  O  O345  1  0.50819332  0.50111199  0.13411371  1
  O  O346  1  0.51102626  0.50639985  0.61938004  1
  O  O347  1  0.23852416  0.37644666  0.23742825  1
  O  O348  1  0.25994505  0.35438780  0.74159474  1
  O  O349  1  0.25346867  0.88534336  0.24303525  1
  O  O350  1  0.24829699  0.88169848  0.74487791  1
  O  O351  1  0.74155448  0.38729289  0.25392944  1
  O  O352  1  0.75311642  0.38001410  0.74173495  1
  O  O353  1  0.73535254  0.88296561  0.25477594  1
  O  O354  1  0.74181175  0.87698851  0.74263639  1
  O  O355  1  0.25675471  0.11946399  0.25647479  1
  O  O356  1  0.25047366  0.10430354  0.75845477  1
  O  O357  1  0.25819265  0.62251303  0.25155223  1
  O  O358  1  0.26922195  0.66982736  0.77018279  1
  O  O359  1  0.74333305  0.11361834  0.25913368  1
  O  O360  1  0.76018802  0.12530682  0.75467259  1
  O  O361  1  0.74993606  0.61097131  0.25298850  1
  O  O362  1  0.76222768  0.61661236  0.74608106  1
  O  O363  1  0.36762477  0.12092780  0.37002412  1
  O  O364  1  0.36748522  0.11008995  0.87867736  1
  O  O365  1  0.36946301  0.61736318  0.36040420  1
  O  O366  1  0.38052938  0.62101511  0.87363967  1
  O  O367  1  0.86237668  0.11412654  0.37788229  1
  O  O368  1  0.87374772  0.11506547  0.86772049  1
  O  O369  1  0.86564973  0.61699007  0.37141204  1
  O  O370  1  0.87495762  0.63031708  0.86595106  1
  O  O371  1  0.13469906  0.36369588  0.13137194  1
  O  O372  1  0.09430433  0.40438815  0.63646170  1
  O  O373  1  0.13953469  0.87184706  0.12909144  1
  O  O374  1  0.12323174  0.88654459  0.62170354  1
  O  O375  1  0.62094820  0.38412129  0.13204888  1
  O  O376  1  0.63883066  0.38071515  0.62821084  1
  O  O377  1  0.61724118  0.88642367  0.13119358  1
  O  O378  1  0.63088233  0.88656119  0.62819484  1
  O  O379  1  0.12443161  0.25794471  0.26259626  1
  O  O380  1  0.11556608  0.24412422  0.75116419  1
  O  O381  1  0.11847357  0.75367789  0.25797921  1
  O  O382  1  0.11485744  0.75654311  0.76085739  1
  O  O383  1  0.61916337  0.25425348  0.25326397  1
  O  O384  1  0.62212420  0.25264455  0.75405924  1
  O  O385  1  0.61945623  0.75512543  0.24974911  1
  O  O386  1  0.62450640  0.75678240  0.75503198  1
  O  O387  1  0.37989782  0.24280666  0.24083318  1
  O  O388  1  0.38190815  0.25915748  0.74366961  1
  O  O389  1  0.38247218  0.74629410  0.24395193  1
  O  O390  1  0.39750775  0.76094662  0.73960179  1
  O  O391  1  0.87495551  0.25300049  0.23747529  1
  O  O392  1  0.88192989  0.23600035  0.74445440  1
  O  O393  1  0.88149884  0.75102600  0.24786166  1
  O  O394  1  0.87222974  0.74086293  0.74213701  1
  O  O395  1  0.38255196  0.49577884  0.48830400  1
  O  O396  1  0.39028921  0.48194399  1.01454917  1
  O  O397  1  0.38237099  0.99040473  0.49331485  1
  O  O398  1  0.37488843  0.99331095  0.98627673  1
  O  O399  1  0.87795114  0.49256064  0.48706509  1
  O  O400  1  0.86138341  0.49484869  1.01448975  1
  O  O401  1  0.88252302  0.99430097  0.49274940  1
  O  O402  1  0.87344867  0.99715894  0.99254527  1
  O  O403  1  0.11450638  -0.00285587  0.00287215  1
  O  O404  1  0.11257171  -0.00508704  0.50114638  1
  O  O405  1  0.12202083  0.51663469  0.00405005  1
  O  O406  1  0.10672716  0.49832495  0.48872357  1
  O  O407  1  0.63162805  0.00763733  0.00890235  1
  O  O408  1  0.61902603  0.00008652  0.50673444  1
  O  O409  1  0.62575905  0.51292722  0.00620392  1
  O  O410  1  0.62178869  0.50337011  0.50260098  1
  O  O411  1  0.36916576  0.36255426  0.11895200  1
  O  O412  1  0.37337979  0.38147446  0.62246054  1
  O  O413  1  0.36966819  0.87106250  0.11837834  1
  O  O414  1  0.37787827  0.87200769  0.60901537  1
  O  O415  1  0.87306405  0.36816950  0.12319134  1
  O  O416  1  0.87525807  0.37320524  0.61515377  1
  O  O417  1  0.87649152  0.86455878  0.12612547  1
  O  O418  1  0.87063886  0.86790095  0.61793990  1
  O  O419  1  0.13915965  0.13457492  0.37272755  1
  O  O420  1  0.13738827  0.11392661  0.87339623  1
  O  O421  1  0.13977085  0.63334505  0.36732552  1
  O  O422  1  0.12147125  0.63184532  0.89597082  1
  O  O423  1  0.63478919  0.13126288  0.37657529  1
  O  O424  1  0.63034327  0.12757798  0.88105492  1
  O  O425  1  0.62956470  0.62936156  0.37817184  1
  O  O426  1  0.62301019  0.63321925  0.88751586  1
