# generated using pymatgen
data_V85Zn86O256
_symmetry_space_group_name_H-M   'P 1'
_cell_length_a   16.95455608
_cell_length_b   16.94784193
_cell_length_c   16.96169272
_cell_angle_alpha   90.01879207
_cell_angle_beta   90.04593040
_cell_angle_gamma   90.10658179
_symmetry_Int_Tables_number   1
_chemical_formula_structural   V85Zn86O256
_chemical_formula_sum   'V85 Zn86 O256'
_cell_volume   4873.81572543
_cell_formula_units_Z   1
loop_
 _symmetry_equiv_pos_site_id
 _symmetry_equiv_pos_as_xyz
  1  'x, y, z'
loop_
 _atom_site_type_symbol
 _atom_site_label
 _atom_site_symmetry_multiplicity
 _atom_site_fract_x
 _atom_site_fract_y
 _atom_site_fract_z
 _atom_site_occupancy
  V  V0  1  0.61906163  0.87666438  0.25587166  1
  V  V1  1  0.25273790  0.49835605  0.75463774  1
  V  V2  1  0.56250310  0.56996847  0.67334000  1
  V  V3  1  0.00000828  0.12337928  0.62438466  1
  V  V4  1  0.73839531  0.38184127  0.62868931  1
  V  V5  1  0.87240048  0.86664949  0.00007444  1
  V  V6  1  0.12795977  0.12810929  0.50009591  1
  V  V7  1  0.12613102  0.62477651  0.00149364  1
  V  V8  1  -0.00243149  0.37179235  0.88200894  1
  V  V9  1  -0.00468536  0.87363213  0.37422294  1
  V  V10  1  0.87343822  0.49459479  0.87699565  1
  V  V11  1  0.12431363  0.25488984  0.37716993  1
  V  V12  1  0.00333154  0.24850318  0.75607672  1
  V  V13  1  0.49553599  -0.01146392  0.49641289  1
  V  V14  1  0.87958334  0.75319750  0.62622654  1
  V  V15  1  0.62479539  0.12314540  0.49882290  1
  V  V16  1  0.62854366  0.75425522  0.88305656  1
  V  V17  1  0.88470605  0.62831161  0.75177913  1
  V  V18  1  0.37581073  0.12397867  0.74979821  1
  V  V19  1  0.24858533  0.36731828  0.62325278  1
  V  V20  1  0.75278231  0.25295286  0.49975579  1
  V  V21  1  0.12623672  0.73683409  0.37227575  1
  V  V22  1  0.24535709  0.13117055  0.87428283  1
  V  V23  1  0.62467584  0.00056815  0.62591516  1
  V  V24  1  0.37296343  0.37070850  0.50105959  1
  V  V25  1  0.37489371  -0.00590118  0.88286147  1
  V  V26  1  -0.00689616  0.62223227  0.12400816  1
  V  V27  1  0.50007916  0.37694928  0.37855469  1
  V  V28  1  0.12540672  0.74765111  0.87665861  1
  V  V29  1  0.37641888  0.74998890  0.62198481  1
  V  V30  1  0.25088520  0.73478676  0.49573636  1
  V  V31  1  -0.00449090  0.74536262  0.24666638  1
  V  V32  1  0.75367749  0.25649469  -0.00060800  1
  V  V33  1  0.12390609  -0.00312425  0.62317236  1
  V  V34  1  0.12577966  0.87351579  0.24948831  1
  V  V35  1  0.37295241  0.38053438  -0.00643362  1
  V  V36  1  0.50269512  0.75285889  0.74823807  1
  V  V37  1  0.24968558  -0.00334029  0.74786847  1
  V  V38  1  0.25115713  0.87225475  0.10946785  1
  V  V39  1  0.25529562  0.62668466  0.88227510  1
  V  V40  1  0.12486777  0.37183166  0.75769026  1
  V  V41  1  0.36786547  0.62602545  0.25771251  1
  V  V42  1  0.75164371  0.87287732  0.61944725  1
  V  V43  1  0.25007855  0.38056529  0.12886530  1
  V  V44  1  0.12134634  0.86464989  0.74620306  1
  V  V45  1  0.63292173  0.62397681  0.00697288  1
  V  V46  1  0.50245698  0.62985401  0.12604927  1
  V  V47  1  0.63109691  0.75179821  0.39047266  1
  V  V48  1  0.37701005  -0.01227555  0.37627256  1
  V  V49  1  0.87583283  0.12419825  0.75054897  1
  V  V50  1  0.50135454  0.25393400  0.24861308  1
  V  V51  1  0.62706099  0.25266825  0.37071235  1
  V  V52  1  0.75546101  0.63148657  0.87757046  1
  V  V53  1  0.49928089  0.12405100  0.62318395  1
  V  V54  1  0.75210596  0.12321321  0.37253565  1
  V  V55  1  -0.00403718  0.12008374  0.12003818  1
  V  V56  1  0.49500159  0.75801668  0.26138407  1
  V  V57  1  0.49765992  0.50149480  -0.00072427  1
  V  V58  1  0.37160148  0.75393464  0.11145839  1
  V  V59  1  0.87611703  0.25680082  0.12142289  1
  V  V60  1  0.62385627  0.26222791  0.87266907  1
  V  V61  1  0.74602144  0.86631886  0.12130302  1
  V  V62  1  0.25016664  -0.00060145  0.24852131  1
  V  V63  1  0.37376839  0.62168801  0.74906239  1
  V  V64  1  0.12147488  0.12876899  -0.00394484  1
  V  V65  1  0.25053348  0.87170879  0.61379857  1
  V  V66  1  0.37078066  0.25168162  0.12201024  1
  V  V67  1  0.00084451  0.25241025  0.25252984  1
  V  V68  1  0.00202143  0.87514154  0.87790191  1
  V  V69  1  0.62015465  0.12550142  0.00080551  1
  V  V70  1  0.51216799  0.51173915  0.49817073  1
  V  V71  1  -0.00046913  0.62541545  0.61885638  1
  V  V72  1  0.88214496  0.50306434  0.35218117  1
  V  V73  1  0.11991334  -0.00228899  0.11799100  1
  V  V74  1  0.74828754  0.12692004  0.87580364  1
  V  V75  1  0.74996484  -0.00065651  0.75120421  1
  V  V76  1  0.25156923  0.12952952  0.37882398  1
  V  V77  1  0.88768959  0.38591012  0.49531341  1
  V  V78  1  0.75057101  -0.00373702  0.24786754  1
  V  V79  1  0.74266028  0.38279132  0.12788418  1
  V  V80  1  0.11864866  0.49786894  0.62056177  1
  V  V81  1  0.87929123  0.00044764  0.88438478  1
  V  V82  1  0.87438444  0.25229283  0.62520401  1
  V  V83  1  0.50345657  0.25661875  0.74758690  1
  V  V84  1  0.37416124  0.12584512  0.25065088  1
  Zn  Zn85  1  -0.00072156  -0.00122869  0.49668301  1
  Zn  Zn86  1  0.87423069  0.12414562  0.24719318  1
  Zn  Zn87  1  0.49714463  0.38253117  0.86940766  1
  Zn  Zn88  1  0.86914521  0.74332514  0.12266409  1
  Zn  Zn89  1  0.36966115  0.24446145  0.61936705  1
  Zn  Zn90  1  0.12475988  0.37834183  0.25583022  1
  Zn  Zn91  1  0.62380830  0.87744203  0.75411831  1
  Zn  Zn92  1  0.12504117  0.50051812  0.12896182  1
  Zn  Zn93  1  0.62149969  0.00093440  0.12481617  1
  Zn  Zn94  1  0.49552650  0.87155831  0.88027343  1
  Zn  Zn95  1  -0.00016825  0.49574097  -0.00013026  1
  Zn  Zn96  1  0.24015012  0.50622074  0.26154120  1
  Zn  Zn97  1  0.36934361  0.51020931  0.38610826  1
  Zn  Zn98  1  0.75038434  0.61371610  0.37297801  1
  Zn  Zn99  1  0.64419077  0.40640513  0.25928294  1
  Zn  Zn100  1  0.87299545  0.87524308  0.49671765  1
  Zn  Zn101  1  0.49515803  -0.00624854  0.00655985  1
  Zn  Zn102  1  0.49849879  0.12509433  0.12371083  1
  Zn  Zn103  1  0.87726146  -0.00094670  0.37466175  1
  Zn  Zn104  1  0.12005199  0.61477284  0.49210263  1
  Zn  Zn105  1  0.24622476  0.25432277  -0.00484831  1
  Zn  Zn106  1  0.74386558  0.50053630  0.74841670  1
  Zn  Zn107  1  0.18668602  0.18758730  0.18781506  1
  Zn  Zn108  1  0.18526326  0.18691055  0.69009181  1
  Zn  Zn109  1  0.18770154  0.68823570  0.18254681  1
  Zn  Zn110  1  0.18714169  0.68446160  0.68577215  1
  Zn  Zn111  1  0.68715517  0.19027961  0.18632259  1
  Zn  Zn112  1  0.68646368  0.18926937  0.68732140  1
  Zn  Zn113  1  0.68367954  0.68431096  0.19614820  1
  Zn  Zn114  1  0.69712991  0.69344118  0.69495797  1
  Zn  Zn115  1  0.31334403  0.31533831  0.31333210  1
  Zn  Zn116  1  0.31499707  0.30988705  0.81064135  1
  Zn  Zn117  1  0.30719752  0.80902094  0.30928959  1
  Zn  Zn118  1  0.30882591  0.80995815  0.80950372  1
  Zn  Zn119  1  0.81831447  0.31564208  0.31087888  1
  Zn  Zn120  1  0.81189157  0.31463775  0.80906563  1
  Zn  Zn121  1  0.79576319  0.77839854  0.29807548  1
  Zn  Zn122  1  0.81434338  0.81231416  0.80956810  1
  Zn  Zn123  1  0.19187427  0.43870818  0.43836682  1
  Zn  Zn124  1  0.18779204  0.44059323  0.93734914  1
  Zn  Zn125  1  0.18532786  0.93764801  0.43481867  1
  Zn  Zn126  1  0.18598038  0.94276392  0.93503570  1
  Zn  Zn127  1  0.69526161  0.44097162  0.43835653  1
  Zn  Zn128  1  0.68851657  0.44247293  0.94210465  1
  Zn  Zn129  1  0.68489109  0.93447629  0.43457916  1
  Zn  Zn130  1  0.68750726  0.93824210  0.93985889  1
  Zn  Zn131  1  0.30773799  0.06493182  0.06303419  1
  Zn  Zn132  1  0.31197442  0.05997143  0.55975844  1
  Zn  Zn133  1  0.31618831  0.56129637  0.06741709  1
  Zn  Zn134  1  0.31480737  0.55659535  0.56736882  1
  Zn  Zn135  1  0.80809341  0.06233124  0.06272316  1
  Zn  Zn136  1  0.81530920  0.05892199  0.55951213  1
  Zn  Zn137  1  0.81490084  0.55882911  0.05918859  1
  Zn  Zn138  1  0.80243215  0.56112880  0.55982988  1
  Zn  Zn139  1  0.48022427  0.46719578  0.21186471  1
  Zn  Zn140  1  0.43288928  0.43510337  0.68514104  1
  Zn  Zn141  1  0.43563327  0.93822742  0.18328743  1
  Zn  Zn142  1  0.43651379  0.93449054  0.68834313  1
  Zn  Zn143  1  0.94140046  0.43301598  0.18137460  1
  Zn  Zn144  1  0.93359369  0.43829975  0.68845584  1
  Zn  Zn145  1  0.93520695  0.93464029  0.18743168  1
  Zn  Zn146  1  0.93923824  0.93684540  0.69217432  1
  Zn  Zn147  1  0.06258398  0.06373991  0.30821841  1
  Zn  Zn148  1  0.06253377  0.05675699  0.81162292  1
  Zn  Zn149  1  0.05025205  0.55511005  0.31146384  1
  Zn  Zn150  1  0.06323474  0.55852529  0.81135762  1
  Zn  Zn151  1  0.56138383  0.06306869  0.31213983  1
  Zn  Zn152  1  0.56126759  0.06651651  0.81502419  1
  Zn  Zn153  1  0.56292877  0.57542336  0.32153733  1
  Zn  Zn154  1  0.56262733  0.56601231  0.83408604  1
  Zn  Zn155  1  0.43705585  0.18659878  0.43735276  1
  Zn  Zn156  1  0.43708242  0.18857363  0.93566208  1
  Zn  Zn157  1  0.44017391  0.69393253  0.44082798  1
  Zn  Zn158  1  0.43964882  0.68715860  0.93546782  1
  Zn  Zn159  1  0.93813864  0.18749805  0.43755704  1
  Zn  Zn160  1  0.93727569  0.18679114  0.93964393  1
  Zn  Zn161  1  0.89661825  0.66187135  0.46015951  1
  Zn  Zn162  1  0.94359353  0.68901289  0.93629627  1
  Zn  Zn163  1  0.06537999  0.30871817  0.06437982  1
  Zn  Zn164  1  0.06489953  0.30841174  0.56630366  1
  Zn  Zn165  1  0.06194412  0.80904861  0.05762175  1
  Zn  Zn166  1  0.05874405  0.80338061  0.55735138  1
  Zn  Zn167  1  0.56224664  0.31473233  0.06286790  1
  Zn  Zn168  1  0.56161648  0.31118627  0.55951792  1
  Zn  Zn169  1  0.55895622  0.81569306  0.06245662  1
  Zn  Zn170  1  0.56098397  0.81572199  0.57019646  1
  O  O171  1  0.11843806  0.11684488  0.11862163  1
  O  O172  1  0.12216017  0.11966567  0.61826320  1
  O  O173  1  0.11970153  0.62517402  0.11469875  1
  O  O174  1  0.11632637  0.61511553  0.62683188  1
  O  O175  1  0.62232450  0.12794611  0.11402119  1
  O  O176  1  0.62065834  0.11890939  0.61912140  1
  O  O177  1  0.61654966  0.63846467  0.11749080  1
  O  O178  1  0.62400942  0.63066620  0.62559011  1
  O  O179  1  0.38666502  0.37320102  0.38389797  1
  O  O180  1  0.37702546  0.36612067  0.88926478  1
  O  O181  1  0.36634279  0.88913196  0.36824466  1
  O  O182  1  0.36893640  0.89167927  0.86747491  1
  O  O183  1  0.87109317  0.37692244  0.39093541  1
  O  O184  1  0.88414372  0.38268817  0.86718690  1
  O  O185  1  0.89123333  0.87052446  0.37253831  1
  O  O186  1  0.88128705  0.88051781  0.87908050  1
  O  O187  1  0.25456278  0.00898236  0.36901676  1
  O  O188  1  0.25840492  0.00792341  0.86801537  1
  O  O189  1  0.25923114  0.49645210  0.37282509  1
  O  O190  1  0.24516869  0.50894787  0.86116488  1
  O  O191  1  0.74979456  0.00730126  0.36734322  1
  O  O192  1  0.75641975  0.00546919  0.86751069  1
  O  O193  1  0.76958176  0.49680227  0.37558230  1
  O  O194  1  0.75545988  0.50810298  0.87150011  1
  O  O195  1  0.24934902  0.49259838  0.13127266  1
  O  O196  1  0.24309382  0.48969403  0.63702396  1
  O  O197  1  0.24362479  0.99283034  0.13015374  1
  O  O198  1  0.24510406  0.99024465  0.62750572  1
  O  O199  1  0.75505469  0.48113001  0.11756978  1
  O  O200  1  0.75032824  0.48714460  0.62745651  1
  O  O201  1  0.74552354  0.99310198  0.13345109  1
  O  O202  1  0.74576910  0.99889081  0.63488625  1
  O  O203  1  0.00644864  0.35562362  0.23813891  1
  O  O204  1  0.00634210  0.36652709  0.75597334  1
  O  O205  1  0.01293090  0.87140852  0.25120509  1
  O  O206  1  0.01061671  0.87954156  0.76343844  1
  O  O207  1  0.49088395  0.36208192  0.26212188  1
  O  O208  1  0.49269341  0.36127732  0.75025695  1
  O  O209  1  0.50539831  0.86710563  0.24205312  1
  O  O210  1  0.50196961  0.86646226  0.75769489  1
  O  O211  1  0.49321354  0.13869523  0.25146576  1
  O  O212  1  0.49190905  0.13094456  0.74380178  1
  O  O213  1  0.49196338  0.64085385  0.24202663  1
  O  O214  1  0.49882748  0.62499715  0.74354516  1
  O  O215  1  0.99993080  0.13226526  0.23585569  1
  O  O216  1  0.99689776  0.13032504  0.74653745  1
  O  O217  1  1.00851694  0.63579711  0.23601185  1
  O  O218  1  0.98900890  0.62147367  0.74751919  1
  O  O219  1  0.37291776  0.25425677  0.00807991  1
  O  O220  1  0.38255841  0.26387557  0.50309613  1
  O  O221  1  0.37749724  0.74682607  0.01287205  1
  O  O222  1  0.36667290  0.74646137  0.51075918  1
  O  O223  1  0.86392340  0.24516882  0.00648680  1
  O  O224  1  0.86388540  0.25069057  0.50414062  1
  O  O225  1  0.87800242  0.76333474  -0.00141855  1
  O  O226  1  0.88714243  0.76122327  0.52127932  1
  O  O227  1  0.12130355  0.23608693  0.49470357  1
  O  O228  1  0.12784606  0.23320790  1.00243034  1
  O  O229  1  0.13237042  0.74218327  0.48940955  1
  O  O230  1  0.12619034  0.73697886  0.99031945  1
  O  O231  1  0.63686465  0.24556062  0.49325312  1
  O  O232  1  0.62918983  0.24321321  0.99201031  1
  O  O233  1  0.60942067  0.75832363  0.48701414  1
  O  O234  1  0.62009735  0.74090375  0.98856357  1
  O  O235  1  0.48841778  0.25210885  0.13273995  1
  O  O236  1  0.50064812  0.24142883  0.63132026  1
  O  O237  1  0.48828244  0.74687609  0.13076985  1
  O  O238  1  0.49130591  0.75461423  0.63850169  1
  O  O239  1  0.99254254  0.24124060  0.12687027  1
  O  O240  1  0.99466886  0.24302204  0.63704962  1
  O  O241  1  1.00088362  0.74214068  0.12949828  1
  O  O242  1  0.99680338  0.73887280  0.63141750  1
  O  O243  1  0.01042763  0.23867160  0.36410458  1
  O  O244  1  -0.00753253  0.25440023  0.86325567  1
  O  O245  1  0.01310318  0.75985324  0.36114849  1
  O  O246  1  0.01578776  0.75769959  0.87472033  1
  O  O247  1  0.50660788  0.25711469  0.37106083  1
  O  O248  1  0.50828953  0.25095312  0.86608636  1
  O  O249  1  0.50307851  0.75304216  0.36482665  1
  O  O250  1  0.50845172  0.74728434  0.86380412  1
  O  O251  1  0.24195727  0.12175676  0.49087208  1
  O  O252  1  0.24110926  0.12622782  0.99043065  1
  O  O253  1  0.24678122  0.63232210  0.50742425  1
  O  O254  1  0.24777247  0.61771379  0.98698179  1
  O  O255  1  0.74490155  0.13038091  0.49301160  1
  O  O256  1  0.74301293  0.13558290  0.99396909  1
  O  O257  1  0.78530447  0.63516931  0.48213679  1
  O  O258  1  0.74377352  0.62256841  0.99292550  1
  O  O259  1  0.25552658  0.37425988  0.00295394  1
  O  O260  1  0.25948179  0.37694321  0.51240756  1
  O  O261  1  0.24394227  0.87907627  0.01052305  1
  O  O262  1  0.24170021  0.86749335  0.51122746  1
  O  O263  1  0.74357987  0.36284457  0.00834398  1
  O  O264  1  0.75772544  0.36755379  0.51039303  1
  O  O265  1  0.75870542  0.88020245  0.00927298  1
  O  O266  1  0.75087696  0.88745944  0.51705251  1
  O  O267  1  0.12403770  0.49481338  0.24735596  1
  O  O268  1  0.13217729  0.49091874  0.74258545  1
  O  O269  1  0.13028583  0.99362056  0.23857545  1
  O  O270  1  0.13153633  0.98968463  0.74274805  1
  O  O271  1  0.58645201  0.49918377  0.24524574  1
  O  O272  1  0.61764246  0.51675912  0.74166114  1
  O  O273  1  0.63319086  0.99515174  0.25007259  1
  O  O274  1  0.63327565  1.00302169  0.74671619  1
  O  O275  1  0.37028731  0.00752707  0.25558894  1
  O  O276  1  0.36965711  0.00931230  0.75406644  1
  O  O277  1  0.38308542  0.52191863  0.25012395  1
  O  O278  1  0.36665208  0.50859166  0.74422313  1
  O  O279  1  0.86206478  0.00068783  0.25220107  1
  O  O280  1  0.86846815  0.00625870  0.75928636  1
  O  O281  1  0.87461793  0.48827630  0.25318362  1
  O  O282  1  0.87259055  0.50907536  0.76011319  1
  O  O283  1  0.13114466  0.35726890  0.38009928  1
  O  O284  1  0.11781142  0.37907302  0.86325395  1
  O  O285  1  0.12136174  0.86985783  0.36365264  1
  O  O286  1  0.12110297  0.87027729  0.86961072  1
  O  O287  1  0.61704969  0.37194618  0.37346120  1
  O  O288  1  0.62232347  0.36535831  0.87972332  1
  O  O289  1  0.61771431  0.87514586  0.36173000  1
  O  O290  1  0.62946886  0.86575801  0.87251854  1
  O  O291  1  0.37346101  0.13334978  0.13165789  1
  O  O292  1  0.37832763  0.12435173  0.63254472  1
  O  O293  1  0.37971559  0.63916260  0.13171950  1
  O  O294  1  0.36812438  0.63685756  0.63843865  1
  O  O295  1  0.88118165  0.13068640  0.12389866  1
  O  O296  1  0.87937514  0.13097545  0.63031691  1
  O  O297  1  0.88815033  0.62664487  0.11617960  1
  O  O298  1  0.88120222  0.63128981  0.63439058  1
  O  O299  1  0.25956972  0.25345715  0.12358519  1
  O  O300  1  0.24940025  0.26298146  0.63303917  1
  O  O301  1  0.26247140  0.75778500  0.12562421  1
  O  O302  1  0.25459771  0.75428348  0.61800688  1
  O  O303  1  0.75760406  0.25302599  0.11625587  1
  O  O304  1  0.75447801  0.25504409  0.61751806  1
  O  O305  1  0.75109892  0.76337190  0.12724098  1
  O  O306  1  0.76100766  0.76414106  0.63255772  1
  O  O307  1  0.24319511  0.23575045  0.36868356  1
  O  O308  1  0.25156921  0.23479222  0.87256699  1
  O  O309  1  0.24033623  0.75420454  0.38506705  1
  O  O310  1  0.23858131  0.73954345  0.86847122  1
  O  O311  1  0.74730168  0.24468709  0.38058894  1
  O  O312  1  0.74426962  0.24860520  0.88020618  1
  O  O313  1  0.72911115  0.77851969  0.39146849  1
  O  O314  1  0.74439347  0.74009740  0.87060196  1
  O  O315  1  0.00570702  0.12567275  0.01063393  1
  O  O316  1  0.00755607  0.12293448  0.50743326  1
  O  O317  1  0.00993707  0.62427869  0.00572639  1
  O  O318  1  -0.00242647  0.62535492  0.51559073  1
  O  O319  1  0.50811620  0.12393586  -0.00030674  1
  O  O320  1  0.50658543  0.12132243  0.50666206  1
  O  O321  1  0.50722064  0.62284843  0.00529903  1
  O  O322  1  0.49582310  0.61041647  0.49835593  1
  O  O323  1  0.49664422  0.38152736  0.49416467  1
  O  O324  1  0.49264320  0.38555667  1.00316335  1
  O  O325  1  0.49790903  0.89025412  0.50821748  1
  O  O326  1  0.50396563  0.88135059  0.99212132  1
  O  O327  1  0.98440068  0.36327571  0.50739989  1
  O  O328  1  1.00725124  0.37006779  0.98498420  1
  O  O329  1  1.00702779  0.87746855  0.48582397  1
  O  O330  1  0.99382957  0.87377426  0.98636872  1
  O  O331  1  0.49261527  0.49477576  0.38701557  1
  O  O332  1  0.49600967  0.49868618  0.89074035  1
  O  O333  1  0.48916543  1.00700760  0.38382702  1
  O  O334  1  0.48196565  1.00300547  0.87237032  1
  O  O335  1  0.98292829  0.48563770  0.37085987  1
  O  O336  1  0.99354266  0.48828316  0.87364252  1
  O  O337  1  1.00073393  0.98998724  0.37058239  1
  O  O338  1  0.98922497  0.99176810  0.87238591  1
  O  O339  1  0.00806482  0.00704033  0.13025720  1
  O  O340  1  0.00744805  0.00611285  0.62651113  1
  O  O341  1  0.00303066  0.50648153  0.11845773  1
  O  O342  1  0.00949439  0.50814242  0.63598926  1
  O  O343  1  0.50257776  0.00719933  0.12371020  1
  O  O344  1  0.50372242  0.00592528  0.62099411  1
  O  O345  1  0.49131379  0.52291326  0.11149887  1
  O  O346  1  0.50533396  0.50137415  0.61823999  1
  O  O347  1  0.24911727  0.37499396  0.24040979  1
  O  O348  1  0.24401609  0.37968273  0.74895126  1
  O  O349  1  0.23845696  0.87900586  0.24116457  1
  O  O350  1  0.24065240  0.87848481  0.74019330  1
  O  O351  1  0.74903988  0.36687365  0.23432574  1
  O  O352  1  0.75131350  0.37718833  0.73394529  1
  O  O353  1  0.74122304  0.87996683  0.24332285  1
  O  O354  1  0.75116298  0.88922197  0.74482899  1
  O  O355  1  0.25418319  0.11790443  0.25575203  1
  O  O356  1  0.25535958  0.11826718  0.75431581  1
  O  O357  1  0.26501048  0.62696134  0.24463575  1
  O  O358  1  0.25643749  0.61761963  0.75590860  1
  O  O359  1  0.74886417  0.11695135  0.25636633  1
  O  O360  1  0.75503773  0.11768519  0.75511951  1
  O  O361  1  0.76050954  0.66954370  0.27200041  1
  O  O362  1  0.76163253  0.62156866  0.76045960  1
  O  O363  1  0.36700625  0.12185085  0.36900822  1
  O  O364  1  0.36719127  0.11790431  0.86683215  1
  O  O365  1  0.37973755  0.63165665  0.36059911  1
  O  O366  1  0.36722927  0.63249806  0.86147895  1
  O  O367  1  0.86179979  0.12518939  0.37258784  1
  O  O368  1  0.86942694  0.11782265  0.87150201  1
  O  O369  1  0.88836199  0.60662666  0.36076724  1
  O  O370  1  0.87168565  0.62286629  0.87066252  1
  O  O371  1  0.14047661  0.37304698  0.12189374  1
  O  O372  1  0.12927234  0.37878220  0.63502700  1
  O  O373  1  0.12838640  0.87981900  0.12778032  1
  O  O374  1  0.12850614  0.87483295  0.63038140  1
  O  O375  1  0.63951163  0.36949401  0.12863793  1
  O  O376  1  0.64030805  0.36903748  0.62056929  1
  O  O377  1  0.63112511  0.87623943  0.13451129  1
  O  O378  1  0.63396761  0.88262426  0.63270240  1
  O  O379  1  0.11900051  0.24796590  0.25989735  1
  O  O380  1  0.11462610  0.25784769  0.74807109  1
  O  O381  1  0.12318607  0.75709083  0.25316074  1
  O  O382  1  0.13003237  0.76027768  0.75474176  1
  O  O383  1  0.61515979  0.24940004  0.25657541  1
  O  O384  1  0.61516543  0.24368508  0.75957150  1
  O  O385  1  0.61138933  0.76073248  0.25875693  1
  O  O386  1  0.61795742  0.74995483  0.76050480  1
  O  O387  1  0.37968502  0.24449657  0.24308389  1
  O  O388  1  0.38203463  0.23671774  0.74808645  1
  O  O389  1  0.37970753  0.74512317  0.24423565  1
  O  O390  1  0.38354050  0.74289773  0.74612573  1
  O  O391  1  0.88281050  0.24553386  0.24155299  1
  O  O392  1  0.88031167  0.24264042  0.74467559  1
  O  O393  1  0.89464934  0.76506754  0.24103188  1
  O  O394  1  0.87454544  0.74077233  0.74281305  1
  O  O395  1  0.38600748  0.48795081  0.50603914  1
  O  O396  1  0.38160067  0.49114273  1.00279974  1
  O  O397  1  0.38321961  1.00535135  0.48878114  1
  O  O398  1  0.37194868  1.00672241  0.98499879  1
  O  O399  1  0.88039431  0.48542792  0.50610165  1
  O  O400  1  0.87993342  0.50308738  0.98143502  1
  O  O401  1  0.88050294  0.99400983  0.49378777  1
  O  O402  1  0.86880925  0.99374776  0.98781451  1
  O  O403  1  0.12794047  0.00873596  0.01216286  1
  O  O404  1  0.12415208  0.01019452  0.50582182  1
  O  O405  1  0.12243977  0.51317304  -0.00110460  1
  O  O406  1  0.12808729  0.49774750  0.51611552  1
  O  O407  1  0.62695753  0.01657812  -0.00181853  1
  O  O408  1  0.61724205  0.00538962  0.50436374  1
  O  O409  1  0.61679840  0.51554334  -0.00249032  1
  O  O410  1  0.61144668  0.49872632  0.49513268  1
  O  O411  1  0.36162647  0.36593341  0.11257554  1
  O  O412  1  0.36522591  0.36990202  0.62014026  1
  O  O413  1  0.36520300  0.86289663  0.12835331  1
  O  O414  1  0.36293530  0.86146208  0.63321848  1
  O  O415  1  0.86685867  0.36094740  0.12313327  1
  O  O416  1  0.86822455  0.36711862  0.61871309  1
  O  O417  1  0.86740873  0.87650363  0.11393306  1
  O  O418  1  0.86889309  0.87052875  0.63050930  1
  O  O419  1  0.13225874  0.12792974  0.38223577  1
  O  O420  1  0.13258609  0.11340261  0.88355572  1
  O  O421  1  0.11681822  0.63378609  0.37338542  1
  O  O422  1  0.13062846  0.63096667  0.87783587  1
  O  O423  1  0.63547429  0.13067337  0.37881355  1
  O  O424  1  0.63112078  0.13494863  0.88076595  1
  O  O425  1  0.63020635  0.64613030  0.37774150  1
  O  O426  1  0.63724628  0.63386365  0.88474497  1
