# generated using pymatgen
data_V85Zn86O256
_symmetry_space_group_name_H-M   'P 1'
_cell_length_a   16.95555668
_cell_length_b   16.96553545
_cell_length_c   16.95338163
_cell_angle_alpha   89.93668335
_cell_angle_beta   90.02342871
_cell_angle_gamma   89.90148810
_symmetry_Int_Tables_number   1
_chemical_formula_structural   V85Zn86O256
_chemical_formula_sum   'V85 Zn86 O256'
_cell_volume   4876.80082252
_cell_formula_units_Z   1
loop_
 _symmetry_equiv_pos_site_id
 _symmetry_equiv_pos_as_xyz
  1  'x, y, z'
loop_
 _atom_site_type_symbol
 _atom_site_label
 _atom_site_symmetry_multiplicity
 _atom_site_fract_x
 _atom_site_fract_y
 _atom_site_fract_z
 _atom_site_occupancy
  V  V0  1  0.24224801  0.12698776  0.87865466  1
  V  V1  1  0.75186032  0.87548571  0.62498051  1
  V  V2  1  0.50135271  0.75151849  0.24879312  1
  V  V3  1  0.87166516  0.75986375  0.12589560  1
  V  V4  1  0.75997835  0.37097052  0.62084521  1
  V  V5  1  0.37456996  0.87652970  -0.00249468  1
  V  V6  1  0.00853154  0.86446570  0.87361893  1
  V  V7  1  -0.00941836  0.49810666  0.48316005  1
  V  V8  1  0.75350608  0.00149305  0.75916155  1
  V  V9  1  -0.00307785  0.75468585  0.25101976  1
  V  V10  1  0.87497556  0.36737512  0.47622233  1
  V  V11  1  0.24573891  0.37424604  0.12408311  1
  V  V12  1  0.51418759  0.00280985  0.00024005  1
  V  V13  1  -0.03999783  0.32546384  0.92564033  1
  V  V14  1  -0.00865766  0.50451936  -0.00741434  1
  V  V15  1  0.63107670  0.88142129  0.23387254  1
  V  V16  1  0.51303308  0.37695469  0.87536664  1
  V  V17  1  0.11459721  0.50073603  0.62201168  1
  V  V18  1  0.01075150  0.74174976  0.74413937  1
  V  V19  1  -0.00458849  0.88418264  0.37309972  1
  V  V20  1  0.89397556  0.01363301  0.87642468  1
  V  V21  1  0.11815999  0.62444178  0.50280178  1
  V  V22  1  0.24655125  0.87891366  0.12240052  1
  V  V23  1  0.87801468  0.62191284  0.74566014  1
  V  V24  1  0.62613880  0.87311416  0.74785693  1
  V  V25  1  0.37295219  0.75276674  0.12337334  1
  V  V26  1  0.12183754  0.49870206  0.12355920  1
  V  V27  1  0.37403528  0.00267295  0.87319970  1
  V  V28  1  0.10255863  0.00521827  0.10654536  1
  V  V29  1  0.12213203  0.87843344  0.24909745  1
  V  V30  1  0.00142294  0.25242783  0.24994629  1
  V  V31  1  0.37600258  0.37488984  0.49736015  1
  V  V32  1  0.11863264  0.25543414  0.38371840  1
  V  V33  1  0.74870615  0.48874396  0.74737723  1
  V  V34  1  0.12434970  0.75348361  0.37539795  1
  V  V35  1  0.11670296  0.37617003  0.75221759  1
  V  V36  1  0.62104308  0.62583041  0.50271634  1
  V  V37  1  0.24555491  0.00163396  0.24633962  1
  V  V38  1  0.49877457  0.50425196  0.50258101  1
  V  V39  1  0.12771940  0.12016976  0.51155815  1
  V  V40  1  0.75057237  0.75040690  0.00078152  1
  V  V41  1  0.50341768  0.87652767  0.37339672  1
  V  V42  1  -0.00405023  0.13086634  0.62994175  1
  V  V43  1  0.24762703  0.50181703  0.25011547  1
  V  V44  1  0.50592450  0.12769833  0.62241900  1
  V  V45  1  0.25082894  0.49946649  0.74641791  1
  V  V46  1  0.23745214  0.00311055  0.74803523  1
  V  V47  1  0.24944649  0.62711323  0.37467747  1
  V  V48  1  0.36952996  0.24452259  0.12070405  1
  V  V49  1  0.74300502  0.24521687  0.49279629  1
  V  V50  1  0.87409525  0.87831218  -0.00938412  1
  V  V51  1  0.00386110  -0.00118932  0.51214703  1
  V  V52  1  0.50536261  0.25339061  0.75018598  1
  V  V53  1  0.86368401  0.13875498  0.74522708  1
  V  V54  1  0.37601048  0.00133578  0.37459996  1
  V  V55  1  0.23145292  0.24835620  0.00178816  1
  V  V56  1  0.51663620  0.11966974  0.12396935  1
  V  V57  1  0.50022858  0.87309302  0.87307046  1
  V  V58  1  0.12493587  0.63076341  -0.00584203  1
  V  V59  1  0.87374910  0.61693754  0.25521483  1
  V  V60  1  0.50331189  0.62111088  0.11785701  1
  V  V61  1  0.62643259  0.00300840  0.62385383  1
  V  V62  1  0.38199860  0.74707896  0.62366399  1
  V  V63  1  0.75329528  0.61730368  0.87292805  1
  V  V64  1  0.89029113  0.11313864  0.25457760  1
  V  V65  1  0.73234498  0.49710806  0.24802888  1
  V  V66  1  0.37520048  0.25177436  0.62600024  1
  V  V67  1  0.38665842  0.62187481  0.74575737  1
  V  V68  1  0.25107580  0.75084483  0.50042598  1
  V  V69  1  0.37431534  0.62751525  0.25008165  1
  V  V70  1  0.24891035  0.63023845  0.87101354  1
  V  V71  1  0.75057255  0.74810492  0.49863769  1
  V  V72  1  0.62501826  0.49582104  0.62475054  1
  V  V73  1  0.50446753  0.00564250  0.49851903  1
  V  V74  1  0.24680570  0.75174479  -0.00504016  1
  V  V75  1  0.87455278  0.88242104  0.49897629  1
  V  V76  1  0.24713954  0.87999151  0.62451236  1
  V  V77  1  0.62738184  0.22673352  0.88143656  1
  V  V78  1  0.88182400  0.74454676  0.62299584  1
  V  V79  1  0.37699208  0.49675770  0.88275176  1
  V  V80  1  0.75103415  0.11087043  0.37474129  1
  V  V81  1  0.24851536  0.12655779  0.37685346  1
  V  V82  1  0.00086012  0.62883837  0.12478433  1
  V  V83  1  0.37262954  0.12320855  0.24537345  1
  V  V84  1  0.62658404  0.74549921  0.87241511  1
  Zn  Zn85  1  0.50489555  0.74512527  0.74413939  1
  Zn  Zn86  1  -0.01660953  0.26392913  0.74085279  1
  Zn  Zn87  1  0.12484807  0.25418415  0.87167789  1
  Zn  Zn88  1  0.25066705  0.25096570  0.50340379  1
  Zn  Zn89  1  0.37358006  0.37180310  -0.00213163  1
  Zn  Zn90  1  0.12329274  0.38026958  0.26314989  1
  Zn  Zn91  1  0.49472829  0.25467447  0.25204177  1
  Zn  Zn92  1  0.37367322  0.12627790  0.75009844  1
  Zn  Zn93  1  0.37484985  0.49902959  0.37476415  1
  Zn  Zn94  1  0.37642552  0.87532350  0.50075778  1
  Zn  Zn95  1  0.87762651  0.48740480  0.87155373  1
  Zn  Zn96  1  0.62848940  0.61686648  0.00292734  1
  Zn  Zn97  1  0.75304441  0.62250557  0.37685942  1
  Zn  Zn98  1  0.12510323  0.87360755  0.74750104  1
  Zn  Zn99  1  0.54373358  0.45785470  0.04456168  1
  Zn  Zn100  1  0.61576976  0.37273945  0.23632032  1
  Zn  Zn101  1  0.62098328  0.25051226  0.36985703  1
  Zn  Zn102  1  0.24821954  0.37455403  0.62449616  1
  Zn  Zn103  1  0.62695041  0.75013056  0.37277478  1
  Zn  Zn104  1  0.75219810  -0.00348879  0.23874095  1
  Zn  Zn105  1  0.50506020  0.37419693  0.37266795  1
  Zn  Zn106  1  0.82499780  0.28697002  0.08815402  1
  Zn  Zn107  1  0.17282153  0.18590848  0.18667330  1
  Zn  Zn108  1  0.18826618  0.18833049  0.68883638  1
  Zn  Zn109  1  0.18567174  0.69002382  0.18511817  1
  Zn  Zn110  1  0.19373671  0.68388124  0.68104693  1
  Zn  Zn111  1  0.68750342  0.18792090  0.19871199  1
  Zn  Zn112  1  0.68829776  0.19526004  0.68544679  1
  Zn  Zn113  1  0.68799369  0.69024559  0.18806075  1
  Zn  Zn114  1  0.69041795  0.68245653  0.68400490  1
  Zn  Zn115  1  0.31117186  0.31149204  0.31150285  1
  Zn  Zn116  1  0.31236133  0.31397459  0.81136461  1
  Zn  Zn117  1  0.31333613  0.81555933  0.31193443  1
  Zn  Zn118  1  0.31353730  0.81240978  0.80735880  1
  Zn  Zn119  1  0.80115319  0.30036068  0.28634527  1
  Zn  Zn120  1  0.76606223  0.32420984  0.92138363  1
  Zn  Zn121  1  0.81209167  0.81536321  0.31380316  1
  Zn  Zn122  1  0.81510642  0.80997627  0.81046465  1
  Zn  Zn123  1  0.19206929  0.43964576  0.44187001  1
  Zn  Zn124  1  0.18677188  0.44048800  0.93842798  1
  Zn  Zn125  1  0.18663059  0.93963525  0.43985377  1
  Zn  Zn126  1  0.18359651  0.93790691  0.93279414  1
  Zn  Zn127  1  0.68988681  0.43736367  0.42621839  1
  Zn  Zn128  1  0.69980559  0.43697735  1.06437037  1
  Zn  Zn129  1  0.68353553  0.93537137  0.43776358  1
  Zn  Zn130  1  0.69162872  0.93482665  0.93630028  1
  Zn  Zn131  1  0.30755792  0.06213455  0.05770839  1
  Zn  Zn132  1  0.31773613  0.06281099  0.56393007  1
  Zn  Zn133  1  0.31225091  0.56432131  0.06324987  1
  Zn  Zn134  1  0.31071089  0.56283864  0.56337992  1
  Zn  Zn135  1  0.78598118  0.09728954  0.08191791  1
  Zn  Zn136  1  0.81183193  0.06438353  0.56434530  1
  Zn  Zn137  1  0.81488514  0.57027696  0.06713593  1
  Zn  Zn138  1  0.81398831  0.56053090  0.55969893  1
  Zn  Zn139  1  0.42987454  0.43579923  0.18900988  1
  Zn  Zn140  1  0.44088009  0.43579407  0.68759875  1
  Zn  Zn141  1  0.43896223  0.94024987  0.18591230  1
  Zn  Zn142  1  0.43487604  0.93656439  0.68805386  1
  Zn  Zn143  1  0.93539647  0.43225859  0.19316343  1
  Zn  Zn144  1  0.93510613  0.44247276  0.67778134  1
  Zn  Zn145  1  0.89346558  0.97692687  0.14528590  1
  Zn  Zn146  1  0.93977987  0.93591600  0.69154850  1
  Zn  Zn147  1  0.06587218  0.05903079  0.32065396  1
  Zn  Zn148  1  0.04653720  0.07545846  0.83233374  1
  Zn  Zn149  1  0.06163167  0.56669617  0.31218319  1
  Zn  Zn150  1  0.06223480  0.56264692  0.81205734  1
  Zn  Zn151  1  0.56818575  0.06631079  0.30997330  1
  Zn  Zn152  1  0.55874276  0.06030035  0.80605020  1
  Zn  Zn153  1  0.56065091  0.56412593  0.31902544  1
  Zn  Zn154  1  0.56747122  0.55508008  0.81622647  1
  Zn  Zn155  1  0.43842060  0.18833079  0.43791604  1
  Zn  Zn156  1  0.43657186  0.18636320  0.93987243  1
  Zn  Zn157  1  0.43923845  0.68727245  0.43710423  1
  Zn  Zn158  1  0.43575365  0.68771374  0.93433371  1
  Zn  Zn159  1  0.93390005  0.18419533  0.43785643  1
  Zn  Zn160  1  0.88721247  0.15922464  0.95775777  1
  Zn  Zn161  1  0.93952834  0.69003461  0.43743512  1
  Zn  Zn162  1  0.93616625  0.68798201  0.93292645  1
  Zn  Zn163  1  0.02397139  0.32414520  0.08556173  1
  Zn  Zn164  1  0.05774531  0.31539587  0.56123518  1
  Zn  Zn165  1  0.05996167  0.81697927  0.06158899  1
  Zn  Zn166  1  0.06354366  0.81272549  0.56497645  1
  Zn  Zn167  1  0.56557018  0.29484776  0.06161290  1
  Zn  Zn168  1  0.56564387  0.31743905  0.55975363  1
  Zn  Zn169  1  0.56196471  0.80814948  0.05843361  1
  Zn  Zn170  1  0.56261737  0.81518532  0.56034545  1
  O  O171  1  0.12858069  0.10040309  0.12813494  1
  O  O172  1  0.12010845  0.12740245  0.61693605  1
  O  O173  1  0.12099888  0.61824218  0.11814265  1
  O  O174  1  0.12915566  0.61867655  0.60909392  1
  O  O175  1  0.61560661  0.12408714  0.12897682  1
  O  O176  1  0.61249977  0.12033059  0.62850798  1
  O  O177  1  0.60590166  0.63311129  0.12547574  1
  O  O178  1  0.63204662  0.61428878  0.61102466  1
  O  O179  1  0.37068506  0.37682173  0.38783071  1
  O  O180  1  0.37764301  0.38390261  0.87598775  1
  O  O181  1  0.38662562  0.88325783  0.37308669  1
  O  O182  1  0.38010195  0.88046964  0.87760877  1
  O  O183  1  0.86773667  0.37038458  0.37922377  1
  O  O184  1  0.87666744  0.36808087  0.88166162  1
  O  O185  1  0.88530559  0.86838797  0.38660876  1
  O  O186  1  0.88557730  0.87491983  0.87537654  1
  O  O187  1  0.25309983  0.00972765  0.37063060  1
  O  O188  1  0.25528681  0.00685060  0.86984291  1
  O  O189  1  0.24906668  0.50939527  0.36777070  1
  O  O190  1  0.25737186  0.50927575  0.86664079  1
  O  O191  1  0.74938004  0.00946845  0.38210810  1
  O  O192  1  0.75781348  -0.00836929  0.86123272  1
  O  O193  1  0.74958515  0.50933257  0.35559358  1
  O  O194  1  0.75704364  0.51158440  0.86309618  1
  O  O195  1  0.24202460  0.49744264  0.12964119  1
  O  O196  1  0.23851101  0.50180398  0.63221331  1
  O  O197  1  0.24831451  0.99067073  0.12844416  1
  O  O198  1  0.25999241  0.99216002  0.63559039  1
  O  O199  1  0.75259970  0.51212475  0.14139804  1
  O  O200  1  0.74480413  0.49541080  0.62733251  1
  O  O201  1  0.77967760  0.99854960  0.12658531  1
  O  O202  1  0.74529014  0.99151286  0.62812442  1
  O  O203  1  0.00971807  0.35910346  0.25740717  1
  O  O204  1  0.01253299  0.38069952  0.73964153  1
  O  O205  1  0.00613125  0.87066790  0.26180089  1
  O  O206  1  0.00514180  0.85744560  0.74925077  1
  O  O207  1  0.49448579  0.37500984  0.25446451  1
  O  O208  1  0.49402617  0.36548023  0.76315251  1
  O  O209  1  0.50682591  0.87225740  0.25448176  1
  O  O210  1  0.50779150  0.87346908  0.75604039  1
  O  O211  1  0.49082123  0.11739529  0.23526242  1
  O  O212  1  0.49299515  0.13080867  0.73975325  1
  O  O213  1  0.49248512  0.63146050  0.24348159  1
  O  O214  1  0.48908629  0.62247144  0.75420389  1
  O  O215  1  0.99577249  0.13152014  0.27232221  1
  O  O216  1  0.98414265  0.12759657  0.74482456  1
  O  O217  1  0.99195145  0.63435581  0.24684513  1
  O  O218  1  0.98759407  0.62823635  0.75152789  1
  O  O219  1  0.36482126  0.24709937  0.01169393  1
  O  O220  1  0.37480873  0.25798187  0.50930826  1
  O  O221  1  0.36733828  0.75676072  0.00250622  1
  O  O222  1  0.36888380  0.75044887  0.50609229  1
  O  O223  1  0.93938433  0.25654173  -0.00346673  1
  O  O224  1  0.86789413  0.26297857  0.49491344  1
  O  O225  1  0.86905992  0.75389342  0.00373038  1
  O  O226  1  0.87074318  0.75623770  0.50657699  1
  O  O227  1  0.12850855  0.24319108  0.49702317  1
  O  O228  1  0.13166260  0.25610465  0.99546121  1
  O  O229  1  0.12854479  0.74240107  0.49638959  1
  O  O230  1  0.12996527  0.73821132  1.00570794  1
  O  O231  1  0.64036334  0.25437174  0.49619818  1
  O  O232  1  0.62316691  0.24132911  0.98133570  1
  O  O233  1  0.63380092  0.74436765  0.50264744  1
  O  O234  1  0.63307365  0.74449631  0.99034452  1
  O  O235  1  0.48720350  0.23076573  0.12247957  1
  O  O236  1  0.49730272  0.24651964  0.62902862  1
  O  O237  1  0.49104218  0.74401458  0.12954775  1
  O  O238  1  0.48628982  0.75581738  0.62440656  1
  O  O239  1  1.03146951  0.23273230  0.15544351  1
  O  O240  1  1.00336164  0.23676310  0.62638077  1
  O  O241  1  0.99554467  0.74707339  0.13119069  1
  O  O242  1  0.98998438  0.74955025  0.62815377  1
  O  O243  1  0.01679765  0.24644347  0.38058240  1
  O  O244  1  0.00736349  0.26441429  0.85732740  1
  O  O245  1  0.00707901  0.76148399  0.37326520  1
  O  O246  1  -0.00377353  0.75656471  0.85968302  1
  O  O247  1  0.50017445  0.25159043  0.37220647  1
  O  O248  1  0.50373176  0.25394961  0.86794548  1
  O  O249  1  0.49916579  0.76038707  0.36715994  1
  O  O250  1  0.50956150  0.75352792  0.87180482  1
  O  O251  1  0.24424003  0.12326762  0.49547536  1
  O  O252  1  0.25002578  0.13438437  0.98975828  1
  O  O253  1  0.24204447  0.63012793  0.49274741  1
  O  O254  1  0.24474105  0.63101509  0.99137036  1
  O  O255  1  0.75728510  0.13804624  0.49347053  1
  O  O256  1  0.79805017  0.18474882  1.02004208  1
  O  O257  1  0.74604053  0.63319689  0.49772127  1
  O  O258  1  0.75390531  0.63478314  0.98876780  1
  O  O259  1  0.24924250  0.36791421  0.00644864  1
  O  O260  1  0.26123472  0.37475554  0.50646527  1
  O  O261  1  0.25291398  0.86962795  0.00112672  1
  O  O262  1  0.25407316  0.87081381  0.50576839  1
  O  O263  1  0.77137602  0.36460753  0.02031764  1
  O  O264  1  0.76077543  0.36983149  0.49892546  1
  O  O265  1  0.75877372  0.85772495  -0.01119394  1
  O  O266  1  0.75737834  0.86929088  0.50373110  1
  O  O267  1  0.13039280  0.50349949  0.24220536  1
  O  O268  1  0.12938492  0.49596608  0.74067904  1
  O  O269  1  0.12885802  0.99170003  0.24941374  1
  O  O270  1  0.13705098  1.00009834  0.75630393  1
  O  O271  1  0.63019070  0.50670819  0.24735444  1
  O  O272  1  0.63617306  0.50873803  0.73680417  1
  O  O273  1  0.62619023  0.98456752  0.24898874  1
  O  O274  1  0.63294957  0.99340492  0.74374529  1
  O  O275  1  0.36628916  0.00381788  0.25520852  1
  O  O276  1  0.36915452  -0.00066968  0.76291624  1
  O  O277  1  0.36201138  0.50999255  0.25063887  1
  O  O278  1  0.36774130  0.50495205  0.75251716  1
  O  O279  1  0.88508386  0.00941924  0.26025000  1
  O  O280  1  0.86960250  0.00215692  0.75644435  1
  O  O281  1  0.87935593  0.51585264  0.24617608  1
  O  O282  1  0.86935912  0.50680683  0.74815697  1
  O  O283  1  0.13523368  0.35820647  0.38253932  1
  O  O284  1  0.13271662  0.38135979  0.85450270  1
  O  O285  1  0.11980703  0.87112522  0.37060616  1
  O  O286  1  0.11287074  0.86881700  0.87058093  1
  O  O287  1  0.62237173  0.37204077  0.36637415  1
  O  O288  1  0.60992649  0.37024762  0.87360356  1
  O  O289  1  0.61275687  0.87257548  0.37042404  1
  O  O290  1  0.62247335  0.86211145  0.86836616  1
  O  O291  1  0.36852317  0.12890136  0.13175726  1
  O  O292  1  0.38630467  0.13577816  0.62457612  1
  O  O293  1  0.37782236  0.63459304  0.13100045  1
  O  O294  1  0.36846951  0.63379250  0.63444474  1
  O  O295  1  0.88704112  0.12301192  0.15493640  1
  O  O296  1  0.88437260  0.11923342  0.63443549  1
  O  O297  1  0.88359652  0.63931127  0.13488201  1
  O  O298  1  0.86961366  0.63448693  0.63061265  1
  O  O299  1  0.24840039  0.25251648  0.11971393  1
  O  O300  1  0.26318790  0.25065821  0.62514084  1
  O  O301  1  0.25338158  0.75900630  0.11801740  1
  O  O302  1  0.26029435  0.75609178  0.61846986  1
  O  O303  1  0.77234050  0.25627764  0.18277745  1
  O  O304  1  0.74565579  0.26011918  0.60861720  1
  O  O305  1  0.75964844  0.74405900  0.11346576  1
  O  O306  1  0.75808165  0.75517434  0.61515815  1
  O  O307  1  0.24538952  0.23721789  0.37937615  1
  O  O308  1  0.25032426  0.24410469  0.88249939  1
  O  O309  1  0.24430110  0.74839480  0.38071777  1
  O  O310  1  0.25598810  0.73703533  0.87557944  1
  O  O311  1  0.74917256  0.24373527  0.38411159  1
  O  O312  1  0.72359504  0.24925719  0.85484069  1
  O  O313  1  0.74943413  0.75103012  0.38928109  1
  O  O314  1  0.74400229  0.73984467  0.87564860  1
  O  O315  1  -0.03509515  0.08344812  -0.07557963  1
  O  O316  1  0.00494352  0.11696035  0.50853519  1
  O  O317  1  0.00802523  0.62350062  0.00202788  1
  O  O318  1  0.00575989  0.61178828  0.49287330  1
  O  O319  1  0.49508351  0.11492061  0.01321336  1
  O  O320  1  0.49629082  0.11573269  0.50836953  1
  O  O321  1  0.49817591  0.63240643  0.01449873  1
  O  O322  1  0.50784901  0.61862902  0.50011356  1
  O  O323  1  0.49096310  0.38357186  0.49892334  1
  O  O324  1  0.49305150  0.36861863  0.98561595  1
  O  O325  1  0.49743639  0.88229586  0.49000113  1
  O  O326  1  0.49383186  0.87998959  0.99292915  1
  O  O327  1  0.98511039  0.38465702  0.49965035  1
  O  O328  1  1.01896080  0.39071578  0.98420739  1
  O  O329  1  0.99457637  0.88050391  0.49847415  1
  O  O330  1  0.99256790  0.86402936  0.98012500  1
  O  O331  1  0.49421957  0.50083013  0.38978752  1
  O  O332  1  0.49288413  0.48595928  0.86974160  1
  O  O333  1  0.49870456  0.99729721  0.38077340  1
  O  O334  1  0.49197961  0.99492601  0.87955365  1
  O  O335  1  1.00674446  0.49674901  0.38526740  1
  O  O336  1  0.99428052  0.50670150  0.88329094  1
  O  O337  1  1.00596069  0.98777478  0.39173777  1
  O  O338  1  0.99544408  0.96963149  0.84675329  1
  O  O339  1  0.00359051  -0.00403406  0.11717642  1
  O  O340  1  -0.00055302  0.00638251  0.61802717  1
  O  O341  1  0.00754533  0.51025415  0.11856808  1
  O  O342  1  0.01063931  0.50076134  0.61071104  1
  O  O343  1  0.49494339  0.01129026  0.11413874  1
  O  O344  1  0.50200892  0.00735002  0.61880028  1
  O  O345  1  0.48299905  0.51808441  0.12290921  1
  O  O346  1  0.50966424  0.49431260  0.61416514  1
  O  O347  1  0.24417316  0.38335392  0.24411379  1
  O  O348  1  0.24473844  0.38830354  0.74586277  1
  O  O349  1  0.24211290  0.87992614  0.24322043  1
  O  O350  1  0.24724806  0.88259657  0.74350582  1
  O  O351  1  0.74276472  0.39631229  0.24893931  1
  O  O352  1  0.75352666  0.38827628  0.73676030  1
  O  O353  1  0.73525064  0.87581556  0.25386121  1
  O  O354  1  0.74649713  0.88046033  0.74354403  1
  O  O355  1  0.25146428  0.12013214  0.25858311  1
  O  O356  1  0.25442458  0.11836576  0.75493493  1
  O  O357  1  0.25359479  0.62321621  0.25398671  1
  O  O358  1  0.25593936  0.61605781  0.75483283  1
  O  O359  1  0.76169677  0.11383935  0.26379476  1
  O  O360  1  0.75805736  0.11322700  0.72800579  1
  O  O361  1  0.76234911  0.62550127  0.25083911  1
  O  O362  1  0.76114129  0.61989336  0.75350217  1
  O  O363  1  0.36708419  0.12008214  0.36817829  1
  O  O364  1  0.36594082  0.11727108  0.87412485  1
  O  O365  1  0.36818095  0.62660809  0.36578906  1
  O  O366  1  0.36996175  0.61735730  0.86630718  1
  O  O367  1  0.86075255  0.12724365  0.37220028  1
  O  O368  1  0.84836658  0.11655704  0.85004794  1
  O  O369  1  0.87606340  0.63548289  0.35778629  1
  O  O370  1  0.86660592  0.62651974  0.86337481  1
  O  O371  1  0.12478698  0.39049262  0.12558448  1
  O  O372  1  0.12713326  0.38424292  0.63007878  1
  O  O373  1  0.12723567  0.88517445  0.12961245  1
  O  O374  1  0.14219460  0.86994841  0.62592131  1
  O  O375  1  0.60727933  0.38312070  0.11701484  1
  O  O376  1  0.63878628  0.38940666  0.61529832  1
  O  O377  1  0.62072296  0.87050339  0.13565251  1
  O  O378  1  0.63063796  0.88024058  0.63016855  1
  O  O379  1  0.12398095  0.24667536  0.27374789  1
  O  O380  1  0.12843552  0.26990378  0.74618771  1
  O  O381  1  0.11861097  0.75815951  0.25385238  1
  O  O382  1  0.11344849  0.74139176  0.73972907  1
  O  O383  1  0.61156416  0.25304598  0.25049000  1
  O  O384  1  0.60832212  0.24354912  0.75332019  1
  O  O385  1  0.61827833  0.76029232  0.25157912  1
  O  O386  1  0.62575670  0.75220887  0.75362177  1
  O  O387  1  0.37110169  0.24189318  0.23723980  1
  O  O388  1  0.38359747  0.25029486  0.74142034  1
  O  O389  1  0.38019658  0.74721162  0.24385680  1
  O  O390  1  0.37746086  0.73954360  0.74176729  1
  O  O391  1  0.90055038  0.23948887  0.26729195  1
  O  O392  1  0.86675611  0.23702655  0.74619916  1
  O  O393  1  0.87836162  0.74981270  0.24168247  1
  O  O394  1  0.88193493  0.74213968  0.73920438  1
  O  O395  1  0.38148215  0.49432585  0.50266001  1
  O  O396  1  0.36978412  0.50079263  0.98581313  1
  O  O397  1  0.38626855  0.99815974  0.49271256  1
  O  O398  1  0.37752056  0.99388302  0.98759720  1
  O  O399  1  0.88511495  0.49449557  0.49447679  1
  O  O400  1  0.88924594  0.51031311  0.99994151  1
  O  O401  1  0.88192823  0.98689256  0.50693557  1
  O  O402  1  0.86573499  0.98103186  0.98320058  1
  O  O403  1  0.12126048  -0.00498854  0.00754277  1
  O  O404  1  0.11711179  0.00824218  0.50105663  1
  O  O405  1  0.12182727  0.51353856  0.00591392  1
  O  O406  1  0.11664129  0.50523514  0.50305595  1
  O  O407  1  0.61323542  -0.00727062  -0.00614427  1
  O  O408  1  0.61207491  -0.00537916  0.50801194  1
  O  O409  1  0.63277075  0.50528828  -0.00226708  1
  O  O410  1  0.61891160  0.50734449  0.50303901  1
  O  O411  1  0.36365785  0.36417231  0.12136638  1
  O  O412  1  0.37604213  0.36707213  0.61755048  1
  O  O413  1  0.36859763  0.87159582  0.11815508  1
  O  O414  1  0.36531351  0.86624537  0.62506459  1
  O  O415  1  0.91755757  0.35311316  0.12112455  1
  O  O416  1  0.86284250  0.38183620  0.61216115  1
  O  O417  1  0.88564185  0.86290575  0.10829146  1
  O  O418  1  0.87135444  0.86574519  0.61873112  1
  O  O419  1  0.13269317  0.13057866  0.39044489  1
  O  O420  1  0.13819967  0.13256331  0.86678797  1
  O  O421  1  0.12869006  0.63319102  0.38326219  1
  O  O422  1  0.13623300  0.62046947  0.88219707  1
  O  O423  1  0.64410152  0.12808966  0.36955606  1
  O  O424  1  0.62176184  0.12686433  0.87175389  1
  O  O425  1  0.62676669  0.63134510  0.38845122  1
  O  O426  1  0.63308870  0.63360031  0.87236062  1
