# generated using pymatgen
data_V85Zn86O256
_symmetry_space_group_name_H-M   'P 1'
_cell_length_a   16.93893540
_cell_length_b   16.93018043
_cell_length_c   16.94170125
_cell_angle_alpha   89.99036115
_cell_angle_beta   90.04406788
_cell_angle_gamma   89.98109706
_symmetry_Int_Tables_number   1
_chemical_formula_structural   V85Zn86O256
_chemical_formula_sum   'V85 Zn86 O256'
_cell_volume   4858.52631336
_cell_formula_units_Z   1
loop_
 _symmetry_equiv_pos_site_id
 _symmetry_equiv_pos_as_xyz
  1  'x, y, z'
loop_
 _atom_site_type_symbol
 _atom_site_label
 _atom_site_symmetry_multiplicity
 _atom_site_fract_x
 _atom_site_fract_y
 _atom_site_fract_z
 _atom_site_occupancy
  V  V0  1  0.12021278  0.75011953  0.36425399  1
  V  V1  1  0.75134998  0.00149703  0.75035853  1
  V  V2  1  0.87796928  0.38561353  0.50171438  1
  V  V3  1  0.25556194  0.49430394  0.74125116  1
  V  V4  1  0.00051253  0.11753217  0.62270110  1
  V  V5  1  0.12252576  0.25190902  0.88071141  1
  V  V6  1  0.49641531  0.00674459  0.00056025  1
  V  V7  1  0.88198442  0.75617734  0.12249638  1
  V  V8  1  0.12908337  0.36555521  0.25603228  1
  V  V9  1  0.24102377  0.88053498  0.62149951  1
  V  V10  1  0.24636754  0.74970403  0.50089670  1
  V  V11  1  0.74451901  0.64322288  0.87864555  1
  V  V12  1  0.24672367  0.62192542  0.36804066  1
  V  V13  1  0.50417601  0.62572882  0.12583604  1
  V  V14  1  0.62139192  0.00650316  0.12465031  1
  V  V15  1  0.36947174  0.87280934  -0.00384989  1
  V  V16  1  0.35720048  0.52107067  0.89807265  1
  V  V17  1  0.62331274  0.00205762  0.62418160  1
  V  V18  1  0.63419362  0.50005197  0.12382128  1
  V  V19  1  0.37089765  0.49667017  0.37148281  1
  V  V20  1  0.37414787  0.62217938  0.74867866  1
  V  V21  1  0.75035884  0.86975181  0.10840573  1
  V  V22  1  0.12964132  0.50224593  0.13434433  1
  V  V23  1  0.25752476  0.12508205  0.87662437  1
  V  V24  1  0.00243087  -0.00950886  0.49915676  1
  V  V25  1  0.63297446  0.37555746  0.24666266  1
  V  V26  1  0.37141586  0.36535878  0.51237409  1
  V  V27  1  0.24664235  0.13186020  0.36964601  1
  V  V28  1  0.75065847  0.25225740  0.50156471  1
  V  V29  1  0.62243459  0.87076878  0.75378913  1
  V  V30  1  0.37337626  0.75453718  0.62538597  1
  V  V31  1  0.50055887  0.37395379  0.37532876  1
  V  V32  1  0.75002148  0.12844223  0.87973524  1
  V  V33  1  -0.00328609  0.14296461  0.12432198  1
  V  V34  1  0.32417029  0.18329189  0.69179190  1
  V  V35  1  0.00498291  0.86267749  0.87774643  1
  V  V36  1  0.87654676  0.12532463  0.75115718  1
  V  V37  1  0.50141028  0.24083682  0.74769632  1
  V  V38  1  0.12362582  0.11364830  0.00174897  1
  V  V39  1  0.50093619  0.62835074  0.62196445  1
  V  V40  1  0.49587526  0.37980054  0.87509286  1
  V  V41  1  0.37428336  0.62252997  0.25243616  1
  V  V42  1  0.03066917  0.52231468  -0.01756930  1
  V  V43  1  0.88352226  0.75435216  0.62413605  1
  V  V44  1  0.25516332  0.37857738  0.13466589  1
  V  V45  1  0.37349104  -0.00828921  0.36973616  1
  V  V46  1  0.75696931  0.75183319  0.49803290  1
  V  V47  1  0.62498142  0.50179807  0.62479503  1
  V  V48  1  0.62767983  0.64269877  -0.00171833  1
  V  V49  1  0.75833450  0.50099590  0.25186196  1
  V  V50  1  0.87893566  -0.00567608  0.88144601  1
  V  V51  1  0.49937310  0.49895377  0.49845132  1
  V  V52  1  0.50320598  0.24230431  0.24537563  1
  V  V53  1  0.49918721  -0.00811828  0.49354712  1
  V  V54  1  0.87280725  0.37790721  0.01270349  1
  V  V55  1  0.00904911  0.37659763  0.38485859  1
  V  V56  1  -0.00429862  0.87042957  0.36523607  1
  V  V57  1  0.00435468  0.62208927  0.62779515  1
  V  V58  1  0.74795874  0.50369452  0.75185946  1
  V  V59  1  0.49861757  0.75464148  0.25603055  1
  V  V60  1  0.62365837  0.75408454  0.37785487  1
  V  V61  1  0.12494525  0.49425226  0.61946053  1
  V  V62  1  0.11577164  0.86441980  0.74765018  1
  V  V63  1  0.62439469  0.37585522  0.75118669  1
  V  V64  1  0.36896793  0.75069075  0.12073932  1
  V  V65  1  0.75400208  0.25497812  0.01394717  1
  V  V66  1  0.87496345  -0.00372174  0.37787661  1
  V  V67  1  0.62295636  0.12493308  0.50007776  1
  V  V68  1  0.11946352  0.62274069  0.50100583  1
  V  V69  1  0.87616719  0.25187126  0.62534089  1
  V  V70  1  0.24559008  -0.00255807  0.74904469  1
  V  V71  1  -0.00468310  0.37463324  0.87674117  1
  V  V72  1  -0.00040610  -0.00648044  0.00971228  1
  V  V73  1  0.62535564  0.87660907  0.25085362  1
  V  V74  1  0.37431630  0.37211712  0.00423173  1
  V  V75  1  0.12752445  0.37533327  0.75095242  1
  V  V76  1  0.37870436  0.24011215  0.12527140  1
  V  V77  1  0.24097486  0.88117021  0.11980702  1
  V  V78  1  0.12259402  0.12796859  0.49486902  1
  V  V79  1  0.86726777  0.50220072  0.88232556  1
  V  V80  1  0.00213244  0.62594373  0.13367061  1
  V  V81  1  0.87832222  0.63193755  0.75253425  1
  V  V82  1  0.62490930  0.25069027  0.37650597  1
  V  V83  1  0.75572343  0.87702773  0.61967673  1
  V  V84  1  0.75383262  0.12481123  0.37381588  1
  Zn  Zn85  1  0.75294251  0.62560523  0.37583627  1
  Zn  Zn86  1  -0.00398915  0.24913316  0.75355270  1
  Zn  Zn87  1  0.62690863  0.62575467  0.49805984  1
  Zn  Zn88  1  0.49402475  0.12609376  0.62498503  1
  Zn  Zn89  1  0.24804666  0.24982509  0.00395707  1
  Zn  Zn90  1  0.75160069  0.37767565  0.62670280  1
  Zn  Zn91  1  0.87698962  0.63684103  0.25623811  1
  Zn  Zn92  1  0.11786125  0.87766140  0.23969603  1
  Zn  Zn93  1  0.87495892  0.12967404  0.24527635  1
  Zn  Zn94  1  0.50845718  0.49855889  0.00020645  1
  Zn  Zn95  1  0.50472485  0.74711627  0.75543541  1
  Zn  Zn96  1  0.37737073  0.00076563  0.86705798  1
  Zn  Zn97  1  0.62616927  0.25197928  0.87859634  1
  Zn  Zn98  1  0.37772411  0.12075771  0.24768215  1
  Zn  Zn99  1  -0.00581554  0.25353139  0.25647887  1
  Zn  Zn100  1  0.75237193  -0.00099192  0.24685207  1
  Zn  Zn101  1  0.62195090  0.12972791  0.00517539  1
  Zn  Zn102  1  0.88027608  0.50474045  0.37980272  1
  Zn  Zn103  1  0.24982597  0.24955118  0.50690619  1
  Zn  Zn104  1  0.24514206  0.00134334  0.24463324  1
  Zn  Zn105  1  0.50270697  0.87113616  0.88015944  1
  Zn  Zn106  1  0.37533384  0.87220309  0.49419580  1
  Zn  Zn107  1  0.18525806  0.18839954  0.18470738  1
  Zn  Zn108  1  0.16322770  0.18461120  0.68869666  1
  Zn  Zn109  1  0.18521189  0.69042149  0.17967611  1
  Zn  Zn110  1  0.20149543  0.70135990  0.72104056  1
  Zn  Zn111  1  0.69033547  0.18714765  0.18982380  1
  Zn  Zn112  1  0.68789887  0.18840677  0.68966191  1
  Zn  Zn113  1  0.69189049  0.68977977  0.18891123  1
  Zn  Zn114  1  0.69172066  0.68900184  0.68526504  1
  Zn  Zn115  1  0.31569422  0.30959803  0.31325547  1
  Zn  Zn116  1  0.30750180  0.32042645  0.82144286  1
  Zn  Zn117  1  0.30702280  0.81083577  0.30808142  1
  Zn  Zn118  1  0.31080471  0.81244155  0.81402486  1
  Zn  Zn119  1  0.81909288  0.31278807  0.31242660  1
  Zn  Zn120  1  0.81057986  0.31289994  0.81557577  1
  Zn  Zn121  1  0.81171666  0.81508585  0.30858740  1
  Zn  Zn122  1  0.81547062  0.81660810  0.80907968  1
  Zn  Zn123  1  0.19233713  0.43544919  0.44007492  1
  Zn  Zn124  1  0.19402902  0.55144937  0.94045234  1
  Zn  Zn125  1  0.18292161  0.94086513  0.43038214  1
  Zn  Zn126  1  0.17101927  0.74276514  0.91634161  1
  Zn  Zn127  1  0.69048988  0.43801823  0.43677969  1
  Zn  Zn128  1  0.68829344  0.43938190  0.93993148  1
  Zn  Zn129  1  0.68791217  0.93521564  0.43660579  1
  Zn  Zn130  1  0.68567111  0.94265369  0.93714923  1
  Zn  Zn131  1  0.31082488  0.06005760  0.05701652  1
  Zn  Zn132  1  0.30626683  0.05437255  0.55219594  1
  Zn  Zn133  1  0.31938248  0.55700839  0.07142268  1
  Zn  Zn134  1  0.30948966  0.56006123  0.56016919  1
  Zn  Zn135  1  0.81359466  0.06065562  0.06319092  1
  Zn  Zn136  1  0.81614454  0.06225280  0.55827872  1
  Zn  Zn137  1  0.81290799  0.57283078  0.06431440  1
  Zn  Zn138  1  0.81067959  0.56788755  0.56503873  1
  Zn  Zn139  1  0.44489345  0.43583904  0.18976661  1
  Zn  Zn140  1  0.44119430  0.43801522  0.68860391  1
  Zn  Zn141  1  0.43738279  0.93741956  0.18532233  1
  Zn  Zn142  1  0.43449958  0.94095309  0.68503025  1
  Zn  Zn143  1  0.94825931  0.44027834  0.18989385  1
  Zn  Zn144  1  0.93790916  0.44176264  0.69008541  1
  Zn  Zn145  1  0.93145113  0.93944531  0.18950246  1
  Zn  Zn146  1  0.93759860  0.93942756  0.68953206  1
  Zn  Zn147  1  0.06579861  0.06020052  0.30676602  1
  Zn  Zn148  1  0.06535815  0.05686177  0.81538419  1
  Zn  Zn149  1  0.06231226  0.55470004  0.31230250  1
  Zn  Zn150  1  0.05789211  0.55883760  0.80418635  1
  Zn  Zn151  1  0.56273194  0.06037853  0.31389857  1
  Zn  Zn152  1  0.56373564  0.05898849  0.81689894  1
  Zn  Zn153  1  0.56627495  0.56452513  0.31254282  1
  Zn  Zn154  1  0.55926294  0.56514436  0.81584333  1
  Zn  Zn155  1  0.43590364  0.18260489  0.43565809  1
  Zn  Zn156  1  0.44070232  0.19037578  0.93576566  1
  Zn  Zn157  1  0.43615629  0.68832476  0.43793430  1
  Zn  Zn158  1  0.44498935  0.69398485  0.93711443  1
  Zn  Zn159  1  0.93834702  0.19192620  0.43571673  1
  Zn  Zn160  1  0.93348362  0.18716449  0.94314965  1
  Zn  Zn161  1  0.93805570  0.68685425  0.43866717  1
  Zn  Zn162  1  0.93271293  0.69023359  0.94566875  1
  Zn  Zn163  1  0.06537145  0.32334237  0.05936581  1
  Zn  Zn164  1  0.06108423  0.30920074  0.56271187  1
  Zn  Zn165  1  0.06606319  0.80206372  0.05188655  1
  Zn  Zn166  1  0.06440803  0.81175936  0.56086068  1
  Zn  Zn167  1  0.56587957  0.31249164  0.06373954  1
  Zn  Zn168  1  0.55853923  0.31209651  0.56593596  1
  Zn  Zn169  1  0.55591889  0.81918080  0.06655259  1
  Zn  Zn170  1  0.56491742  0.81451500  0.56436858  1
  O  O171  1  0.11331858  0.13155092  0.11242584  1
  O  O172  1  0.10742833  0.11948078  0.61718528  1
  O  O173  1  0.11823590  0.61387205  0.13230202  1
  O  O174  1  0.11902232  0.61840182  0.61938975  1
  O  O175  1  0.63237753  0.11059001  0.12524315  1
  O  O176  1  0.62954356  0.11345524  0.61989544  1
  O  O177  1  0.62058806  0.62183968  0.12082639  1
  O  O178  1  0.61730322  0.62182562  0.62309496  1
  O  O179  1  0.38158705  0.38144508  0.38002536  1
  O  O180  1  0.37881005  0.38337810  0.88679446  1
  O  O181  1  0.36620850  0.88654908  0.37450360  1
  O  O182  1  0.37190797  0.87648953  0.88362052  1
  O  O183  1  0.88380627  0.37962325  0.38761129  1
  O  O184  1  0.87798630  0.38358063  0.88066556  1
  O  O185  1  0.88120101  0.88316999  0.37310169  1
  O  O186  1  0.88857815  0.88585407  0.86427496  1
  O  O187  1  0.25866645  0.01134223  0.37575056  1
  O  O188  1  0.25051611  0.01748096  0.86290895  1
  O  O189  1  0.25993216  0.50875858  0.37975756  1
  O  O190  1  0.25959992  0.49242295  0.85610732  1
  O  O191  1  0.75677046  0.00725360  0.37758813  1
  O  O192  1  0.75976164  0.00650415  0.87249856  1
  O  O193  1  0.75295249  0.50334291  0.36671055  1
  O  O194  1  0.75415462  0.50717256  0.86889934  1
  O  O195  1  0.24826466  0.48722760  0.12771492  1
  O  O196  1  0.24187949  0.49617261  0.63213158  1
  O  O197  1  0.25221612  0.98468374  0.12214227  1
  O  O198  1  0.25161169  0.98674995  0.62831783  1
  O  O199  1  0.73992399  0.50684036  0.13311046  1
  O  O200  1  0.74151208  0.50118065  0.63304298  1
  O  O201  1  0.74501312  0.98905593  0.12513363  1
  O  O202  1  0.74723211  0.99453687  0.62665641  1
  O  O203  1  0.01027260  0.37469079  0.26215544  1
  O  O204  1  0.00330052  0.37734912  0.76328129  1
  O  O205  1  -0.00121171  0.87661143  0.26129419  1
  O  O206  1  0.01081949  0.88719090  0.76011498  1
  O  O207  1  0.51203036  0.36684235  0.25785533  1
  O  O208  1  0.50502940  0.36885596  0.75689495  1
  O  O209  1  0.51232933  0.86556641  0.24229261  1
  O  O210  1  0.51653654  0.87893849  0.74288728  1
  O  O211  1  0.50124883  0.13867791  0.25422686  1
  O  O212  1  0.50508462  0.13619550  0.75205092  1
  O  O213  1  0.49829801  0.63224751  0.24176232  1
  O  O214  1  0.49488797  0.62390893  0.73525083  1
  O  O215  1  1.00559844  0.12901111  0.23309904  1
  O  O216  1  0.99472643  0.12253865  0.74195012  1
  O  O217  1  0.99720661  0.61674121  0.23787910  1
  O  O218  1  0.99050931  0.62537398  0.74192347  1
  O  O219  1  0.37741507  0.25549710  0.00882043  1
  O  O220  1  0.37750474  0.26164494  0.49995574  1
  O  O221  1  0.38201349  0.75758813  0.01047574  1
  O  O222  1  0.36757053  0.75051017  0.50940041  1
  O  O223  1  0.86316308  0.26190769  -0.00294874  1
  O  O224  1  0.87050577  0.25874286  0.50900186  1
  O  O225  1  0.86775320  0.74633353  0.02191075  1
  O  O226  1  0.86458988  0.74781552  0.50877738  1
  O  O227  1  0.12969925  0.23455737  0.51001820  1
  O  O228  1  0.12454300  0.24845273  0.99003549  1
  O  O229  1  0.13002299  0.73986288  0.49362067  1
  O  O230  1  0.12918485  0.72249132  1.00968679  1
  O  O231  1  0.62970628  0.24587623  0.49805550  1
  O  O232  1  0.63761408  0.24976567  0.99839171  1
  O  O233  1  0.63329994  0.75303240  0.49348999  1
  O  O234  1  0.61789109  0.74137849  1.00755623  1
  O  O235  1  0.49300040  0.25513734  0.13396449  1
  O  O236  1  0.50140503  0.24549828  0.63872602  1
  O  O237  1  0.49286017  0.74386394  0.13617052  1
  O  O238  1  0.49264194  0.74391113  0.62446394  1
  O  O239  1  1.00046188  0.24391649  0.11891399  1
  O  O240  1  0.98843958  0.24104885  0.62753832  1
  O  O241  1  0.98978903  0.74432651  0.12420080  1
  O  O242  1  0.98874098  0.74090226  0.61571745  1
  O  O243  1  -0.00075624  0.26925613  0.37738313  1
  O  O244  1  0.00208841  0.25776765  0.87768660  1
  O  O245  1  0.00757552  0.75932704  0.38237795  1
  O  O246  1  -0.01135895  0.76389392  0.87800424  1
  O  O247  1  0.50636489  0.25389752  0.36962552  1
  O  O248  1  0.50176189  0.26192419  0.86631716  1
  O  O249  1  0.50473110  0.74723944  0.36436477  1
  O  O250  1  0.50196513  0.75864125  0.86723540  1
  O  O251  1  0.24129987  0.12613958  0.49099558  1
  O  O252  1  0.24019578  0.12770143  0.99292570  1
  O  O253  1  0.24030394  0.62900041  0.49196357  1
  O  O254  1  0.29488045  0.59005801  0.96541134  1
  O  O255  1  0.74428096  0.13056698  0.49198561  1
  O  O256  1  0.75293814  0.13693028  0.99551696  1
  O  O257  1  0.74622362  0.63761757  0.49987877  1
  O  O258  1  0.73986906  0.62546815  0.99050487  1
  O  O259  1  0.26906463  0.37149878  0.01162966  1
  O  O260  1  0.26587495  0.36872103  0.49906483  1
  O  O261  1  0.26415384  0.87084460  0.01297449  1
  O  O262  1  0.24585181  0.86913579  0.50650779  1
  O  O263  1  0.75705003  0.36385974  -0.00298941  1
  O  O264  1  0.75799210  0.36869841  0.50422972  1
  O  O265  1  0.74567629  0.87661684  0.01001836  1
  O  O266  1  0.74751114  0.86948585  0.51276854  1
  O  O267  1  0.12454556  0.48640337  0.24065748  1
  O  O268  1  0.13322347  0.49379067  0.74151964  1
  O  O269  1  0.13322535  0.98850076  0.25719929  1
  O  O270  1  0.13714509  0.99152562  0.75297455  1
  O  O271  1  0.63374123  0.49378391  0.24597670  1
  O  O272  1  0.62648516  0.49498305  0.74553946  1
  O  O273  1  0.62405462  0.99266362  0.24352481  1
  O  O274  1  0.63206680  0.99571431  0.74088101  1
  O  O275  1  0.37164063  0.00229591  0.25504915  1
  O  O276  1  0.35602802  -0.00849067  0.75071951  1
  O  O277  1  0.38391792  0.50513171  0.26378179  1
  O  O278  1  0.36984208  0.50403186  0.75094355  1
  O  O279  1  0.87254727  0.00849054  0.26272173  1
  O  O280  1  0.86917912  0.00740749  0.75827654  1
  O  O281  1  0.86302697  0.49499791  0.24794195  1
  O  O282  1  0.86825635  0.51132392  0.75802464  1
  O  O283  1  0.11843587  0.37944441  0.37251488  1
  O  O284  1  0.11272335  0.36720881  0.86639150  1
  O  O285  1  0.11565096  0.86326183  0.37636996  1
  O  O286  1  0.11180967  0.86293148  0.86171506  1
  O  O287  1  0.61973363  0.36884376  0.37077611  1
  O  O288  1  0.61657995  0.37883423  0.86532282  1
  O  O289  1  0.62673705  0.86436069  0.36688257  1
  O  O290  1  0.62981758  0.88281944  0.85565323  1
  O  O291  1  0.36775907  0.13700338  0.12545587  1
  O  O292  1  0.37362032  0.12112679  0.62705237  1
  O  O293  1  0.38363783  0.63003541  0.13297385  1
  O  O294  1  0.38216029  0.62965285  0.62688558  1
  O  O295  1  0.89318669  0.12075114  0.12355154  1
  O  O296  1  0.88062815  0.13231242  0.62834482  1
  O  O297  1  0.88183618  0.63515534  0.13246663  1
  O  O298  1  0.88295281  0.63044897  0.63284642  1
  O  O299  1  0.25974934  0.26066688  0.12513754  1
  O  O300  1  0.25819959  0.23582391  0.63517349  1
  O  O301  1  0.26500932  0.75345533  0.12807153  1
  O  O302  1  0.25559370  0.75966349  0.62403525  1
  O  O303  1  0.74960245  0.24849343  0.11279080  1
  O  O304  1  0.76116511  0.25109715  0.62192449  1
  O  O305  1  0.75093445  0.76565611  0.12513968  1
  O  O306  1  0.75981722  0.75750492  0.61810132  1
  O  O307  1  0.25784909  0.23431717  0.38022419  1
  O  O308  1  0.23947312  0.24424388  0.87719544  1
  O  O309  1  0.24210383  0.74239239  0.38083795  1
  O  O310  1  0.23654830  0.73149367  0.83245040  1
  O  O311  1  0.74442005  0.24362932  0.38204918  1
  O  O312  1  0.74841108  0.24200406  0.88217881  1
  O  O313  1  0.74364334  0.75302451  0.38382383  1
  O  O314  1  0.75311872  0.74211130  0.86949553  1
  O  O315  1  0.00354098  0.12006205  0.00893611  1
  O  O316  1  0.00393782  0.11970185  0.50349479  1
  O  O317  1  -0.01662784  0.61121291  0.01427321  1
  O  O318  1  0.01319930  0.62546931  0.50698143  1
  O  O319  1  0.50227790  0.11265165  -0.00628724  1
  O  O320  1  0.50730423  0.11618641  0.50272934  1
  O  O321  1  0.50565900  0.62333027  0.01327774  1
  O  O322  1  0.50058306  0.62020475  0.50892310  1
  O  O323  1  0.49223854  0.37865978  0.49421418  1
  O  O324  1  0.49599703  0.37224119  0.99035370  1
  O  O325  1  0.49957888  0.88797493  0.50359553  1
  O  O326  1  0.48824343  0.88589853  1.00165261  1
  O  O327  1  0.99454453  0.37435148  0.49383001  1
  O  O328  1  0.99719365  0.39130540  0.98839546  1
  O  O329  1  1.00557416  0.88660110  0.49280678  1
  O  O330  1  1.00751081  0.88020666  0.98612905  1
  O  O331  1  0.49587702  0.49616351  0.38098150  1
  O  O332  1  0.48972057  0.49048591  0.87591774  1
  O  O333  1  0.48883631  1.00455073  0.38202240  1
  O  O334  1  0.49727569  0.99233191  0.88241926  1
  O  O335  1  0.99741462  0.48384462  0.37534797  1
  O  O336  1  0.98241142  0.49319383  0.87799188  1
  O  O337  1  0.99320721  0.99329973  0.37993833  1
  O  O338  1  0.99441240  0.99392674  0.88455672  1
  O  O339  1  -0.00484832  -0.00223087  0.11188349  1
  O  O340  1  -0.01272829  0.00759227  0.61211609  1
  O  O341  1  0.01330161  0.50696579  0.11651137  1
  O  O342  1  0.00864351  0.51295772  0.63041484  1
  O  O343  1  0.50958697  -0.00359626  0.11616912  1
  O  O344  1  0.50869614  0.00446034  0.61837626  1
  O  O345  1  0.51354774  0.51025617  0.12958190  1
  O  O346  1  0.50538259  0.50779916  0.61859704  1
  O  O347  1  0.24530873  0.37059749  0.24612119  1
  O  O348  1  0.23611061  0.37725844  0.75015003  1
  O  O349  1  0.25097534  0.87282556  0.22982978  1
  O  O350  1  0.23466426  0.87965952  0.74326017  1
  O  O351  1  0.73828069  0.38103749  0.25852006  1
  O  O352  1  0.74072647  0.38225830  0.75042506  1
  O  O353  1  0.73592135  0.87840766  0.24441791  1
  O  O354  1  0.74260732  0.88154358  0.73892738  1
  O  O355  1  0.25092186  0.12608463  0.25929009  1
  O  O356  1  0.25264371  0.12514544  0.74929903  1
  O  O357  1  0.25443488  0.62969702  0.26249565  1
  O  O358  1  0.26722434  0.60956328  0.73663830  1
  O  O359  1  0.74819501  0.12122159  0.26418726  1
  O  O360  1  0.75576186  0.12063267  0.75806311  1
  O  O361  1  0.75051419  0.61479451  0.25355616  1
  O  O362  1  0.75524108  0.62177015  0.75647246  1
  O  O363  1  0.36364790  0.11556609  0.37313921  1
  O  O364  1  0.36125947  0.12854370  0.87873217  1
  O  O365  1  0.36717591  0.61813839  0.37270969  1
  O  O366  1  0.39471294  0.61755688  0.85803733  1
  O  O367  1  0.86633902  0.11968173  0.37828382  1
  O  O368  1  0.86723346  0.11927548  0.87164899  1
  O  O369  1  0.87376691  0.62171939  0.37259653  1
  O  O370  1  0.86796688  0.62095081  0.87069060  1
  O  O371  1  0.13643263  0.37822812  0.13440646  1
  O  O372  1  0.11222755  0.38285094  0.63707085  1
  O  O373  1  0.13887531  0.86603006  0.12008174  1
  O  O374  1  0.12847126  0.87630456  0.63332083  1
  O  O375  1  0.62124418  0.38615563  0.13569437  1
  O  O376  1  0.62394178  0.38109698  0.63762775  1
  O  O377  1  0.63392710  0.88242740  0.12980610  1
  O  O378  1  0.63366615  0.88725771  0.62935478  1
  O  O379  1  0.12010595  0.26266839  0.24689964  1
  O  O380  1  0.11644530  0.25781601  0.76114193  1
  O  O381  1  0.12749148  0.75265219  0.26156202  1
  O  O382  1  0.10818731  0.76566583  0.73551630  1
  O  O383  1  0.62214283  0.25741648  0.25361112  1
  O  O384  1  0.61909563  0.25885639  0.75357416  1
  O  O385  1  0.61870052  0.75621514  0.25653434  1
  O  O386  1  0.62587163  0.76802934  0.73724888  1
  O  O387  1  0.38668774  0.24896150  0.24270507  1
  O  O388  1  0.37858953  0.24947397  0.75118577  1
  O  O389  1  0.38294387  0.74324040  0.24668804  1
  O  O390  1  0.37751989  0.74139053  0.73644853  1
  O  O391  1  0.87993689  0.24307609  0.25332469  1
  O  O392  1  0.87532197  0.24527110  0.74337546  1
  O  O393  1  0.86472674  0.75064400  0.23172841  1
  O  O394  1  0.86994040  0.73895594  0.73998136  1
  O  O395  1  0.37999242  0.49197817  0.49081329  1
  O  O396  1  0.39047582  0.48629490  1.00388252  1
  O  O397  1  0.38317510  0.99585944  0.49057530  1
  O  O398  1  0.38058047  0.99276510  0.99585609  1
  O  O399  1  0.86997507  0.48843440  0.50623614  1
  O  O400  1  0.86432613  0.49554165  0.99033896  1
  O  O401  1  0.88552050  1.00462242  0.48669691  1
  O  O402  1  0.88294771  1.00292211  0.98855982  1
  O  O403  1  0.11331684  0.01334769  -0.00687485  1
  O  O404  1  0.11313631  0.01304315  0.49329053  1
  O  O405  1  0.12847478  0.48890216  0.01930262  1
  O  O406  1  0.13273529  0.50520939  0.51282497  1
  O  O407  1  0.61608084  0.00158383  0.00759978  1
  O  O408  1  0.61938701  0.00367508  0.50450256  1
  O  O409  1  0.62540415  0.50614212  0.01030861  1
  O  O410  1  0.61835981  0.50010905  0.50652737  1
  O  O411  1  0.37371335  0.36904423  0.12421930  1
  O  O412  1  0.38124984  0.37902288  0.61010558  1
  O  O413  1  0.37081835  0.86631364  0.11918301  1
  O  O414  1  0.36667083  0.86715099  0.62145917  1
  O  O415  1  0.88584772  0.38405602  0.11069920  1
  O  O416  1  0.87700877  0.36824852  0.62191878  1
  O  O417  1  0.86148177  0.86890270  0.12737652  1
  O  O418  1  0.86819610  0.86610543  0.63285126  1
  O  O419  1  0.13761699  0.12457483  0.37923970  1
  O  O420  1  0.12847554  0.13493606  0.88070228  1
  O  O421  1  0.12875858  0.62706639  0.38013596  1
  O  O422  1  0.09344089  0.58293851  0.90760822  1
  O  O423  1  0.63215045  0.13001319  0.38147553  1
  O  O424  1  0.64027018  0.12357244  0.87853436  1
  O  O425  1  0.62630975  0.64058189  0.37701714  1
  O  O426  1  0.63208621  0.62243777  0.88513330  1
