# generated using pymatgen
data_V85Zn86O256
_symmetry_space_group_name_H-M   'P 1'
_cell_length_a   16.96246839
_cell_length_b   16.96070969
_cell_length_c   16.95547486
_cell_angle_alpha   90.01693850
_cell_angle_beta   89.97161996
_cell_angle_gamma   90.04547591
_symmetry_Int_Tables_number   1
_chemical_formula_structural   V85Zn86O256
_chemical_formula_sum   'V85 Zn86 O256'
_cell_volume   4878.01150732
_cell_formula_units_Z   1
loop_
 _symmetry_equiv_pos_site_id
 _symmetry_equiv_pos_as_xyz
  1  'x, y, z'
loop_
 _atom_site_type_symbol
 _atom_site_label
 _atom_site_symmetry_multiplicity
 _atom_site_fract_x
 _atom_site_fract_y
 _atom_site_fract_z
 _atom_site_occupancy
  V  V0  1  0.74876564  0.87581885  0.12594284  1
  V  V1  1  0.62349740  0.00178245  0.12386342  1
  V  V2  1  0.37311526  0.87486021  0.49995996  1
  V  V3  1  0.37267941  0.12672070  0.24895480  1
  V  V4  1  0.49767982  0.86981073  0.36874235  1
  V  V5  1  0.37212912  0.00223130  0.37345002  1
  V  V6  1  0.38164487  0.75130587  0.14392071  1
  V  V7  1  0.62163414  0.12897240  0.49289827  1
  V  V8  1  -0.00573677  0.35244288  0.86990306  1
  V  V9  1  0.74674083  0.37625593  0.63183727  1
  V  V10  1  0.61668694  0.49760906  0.62789489  1
  V  V11  1  0.74712873  0.26027550  0.00193082  1
  V  V12  1  0.88352977  0.50456536  0.87434408  1
  V  V13  1  0.50870729  0.37467533  0.38547419  1
  V  V14  1  0.49702427  0.12136895  0.62623240  1
  V  V15  1  0.37200965  0.26780314  0.11854074  1
  V  V16  1  0.24724287  -0.00082816  0.24085232  1
  V  V17  1  0.12006019  0.50246459  0.62435735  1
  V  V18  1  0.62187869  0.13485783  -0.00568909  1
  V  V19  1  0.24207485  0.63231623  0.88534955  1
  V  V20  1  0.74587000  0.25163384  0.49530971  1
  V  V21  1  0.35556999  -0.00133813  0.87266690  1
  V  V22  1  0.74628796  0.12825053  0.87227027  1
  V  V23  1  -0.00337211  0.75000956  0.75482286  1
  V  V24  1  0.37290778  0.24620011  0.62646469  1
  V  V25  1  0.87311696  0.37498177  0.50014664  1
  V  V26  1  0.62213076  0.87210127  0.24948160  1
  V  V27  1  0.50012026  0.74943054  0.74943830  1
  V  V28  1  0.36107137  0.12129185  0.75537724  1
  V  V29  1  -0.00416886  0.50025406  0.50126302  1
  V  V30  1  -0.00166412  0.87039821  0.38238768  1
  V  V31  1  0.12697570  0.00524285  0.62185420  1
  V  V32  1  0.88073004  0.00242433  0.87511552  1
  V  V33  1  0.12140855  0.62917052  0.49753956  1
  V  V34  1  -0.00169336  0.11876879  0.11594798  1
  V  V35  1  0.37377122  0.74990547  0.62453292  1
  V  V36  1  0.62516836  0.62171086  0.50170619  1
  V  V37  1  0.87660064  0.88461471  0.00182039  1
  V  V38  1  0.63369281  0.49498777  0.12380824  1
  V  V39  1  0.13553958  0.11668432  -0.01085500  1
  V  V40  1  0.37158999  0.62114799  0.75629294  1
  V  V41  1  0.38000940  0.38051396  0.50749856  1
  V  V42  1  0.74817895  0.00063117  0.25154875  1
  V  V43  1  -0.01102773  0.62655815  0.63036603  1
  V  V44  1  0.12263708  0.87714404  0.74860843  1
  V  V45  1  0.37999486  0.49955100  0.37296186  1
  V  V46  1  0.49783847  0.62188854  0.62335642  1
  V  V47  1  0.24958476  0.87885080  0.62998792  1
  V  V48  1  0.24578429  0.50277028  0.74851138  1
  V  V49  1  0.75048459  0.75200664  -0.00028384  1
  V  V50  1  0.62226946  0.74469261  0.36943966  1
  V  V51  1  0.62673448  0.75160465  0.87404179  1
  V  V52  1  0.49673270  0.12848256  0.12356553  1
  V  V53  1  0.02112960  0.62095210  0.12055772  1
  V  V54  1  0.37332965  0.86530686  0.00362533  1
  V  V55  1  0.00599097  0.74900240  0.25425123  1
  V  V56  1  0.87133070  0.26229867  0.12737468  1
  V  V57  1  0.75811860  0.62835405  0.86943667  1
  V  V58  1  0.87757776  0.25083504  0.63297708  1
  V  V59  1  0.63204733  0.37268903  0.24980389  1
  V  V60  1  0.50416106  0.25208404  0.25614109  1
  V  V61  1  0.51356179  0.24879397  0.75547343  1
  V  V62  1  0.87344738  0.74329714  0.12725809  1
  V  V63  1  0.87235224  -0.00476950  0.38142856  1
  V  V64  1  0.00097813  0.00740200  0.49855353  1
  V  V65  1  0.49080642  0.49586320  -0.00470290  1
  V  V66  1  0.49852765  -0.00105120  0.49677553  1
  V  V67  1  0.12719412  0.87306530  0.25425050  1
  V  V68  1  0.87369976  0.12678516  0.24948725  1
  V  V69  1  0.49951610  0.00324585  -0.00335695  1
  V  V70  1  0.62664963  -0.00389609  0.62401496  1
  V  V71  1  0.62454947  0.62333487  0.00070269  1
  V  V72  1  0.00198782  0.12959748  0.62880639  1
  V  V73  1  0.23352063  0.12631551  0.37602771  1
  V  V74  1  0.01492618  0.24961118  0.25156766  1
  V  V75  1  0.74700072  0.12725908  0.37486375  1
  V  V76  1  0.50043782  0.87770839  0.87323874  1
  V  V77  1  0.87619002  0.76129403  0.62372673  1
  V  V78  1  0.00728016  0.36844634  0.37418466  1
  V  V79  1  0.24361512  0.75102966  0.49411748  1
  V  V80  1  0.75249035  0.50339183  0.75063912  1
  V  V81  1  0.75390039  0.75564506  0.49934316  1
  V  V82  1  0.24253727  0.24677036  0.49487008  1
  V  V83  1  0.87359607  0.49869494  0.36607148  1
  V  V84  1  0.11929596  0.36384826  0.74583476  1
  Zn  Zn85  1  0.75133948  0.62266828  0.37409633  1
  Zn  Zn86  1  0.37961689  0.62530639  0.25696915  1
  Zn  Zn87  1  0.75105870  0.49918056  0.24726695  1
  Zn  Zn88  1  0.24541725  0.37448297  0.62204946  1
  Zn  Zn89  1  0.00896554  0.49918189  0.00461507  1
  Zn  Zn90  1  0.51199854  0.37426575  0.87547428  1
  Zn  Zn91  1  0.87319369  0.38034352  0.00282656  1
  Zn  Zn92  1  0.23558857  0.49221062  0.23739616  1
  Zn  Zn93  1  0.75055354  -0.00062301  0.74932810  1
  Zn  Zn94  1  0.12468464  0.75231868  0.89344750  1
  Zn  Zn95  1  0.19095518  0.43594170  0.07073571  1
  Zn  Zn96  1  0.11912244  -0.00527543  0.12117092  1
  Zn  Zn97  1  0.87620298  0.12777187  0.75185142  1
  Zn  Zn98  1  0.00028521  0.87839398  0.87852073  1
  Zn  Zn99  1  0.24364333  0.26164837  0.00269278  1
  Zn  Zn100  1  0.15459208  0.23756527  0.86438675  1
  Zn  Zn101  1  0.24605423  0.61970584  0.37742064  1
  Zn  Zn102  1  0.21097986  0.82014844  0.07769397  1
  Zn  Zn103  1  0.75572140  0.87955213  0.62339521  1
  Zn  Zn104  1  0.87547038  0.62408987  0.25065436  1
  Zn  Zn105  1  0.50669229  0.62998440  0.13603550  1
  Zn  Zn106  1  0.62748390  0.87630355  0.74855769  1
  Zn  Zn107  1  0.18855271  0.18815900  0.17861554  1
  Zn  Zn108  1  0.18762263  0.18543750  0.68015323  1
  Zn  Zn109  1  0.19722957  0.68093191  0.19973625  1
  Zn  Zn110  1  0.18336706  0.69138205  0.68510354  1
  Zn  Zn111  1  0.68607282  0.18983980  0.18459209  1
  Zn  Zn112  1  0.69120964  0.18103624  0.68031579  1
  Zn  Zn113  1  0.69044475  0.68209796  0.19023604  1
  Zn  Zn114  1  0.68961932  0.68904901  0.68824407  1
  Zn  Zn115  1  0.31891491  0.31276357  0.30857308  1
  Zn  Zn116  1  0.31703827  0.34618894  0.88551536  1
  Zn  Zn117  1  0.30824924  0.81336258  0.31385030  1
  Zn  Zn118  1  0.31192325  0.81131779  0.81239522  1
  Zn  Zn119  1  0.81591708  0.31275476  0.31328812  1
  Zn  Zn120  1  0.80222505  0.31544397  0.81643043  1
  Zn  Zn121  1  0.81262750  0.81106745  0.31316631  1
  Zn  Zn122  1  0.81338021  0.81752447  0.80847488  1
  Zn  Zn123  1  0.20830251  0.41236708  0.39559921  1
  Zn  Zn124  1  0.17524801  0.44177119  0.91785973  1
  Zn  Zn125  1  0.18401751  0.93955165  0.43618100  1
  Zn  Zn126  1  0.17693244  0.92632059  0.94546758  1
  Zn  Zn127  1  0.68656877  0.43905941  0.43976994  1
  Zn  Zn128  1  0.68076622  0.43734867  0.93023110  1
  Zn  Zn129  1  0.68535013  0.93529845  0.43868577  1
  Zn  Zn130  1  0.68909126  0.94238355  0.93674521  1
  Zn  Zn131  1  0.31510631  0.05981585  0.06031728  1
  Zn  Zn132  1  0.30928127  0.06265415  0.56036325  1
  Zn  Zn133  1  0.31481504  0.57103557  0.06690676  1
  Zn  Zn134  1  0.31013573  0.56072605  0.56261125  1
  Zn  Zn135  1  0.80935483  0.06819677  0.06159977  1
  Zn  Zn136  1  0.81386237  0.06469398  0.56117943  1
  Zn  Zn137  1  0.81329554  0.56041545  0.05812357  1
  Zn  Zn138  1  0.81043901  0.56530908  0.56145001  1
  Zn  Zn139  1  0.44883052  0.44413275  0.18811345  1
  Zn  Zn140  1  0.41138109  0.40967318  0.72731774  1
  Zn  Zn141  1  0.43610470  0.93846488  0.18595371  1
  Zn  Zn142  1  0.43569807  0.93961427  0.69062997  1
  Zn  Zn143  1  1.06199781  0.43445720  0.19110701  1
  Zn  Zn144  1  0.93400987  0.43784866  0.69179313  1
  Zn  Zn145  1  0.93499834  0.93605294  0.19302807  1
  Zn  Zn146  1  0.93819348  0.94148977  0.68978773  1
  Zn  Zn147  1  0.05953847  0.06127973  0.30814790  1
  Zn  Zn148  1  0.06226457  0.06072103  0.80756080  1
  Zn  Zn149  1  0.05767957  0.56555312  0.31608097  1
  Zn  Zn150  1  0.06600023  0.56890996  0.81276488  1
  Zn  Zn151  1  0.55983521  0.06225731  0.31118677  1
  Zn  Zn152  1  0.56109719  0.06408984  0.81031712  1
  Zn  Zn153  1  0.55833332  0.55729536  0.31357589  1
  Zn  Zn154  1  0.56789999  0.55911984  0.81182707  1
  Zn  Zn155  1  0.43276348  0.18991103  0.43672355  1
  Zn  Zn156  1  0.42662334  0.19085385  0.93145767  1
  Zn  Zn157  1  0.44033432  0.68759277  0.44080766  1
  Zn  Zn158  1  0.43832951  0.68383846  0.93767081  1
  Zn  Zn159  1  0.93558864  0.18700126  0.43793450  1
  Zn  Zn160  1  0.93041580  0.18456309  0.94228392  1
  Zn  Zn161  1  0.93531552  0.68724146  0.43958871  1
  Zn  Zn162  1  0.93916178  0.69064253  0.94161486  1
  Zn  Zn163  1  0.05844359  0.30298825  0.05178502  1
  Zn  Zn164  1  0.06212623  0.31214397  0.55865035  1
  Zn  Zn165  1  0.04940646  0.81513535  0.06669461  1
  Zn  Zn166  1  0.06037748  0.81536303  0.56233872  1
  Zn  Zn167  1  0.55801987  0.31670888  0.06425965  1
  Zn  Zn168  1  0.56247541  0.31085272  0.57206002  1
  Zn  Zn169  1  0.55991648  0.81212142  0.06090403  1
  Zn  Zn170  1  0.56230610  0.80967009  0.55783289  1
  O  O171  1  0.11140458  0.12320857  0.11688299  1
  O  O172  1  0.11629173  0.11699875  0.62331302  1
  O  O173  1  0.11901760  0.63506555  0.12780890  1
  O  O174  1  0.11231473  0.62047713  0.62002824  1
  O  O175  1  0.61624596  0.12021643  0.11753367  1
  O  O176  1  0.61780750  0.11338299  0.61282355  1
  O  O177  1  0.62640344  0.62021769  0.11610864  1
  O  O178  1  0.61886914  0.62215198  0.62035810  1
  O  O179  1  0.38763561  0.38157174  0.38874235  1
  O  O180  1  0.40401375  0.38913665  0.83952997  1
  O  O181  1  0.38144133  0.88001597  0.37933338  1
  O  O182  1  0.38172472  0.87870055  0.88218889  1
  O  O183  1  0.88075472  0.37913293  0.38440435  1
  O  O184  1  0.88397081  0.38324276  0.87045288  1
  O  O185  1  0.88295547  0.88593030  0.36862693  1
  O  O186  1  0.87066838  0.88525315  0.88492968  1
  O  O187  1  0.25489077  0.00858209  0.37031480  1
  O  O188  1  0.25803566  -0.01093466  0.87860453  1
  O  O189  1  0.27686347  0.50573708  0.40173166  1
  O  O190  1  0.24186049  0.51885431  0.85510574  1
  O  O191  1  0.75490467  0.00325625  0.37272924  1
  O  O192  1  0.75575966  0.01305759  0.87442703  1
  O  O193  1  0.76063449  0.50035857  0.37786422  1
  O  O194  1  0.76066777  0.50929883  0.86928806  1
  O  O195  1  0.26298190  0.49800425  0.12902079  1
  O  O196  1  0.23523379  0.50011970  0.62920506  1
  O  O197  1  0.24897927  1.00390624  0.13855613  1
  O  O198  1  0.24013461  0.99016958  0.61579488  1
  O  O199  1  0.73861002  0.50228053  0.12520381  1
  O  O200  1  0.74657089  0.49513593  0.63147480  1
  O  O201  1  0.74337094  0.99652699  0.13095759  1
  O  O202  1  0.74013094  1.00002317  0.62125179  1
  O  O203  1  -0.00021564  0.35714374  0.25932290  1
  O  O204  1  0.00564248  0.37914129  0.76005066  1
  O  O205  1  0.00467059  0.86909346  0.25966310  1
  O  O206  1  0.00656442  0.86925156  0.74976951  1
  O  O207  1  0.50999372  0.36904694  0.26060007  1
  O  O208  1  0.50894216  0.34638683  0.72531970  1
  O  O209  1  0.50540985  0.88198025  0.26187956  1
  O  O210  1  0.50112933  0.86946666  0.75806523  1
  O  O211  1  0.49552000  0.13331343  0.24521237  1
  O  O212  1  0.49234441  0.12635202  0.74007596  1
  O  O213  1  0.49353014  0.61884337  0.24857654  1
  O  O214  1  0.49255998  0.62793065  0.74256232  1
  O  O215  1  0.99253050  0.13362930  0.24551249  1
  O  O216  1  0.99580418  0.12253268  0.73317199  1
  O  O217  1  0.99658859  0.63482360  0.24208782  1
  O  O218  1  1.00382888  0.63670811  0.74108799  1
  O  O219  1  0.38246007  0.25205152  0.01675679  1
  O  O220  1  0.37124196  0.25322252  0.51182040  1
  O  O221  1  0.37806183  0.76380950  -0.00131713  1
  O  O222  1  0.36902443  0.75696795  0.50671061  1
  O  O223  1  0.86459981  0.25091487  0.00990944  1
  O  O224  1  0.86619357  0.25726902  0.50719935  1
  O  O225  1  0.86793409  0.75942564  0.00922299  1
  O  O226  1  0.86523742  0.74762712  0.50890195  1
  O  O227  1  0.14393009  0.25123949  0.50503773  1
  O  O228  1  0.12478093  0.22986133  0.99176330  1
  O  O229  1  0.13243317  0.74306891  0.50889289  1
  O  O230  1  0.13492750  0.80743625  0.99384079  1
  O  O231  1  0.63308263  0.23932657  0.50761935  1
  O  O232  1  0.62967480  0.24102414  1.00992509  1
  O  O233  1  0.63016902  0.74078231  0.49184196  1
  O  O234  1  0.63174861  0.74581864  0.99419881  1
  O  O235  1  0.49184309  0.24581575  0.13437694  1
  O  O236  1  0.49437730  0.23091019  0.62216096  1
  O  O237  1  0.48690361  0.75106102  0.12182515  1
  O  O238  1  0.49553406  0.74350987  0.63036916  1
  O  O239  1  0.99067909  0.23810130  0.13618644  1
  O  O240  1  0.98995712  0.24149064  0.61518075  1
  O  O241  1  0.99139109  0.74344870  0.13461164  1
  O  O242  1  0.99204756  0.74544719  0.62860857  1
  O  O243  1  -0.00894937  0.25276122  0.36076296  1
  O  O244  1  -0.01191352  0.25385784  0.86769834  1
  O  O245  1  -0.00844389  0.75973895  0.36796554  1
  O  O246  1  0.00309844  0.75529374  0.86904915  1
  O  O247  1  0.49362431  0.25740562  0.36370699  1
  O  O248  1  0.49794574  0.24652846  0.85858111  1
  O  O249  1  0.50926891  0.75981379  0.38193342  1
  O  O250  1  0.50399291  0.75991176  0.87092884  1
  O  O251  1  0.25584834  0.13609165  0.48988763  1
  O  O252  1  0.23563844  0.12134343  1.00483678  1
  O  O253  1  0.23913716  0.63460121  0.50604145  1
  O  O254  1  0.25902987  0.62695248  0.98212151  1
  O  O255  1  0.74153165  0.13263427  0.49564115  1
  O  O256  1  0.73895205  0.13329030  0.99392362  1
  O  O257  1  0.74129163  0.63688080  0.49965478  1
  O  O258  1  0.74190469  0.63246500  0.99266663  1
  O  O259  1  0.25037121  0.37800445  -0.02167023  1
  O  O260  1  0.26221588  0.36024832  0.49689276  1
  O  O261  1  0.27241507  0.88903592  0.00554702  1
  O  O262  1  0.25254984  0.86947918  0.50561704  1
  O  O263  1  0.75110546  0.36287675  -0.00682172  1
  O  O264  1  0.75674169  0.36957514  0.50655885  1
  O  O265  1  0.75398488  0.87089007  0.00705368  1
  O  O266  1  0.74205633  0.86032263  0.50408971  1
  O  O267  1  0.12315447  0.49397580  0.26489167  1
  O  O268  1  0.12404539  0.49800734  0.73851416  1
  O  O269  1  0.13130102  0.99317338  0.24746343  1
  O  O270  1  0.11795767  0.99234579  0.73193683  1
  O  O271  1  0.62653880  0.49001726  0.24269908  1
  O  O272  1  0.64085673  0.50924639  0.73897319  1
  O  O273  1  0.62937002  0.99478620  0.24420041  1
  O  O274  1  0.62485135  0.99987202  0.73717418  1
  O  O275  1  0.36675991  0.00469948  0.25377826  1
  O  O276  1  0.37630202  0.00732927  0.76078336  1
  O  O277  1  0.37986023  0.49253883  0.27001836  1
  O  O278  1  0.35800248  0.51290781  0.73305710  1
  O  O279  1  0.86720959  0.00653823  0.25997323  1
  O  O280  1  0.87042551  0.00320594  0.75924950  1
  O  O281  1  0.87431887  0.49556295  0.26454680  1
  O  O282  1  0.86136068  0.50056332  0.75630296  1
  O  O283  1  0.10299137  0.37067423  0.39957198  1
  O  O284  1  0.10766943  0.36318308  0.86225061  1
  O  O285  1  0.11227950  0.88086016  0.36487659  1
  O  O286  1  0.12202481  0.88144466  0.85499130  1
  O  O287  1  0.61444330  0.37871466  0.37272973  1
  O  O288  1  0.62151997  0.38189165  0.85932238  1
  O  O289  1  0.61665493  0.86733296  0.37048295  1
  O  O290  1  0.61734745  0.87022161  0.87609906  1
  O  O291  1  0.38282450  0.12635394  0.13131259  1
  O  O292  1  0.38127850  0.12351083  0.62887451  1
  O  O293  1  0.38296248  0.64421383  0.12697789  1
  O  O294  1  0.38265486  0.63074033  0.62787540  1
  O  O295  1  0.88300995  0.12861901  0.13003109  1
  O  O296  1  0.88073378  0.13497506  0.62438769  1
  O  O297  1  0.87224620  0.63794717  0.12465456  1
  O  O298  1  0.88503669  0.63423957  0.62101687  1
  O  O299  1  0.26666302  0.24921973  0.12177395  1
  O  O300  1  0.25778351  0.24896834  0.61317842  1
  O  O301  1  0.27055268  0.74825016  0.13559103  1
  O  O302  1  0.25488719  0.75914741  0.61612352  1
  O  O303  1  0.76025179  0.24270342  0.11529593  1
  O  O304  1  0.75450085  0.25770215  0.61559161  1
  O  O305  1  0.75569000  0.75675057  0.12215275  1
  O  O306  1  0.75992321  0.75062353  0.61940513  1
  O  O307  1  0.25939259  0.23895517  0.38702869  1
  O  O308  1  0.26614276  0.24680490  0.88680900  1
  O  O309  1  0.25579303  0.74564507  0.39078586  1
  O  O310  1  0.24549388  0.73718955  0.86726101  1
  O  O311  1  0.75450105  0.24567550  0.38878375  1
  O  O312  1  0.75512992  0.23662201  0.88519652  1
  O  O313  1  0.74240768  0.74859439  0.38247544  1
  O  O314  1  0.74852724  0.74539101  0.87852537  1
  O  O315  1  0.00126722  0.12671899  0.01356674  1
  O  O316  1  -0.00544795  0.11355586  0.50564514  1
  O  O317  1  0.00056232  0.63117395  0.01860989  1
  O  O318  1  0.00380306  0.62217135  0.50943579  1
  O  O319  1  0.50512694  0.12363324  0.00212068  1
  O  O320  1  0.50469994  0.11972605  0.50259324  1
  O  O321  1  0.51610980  0.62489804  0.00080397  1
  O  O322  1  0.50906285  0.63047467  0.51640896  1
  O  O323  1  0.49292263  0.36125452  0.49522820  1
  O  O324  1  0.50188305  0.39058040  0.99735656  1
  O  O325  1  0.49417613  0.87945874  0.48991064  1
  O  O326  1  0.49225644  0.88175958  0.99191295  1
  O  O327  1  0.98491595  0.37709651  0.49917138  1
  O  O328  1  0.99380052  0.37111269  0.97819709  1
  O  O329  1  1.00247968  0.88472549  0.48781603  1
  O  O330  1  0.97984475  0.87836930  1.00011421  1
  O  O331  1  0.49254782  0.48743187  0.38465684  1
  O  O332  1  0.50844603  0.51011510  0.89344251  1
  O  O333  1  0.49330342  0.99235856  0.37897805  1
  O  O334  1  0.49909892  0.98806416  0.87776198  1
  O  O335  1  0.98983383  0.49068219  0.38463517  1
  O  O336  1  0.98774848  0.50641179  0.87024792  1
  O  O337  1  0.99132932  0.99647307  0.38044143  1
  O  O338  1  0.98467110  0.99976241  0.87136552  1
  O  O339  1  -0.00288207  0.01595224  0.13575733  1
  O  O340  1  0.00279660  0.00693144  0.61507338  1
  O  O341  1  0.00215850  0.51877464  0.12787976  1
  O  O342  1  -0.00106697  0.50865677  0.62277727  1
  O  O343  1  0.50366218  0.00783369  0.11814841  1
  O  O344  1  0.50297971  0.00690458  0.61828717  1
  O  O345  1  0.51423859  0.50465065  0.11283124  1
  O  O346  1  0.51471641  0.50843206  0.63400666  1
  O  O347  1  0.24289147  0.38796179  0.28983473  1
  O  O348  1  0.23207394  0.39025496  0.74591030  1
  O  O349  1  0.23944399  0.88589545  0.25996396  1
  O  O350  1  0.24320074  0.86853730  0.73575594  1
  O  O351  1  0.73517671  0.37356329  0.25935729  1
  O  O352  1  0.75293057  0.38318512  0.73701481  1
  O  O353  1  0.74244092  0.88091551  0.24566976  1
  O  O354  1  0.74468937  0.87918642  0.74198384  1
  O  O355  1  0.25283934  0.11976380  0.25660601  1
  O  O356  1  0.26240040  0.12529543  0.74303102  1
  O  O357  1  0.26197213  0.61486234  0.26369755  1
  O  O358  1  0.25593934  0.62321323  0.74572709  1
  O  O359  1  0.75151250  0.12045335  0.25610785  1
  O  O360  1  0.75208274  0.12354070  0.75863482  1
  O  O361  1  0.75724545  0.61912952  0.25601110  1
  O  O362  1  0.74987474  0.62114584  0.76097127  1
  O  O363  1  0.37223058  0.11798110  0.36603932  1
  O  O364  1  0.37869319  0.11080506  0.86511061  1
  O  O365  1  0.38386860  0.60779272  0.38456851  1
  O  O366  1  0.36777534  0.63116604  0.86010173  1
  O  O367  1  0.86609757  0.11728405  0.36990949  1
  O  O368  1  0.86641570  0.11822085  0.87431619  1
  O  O369  1  0.87621141  0.61235294  0.37597544  1
  O  O370  1  0.86558346  0.62126020  0.88305821  1
  O  O371  1  0.11708667  0.36541007  0.12168599  1
  O  O372  1  0.12069669  0.38399923  0.62901265  1
  O  O373  1  0.12209040  0.87620842  0.14104335  1
  O  O374  1  0.13087698  0.88136300  0.63001472  1
  O  O375  1  0.62111813  0.38290055  0.13639703  1
  O  O376  1  0.63623004  0.38666009  0.61521209  1
  O  O377  1  0.62775323  0.88005165  0.13008712  1
  O  O378  1  0.61937241  0.88833175  0.62103431  1
  O  O379  1  0.11263970  0.23995291  0.24990154  1
  O  O380  1  0.13068714  0.26030006  0.74689736  1
  O  O381  1  0.11407988  0.75641848  0.25086073  1
  O  O382  1  0.11092827  0.76104477  0.74392064  1
  O  O383  1  0.61390321  0.25615152  0.24491765  1
  O  O384  1  0.61099846  0.23158815  0.74249455  1
  O  O385  1  0.63030663  0.75379018  0.26350091  1
  O  O386  1  0.61757594  0.75143392  0.75654218  1
  O  O387  1  0.38299988  0.24476550  0.24180785  1
  O  O388  1  0.38664075  0.23441249  0.73301776  1
  O  O389  1  0.38179949  0.75637397  0.24598647  1
  O  O390  1  0.38086465  0.74340033  0.74234042  1
  O  O391  1  0.87370412  0.24211188  0.24247401  1
  O  O392  1  0.86614782  0.25267897  0.73502379  1
  O  O393  1  0.88399746  0.75223727  0.24174637  1
  O  O394  1  0.88832293  0.75560422  0.74215094  1
  O  O395  1  0.38048415  0.48274678  0.51199661  1
  O  O396  1  0.39446025  0.51359156  1.00217413  1
  O  O397  1  0.37940563  0.99341701  0.49405662  1
  O  O398  1  0.38433742  0.99509053  0.99139242  1
  O  O399  1  0.87708717  0.49140171  0.49742678  1
  O  O400  1  0.88230851  0.49735560  0.99064884  1
  O  O401  1  0.88031770  1.00265512  0.48820994  1
  O  O402  1  0.86396430  0.99444466  0.99175101  1
  O  O403  1  0.12168393  0.01056953  0.00415859  1
  O  O404  1  0.11385055  -0.00465144  0.51029736  1
  O  O405  1  0.12085515  0.49584839  -0.00200150  1
  O  O406  1  0.11295273  0.50885778  0.51509977  1
  O  O407  1  0.61863088  0.00895056  0.00590511  1
  O  O408  1  0.61717912  0.00642267  0.50323772  1
  O  O409  1  0.62815737  0.50919495  0.00671588  1
  O  O410  1  0.63314186  0.51507499  0.51095776  1
  O  O411  1  0.38323642  0.36479280  0.13278221  1
  O  O412  1  0.36906839  0.36180536  0.62487396  1
  O  O413  1  0.38351512  0.86555919  0.11393451  1
  O  O414  1  0.36746368  0.87274734  0.62073630  1
  O  O415  1  0.87892666  0.36057229  0.12330603  1
  O  O416  1  0.86782609  0.37082099  0.61802774  1
  O  O417  1  0.86826857  0.86943990  0.12137577  1
  O  O418  1  0.87794773  0.86499796  0.62364696  1
  O  O419  1  0.13459322  0.11860596  0.37469555  1
  O  O420  1  0.12072891  0.12188470  0.88456422  1
  O  O421  1  0.12276206  0.62307823  0.39419893  1
  O  O422  1  0.13613630  0.63498307  0.87554538  1
  O  O423  1  0.62864786  0.11952389  0.38604496  1
  O  O424  1  0.63050146  0.11910804  0.88616772  1
  O  O425  1  0.62357516  0.62996107  0.38437559  1
  O  O426  1  0.63611109  0.63261725  0.88096362  1
