# generated using pymatgen
data_V85Zn86O256
_symmetry_space_group_name_H-M   'P 1'
_cell_length_a   16.91850498
_cell_length_b   16.91946588
_cell_length_c   16.92630073
_cell_angle_alpha   89.96434417
_cell_angle_beta   90.02810881
_cell_angle_gamma   89.97633923
_symmetry_Int_Tables_number   1
_chemical_formula_structural   V85Zn86O256
_chemical_formula_sum   'V85 Zn86 O256'
_cell_volume   4845.18664858
_cell_formula_units_Z   1
loop_
 _symmetry_equiv_pos_site_id
 _symmetry_equiv_pos_as_xyz
  1  'x, y, z'
loop_
 _atom_site_type_symbol
 _atom_site_label
 _atom_site_symmetry_multiplicity
 _atom_site_fract_x
 _atom_site_fract_y
 _atom_site_fract_z
 _atom_site_occupancy
  V  V0  1  0.61281509  0.00403946  0.12439553  1
  V  V1  1  0.25088996  0.88092014  0.12743465  1
  V  V2  1  0.25372883  0.12192288  0.87022333  1
  V  V3  1  0.62682650  0.37666555  0.24769651  1
  V  V4  1  -0.00011986  0.23812345  0.74767439  1
  V  V5  1  0.74898143  0.12485971  0.37377218  1
  V  V6  1  0.24975877  0.74489584  0.50482867  1
  V  V7  1  0.50167522  0.60876335  0.61957852  1
  V  V8  1  0.86815675  0.26010271  0.10997799  1
  V  V9  1  0.49112278  0.23884655  0.24729880  1
  V  V10  1  0.24138120  0.74783360  -0.00142244  1
  V  V11  1  0.75184657  0.00074050  0.74696990  1
  V  V12  1  0.50160903  0.74421280  0.24892691  1
  V  V13  1  0.37157862  0.00196177  0.37054837  1
  V  V14  1  0.87453669  -0.00062420  0.37427658  1
  V  V15  1  -0.00402226  0.12611846  0.12564633  1
  V  V16  1  0.12486283  0.74945103  0.38003080  1
  V  V17  1  0.24409159  0.62317373  0.37892926  1
  V  V18  1  0.25015875  0.37783348  0.12725781  1
  V  V19  1  0.12913793  0.88441722  0.25313246  1
  V  V20  1  0.74145784  0.62915573  0.87474579  1
  V  V21  1  0.62447379  0.24917091  0.37337248  1
  V  V22  1  0.12107451  0.26435964  0.87437773  1
  V  V23  1  0.74974492  0.12672552  0.87554441  1
  V  V24  1  0.50038132  -0.00083285  0.50158483  1
  V  V25  1  0.37778270  0.50119450  0.38067680  1
  V  V26  1  0.38364373  0.74458998  0.62958169  1
  V  V27  1  0.87889944  0.48840853  0.87612264  1
  V  V28  1  0.24985053  0.25460956  -0.00148946  1
  V  V29  1  0.49832543  0.62542133  0.10500516  1
  V  V30  1  0.12196445  0.12846842  -0.00292849  1
  V  V31  1  0.87483085  0.87333932  0.50148943  1
  V  V32  1  0.37675758  0.87213181  0.50287255  1
  V  V33  1  0.00657346  0.87071392  0.87478331  1
  V  V34  1  0.62850124  0.60975977  0.50131245  1
  V  V35  1  0.24037723  0.62481090  0.87348991  1
  V  V36  1  0.87655305  0.62444031  0.74836701  1
  V  V37  1  0.37130244  0.25009772  0.62935639  1
  V  V38  1  0.49696828  0.37966478  0.87872475  1
  V  V39  1  0.62008244  0.12548835  -0.00173201  1
  V  V40  1  0.12372027  -0.00090855  0.63227172  1
  V  V41  1  0.37484641  0.51174805  0.87586987  1
  V  V42  1  0.74856266  0.50967859  0.25056736  1
  V  V43  1  0.62829802  0.74282721  0.37616548  1
  V  V44  1  0.74927448  0.00065490  0.24738105  1
  V  V45  1  0.74921841  0.87715990  0.12330794  1
  V  V46  1  0.62518445  0.37442140  0.74766690  1
  V  V47  1  0.68045062  0.29457266  0.93309311  1
  V  V48  1  0.00720637  0.74767919  0.75375936  1
  V  V49  1  0.87306932  0.87599776  -0.00175677  1
  V  V50  1  0.24798460  0.50062823  0.25215270  1
  V  V51  1  0.24929335  0.12275068  0.37185147  1
  V  V52  1  0.87793081  0.00609801  0.86826447  1
  V  V53  1  0.25097352  0.49617453  0.74019764  1
  V  V54  1  0.61808534  0.50642932  0.11464416  1
  V  V55  1  0.36946582  0.74825454  0.12698652  1
  V  V56  1  0.74597817  0.37524146  0.62420257  1
  V  V57  1  -0.00385357  0.25489776  0.25158539  1
  V  V58  1  0.11757061  0.12420921  0.50565478  1
  V  V59  1  0.50007911  0.87145306  0.37567319  1
  V  V60  1  0.50077472  0.37810154  0.37978851  1
  V  V61  1  -0.00100210  0.00170686  0.00018393  1
  V  V62  1  0.01532287  0.50207624  0.50266818  1
  V  V63  1  0.50826910  0.74322285  0.75483511  1
  V  V64  1  0.62457260  0.86923367  0.76026529  1
  V  V65  1  0.49435723  -0.00278486  -0.02443889  1
  V  V66  1  0.50001280  0.12427905  0.62619348  1
  V  V67  1  0.00097937  0.87572279  0.37565113  1
  V  V68  1  0.87197830  0.51038576  0.37726616  1
  V  V69  1  0.11950897  0.38158167  0.73348912  1
  V  V70  1  0.37598472  0.37544563  0.50604031  1
  V  V71  1  0.87838140  0.74188113  0.12392681  1
  V  V72  1  0.11735884  0.50679414  0.12767041  1
  V  V73  1  0.24966537  0.25050616  0.50278179  1
  V  V74  1  0.88000195  0.23710488  0.62588730  1
  V  V75  1  0.10964272  0.62784649  -0.00023795  1
  V  V76  1  0.01376478  0.62157552  0.62153716  1
  V  V77  1  0.74879148  0.50114651  0.74456568  1
  V  V78  1  -0.00649528  0.48440445  0.00008111  1
  V  V79  1  0.87692289  0.37790226  0.50006632  1
  V  V80  1  0.50158161  0.25129499  0.75626422  1
  V  V81  1  0.73583532  0.74747656  -0.00479645  1
  V  V82  1  0.37708579  0.38333705  0.00380435  1
  V  V83  1  0.75059761  0.74528638  0.49709571  1
  V  V84  1  0.75026662  0.24863262  0.50088169  1
  Zn  Zn85  1  0.37423762  0.23746960  0.12769886  1
  Zn  Zn86  1  0.00197532  0.37709964  0.37588609  1
  Zn  Zn87  1  0.26044028  -0.01113801  0.75443749  1
  Zn  Zn88  1  0.12193334  0.37679516  0.25410243  1
  Zn  Zn89  1  0.87658772  0.74856253  0.62427128  1
  Zn  Zn90  1  0.00459065  0.74553283  0.24518089  1
  Zn  Zn91  1  0.37520541  0.87804435  -0.01304173  1
  Zn  Zn92  1  0.74838607  0.87207965  0.62558329  1
  Zn  Zn93  1  0.37534194  0.62183450  0.25129603  1
  Zn  Zn94  1  0.12910059  0.00522950  0.12896574  1
  Zn  Zn95  1  0.13158453  0.86843553  0.75444961  1
  Zn  Zn96  1  0.38305263  0.11357997  0.75993073  1
  Zn  Zn97  1  0.74688021  0.37581031  0.10838343  1
  Zn  Zn98  1  0.25302141  0.87233850  0.63107228  1
  Zn  Zn99  1  0.62504298  0.12387932  0.50201911  1
  Zn  Zn100  1  -0.00240223  0.00341748  0.50681857  1
  Zn  Zn101  1  0.31347885  0.06275778  0.20615800  1
  Zn  Zn102  1  0.87245069  0.12853470  0.24698583  1
  Zn  Zn103  1  0.88067408  0.62431153  0.24924950  1
  Zn  Zn104  1  0.12230276  0.25034907  0.37611976  1
  Zn  Zn105  1  0.62387049  -0.00395592  0.62603321  1
  Zn  Zn106  1  0.62621831  0.87291321  0.25030795  1
  Zn  Zn107  1  0.18285420  0.19258185  0.18637761  1
  Zn  Zn108  1  0.18539269  0.18797766  0.68809631  1
  Zn  Zn109  1  0.18370807  0.68775881  0.19196005  1
  Zn  Zn110  1  0.19093044  0.68441288  0.69017371  1
  Zn  Zn111  1  0.68627069  0.18872943  0.18363408  1
  Zn  Zn112  1  0.68639610  0.18775802  0.69007731  1
  Zn  Zn113  1  0.68768983  0.68694602  0.18258134  1
  Zn  Zn114  1  0.68690787  0.68577993  0.67976079  1
  Zn  Zn115  1  0.31068405  0.31270996  0.31619044  1
  Zn  Zn116  1  0.31075426  0.31641253  0.81247639  1
  Zn  Zn117  1  0.31172379  0.81358410  0.31280806  1
  Zn  Zn118  1  0.31815953  0.80931146  0.81478563  1
  Zn  Zn119  1  0.81378242  0.31618169  0.30935059  1
  Zn  Zn120  1  0.82130916  0.31294957  0.80673180  1
  Zn  Zn121  1  0.81122264  0.81090005  0.31173239  1
  Zn  Zn122  1  0.81564027  0.81292312  0.81214628  1
  Zn  Zn123  1  0.18900060  0.43153963  0.43892695  1
  Zn  Zn124  1  0.18551934  0.44229595  0.93822357  1
  Zn  Zn125  1  0.18969846  0.93695315  0.44521961  1
  Zn  Zn126  1  0.18608623  0.93907342  0.94172101  1
  Zn  Zn127  1  0.69218867  0.43489390  0.43260980  1
  Zn  Zn128  1  0.67946059  0.46265885  0.92931267  1
  Zn  Zn129  1  0.68587740  0.93370786  0.43745000  1
  Zn  Zn130  1  0.68581699  0.93970109  0.93668011  1
  Zn  Zn131  1  0.31694506  0.06381967  0.04231219  1
  Zn  Zn132  1  0.31089472  0.06234574  0.56588040  1
  Zn  Zn133  1  0.30995576  0.56552927  0.06130266  1
  Zn  Zn134  1  0.31446124  0.56339733  0.56222623  1
  Zn  Zn135  1  0.81084596  0.06639538  0.05882747  1
  Zn  Zn136  1  0.81152051  0.06031198  0.56109787  1
  Zn  Zn137  1  0.80770987  0.56117266  0.05946951  1
  Zn  Zn138  1  0.81359156  0.56341547  0.56355991  1
  Zn  Zn139  1  0.43895834  0.43796546  0.19227917  1
  Zn  Zn140  1  0.43280600  0.43810033  0.69102145  1
  Zn  Zn141  1  0.43953589  0.92838399  0.18526624  1
  Zn  Zn142  1  0.43903897  0.93265407  0.69475728  1
  Zn  Zn143  1  0.93415887  0.43792409  0.18507327  1
  Zn  Zn144  1  0.93845773  0.43575930  0.68491698  1
  Zn  Zn145  1  0.93785399  0.93527597  0.18922664  1
  Zn  Zn146  1  0.94000276  0.93704772  0.68730468  1
  Zn  Zn147  1  0.06131805  0.06594399  0.31505692  1
  Zn  Zn148  1  0.06903809  0.06276685  0.81309836  1
  Zn  Zn149  1  0.05793585  0.56556635  0.31377037  1
  Zn  Zn150  1  0.06245760  0.55793889  0.81409834  1
  Zn  Zn151  1  0.56322004  0.05991204  0.31330159  1
  Zn  Zn152  1  0.57109997  0.06516006  0.81077328  1
  Zn  Zn153  1  0.56220631  0.56278727  0.31245118  1
  Zn  Zn154  1  0.55997337  0.56223660  0.80864198  1
  Zn  Zn155  1  0.43611343  0.18616453  0.43581726  1
  Zn  Zn156  1  0.43820256  0.19211803  0.94343497  1
  Zn  Zn157  1  0.44003594  0.68296784  0.44118795  1
  Zn  Zn158  1  0.42602280  0.71128212  0.92719877  1
  Zn  Zn159  1  0.93568385  0.18782359  0.43741322  1
  Zn  Zn160  1  0.93788505  0.19128687  0.93177883  1
  Zn  Zn161  1  0.94114254  0.68648645  0.43776165  1
  Zn  Zn162  1  0.92861576  0.68725369  0.93539000  1
  Zn  Zn163  1  0.06302255  0.31381534  0.06762306  1
  Zn  Zn164  1  0.06178598  0.31208099  0.56341438  1
  Zn  Zn165  1  0.06273713  0.81667328  0.06365023  1
  Zn  Zn166  1  0.06282982  0.81346997  0.56538547  1
  Zn  Zn167  1  0.55351960  0.31782489  0.06957810  1
  Zn  Zn168  1  0.56215919  0.31184343  0.56305043  1
  Zn  Zn169  1  0.56016463  0.81658992  0.06132153  1
  Zn  Zn170  1  0.56709543  0.81149161  0.56668887  1
  O  O171  1  0.11216762  0.12741593  0.11815287  1
  O  O172  1  0.13212133  0.11216142  0.61871562  1
  O  O173  1  0.12936281  0.61319521  0.11808304  1
  O  O174  1  0.11221763  0.62424092  0.62718062  1
  O  O175  1  0.63276313  0.11701863  0.10953510  1
  O  O176  1  0.61202411  0.12377334  0.62429704  1
  O  O177  1  0.61469984  0.61481372  0.12782990  1
  O  O178  1  0.61863263  0.62180626  0.60933098  1
  O  O179  1  0.38156053  0.37998243  0.38442011  1
  O  O180  1  0.37983768  0.38398121  0.88314369  1
  O  O181  1  0.38072156  0.87847443  0.38312416  1
  O  O182  1  0.39426435  0.81891180  0.89304609  1
  O  O183  1  0.87429589  0.38085195  0.38881189  1
  O  O184  1  0.87402382  0.38882263  0.87220991  1
  O  O185  1  0.87864509  0.87817206  0.38268325  1
  O  O186  1  0.88296514  0.88596468  0.87950202  1
  O  O187  1  0.26008343  0.00770645  0.38410485  1
  O  O188  1  0.24168646  0.01816734  0.87630842  1
  O  O189  1  0.25399103  0.50689648  0.37380292  1
  O  O190  1  0.25501463  0.50778239  0.87165045  1
  O  O191  1  0.75230956  0.00588128  0.36953830  1
  O  O192  1  0.75725333  0.00570504  0.86669854  1
  O  O193  1  0.75926911  0.49516168  0.36318502  1
  O  O194  1  0.76110784  0.50628607  0.86249586  1
  O  O195  1  0.24259348  0.49387359  0.12975019  1
  O  O196  1  0.25642583  0.50433993  0.64120417  1
  O  O197  1  0.25228537  0.99000482  0.12238383  1
  O  O198  1  0.24008710  0.99486118  0.62616109  1
  O  O199  1  0.73705216  0.49712841  0.12821547  1
  O  O200  1  0.75646161  0.49119603  0.63673228  1
  O  O201  1  0.74460786  0.99452361  0.12736055  1
  O  O202  1  0.74895575  1.00126231  0.63724444  1
  O  O203  1  -0.00174209  0.36853837  0.25166810  1
  O  O204  1  0.01443799  0.37137762  0.74526829  1
  O  O205  1  0.00795763  0.86969533  0.25772671  1
  O  O206  1  0.00087587  0.86481849  0.75757020  1
  O  O207  1  0.50949103  0.36997316  0.26049195  1
  O  O208  1  0.50716326  0.37125612  0.75518200  1
  O  O209  1  0.50390181  0.85993414  0.25456430  1
  O  O210  1  0.51438805  0.85760825  0.74691589  1
  O  O211  1  0.50272705  0.14037667  0.25781435  1
  O  O212  1  0.50164645  0.13466708  0.74606330  1
  O  O213  1  0.49740960  0.63570568  0.24677832  1
  O  O214  1  0.51527809  0.63106605  0.72793883  1
  O  O215  1  0.99666651  0.13222487  0.24113177  1
  O  O216  1  1.00941256  0.13946976  0.74873915  1
  O  O217  1  0.99488050  0.63277936  0.25189557  1
  O  O218  1  0.99544125  0.62670165  0.74311778  1
  O  O219  1  0.36816403  0.26433213  0.00492454  1
  O  O220  1  0.37043392  0.25453166  0.50714102  1
  O  O221  1  0.35418631  0.73751035  0.01925837  1
  O  O222  1  0.37145155  0.75215464  0.50789733  1
  O  O223  1  0.87829588  0.24958939  0.01146547  1
  O  O224  1  0.87074945  0.25792675  0.50599885  1
  O  O225  1  0.86695987  0.75780114  0.00891766  1
  O  O226  1  0.86788046  0.75540146  0.49788702  1
  O  O227  1  0.13331588  0.24252538  0.50398777  1
  O  O228  1  0.12708674  0.24949381  0.99253088  1
  O  O229  1  0.13530494  0.75691664  0.48967128  1
  O  O230  1  0.13302776  0.74281487  1.00957471  1
  O  O231  1  0.63200736  0.24877843  0.49190479  1
  O  O232  1  0.61573689  0.24448074  1.00138219  1
  O  O233  1  0.63236244  0.74316515  0.49344596  1
  O  O234  1  0.63648988  0.75334691  1.00477920  1
  O  O235  1  0.49512456  0.25288333  0.14270022  1
  O  O236  1  0.49255427  0.24476158  0.63337919  1
  O  O237  1  0.49220719  0.74552828  0.13037034  1
  O  O238  1  0.49815155  0.73878752  0.62690780  1
  O  O239  1  0.98955035  0.24616701  0.12956723  1
  O  O240  1  0.99339048  0.25325753  0.63599948  1
  O  O241  1  0.98135697  0.76022731  0.12388624  1
  O  O242  1  0.99803434  0.73738192  0.62969366  1
  O  O243  1  -0.00235918  0.25166566  0.36513892  1
  O  O244  1  0.00653527  0.24992561  0.85989925  1
  O  O245  1  0.01062014  0.75702845  0.37799153  1
  O  O246  1  -0.00854433  0.75929760  0.86759690  1
  O  O247  1  0.50452656  0.25629590  0.36786549  1
  O  O248  1  0.49174105  0.26246142  0.86376898  1
  O  O249  1  0.50472503  0.75153063  0.36862445  1
  O  O250  1  0.51447248  0.71926108  0.85062143  1
  O  O251  1  0.24455765  0.13364250  0.49403169  1
  O  O252  1  0.24058193  0.13479475  0.98885084  1
  O  O253  1  0.25392341  0.63609186  0.49423652  1
  O  O254  1  0.23563371  0.62854885  0.99559114  1
  O  O255  1  0.74728091  0.12992572  0.49161952  1
  O  O256  1  0.74070223  0.12176916  0.98505367  1
  O  O257  1  0.73849891  0.62989993  0.50293699  1
  O  O258  1  0.75504631  0.63472058  0.98786795  1
  O  O259  1  0.25414221  0.37435528  0.00768351  1
  O  O260  1  0.26055135  0.35928197  0.49646410  1
  O  O261  1  0.24980866  0.86627087  0.00671828  1
  O  O262  1  0.25952526  0.86095629  0.50281598  1
  O  O263  1  0.72929171  0.36991877  -0.01116365  1
  O  O264  1  0.75515914  0.36941705  0.50689443  1
  O  O265  1  0.75348251  0.87142556  0.00464980  1
  O  O266  1  0.75794130  0.86713041  0.50013749  1
  O  O267  1  0.12881765  0.50063071  0.24310546  1
  O  O268  1  0.13185794  0.48789916  0.75251560  1
  O  O269  1  0.12049245  0.98885072  0.24997029  1
  O  O270  1  0.13173507  0.99746573  0.74127870  1
  O  O271  1  0.63016363  0.49485858  0.24556923  1
  O  O272  1  0.63491057  0.48463228  0.75482507  1
  O  O273  1  0.63158304  0.99889885  0.24208092  1
  O  O274  1  0.63232690  0.98758859  0.74927013  1
  O  O275  1  0.37910838  -0.01030257  0.26516539  1
  O  O276  1  0.37325262  0.00130045  0.75057207  1
  O  O277  1  0.36714151  0.49834768  0.26419833  1
  O  O278  1  0.35964446  0.49272791  0.76129306  1
  O  O279  1  0.86697199  0.00195039  0.25608091  1
  O  O280  1  0.86701909  -0.00520483  0.75753077  1
  O  O281  1  0.86645714  0.49912039  0.25734895  1
  O  O282  1  0.87120525  0.50438083  0.75527787  1
  O  O283  1  0.12119044  0.36875269  0.37276226  1
  O  O284  1  0.12763406  0.36684608  0.86958398  1
  O  O285  1  0.12340549  0.87136010  0.37138059  1
  O  O286  1  0.11042812  0.88039578  0.87570035  1
  O  O287  1  0.61822721  0.36999606  0.36924248  1
  O  O288  1  0.61968999  0.37078329  0.87208158  1
  O  O289  1  0.61778049  0.86160927  0.37404189  1
  O  O290  1  0.63081356  0.87359053  0.85982712  1
  O  O291  1  0.35702533  0.12583689  0.12581395  1
  O  O292  1  0.38645621  0.13266632  0.62680472  1
  O  O293  1  0.38066700  0.62860523  0.13082120  1
  O  O294  1  0.39349623  0.62947047  0.61542455  1
  O  O295  1  0.88288486  0.13422170  0.12341915  1
  O  O296  1  0.87325844  0.13785308  0.61817458  1
  O  O297  1  0.86867634  0.63999163  0.12200601  1
  O  O298  1  0.88056523  0.62443333  0.63747373  1
  O  O299  1  0.24687809  0.26557895  0.12055357  1
  O  O300  1  0.26381527  0.24317406  0.62022281  1
  O  O301  1  0.25276720  0.75767412  0.12492243  1
  O  O302  1  0.26164998  0.74441044  0.62029657  1
  O  O303  1  0.76343830  0.25311362  0.12547983  1
  O  O304  1  0.75706086  0.25543957  0.62248822  1
  O  O305  1  0.75534204  0.75864423  0.11769295  1
  O  O306  1  0.75461406  0.74997985  0.61042196  1
  O  O307  1  0.24966095  0.24083695  0.38451183  1
  O  O308  1  0.24084390  0.24808148  0.87961602  1
  O  O309  1  0.24702679  0.74233550  0.38265854  1
  O  O310  1  0.24833291  0.73372639  0.88504211  1
  O  O311  1  0.74646117  0.24328688  0.37746264  1
  O  O312  1  0.75163550  0.24471724  0.87037876  1
  O  O313  1  0.74144433  0.75217558  0.38474246  1
  O  O314  1  0.75610975  0.74180829  0.88228290  1
  O  O315  1  0.00324234  0.12288803  0.00503044  1
  O  O316  1  0.01354836  0.12546888  0.49697066  1
  O  O317  1  0.00735980  0.62621330  -0.00304119  1
  O  O318  1  -0.00322987  0.61847999  0.51412692  1
  O  O319  1  0.50623272  0.11132327  -0.00729841  1
  O  O320  1  0.50046635  0.11737915  0.50713503  1
  O  O321  1  0.48968142  0.63871110  0.00765827  1
  O  O322  1  0.51456773  0.62455980  0.50885108  1
  O  O323  1  0.49341041  0.36832930  0.48786843  1
  O  O324  1  0.49030080  0.37326442  0.99087107  1
  O  O325  1  0.49671184  0.88010794  0.49629537  1
  O  O326  1  0.50073565  0.89548315  1.00521641  1
  O  O327  1  0.99181307  0.38372696  0.50323041  1
  O  O328  1  1.00144216  0.38619063  0.99968517  1
  O  O329  1  0.99127280  0.87579252  0.49411938  1
  O  O330  1  0.99410992  0.88127060  0.99375177  1
  O  O331  1  0.49047354  0.49112176  0.37083117  1
  O  O332  1  0.49009346  0.48968304  0.86644013  1
  O  O333  1  0.49480569  0.99372818  0.38206780  1
  O  O334  1  0.50568233  0.99634640  0.87763087  1
  O  O335  1  0.99135125  0.49907314  0.38635868  1
  O  O336  1  0.99270024  0.50418782  0.88999839  1
  O  O337  1  0.99117174  0.99462838  0.37746616  1
  O  O338  1  0.99393928  0.99699714  0.87744533  1
  O  O339  1  -0.00249947  0.01008615  0.12001459  1
  O  O340  1  0.01696412  -0.00298534  0.62530347  1
  O  O341  1  0.00418052  0.49812276  0.11255541  1
  O  O342  1  -0.00465057  0.51262551  0.61780629  1
  O  O343  1  0.51180526  -0.00115728  0.12923326  1
  O  O344  1  0.49952263  0.00726835  0.61817359  1
  O  O345  1  0.50918341  0.50991021  0.13156761  1
  O  O346  1  0.49693274  0.50959856  0.62675800  1
  O  O347  1  0.24812950  0.38140374  0.24365099  1
  O  O348  1  0.23811207  0.38761066  0.75456831  1
  O  O349  1  0.24232548  0.87235229  0.24101630  1
  O  O350  1  0.24875699  0.86955786  0.75140794  1
  O  O351  1  0.73614113  0.38088624  0.24810993  1
  O  O352  1  0.74530970  0.37880151  0.74332928  1
  O  O353  1  0.74780177  0.88156145  0.24091639  1
  O  O354  1  0.74354918  0.88021213  0.74852606  1
  O  O355  1  0.23812120  0.12704020  0.26571281  1
  O  O356  1  0.25043077  0.12921276  0.76460610  1
  O  O357  1  0.25216424  0.61908883  0.26046554  1
  O  O358  1  0.24015540  0.60896572  0.76090750  1
  O  O359  1  0.75026500  0.11984491  0.25638916  1
  O  O360  1  0.73954497  0.11525388  0.76358340  1
  O  O361  1  0.75305627  0.61276900  0.24448302  1
  O  O362  1  0.75556809  0.61845344  0.74998094  1
  O  O363  1  0.36551983  0.11402085  0.37885740  1
  O  O364  1  0.35730634  0.13666489  0.87768024  1
  O  O365  1  0.36702045  0.61679789  0.37680096  1
  O  O366  1  0.36581772  0.61477246  0.88226197  1
  O  O367  1  0.86296010  0.12000992  0.37410339  1
  O  O368  1  0.86843541  0.11377059  0.87850127  1
  O  O369  1  0.87422343  0.61374272  0.37683486  1
  O  O370  1  0.86840966  0.61732199  0.86199948  1
  O  O371  1  0.13198151  0.38854072  0.12662312  1
  O  O372  1  0.12891005  0.37404943  0.63527556  1
  O  O373  1  0.13271830  0.87788494  0.13466962  1
  O  O374  1  0.12931575  0.88505799  0.62768012  1
  O  O375  1  0.62257143  0.38763395  0.13220058  1
  O  O376  1  0.63737093  0.37122856  0.63033978  1
  O  O377  1  0.63578322  0.88347276  0.12531975  1
  O  O378  1  0.62989639  0.87808886  0.63504342  1
  O  O379  1  0.10785739  0.25350656  0.24860597  1
  O  O380  1  0.11848247  0.26132884  0.75275398  1
  O  O381  1  0.12699667  0.76040072  0.26448448  1
  O  O382  1  0.11153507  0.74786176  0.74755994  1
  O  O383  1  0.61809482  0.25768152  0.25310344  1
  O  O384  1  0.61573574  0.26267443  0.74707944  1
  O  O385  1  0.61965313  0.74727843  0.25706745  1
  O  O386  1  0.62150161  0.75891789  0.74207018  1
  O  O387  1  0.38765162  0.25527573  0.25187528  1
  O  O388  1  0.38220194  0.25204142  0.74300094  1
  O  O389  1  0.38085230  0.74890672  0.24152258  1
  O  O390  1  0.39409520  0.74711739  0.73702394  1
  O  O391  1  0.88268389  0.25030421  0.24077860  1
  O  O392  1  0.89091688  0.25168044  0.74164044  1
  O  O393  1  0.87024313  0.75025355  0.23403639  1
  O  O394  1  0.88503424  0.74133628  0.74757218  1
  O  O395  1  0.36820733  0.48953718  0.49001467  1
  O  O396  1  0.36879980  0.49060675  0.99303121  1
  O  O397  1  0.38491557  0.99453974  0.49470834  1
  O  O398  1  0.38827695  0.99617685  0.98693891  1
  O  O399  1  0.87717181  0.49387987  0.49472614  1
  O  O400  1  0.88631736  0.50398541  0.99425953  1
  O  O401  1  0.87538532  0.99157439  0.49330901  1
  O  O402  1  0.87965827  0.99524720  0.99218266  1
  O  O403  1  0.11623156  0.00911777  0.00469310  1
  O  O404  1  0.12402924  0.00691000  0.51095945  1
  O  O405  1  0.11133740  0.50633205  0.00596516  1
  O  O406  1  0.11469501  0.49639838  0.49836527  1
  O  O407  1  0.61568465  0.00667587  0.00401303  1
  O  O408  1  0.61222181  0.00018190  0.50013938  1
  O  O409  1  0.61827299  0.50234212  0.01559484  1
  O  O410  1  0.63063938  0.51123504  0.49229736  1
  O  O411  1  0.36725984  0.37955833  0.11975812  1
  O  O412  1  0.38308829  0.36706781  0.61330815  1
  O  O413  1  0.36738971  0.86526815  0.11950825  1
  O  O414  1  0.37844068  0.86219018  0.61854494  1
  O  O415  1  0.86832557  0.36495517  0.12117115  1
  O  O416  1  0.86578979  0.36929792  0.61576092  1
  O  O417  1  0.86330351  0.87209129  0.11956249  1
  O  O418  1  0.87432514  0.87332963  0.61218102  1
  O  O419  1  0.13177035  0.12608215  0.38654492  1
  O  O420  1  0.13180355  0.13843177  0.87860645  1
  O  O421  1  0.13650134  0.63337794  0.37454368  1
  O  O422  1  0.12973405  0.61880204  0.88613913  1
  O  O423  1  0.63569269  0.12868884  0.37611247  1
  O  O424  1  0.63259298  0.12811126  0.88659237  1
  O  O425  1  0.61841776  0.63467543  0.38640228  1
  O  O426  1  0.64302114  0.60808285  0.87278671  1
