# generated using pymatgen
data_V85Zn86O256
_symmetry_space_group_name_H-M   'P 1'
_cell_length_a   16.95645213
_cell_length_b   16.93926585
_cell_length_c   16.95701742
_cell_angle_alpha   89.97075318
_cell_angle_beta   89.97537681
_cell_angle_gamma   89.94194934
_symmetry_Int_Tables_number   1
_chemical_formula_structural   V85Zn86O256
_chemical_formula_sum   'V85 Zn86 O256'
_cell_volume   4870.55799643
_cell_formula_units_Z   1
loop_
 _symmetry_equiv_pos_site_id
 _symmetry_equiv_pos_as_xyz
  1  'x, y, z'
loop_
 _atom_site_type_symbol
 _atom_site_label
 _atom_site_symmetry_multiplicity
 _atom_site_fract_x
 _atom_site_fract_y
 _atom_site_fract_z
 _atom_site_occupancy
  V  V0  1  0.25110477  0.87172327  0.62621722  1
  V  V1  1  0.49239644  0.13677326  0.12701127  1
  V  V2  1  0.12931051  0.49676088  0.13833732  1
  V  V3  1  0.49674562  0.00205683  0.50147164  1
  V  V4  1  0.12986984  0.25642744  0.38039223  1
  V  V5  1  0.12769220  0.24827512  0.87547155  1
  V  V6  1  0.74845835  -0.00166590  0.75175515  1
  V  V7  1  0.49714169  0.62034391  0.62619551  1
  V  V8  1  0.12401579  0.62618838  0.50315660  1
  V  V9  1  0.75081073  0.87614604  0.62377542  1
  V  V10  1  -0.00370463  0.50518947  0.50356269  1
  V  V11  1  0.37420679  0.74598202  0.13143321  1
  V  V12  1  0.37640881  0.87318548  0.00049133  1
  V  V13  1  -0.00140181  -0.00012875  0.49350913  1
  V  V14  1  0.00095099  0.38454075  0.37017578  1
  V  V15  1  0.49661173  0.61741237  0.12804130  1
  V  V16  1  0.25153157  0.74465524  -0.00442856  1
  V  V17  1  0.61989414  0.00296579  0.62524568  1
  V  V18  1  0.25372069  0.62230738  0.35691228  1
  V  V19  1  0.63674689  0.87109387  0.24523855  1
  V  V20  1  -0.00035324  0.62371118  0.12508193  1
  V  V21  1  0.49504409  0.35933244  0.36959589  1
  V  V22  1  0.00040223  0.75233821  0.25040509  1
  V  V23  1  0.25260948  0.74475329  0.49751124  1
  V  V24  1  0.24624867  0.88002478  0.12391768  1
  V  V25  1  0.75045543  0.12521569  0.87666860  1
  V  V26  1  0.75334907  0.00880982  0.25088198  1
  V  V27  1  0.62488084  0.62813155  -0.00323360  1
  V  V28  1  0.87521073  0.87488962  0.49193497  1
  V  V29  1  0.25172974  0.37569835  0.14174283  1
  V  V30  1  0.86980144  0.75422929  0.12513880  1
  V  V31  1  0.76864333  0.37524494  0.11938639  1
  V  V32  1  0.37700375  0.00312315  0.86920152  1
  V  V33  1  0.25770812  0.25282273  0.00471818  1
  V  V34  1  0.63161896  0.49674253  0.61797757  1
  V  V35  1  0.62341320  0.25190064  0.87498055  1
  V  V36  1  0.63160927  -0.00438201  0.12465239  1
  V  V37  1  0.37113826  0.38539716  0.00041673  1
  V  V38  1  0.74924670  0.75335516  0.00065697  1
  V  V39  1  0.37527998  0.50296900  0.35188096  1
  V  V40  1  0.00700216  -0.00097083  0.00518904  1
  V  V41  1  0.00229260  0.74513674  0.74505468  1
  V  V42  1  -0.00232258  0.12588557  0.62379399  1
  V  V43  1  0.87844134  -0.00141981  0.87571367  1
  V  V44  1  0.49936368  0.74676476  0.25011212  1
  V  V45  1  0.12932848  0.37453839  0.74207382  1
  V  V46  1  0.48574995  0.24586260  0.75032416  1
  V  V47  1  0.62596151  0.49595021  0.12347277  1
  V  V48  1  -0.00871128  0.13139510  0.12438559  1
  V  V49  1  0.74965188  0.74848636  0.49908769  1
  V  V50  1  -0.00170194  0.49391169  0.00232553  1
  V  V51  1  0.62711676  0.12677066  0.00111290  1
  V  V52  1  0.87220614  0.37361617  0.50359113  1
  V  V53  1  0.12590598  0.87260569  0.75034534  1
  V  V54  1  0.35827165  0.24597447  0.61814929  1
  V  V55  1  0.87739697  0.74749647  0.62470551  1
  V  V56  1  0.36261807  0.38106908  0.51167272  1
  V  V57  1  0.13197477  0.50144813  0.62272269  1
  V  V58  1  0.87494408  0.12595773  0.75035408  1
  V  V59  1  0.49318021  0.38310231  0.87508894  1
  V  V60  1  0.37685974  0.87133888  0.49727276  1
  V  V61  1  0.00268117  0.25670439  0.24565192  1
  V  V62  1  0.62684490  0.86686680  0.75705019  1
  V  V63  1  0.12416181  0.88351594  0.24943204  1
  V  V64  1  0.37642365  0.00701249  0.37350801  1
  V  V65  1  0.74793433  0.62762934  0.87288275  1
  V  V66  1  0.12865660  0.12480206  0.00986915  1
  V  V67  1  0.25032410  0.00488539  0.24878285  1
  V  V68  1  0.62529648  0.74858132  0.37479772  1
  V  V69  1  0.87320085  0.62082584  0.25773396  1
  V  V70  1  0.37129427  0.62230695  0.76545948  1
  V  V71  1  0.50439419  0.74377994  0.75970126  1
  V  V72  1  0.50087667  -0.00126936  0.00246631  1
  V  V73  1  0.87912690  0.62180881  0.74519622  1
  V  V74  1  0.25256749  0.50210396  0.76392682  1
  V  V75  1  -0.00017458  0.25102526  0.74709670  1
  V  V76  1  0.76478054  0.25595779  -0.00079011  1
  V  V77  1  0.75109445  0.49488523  0.25775865  1
  V  V78  1  0.12558916  -0.00091901  0.62307810  1
  V  V79  1  0.12892934  0.62056722  -0.00361130  1
  V  V80  1  0.12784251  0.74664988  0.87608355  1
  V  V81  1  0.00110083  0.87433182  0.87608947  1
  V  V82  1  0.87469933  0.49662396  0.87875629  1
  V  V83  1  0.62942472  0.37689652  0.74940539  1
  V  V84  1  -0.00155076  0.37514691  0.87629765  1
  Zn  Zn85  1  0.00004493  0.87876768  0.37210999  1
  Zn  Zn86  1  0.37731864  0.74558262  0.62818998  1
  Zn  Zn87  1  0.87227184  0.87604297  0.00258571  1
  Zn  Zn88  1  0.70257085  0.20647081  0.44934379  1
  Zn  Zn89  1  0.87380308  0.13533889  0.25510549  1
  Zn  Zn90  1  0.50529895  0.86877478  0.87882817  1
  Zn  Zn91  1  0.74900331  0.61397400  0.37960116  1
  Zn  Zn92  1  0.61828174  0.36694182  0.24997311  1
  Zn  Zn93  1  0.49562912  0.50366703  -0.00461501  1
  Zn  Zn94  1  0.85284279  0.26877728  0.63024976  1
  Zn  Zn95  1  0.37420950  0.13572927  0.24797168  1
  Zn  Zn96  1  0.50002569  0.87400012  0.37119878  1
  Zn  Zn97  1  0.62202350  0.62380561  0.49854373  1
  Zn  Zn98  1  0.75385696  0.49432336  0.74721319  1
  Zn  Zn99  1  0.25794650  0.00251164  0.74714292  1
  Zn  Zn100  1  0.12737778  0.75113594  0.37310789  1
  Zn  Zn101  1  0.25774125  0.12807747  0.87234977  1
  Zn  Zn102  1  0.49663197  0.49898555  0.49432365  1
  Zn  Zn103  1  0.48915020  0.12114681  0.63404031  1
  Zn  Zn104  1  0.12787346  0.13453205  0.50267102  1
  Zn  Zn105  1  0.83096762  0.04853483  0.41660092  1
  Zn  Zn106  1  0.25237111  0.13307278  0.38563345  1
  Zn  Zn107  1  0.18539774  0.19518131  0.19243791  1
  Zn  Zn108  1  0.19057193  0.18216965  0.68999997  1
  Zn  Zn109  1  0.18306079  0.69154470  0.18161688  1
  Zn  Zn110  1  0.19019152  0.68325185  0.68622877  1
  Zn  Zn111  1  0.69250634  0.19063342  0.17950869  1
  Zn  Zn112  1  0.67551290  0.19279598  0.68437592  1
  Zn  Zn113  1  0.68806294  0.68207044  0.18624555  1
  Zn  Zn114  1  0.68821508  0.68325404  0.68638696  1
  Zn  Zn115  1  0.31501237  0.31392168  0.32006960  1
  Zn  Zn116  1  0.30993709  0.31761656  0.81496942  1
  Zn  Zn117  1  0.31147616  0.81391009  0.31234866  1
  Zn  Zn118  1  0.31733968  0.81304027  0.81385768  1
  Zn  Zn119  1  0.82052999  0.31237432  0.31209596  1
  Zn  Zn120  1  0.81275211  0.31253752  0.81421577  1
  Zn  Zn121  1  0.81044879  0.81157054  0.31344184  1
  Zn  Zn122  1  0.81472282  0.81031353  0.81470675  1
  Zn  Zn123  1  0.18922152  0.44081751  0.43056810  1
  Zn  Zn124  1  0.18453989  0.43509131  0.93894559  1
  Zn  Zn125  1  0.18863022  0.93955402  0.43579688  1
  Zn  Zn126  1  0.18926130  0.93706251  0.93772982  1
  Zn  Zn127  1  0.69897004  0.38914549  0.41970392  1
  Zn  Zn128  1  0.68680641  0.43944844  0.93751871  1
  Zn  Zn129  1  0.66001805  1.03952349  0.42246020  1
  Zn  Zn130  1  0.68783766  0.93612041  0.93758970  1
  Zn  Zn131  1  0.31253334  0.06080518  0.05864420  1
  Zn  Zn132  1  0.31290749  0.06537860  0.56185999  1
  Zn  Zn133  1  0.31193323  0.56014281  0.07031009  1
  Zn  Zn134  1  0.31207502  0.56112415  0.56827999  1
  Zn  Zn135  1  0.81483175  0.06228939  0.06223929  1
  Zn  Zn136  1  0.78570074  0.10014881  0.58298038  1
  Zn  Zn137  1  0.81325680  0.56463345  0.06460043  1
  Zn  Zn138  1  0.81132910  0.56091486  0.56235213  1
  Zn  Zn139  1  0.43177090  0.31274348  0.18651338  1
  Zn  Zn140  1  0.43598812  0.43739458  0.68954501  1
  Zn  Zn141  1  0.44044355  0.93657822  0.18784465  1
  Zn  Zn142  1  0.43899231  0.92746088  0.68872059  1
  Zn  Zn143  1  0.93902393  0.43978044  0.18998261  1
  Zn  Zn144  1  0.94559989  0.44259981  0.68474451  1
  Zn  Zn145  1  0.93757469  0.93865762  0.18207165  1
  Zn  Zn146  1  0.93772199  0.93663039  0.68507150  1
  Zn  Zn147  1  0.06226574  0.07014712  0.31270083  1
  Zn  Zn148  1  0.07049212  0.06405794  0.81147492  1
  Zn  Zn149  1  0.06400541  0.56782376  0.31742534  1
  Zn  Zn150  1  0.06426014  0.56202986  0.81329770  1
  Zn  Zn151  1  0.56506320  0.18590748  0.29847327  1
  Zn  Zn152  1  0.56203062  0.06164198  0.81358749  1
  Zn  Zn153  1  0.56291769  0.55866843  0.31063179  1
  Zn  Zn154  1  0.56543785  0.56117947  0.81153526  1
  Zn  Zn155  1  0.53723440  0.18874414  0.45972043  1
  Zn  Zn156  1  0.43855313  0.18913345  0.93947061  1
  Zn  Zn157  1  0.43663328  0.68115468  0.43614306  1
  Zn  Zn158  1  0.43749832  0.68596967  0.93993491  1
  Zn  Zn159  1  0.94102176  0.19609242  0.43623050  1
  Zn  Zn160  1  0.94223622  0.18519904  0.93532142  1
  Zn  Zn161  1  0.93864211  0.68727300  0.43488284  1
  Zn  Zn162  1  0.93806118  0.68397308  0.93598149  1
  Zn  Zn163  1  0.06812113  0.31420735  0.06450409  1
  Zn  Zn164  1  0.05930605  0.31616813  0.56163382  1
  Zn  Zn165  1  0.06368899  0.81233512  0.06508516  1
  Zn  Zn166  1  0.06304520  0.81131188  0.56121889  1
  Zn  Zn167  1  0.56678071  0.31415482  0.05796384  1
  Zn  Zn168  1  0.55201081  0.32190183  0.56555881  1
  Zn  Zn169  1  0.56377062  0.80984552  0.06437377  1
  Zn  Zn170  1  0.56336364  0.81075929  0.56757305  1
  O  O171  1  0.11904186  0.13078864  0.11233781  1
  O  O172  1  0.11429300  0.11427664  0.62657233  1
  O  O173  1  0.11899297  0.62010908  0.11433206  1
  O  O174  1  0.12890354  0.62006215  0.61108891  1
  O  O175  1  0.61537826  0.11671828  0.11646411  1
  O  O176  1  0.61240531  0.10552911  0.63705915  1
  O  O177  1  0.62077812  0.61551896  0.11719128  1
  O  O178  1  0.61729102  0.61278474  0.62626667  1
  O  O179  1  0.37995845  0.38801551  0.38197143  1
  O  O180  1  0.38269312  0.37232721  0.88544382  1
  O  O181  1  0.37629629  0.87841165  0.38350537  1
  O  O182  1  0.38149959  0.88219251  0.88381039  1
  O  O183  1  0.89416869  0.37864068  0.38716939  1
  O  O184  1  0.87969622  0.38954730  0.86972160  1
  O  O185  1  0.87786917  0.86886314  0.38760778  1
  O  O186  1  0.88462458  0.87967238  0.87787747  1
  O  O187  1  0.25783828  -0.00421428  0.36288472  1
  O  O188  1  0.26857389  -0.00396760  0.87822957  1
  O  O189  1  0.26274572  0.51007077  0.37483370  1
  O  O190  1  0.23914006  0.50296376  0.86239591  1
  O  O191  1  0.74538444  -0.00624831  0.35395631  1
  O  O192  1  0.75785226  0.00393201  0.87241844  1
  O  O193  1  0.74204212  0.49191497  0.35982460  1
  O  O194  1  0.75902393  0.50847064  0.87419649  1
  O  O195  1  0.24190491  0.48679519  0.12281338  1
  O  O196  1  0.23682469  0.50331151  0.63678474  1
  O  O197  1  0.25719094  0.98722194  0.12985134  1
  O  O198  1  0.24386082  0.98627293  0.62605651  1
  O  O199  1  0.74462477  0.49171259  0.12600359  1
  O  O200  1  0.73465241  0.50551094  0.62927366  1
  O  O201  1  0.73773039  1.00239255  0.12486224  1
  O  O202  1  0.73998211  0.99759761  0.63373505  1
  O  O203  1  -0.00072665  0.37572706  0.26240650  1
  O  O204  1  0.00934693  0.37191707  0.75646064  1
  O  O205  1  0.00658251  0.87151643  0.24810839  1
  O  O206  1  0.00486626  0.86612533  0.75634107  1
  O  O207  1  0.49244783  0.37432153  0.26455703  1
  O  O208  1  0.50494185  0.36799055  0.75817601  1
  O  O209  1  0.50945475  0.86109230  0.24639300  1
  O  O210  1  0.50937746  0.86110660  0.75172699  1
  O  O211  1  0.49579070  0.12117364  0.22934084  1
  O  O212  1  0.49963348  0.14235116  0.75614201  1
  O  O213  1  0.50699371  0.63737909  0.24014190  1
  O  O214  1  0.49357577  0.62707342  0.74757287  1
  O  O215  1  1.00337225  0.13359370  0.23695556  1
  O  O216  1  0.99689307  0.13064270  0.74602630  1
  O  O217  1  0.99378863  0.63257114  0.24664684  1
  O  O218  1  0.99261892  0.63390284  0.75644372  1
  O  O219  1  0.36138370  0.25552138  -0.00407546  1
  O  O220  1  0.37293188  0.26279631  0.51802830  1
  O  O221  1  0.36853794  0.75309586  0.00762613  1
  O  O222  1  0.36842244  0.75320922  0.50249988  1
  O  O223  1  0.86376843  0.24960688  -0.01204638  1
  O  O224  1  0.88217438  0.26915100  0.50490289  1
  O  O225  1  0.86864008  0.74615123  0.00754860  1
  O  O226  1  0.87144083  0.75187522  0.50584710  1
  O  O227  1  0.11691249  0.25265958  0.48562275  1
  O  O228  1  0.13353541  0.24570019  0.99218391  1
  O  O229  1  0.13317269  0.74399021  0.49766219  1
  O  O230  1  0.13245943  0.74236635  0.99791302  1
  O  O231  1  0.61590272  0.24631520  0.51636322  1
  O  O232  1  0.63340039  0.24477450  0.99230919  1
  O  O233  1  0.63231020  0.75053560  0.49272242  1
  O  O234  1  0.63340039  0.73702229  1.00609376  1
  O  O235  1  0.49545463  0.24062966  0.11383944  1
  O  O236  1  0.48762591  0.25075379  0.64150045  1
  O  O237  1  0.49272829  0.74076897  0.12926043  1
  O  O238  1  0.50167541  0.73617623  0.63647850  1
  O  O239  1  1.00733696  0.24485590  0.13177698  1
  O  O240  1  1.00261280  0.23983946  0.63233178  1
  O  O241  1  0.99529019  0.74386849  0.13409380  1
  O  O242  1  0.99606352  0.75417825  0.63822585  1
  O  O243  1  0.00895877  0.26650341  0.36939403  1
  O  O244  1  0.00624919  0.25643475  0.86850491  1
  O  O245  1  0.00165241  0.75217098  0.36013152  1
  O  O246  1  0.00602590  0.75457257  0.86781150  1
  O  O247  1  0.49062300  0.25701775  0.37436078  1
  O  O248  1  0.50222140  0.25844137  0.86775051  1
  O  O249  1  0.50440213  0.74735890  0.36584903  1
  O  O250  1  0.50026802  0.74811105  0.86443049  1
  O  O251  1  0.23732685  0.10951184  0.49533250  1
  O  O252  1  0.24421907  0.13270909  0.99809186  1
  O  O253  1  0.24772377  0.63539031  0.49932797  1
  O  O254  1  0.24206024  0.63384400  1.00820664  1
  O  O255  1  0.74762122  0.10214620  0.47729671  1
  O  O256  1  0.74698346  0.13292335  0.99590851  1
  O  O257  1  0.74832629  0.63500951  0.49879009  1
  O  O258  1  0.74468340  0.63067274  0.99329415  1
  O  O259  1  0.25602410  0.36920521  -0.00016777  1
  O  O260  1  0.26450160  0.37912413  0.49456303  1
  O  O261  1  0.25376589  0.86773712  0.00807229  1
  O  O262  1  0.25720190  0.86428047  0.50458911  1
  O  O263  1  0.74710125  0.37021175  0.00963931  1
  O  O264  1  0.77507965  0.39703842  0.50473812  1
  O  O265  1  0.75102952  0.85765590  -0.00731991  1
  O  O266  1  0.76019525  0.86021447  0.50814637  1
  O  O267  1  0.12012162  0.50953583  0.23639072  1
  O  O268  1  0.13096898  0.49569654  0.74459140  1
  O  O269  1  0.13164723  0.99077950  0.25316096  1
  O  O270  1  0.12006346  0.98783076  0.73781424  1
  O  O271  1  0.63327374  0.49698439  0.23894239  1
  O  O272  1  0.62794405  0.49217598  0.74312691  1
  O  O273  1  0.63874311  0.98878978  0.23823712  1
  O  O274  1  0.62776969  0.98954188  0.74685068  1
  O  O275  1  0.36795123  -0.00378993  0.25692404  1
  O  O276  1  0.37968245  -0.00831594  0.76605306  1
  O  O277  1  0.37475955  0.50116527  0.25707852  1
  O  O278  1  0.35947601  0.50391720  0.74924298  1
  O  O279  1  0.85443151  -0.00620989  0.23801501  1
  O  O280  1  0.87054857  0.00264857  0.75747821  1
  O  O281  1  0.86553430  0.50988667  0.24354302  1
  O  O282  1  0.87619368  0.50658472  0.75520745  1
  O  O283  1  0.11462983  0.36932542  0.37884498  1
  O  O284  1  0.11950570  0.36452933  0.86851543  1
  O  O285  1  0.12426113  0.87071043  0.36386763  1
  O  O286  1  0.12081538  0.86786868  0.87019938  1
  O  O287  1  0.59625242  0.38660278  0.37068520  1
  O  O288  1  0.61765931  0.37034416  0.86963513  1
  O  O289  1  0.61944684  0.85631479  0.36055704  1
  O  O290  1  0.62504101  0.87670840  0.86145670  1
  O  O291  1  0.39095934  0.11892823  0.11982409  1
  O  O292  1  0.37121932  0.13985113  0.62851429  1
  O  O293  1  0.38436528  0.63378292  0.12046947  1
  O  O294  1  0.38284451  0.62489142  0.63652760  1
  O  O295  1  0.88849932  0.12519594  0.12577593  1
  O  O296  1  0.89155125  0.11229569  0.63551048  1
  O  O297  1  0.88195669  0.63318607  0.13380672  1
  O  O298  1  0.87128885  0.62937064  0.63858933  1
  O  O299  1  0.23808516  0.26558671  0.11630708  1
  O  O300  1  0.25954351  0.25320820  0.63310005  1
  O  O301  1  0.25766959  0.75752545  0.11795544  1
  O  O302  1  0.25052456  0.75820205  0.61802958  1
  O  O303  1  0.75357260  0.26618121  0.11374530  1
  O  O304  1  0.76127210  0.20778898  0.61895653  1
  O  O305  1  0.75942879  0.74067384  0.11469885  1
  O  O306  1  0.75586736  0.75304098  0.61895928  1
  O  O307  1  0.23367494  0.25227273  0.37208344  1
  O  O308  1  0.24230003  0.24954168  0.88277220  1
  O  O309  1  0.25175469  0.74189962  0.38238633  1
  O  O310  1  0.24608408  0.75585659  0.88873094  1
  O  O311  1  0.73952646  0.28781932  0.38176436  1
  O  O312  1  0.74330121  0.24526939  0.87947251  1
  O  O313  1  0.74256830  0.74749515  0.38350690  1
  O  O314  1  0.75910327  0.73468792  0.88297685  1
  O  O315  1  0.00751572  0.12000950  0.00528675  1
  O  O316  1  0.00387546  0.11724925  0.50953780  1
  O  O317  1  0.00747374  0.61623644  0.00477267  1
  O  O318  1  0.01207024  0.61869623  0.49069778  1
  O  O319  1  0.50630221  0.11803516  0.00596591  1
  O  O320  1  0.48311144  0.10435738  0.51283610  1
  O  O321  1  0.50891232  0.62562446  0.00683991  1
  O  O322  1  0.50159447  0.62204949  0.51151234  1
  O  O323  1  0.48419515  0.37833195  0.48787648  1
  O  O324  1  0.49017505  0.37573165  0.99279543  1
  O  O325  1  0.48566379  0.87419795  0.50536493  1
  O  O326  1  0.49718367  0.88112347  0.99989792  1
  O  O327  1  0.99765022  0.38801287  0.49286696  1
  O  O328  1  1.00694206  0.38711679  0.99426725  1
  O  O329  1  0.99194928  0.87971675  0.50001726  1
  O  O330  1  1.00321531  0.88277734  0.99499380  1
  O  O331  1  0.48352183  0.50505354  0.37481121  1
  O  O332  1  0.50422758  0.48725039  0.87630187  1
  O  O333  1  0.48931753  0.99046966  0.38921510  1
  O  O334  1  0.49430050  0.99764894  0.88634299  1
  O  O335  1  1.01011274  0.49142130  0.38464449  1
  O  O336  1  0.99494052  0.49564877  0.88240552  1
  O  O337  1  1.01165797  0.99811534  0.39010793  1
  O  O338  1  0.99789991  0.99572267  0.88301890  1
  O  O339  1  -0.00095984  0.00792885  0.11091937  1
  O  O340  1  0.00779216  0.00236844  0.61722850  1
  O  O341  1  0.00643343  0.50368785  0.11792378  1
  O  O342  1  0.01772270  0.50173231  0.61563154  1
  O  O343  1  0.50766181  0.00422202  0.11451310  1
  O  O344  1  0.50280095  -0.00538747  0.62218071  1
  O  O345  1  0.50851715  0.51308224  0.12056774  1
  O  O346  1  0.50762794  0.50979861  0.62990397  1
  O  O347  1  0.25094891  0.37580764  0.23941564  1
  O  O348  1  0.24040907  0.38867721  0.75554217  1
  O  O349  1  0.24346500  0.88177379  0.24255000  1
  O  O350  1  0.24601778  0.87514838  0.74198709  1
  O  O351  1  0.75209496  0.38112635  0.23171213  1
  O  O352  1  0.73478259  0.37284344  0.75301963  1
  O  O353  1  0.74016687  0.87400516  0.24645638  1
  O  O354  1  0.74604053  0.87749799  0.74592418  1
  O  O355  1  0.24811466  0.11093471  0.24435149  1
  O  O356  1  0.23296230  0.11137569  0.76337827  1
  O  O357  1  0.24531824  0.63448589  0.25848848  1
  O  O358  1  0.25705302  0.61426782  0.74962300  1
  O  O359  1  0.75417990  0.11352512  0.24123849  1
  O  O360  1  0.75354895  0.11642625  0.76049453  1
  O  O361  1  0.75702437  0.61370405  0.25058004  1
  O  O362  1  0.75917013  0.62324263  0.75837869  1
  O  O363  1  0.36993269  0.10946599  0.36868843  1
  O  O364  1  0.37713103  0.10728902  0.88333814  1
  O  O365  1  0.36582122  0.61307370  0.37602372  1
  O  O366  1  0.37768780  0.62382748  0.86506193  1
  O  O367  1  0.89390742  0.12369431  0.36638637  1
  O  O368  1  0.87219777  0.11805599  0.86871208  1
  O  O369  1  0.87032775  0.62914478  0.36149121  1
  O  O370  1  0.87149339  0.61514181  0.86568712  1
  O  O371  1  0.13798173  0.38607757  0.12153798  1
  O  O372  1  0.12123932  0.38140008  0.63673605  1
  O  O373  1  0.13681385  0.87067856  0.13313232  1
  O  O374  1  0.13255694  0.87734644  0.62994533  1
  O  O375  1  0.62655577  0.38925458  0.12098507  1
  O  O376  1  0.61546770  0.39042056  0.63522469  1
  O  O377  1  0.62040389  0.88372555  0.13136190  1
  O  O378  1  0.63162650  0.88053399  0.63595739  1
  O  O379  1  0.11265736  0.25150176  0.26280184  1
  O  O380  1  0.12143248  0.25800943  0.75603998  1
  O  O381  1  0.11567266  0.76023064  0.24807003  1
  O  O382  1  0.12024823  0.75091731  0.75452403  1
  O  O383  1  0.61899073  0.25539461  0.23119771  1
  O  O384  1  0.61278582  0.25813371  0.75466737  1
  O  O385  1  0.62085118  0.75200593  0.25180723  1
  O  O386  1  0.61872348  0.75483527  0.74629791  1
  O  O387  1  0.36326419  0.24714118  0.24545548  1
  O  O388  1  0.38242308  0.25919810  0.74526261  1
  O  O389  1  0.38235697  0.75588360  0.23865416  1
  O  O390  1  0.38304749  0.74104399  0.75007957  1
  O  O391  1  0.89451352  0.25295157  0.25100817  1
  O  O392  1  0.88141095  0.24546524  0.74731665  1
  O  O393  1  0.87965915  0.74505902  0.24318583  1
  O  O394  1  0.88399352  0.74269239  0.74675258  1
  O  O395  1  0.37660238  0.48933016  0.50670871  1
  O  O396  1  0.37495452  0.48948107  1.00251378  1
  O  O397  1  0.37585753  0.98780146  0.49431388  1
  O  O398  1  0.38445004  0.99230976  0.99493128  1
  O  O399  1  0.89257182  0.50187848  0.50662873  1
  O  O400  1  0.88638369  0.50939712  0.99105532  1
  O  O401  1  0.88504509  0.98730433  0.50168059  1
  O  O402  1  0.88417801  0.99776072  0.99264174  1
  O  O403  1  0.11867562  0.01160987  -0.00813961  1
  O  O404  1  0.11743452  -0.00982388  0.51408336  1
  O  O405  1  0.11866958  0.50665103  0.00525140  1
  O  O406  1  0.12367720  0.50715285  0.50570509  1
  O  O407  1  0.61939454  0.00376179  0.00376539  1
  O  O408  1  0.60776242  -0.01280034  0.51124252  1
  O  O409  1  0.62441546  0.51177670  0.00523899  1
  O  O410  1  0.62030430  0.49933186  0.51490584  1
  O  O411  1  0.35855744  0.37278040  0.11555889  1
  O  O412  1  0.37580174  0.36996912  0.61763963  1
  O  O413  1  0.36979954  0.86622488  0.11904361  1
  O  O414  1  0.36584148  0.86946243  0.61847027  1
  O  O415  1  0.86659389  0.38375846  0.11765292  1
  O  O416  1  0.88643583  0.37739973  0.61206481  1
  O  O417  1  0.88100025  0.85834668  0.12036574  1
  O  O418  1  0.86969357  0.86754025  0.61807204  1
  O  O419  1  0.12369615  0.14339599  0.37716323  1
  O  O420  1  0.11994410  0.13946556  0.88583986  1
  O  O421  1  0.13764816  0.62721736  0.38568599  1
  O  O422  1  0.12069142  0.63079632  0.88879350  1
  O  O423  1  0.61205343  0.13488023  0.38596111  1
  O  O424  1  0.63040063  0.12959544  0.88141381  1
  O  O425  1  0.62721286  0.63463173  0.37564496  1
  O  O426  1  0.63606070  0.61987741  0.88288782  1
