# generated using pymatgen
data_V85Zn86O256
_symmetry_space_group_name_H-M   'P 1'
_cell_length_a   16.96594691
_cell_length_b   16.97019382
_cell_length_c   16.94790215
_cell_angle_alpha   90.01280046
_cell_angle_beta   90.08324198
_cell_angle_gamma   90.00187212
_symmetry_Int_Tables_number   1
_chemical_formula_structural   V85Zn86O256
_chemical_formula_sum   'V85 Zn86 O256'
_cell_volume   4879.55687664
_cell_formula_units_Z   1
loop_
 _symmetry_equiv_pos_site_id
 _symmetry_equiv_pos_as_xyz
  1  'x, y, z'
loop_
 _atom_site_type_symbol
 _atom_site_label
 _atom_site_symmetry_multiplicity
 _atom_site_fract_x
 _atom_site_fract_y
 _atom_site_fract_z
 _atom_site_occupancy
  V  V0  1  0.50155755  0.00079503  0.50355849  1
  V  V1  1  0.37727861  0.87546094  -0.00186739  1
  V  V2  1  0.37501400  0.74670012  0.12400882  1
  V  V3  1  0.12616890  0.49681897  0.61989962  1
  V  V4  1  0.36911979  0.74894806  0.62316254  1
  V  V5  1  0.01310148  0.75857918  0.25315183  1
  V  V6  1  0.86674061  0.12328584  0.25777873  1
  V  V7  1  0.37840324  0.25794839  0.12041312  1
  V  V8  1  0.62574204  0.49829269  0.12578788  1
  V  V9  1  -0.00059443  0.25517487  0.74925031  1
  V  V10  1  0.62581985  0.37205807  0.25187698  1
  V  V11  1  0.25011694  0.62304958  0.87422603  1
  V  V12  1  0.75104463  0.37310827  0.12733079  1
  V  V13  1  0.87216331  0.37843531  0.49237024  1
  V  V14  1  0.74388324  0.00043582  0.25589372  1
  V  V15  1  0.36812204  0.13429817  0.75713127  1
  V  V16  1  -0.00238838  0.00423894  0.49710674  1
  V  V17  1  0.12785861  0.24706279  0.87708645  1
  V  V18  1  0.50494049  0.74875420  0.75549093  1
  V  V19  1  0.50073095  0.61913967  0.62167552  1
  V  V20  1  0.50139068  0.37318592  0.87513184  1
  V  V21  1  0.12266458  -0.00043505  0.62656139  1
  V  V22  1  0.24930938  0.37312042  0.12110964  1
  V  V23  1  0.37477233  0.49365991  0.88431576  1
  V  V24  1  0.50416967  0.37954107  0.38768883  1
  V  V25  1  0.26619718  0.36602962  0.61112933  1
  V  V26  1  0.88472064  0.00176985  0.88137020  1
  V  V27  1  0.37380713  0.12177493  0.24542007  1
  V  V28  1  0.61966976  0.12035644  -0.00670916  1
  V  V29  1  0.02588989  0.22592870  0.26345261  1
  V  V30  1  0.87528684  0.37325879  0.00360377  1
  V  V31  1  0.12564081  0.11915039  -0.00078893  1
  V  V32  1  0.12288367  0.62549994  -0.00110446  1
  V  V33  1  0.87663629  0.62366734  0.25529231  1
  V  V34  1  0.73737609  0.49731427  0.75077608  1
  V  V35  1  0.75586212  0.49871749  0.25716286  1
  V  V36  1  0.62448123  0.87198420  0.74055106  1
  V  V37  1  0.25190749  -0.00622335  0.24237635  1
  V  V38  1  0.49963366  0.62310361  0.12860351  1
  V  V39  1  0.87787369  0.25911129  0.61496274  1
  V  V40  1  0.32558949  0.05789198  0.41501869  1
  V  V41  1  0.37604628  0.86926518  0.49608271  1
  V  V42  1  0.86816991  0.49905033  0.87426816  1
  V  V43  1  0.87362420  0.75153372  0.12620012  1
  V  V44  1  0.49892069  0.11674993  0.11774767  1
  V  V45  1  0.48932299  0.13278110  0.62240206  1
  V  V46  1  0.24748469  -0.00318384  0.75782085  1
  V  V47  1  0.62819497  0.75036110  0.38117349  1
  V  V48  1  0.74552475  0.75013211  -0.00551488  1
  V  V49  1  -0.00458880  0.50026085  0.48874829  1
  V  V50  1  0.49929354  0.25094625  0.25145278  1
  V  V51  1  0.26355685  0.50155975  0.24657240  1
  V  V52  1  0.50692657  0.87802159  0.87608946  1
  V  V53  1  0.87734372  0.24624254  0.12766227  1
  V  V54  1  0.62641219  0.25267337  0.86088478  1
  V  V55  1  0.74923380  0.12653566  0.87213026  1
  V  V56  1  -0.00190200  0.49876499  0.00213266  1
  V  V57  1  0.25270930  0.49513789  0.74616569  1
  V  V58  1  0.19061755  0.79868835  0.43870820  1
  V  V59  1  0.49833887  0.74817775  0.25119454  1
  V  V60  1  0.74568259  0.87620358  0.12492880  1
  V  V61  1  0.75088208  -0.00490029  0.75222512  1
  V  V62  1  0.37609258  0.62570595  0.75192225  1
  V  V63  1  0.12756930  0.62422415  0.49285758  1
  V  V64  1  0.62238263  0.61598810  0.50014623  1
  V  V65  1  0.37759162  0.00076705  0.87731780  1
  V  V66  1  0.87672246  0.12716327  0.74791398  1
  V  V67  1  0.63380152  0.23421521  0.38639210  1
  V  V68  1  0.12716440  0.37886155  0.25618772  1
  V  V69  1  0.00012713  0.37429810  0.87557240  1
  V  V70  1  0.75378572  0.62760620  0.38242117  1
  V  V71  1  -0.00320519  0.11518948  0.11517936  1
  V  V72  1  0.38697563  0.50626995  0.38787638  1
  V  V73  1  0.11999809  0.74632797  0.86305615  1
  V  V74  1  0.00842297  0.13113921  0.61947613  1
  V  V75  1  0.65411599  0.03160844  0.60753943  1
  V  V76  1  0.74419569  0.37279007  0.62528986  1
  V  V77  1  0.87046525  0.86475442  0.49869514  1
  V  V78  1  0.49988514  0.87798013  0.37592630  1
  V  V79  1  0.62418766  0.62508528  -0.00528351  1
  V  V80  1  0.25457078  0.62385124  0.37283686  1
  V  V81  1  0.25388337  0.24760299  -0.00056457  1
  V  V82  1  -0.00403955  0.86847868  0.87306119  1
  V  V83  1  0.12231401  -0.00786734  0.12168772  1
  V  V84  1  -0.00078651  0.62618644  0.12550762  1
  Zn  Zn85  1  0.87617055  0.74545949  0.64079595  1
  Zn  Zn86  1  0.87801735  0.62370677  0.74751825  1
  Zn  Zn87  1  0.87715982  0.88165611  0.00186828  1
  Zn  Zn88  1  0.23906125  0.21739877  0.49244235  1
  Zn  Zn89  1  0.87150597  0.00035395  0.37705957  1
  Zn  Zn90  1  0.24984807  0.74943407  -0.00226567  1
  Zn  Zn91  1  0.12698507  0.50102624  0.12481764  1
  Zn  Zn92  1  0.49626522  0.49090430  0.00542086  1
  Zn  Zn93  1  0.74802840  0.86514408  0.61656885  1
  Zn  Zn94  1  0.61586726  0.49065670  0.62339043  1
  Zn  Zn95  1  -0.00570832  0.37612037  0.36853482  1
  Zn  Zn96  1  0.00374955  0.87403063  0.37376777  1
  Zn  Zn97  1  0.49835979  0.25663020  0.74481517  1
  Zn  Zn98  1  0.11927919  0.86964929  0.74755139  1
  Zn  Zn99  1  0.24435027  0.86899292  0.62674404  1
  Zn  Zn100  1  0.74540513  0.62935188  0.87071961  1
  Zn  Zn101  1  0.62240832  0.87578030  0.24876322  1
  Zn  Zn102  1  0.74752495  0.24970214  -0.00115293  1
  Zn  Zn103  1  -0.00148122  0.62852787  0.62798432  1
  Zn  Zn104  1  0.12717305  0.37327194  0.74620174  1
  Zn  Zn105  1  0.62002823  -0.00279939  0.11897294  1
  Zn  Zn106  1  0.24427371  0.86962596  0.12215504  1
  Zn  Zn107  1  0.20253373  0.19927152  0.29735647  1
  Zn  Zn108  1  0.18913085  0.19065588  0.68778650  1
  Zn  Zn109  1  0.19057484  0.68442270  0.18640396  1
  Zn  Zn110  1  0.18687104  0.68163975  0.68365396  1
  Zn  Zn111  1  0.68433285  0.18675047  0.18557929  1
  Zn  Zn112  1  0.69176941  0.18494320  0.67374473  1
  Zn  Zn113  1  0.68584281  0.68759803  0.18951519  1
  Zn  Zn114  1  0.69300849  0.68730696  0.68445243  1
  Zn  Zn115  1  0.32592638  0.32277802  0.42197670  1
  Zn  Zn116  1  0.30999619  0.31709666  0.81568080  1
  Zn  Zn117  1  0.31999241  0.81656693  0.30509817  1
  Zn  Zn118  1  0.31082934  0.81210872  0.81302522  1
  Zn  Zn119  1  0.81241992  0.30533873  0.31435899  1
  Zn  Zn120  1  0.81154006  0.31515732  0.80753963  1
  Zn  Zn121  1  0.81453168  0.81396656  0.31412988  1
  Zn  Zn122  1  0.81331810  0.81066621  0.81059711  1
  Zn  Zn123  1  0.19022988  0.44052745  0.43363072  1
  Zn  Zn124  1  0.18692118  0.43519833  0.93866622  1
  Zn  Zn125  1  0.17997180  0.96280954  0.43801842  1
  Zn  Zn126  1  0.18786890  0.93297313  0.93597912  1
  Zn  Zn127  1  0.68875847  0.43544165  0.43800293  1
  Zn  Zn128  1  0.68374162  0.43344203  0.93998058  1
  Zn  Zn129  1  0.68699006  0.93745342  0.43603723  1
  Zn  Zn130  1  0.68818212  0.93785151  0.93536763  1
  Zn  Zn131  1  0.31054547  0.06457897  0.05948795  1
  Zn  Zn132  1  0.31393229  0.05627276  0.58054057  1
  Zn  Zn133  1  0.31224800  0.56569263  0.06252689  1
  Zn  Zn134  1  0.31124494  0.56466261  0.56066933  1
  Zn  Zn135  1  0.80447221  0.06337096  0.06095955  1
  Zn  Zn136  1  0.82228193  0.06324786  0.56580391  1
  Zn  Zn137  1  0.81061935  0.56299169  0.06530142  1
  Zn  Zn138  1  0.81190596  0.55995383  0.56429982  1
  Zn  Zn139  1  0.43793305  0.43496880  0.19227003  1
  Zn  Zn140  1  0.43782936  0.43650246  0.69375583  1
  Zn  Zn141  1  0.43678594  0.93539247  0.18560565  1
  Zn  Zn142  1  0.43456443  0.93762890  0.68657331  1
  Zn  Zn143  1  0.94011948  0.43791284  0.18954786  1
  Zn  Zn144  1  0.94435318  0.45952219  0.69225683  1
  Zn  Zn145  1  0.93441913  0.93703490  0.18723351  1
  Zn  Zn146  1  0.93685176  0.93497490  0.68784220  1
  Zn  Zn147  1  0.05796992  0.04896251  0.29873226  1
  Zn  Zn148  1  0.06159232  0.06496686  0.81122992  1
  Zn  Zn149  1  0.06662783  0.56362036  0.31107534  1
  Zn  Zn150  1  0.06309150  0.55846452  0.81168708  1
  Zn  Zn151  1  0.55874537  0.06096147  0.31090634  1
  Zn  Zn152  1  0.56116147  0.06188651  0.80192745  1
  Zn  Zn153  1  0.56619143  0.56365059  0.30980897  1
  Zn  Zn154  1  0.55982910  0.55970996  0.81371647  1
  Zn  Zn155  1  0.44333812  0.19656302  0.44255810  1
  Zn  Zn156  1  0.43832484  0.18958169  0.93458670  1
  Zn  Zn157  1  0.43794845  0.68644162  0.43775544  1
  Zn  Zn158  1  0.44000922  0.68729679  0.93818636  1
  Zn  Zn159  1  1.05989582  0.18664155  0.43283585  1
  Zn  Zn160  1  0.93697856  0.18779237  0.93742607  1
  Zn  Zn161  1  0.94399534  0.68746316  0.43599614  1
  Zn  Zn162  1  0.93324643  0.68840098  0.93371920  1
  Zn  Zn163  1  0.06447755  0.30733063  0.07014424  1
  Zn  Zn164  1  0.06743166  0.31744911  0.55615566  1
  Zn  Zn165  1  0.05710546  0.81096539  0.05290570  1
  Zn  Zn166  1  0.04765294  0.81689112  0.57080295  1
  Zn  Zn167  1  0.56408371  0.30760659  0.05566549  1
  Zn  Zn168  1  0.56325093  0.30690519  0.56048993  1
  Zn  Zn169  1  0.56142008  0.81162837  0.05979921  1
  Zn  Zn170  1  0.56064676  0.80550952  0.56397216  1
  O  O171  1  0.11135521  0.11087062  0.11318952  1
  O  O172  1  0.11282680  0.11923561  0.63551775  1
  O  O173  1  0.11928072  0.62356667  0.11463331  1
  O  O174  1  0.12971405  0.61259539  0.61109642  1
  O  O175  1  0.61520053  0.12565885  0.11312816  1
  O  O176  1  0.59591283  0.11797719  0.64643913  1
  O  O177  1  0.61923988  0.61760320  0.12038979  1
  O  O178  1  0.61728466  0.62502555  0.61621282  1
  O  O179  1  0.39039185  0.39598756  0.36815108  1
  O  O180  1  0.38184716  0.38462481  0.87403349  1
  O  O181  1  0.38300737  0.86795398  0.38767623  1
  O  O182  1  0.38305471  0.88077248  0.87886672  1
  O  O183  1  0.87030925  0.37080421  0.38840704  1
  O  O184  1  0.87839508  0.38141238  0.88253698  1
  O  O185  1  0.87871057  0.88013464  0.38393298  1
  O  O186  1  0.87933128  0.88496382  0.87631899  1
  O  O187  1  0.25534562  -0.00327112  0.36144152  1
  O  O188  1  0.25655584  -0.00423807  0.86402607  1
  O  O189  1  0.26448529  0.50634275  0.36799479  1
  O  O190  1  0.25554625  0.50093077  0.86769558  1
  O  O191  1  0.74835482  -0.00136783  0.35991996  1
  O  O192  1  0.75499239  0.00576431  0.86472166  1
  O  O193  1  0.74523940  0.50841652  0.36226825  1
  O  O194  1  0.75165289  0.49517702  0.86711865  1
  O  O195  1  0.25221969  0.49522966  0.12976951  1
  O  O196  1  0.24827292  0.49430587  0.62966205  1
  O  O197  1  0.24212860  0.99850704  0.12692174  1
  O  O198  1  0.23897580  0.99307766  0.63682999  1
  O  O199  1  0.74614721  0.49370778  0.13599482  1
  O  O200  1  0.74442012  0.49142503  0.63644078  1
  O  O201  1  0.74860809  0.98739651  0.13008841  1
  O  O202  1  0.75426654  0.98367619  0.63879252  1
  O  O203  1  0.01599339  0.37428757  0.24791762  1
  O  O204  1  0.00289189  0.37346134  0.75725261  1
  O  O205  1  -0.00227823  0.86269563  0.25038441  1
  O  O206  1  0.00287387  0.88243105  0.76579805  1
  O  O207  1  0.50716293  0.36634642  0.25545658  1
  O  O208  1  0.49799199  0.37178091  0.76459924  1
  O  O209  1  0.50079308  0.86812300  0.25641445  1
  O  O210  1  0.50517723  0.86871669  0.75259995  1
  O  O211  1  0.49385038  0.12984662  0.23935435  1
  O  O212  1  0.48195155  0.12604288  0.74375371  1
  O  O213  1  0.50604517  0.63215031  0.23666282  1
  O  O214  1  0.49640033  0.63281113  0.74721776  1
  O  O215  1  0.98160510  0.12117142  0.23497240  1
  O  O216  1  0.99431451  0.13478839  0.74321840  1
  O  O217  1  0.99390135  0.63241789  0.24539798  1
  O  O218  1  0.98685035  0.57614856  0.73435440  1
  O  O219  1  0.36609250  0.24436296  0.00716277  1
  O  O220  1  0.35655099  0.24032640  0.49472845  1
  O  O221  1  0.37486900  0.75671911  0.00531655  1
  O  O222  1  0.38137009  0.75747361  0.51012517  1
  O  O223  1  0.87549733  0.25501999  0.01190060  1
  O  O224  1  0.87898421  0.26156670  0.51447188  1
  O  O225  1  0.86563440  0.74627971  0.01369292  1
  O  O226  1  0.88045728  0.76474088  0.49280826  1
  O  O227  1  0.12554569  0.23607951  0.50722729  1
  O  O228  1  0.12981927  0.24148058  0.99616540  1
  O  O229  1  0.12890509  0.74551394  0.50188271  1
  O  O230  1  0.12497390  0.73649817  0.99059342  1
  O  O231  1  0.62502830  0.24749769  0.48598346  1
  O  O232  1  0.62791823  0.23713022  0.98684201  1
  O  O233  1  0.62000026  0.74032304  0.48690979  1
  O  O234  1  0.63423969  0.73845753  1.00879452  1
  O  O235  1  0.49549800  0.24423932  0.12855466  1
  O  O236  1  0.49833250  0.23726452  0.62646542  1
  O  O237  1  0.49668835  0.74306268  0.13141558  1
  O  O238  1  0.49018322  0.74134686  0.63563720  1
  O  O239  1  0.99541018  0.23778124  0.13863131  1
  O  O240  1  0.99739732  0.24842128  0.63022899  1
  O  O241  1  0.99113418  0.74625344  0.12973697  1
  O  O242  1  0.99185760  0.74201810  0.62566305  1
  O  O243  1  -0.00795771  0.25646973  0.35512901  1
  O  O244  1  0.00363462  0.25781878  0.87025483  1
  O  O245  1  0.00149156  0.75180629  0.35707737  1
  O  O246  1  0.00802964  0.75408003  0.87699455  1
  O  O247  1  0.50796556  0.25980758  0.36709668  1
  O  O248  1  0.50821322  0.25565212  0.87032234  1
  O  O249  1  0.50540920  0.75371017  0.36725307  1
  O  O250  1  0.49405928  0.75953020  0.86284881  1
  O  O251  1  0.25799624  0.09702122  0.48737571  1
  O  O252  1  0.24007113  0.13950728  1.00510049  1
  O  O253  1  0.24503570  0.62342730  0.48463591  1
  O  O254  1  0.23940154  0.62452656  0.99205832  1
  O  O255  1  0.72037346  0.11129924  0.57401893  1
  O  O256  1  0.74224547  0.12899707  0.98840677  1
  O  O257  1  0.74475000  0.61843680  0.48634168  1
  O  O258  1  0.74075290  0.63196630  1.00305729  1
  O  O259  1  0.24348698  0.36620041  0.01206890  1
  O  O260  1  0.25716303  0.38375879  0.50748172  1
  O  O261  1  0.26453573  0.87021669  -0.00112655  1
  O  O262  1  0.25055874  0.86741138  0.49367560  1
  O  O263  1  0.75773476  0.37216259  0.00907112  1
  O  O264  1  0.75945507  0.38552377  0.51444674  1
  O  O265  1  0.74968302  0.86746075  0.00702270  1
  O  O266  1  0.76613241  0.88081025  0.49760372  1
  O  O267  1  0.13432689  0.49344087  0.24647674  1
  O  O268  1  0.13759662  0.49739352  0.73934356  1
  O  O269  1  0.13727140  0.99977216  0.23399166  1
  O  O270  1  0.13120169  1.00113071  0.74407021  1
  O  O271  1  0.63392032  0.49339443  0.24380830  1
  O  O272  1  0.63395295  0.49840336  0.74920384  1
  O  O273  1  0.63058737  0.99861642  0.24300551  1
  O  O274  1  0.63571241  0.99585921  0.73488597  1
  O  O275  1  0.36875301  0.00936333  0.24153835  1
  O  O276  1  0.36606474  0.00411248  0.75791852  1
  O  O277  1  0.36581006  0.50221792  0.25282611  1
  O  O278  1  0.36787114  0.50667124  0.75957106  1
  O  O279  1  0.86560109  0.00919188  0.24852196  1
  O  O280  1  0.86813772  0.00506902  0.75681241  1
  O  O281  1  0.86799191  0.51066819  0.24559149  1
  O  O282  1  0.85641032  0.49301913  0.76293866  1
  O  O283  1  0.12600773  0.38006416  0.35878637  1
  O  O284  1  0.11667549  0.36503818  0.87607402  1
  O  O285  1  0.13213683  0.86478057  0.38830206  1
  O  O286  1  0.11770053  0.86171293  0.87479268  1
  O  O287  1  0.61995915  0.37243046  0.36774146  1
  O  O288  1  0.61908313  0.36244907  0.87703295  1
  O  O289  1  0.61856315  0.86571808  0.37472303  1
  O  O290  1  0.61172721  0.88427032  0.86414306  1
  O  O291  1  0.38156089  0.13332497  0.12733642  1
  O  O292  1  0.38233264  0.12267461  0.64070016  1
  O  O293  1  0.38474937  0.63778104  0.11780765  1
  O  O294  1  0.38067494  0.63061292  0.62995125  1
  O  O295  1  0.87838979  0.13080404  0.12269739  1
  O  O296  1  0.88964100  0.13656398  0.62917703  1
  O  O297  1  0.87768161  0.63198809  0.13538967  1
  O  O298  1  0.87845949  0.62210138  0.62683938  1
  O  O299  1  0.26224479  0.26044479  0.11678918  1
  O  O300  1  0.24682540  0.26555570  0.62277459  1
  O  O301  1  0.26047500  0.74982695  0.12261872  1
  O  O302  1  0.26429981  0.74907621  0.63078603  1
  O  O303  1  0.75912876  0.25547430  0.12469436  1
  O  O304  1  0.76235533  0.26700032  0.63370291  1
  O  O305  1  0.75467590  0.75946627  0.12357123  1
  O  O306  1  0.76039930  0.75534650  0.62998561  1
  O  O307  1  0.24764546  0.25376179  0.37999791  1
  O  O308  1  0.23880777  0.25809205  0.88550466  1
  O  O309  1  0.25036694  0.74643274  0.37100484  1
  O  O310  1  0.24131636  0.74008333  0.87529512  1
  O  O311  1  0.73206253  0.24708508  0.36681974  1
  O  O312  1  0.74440715  0.24457126  0.87238648  1
  O  O313  1  0.73954611  0.73949492  0.36521666  1
  O  O314  1  0.75167027  0.74836568  0.89162500  1
  O  O315  1  0.00670909  0.12993295  0.00866833  1
  O  O316  1  -0.00117338  0.11460559  0.50646431  1
  O  O317  1  0.00405798  0.62030513  0.00458989  1
  O  O318  1  0.01076886  0.61728388  0.49691608  1
  O  O319  1  0.50672559  0.12959836  0.00586856  1
  O  O320  1  0.49419815  0.11826854  0.51542465  1
  O  O321  1  0.50824908  0.62427895  0.01148683  1
  O  O322  1  0.50866895  0.62974523  0.51074807  1
  O  O323  1  0.50402664  0.37371667  0.48748888  1
  O  O324  1  0.50398373  0.37532136  0.98508147  1
  O  O325  1  0.49172800  0.88114897  0.50020004  1
  O  O326  1  0.49014651  0.87061920  0.98852410  1
  O  O327  1  0.99187563  0.38161654  0.49262083  1
  O  O328  1  0.99441585  0.37739412  0.99798908  1
  O  O329  1  0.99181105  0.88821866  0.49606235  1
  O  O330  1  0.99313015  0.87386977  0.98246282  1
  O  O331  1  0.49334991  0.49798469  0.36941545  1
  O  O332  1  0.49125602  0.49257703  0.87750246  1
  O  O333  1  0.50921381  0.99310512  0.39246157  1
  O  O334  1  0.48906326  0.99040092  0.86464401  1
  O  O335  1  1.00464783  0.49783233  0.38365184  1
  O  O336  1  0.99055215  0.49041171  0.88382746  1
  O  O337  1  1.00334353  0.99614376  0.38314478  1
  O  O338  1  0.98912459  0.99743682  0.87199477  1
  O  O339  1  0.00506387  0.00512504  0.12655019  1
  O  O340  1  0.00421683  0.00992261  0.62120749  1
  O  O341  1  0.00038290  0.50876112  0.11853155  1
  O  O342  1  0.01523974  0.49327033  0.60490857  1
  O  O343  1  0.49908756  0.01307540  0.12510610  1
  O  O344  1  0.49376905  0.00708766  0.61364067  1
  O  O345  1  0.50424314  0.50637884  0.12609316  1
  O  O346  1  0.49999046  0.51457076  0.63511453  1
  O  O347  1  0.23941944  0.38642117  0.23620429  1
  O  O348  1  0.24967098  0.38410045  0.74119672  1
  O  O349  1  0.25945249  0.88828555  0.24031103  1
  O  O350  1  0.24446383  0.88266349  0.74922328  1
  O  O351  1  0.74813383  0.38139325  0.24710153  1
  O  O352  1  0.75028927  0.38484541  0.73760316  1
  O  O353  1  0.74780676  0.88198307  0.24229694  1
  O  O354  1  0.73743552  0.88144309  0.75857581  1
  O  O355  1  0.26718941  0.11602037  0.24914140  1
  O  O356  1  0.26200357  0.11631158  0.74402732  1
  O  O357  1  0.24323131  0.61546084  0.26211777  1
  O  O358  1  0.25487548  0.61294058  0.75395757  1
  O  O359  1  0.75994803  0.11522995  0.23694657  1
  O  O360  1  0.75731386  0.11626104  0.75222393  1
  O  O361  1  0.75735855  0.61830523  0.25608231  1
  O  O362  1  0.74770497  0.60821703  0.75405738  1
  O  O363  1  0.39180282  0.11981508  0.36267956  1
  O  O364  1  0.37769156  0.11627600  0.86450692  1
  O  O365  1  0.37165189  0.61590355  0.37345922  1
  O  O366  1  0.37037212  0.61930011  0.86986280  1
  O  O367  1  0.87329842  0.12248050  0.35546563  1
  O  O368  1  0.87096553  0.12020414  0.86819482  1
  O  O369  1  0.86824535  0.63277264  0.36339176  1
  O  O370  1  0.86884056  0.60674053  0.88157351  1
  O  O371  1  0.13304401  0.38082179  0.12869873  1
  O  O372  1  0.13758116  0.38717642  0.62191836  1
  O  O373  1  0.12488832  0.88797317  0.10664785  1
  O  O374  1  0.12403231  0.88411639  0.62812134  1
  O  O375  1  0.63038076  0.37764722  0.13060140  1
  O  O376  1  0.63929933  0.37304277  0.61813353  1
  O  O377  1  0.63136266  0.87634638  0.12560545  1
  O  O378  1  0.62402237  0.87380599  0.63428071  1
  O  O379  1  0.12686601  0.26984616  0.23640931  1
  O  O380  1  0.11948939  0.25234464  0.75948919  1
  O  O381  1  0.11080325  0.74915014  0.23969377  1
  O  O382  1  0.12704625  0.74459764  0.75956707  1
  O  O383  1  0.61356031  0.25264778  0.25098016  1
  O  O384  1  0.62507236  0.24104270  0.75864728  1
  O  O385  1  0.61394229  0.75021702  0.25890136  1
  O  O386  1  0.61507092  0.75737814  0.74750237  1
  O  O387  1  0.39038732  0.24040972  0.23825281  1
  O  O388  1  0.37142349  0.23638016  0.75894118  1
  O  O389  1  0.38964799  0.75193123  0.24006629  1
  O  O390  1  0.38162169  0.74469090  0.74458549  1
  O  O391  1  0.87411618  0.23654023  0.24077194  1
  O  O392  1  0.88377379  0.24794836  0.74354582  1
  O  O393  1  0.87968224  0.74416348  0.23963167  1
  O  O394  1  0.87504215  0.73646428  0.76046207  1
  O  O395  1  0.37969059  0.50708632  0.48630717  1
  O  O396  1  0.37596645  0.50598918  0.98779813  1
  O  O397  1  0.37856806  0.99415936  0.49343473  1
  O  O398  1  0.36950699  0.99398284  0.98577048  1
  O  O399  1  0.88505886  0.49158200  0.50180543  1
  O  O400  1  0.87679898  0.49164763  0.99772345  1
  O  O401  1  0.88238651  0.99804269  0.49645503  1
  O  O402  1  0.86481731  1.00111518  0.98472603  1
  O  O403  1  0.13381424  0.01362329  -0.00081834  1
  O  O404  1  0.11465652  0.00297345  0.51759807  1
  O  O405  1  0.11787206  0.51076896  -0.00208470  1
  O  O406  1  0.12289109  0.50702586  0.50150031  1
  O  O407  1  0.63021908  0.01481757  -0.00115172  1
  O  O408  1  0.61893221  -0.00637910  0.51363421  1
  O  O409  1  0.62437074  0.50607303  0.01061812  1
  O  O410  1  0.62622611  0.51222027  0.50116428  1
  O  O411  1  0.36994035  0.36432867  0.12937430  1
  O  O412  1  0.36341435  0.37853090  0.62806089  1
  O  O413  1  0.37919200  0.86353309  0.11401304  1
  O  O414  1  0.36989137  0.86877469  0.61335053  1
  O  O415  1  0.87304167  0.36462081  0.12507317  1
  O  O416  1  0.86916534  0.37411363  0.62003183  1
  O  O417  1  0.86646794  0.86732745  0.12217315  1
  O  O418  1  0.87844950  0.87611769  0.60814881  1
  O  O419  1  0.09771485  0.15220077  0.32809183  1
  O  O420  1  0.11630666  0.13907118  0.88293417  1
  O  O421  1  0.13520926  0.62308725  0.38483348  1
  O  O422  1  0.12708260  0.62715911  0.87870412  1
  O  O423  1  0.61791864  0.13601860  0.37231745  1
  O  O424  1  0.62813925  0.12817917  0.87521188  1
  O  O425  1  0.63159956  0.63041387  0.38043069  1
  O  O426  1  0.62423895  0.61885768  0.89086427  1
