# generated using pymatgen
data_V85Zn86O256
_symmetry_space_group_name_H-M   'P 1'
_cell_length_a   16.94305421
_cell_length_b   16.93670662
_cell_length_c   16.92830168
_cell_angle_alpha   89.96322820
_cell_angle_beta   90.01094350
_cell_angle_gamma   89.98787877
_symmetry_Int_Tables_number   1
_chemical_formula_structural   V85Zn86O256
_chemical_formula_sum   'V85 Zn86 O256'
_cell_volume   4857.73643667
_cell_formula_units_Z   1
loop_
 _symmetry_equiv_pos_site_id
 _symmetry_equiv_pos_as_xyz
  1  'x, y, z'
loop_
 _atom_site_type_symbol
 _atom_site_label
 _atom_site_symmetry_multiplicity
 _atom_site_fract_x
 _atom_site_fract_y
 _atom_site_fract_z
 _atom_site_occupancy
  V  V0  1  0.74501284  0.37236659  0.12110574  1
  V  V1  1  0.87236441  0.61705481  0.74577346  1
  V  V2  1  0.61956718  0.62368074  0.50448090  1
  V  V3  1  0.75528105  0.02274216  0.77673645  1
  V  V4  1  -0.00092468  0.74448118  0.74559263  1
  V  V5  1  0.50168311  0.25001254  0.74936878  1
  V  V6  1  0.60856086  0.12449825  0.02535697  1
  V  V7  1  0.37051005  0.75545847  0.12713543  1
  V  V8  1  0.00216370  0.12196874  0.12337860  1
  V  V9  1  0.37714417  0.25784069  0.61767652  1
  V  V10  1  0.77409816  0.21145893  -0.01597420  1
  V  V11  1  0.62217542  0.49756408  0.12766502  1
  V  V12  1  0.25213318  -0.00170616  0.24249208  1
  V  V13  1  0.74714342  0.75144287  0.50140970  1
  V  V14  1  0.74906581  0.62446024  0.37280258  1
  V  V15  1  0.49777653  0.37803025  0.87501027  1
  V  V16  1  0.87431525  0.12441888  0.24687306  1
  V  V17  1  0.62556356  0.12626042  0.49868446  1
  V  V18  1  0.50666679  -0.00098046  0.50013494  1
  V  V19  1  -0.00083867  0.50576921  0.50428833  1
  V  V20  1  0.49570317  0.49444320  0.50522872  1
  V  V21  1  0.24933975  0.50105449  0.25089322  1
  V  V22  1  0.37438036  0.38227614  -0.00263272  1
  V  V23  1  0.37693454  0.12538217  0.74851512  1
  V  V24  1  0.12792371  0.62921079  0.50322073  1
  V  V25  1  0.24815122  0.75871406  -0.00047848  1
  V  V26  1  0.49940188  -0.00578947  0.01277383  1
  V  V27  1  0.49876553  0.63252868  0.12800906  1
  V  V28  1  0.37820325  0.63011432  0.25591035  1
  V  V29  1  0.24934475  -0.00390980  0.74424607  1
  V  V30  1  0.24853348  0.24909847  0.50121891  1
  V  V31  1  0.12980923  0.87221844  0.24116710  1
  V  V32  1  0.74547325  0.00020403  0.23979051  1
  V  V33  1  0.50602292  0.12268072  0.62349955  1
  V  V34  1  0.74518515  0.63325962  0.86673052  1
  V  V35  1  0.00168244  0.25015112  0.24976899  1
  V  V36  1  0.26316362  0.50316306  0.75302815  1
  V  V37  1  0.63363956  0.37860594  0.75535115  1
  V  V38  1  0.87593481  0.25241558  0.12509224  1
  V  V39  1  0.25279483  0.25036724  -0.00075050  1
  V  V40  1  -0.00063749  0.12349453  0.62246795  1
  V  V41  1  0.74851467  0.86748212  0.12158612  1
  V  V42  1  0.12191360  0.50524309  0.62829448  1
  V  V43  1  0.36662282  0.87198279  0.50359437  1
  V  V44  1  0.87303339  -0.00031303  0.37426906  1
  V  V45  1  0.86925564  0.38327630  -0.00006596  1
  V  V46  1  0.62042461  0.74950946  0.36969491  1
  V  V47  1  0.00149533  0.37389013  0.37566989  1
  V  V48  1  0.13311070  0.74997976  0.37812347  1
  V  V49  1  0.63218159  0.64019078  -0.00146669  1
  V  V50  1  0.49851250  0.50560785  -0.00347452  1
  V  V51  1  0.26382862  0.62250662  0.87405528  1
  V  V52  1  0.74355871  0.13011284  0.37248109  1
  V  V53  1  0.74436178  0.25137088  0.49937607  1
  V  V54  1  0.63052099  0.50276801  0.63105751  1
  V  V55  1  -0.00082702  0.87499137  0.37309298  1
  V  V56  1  0.62273295  0.23562936  0.87846358  1
  V  V57  1  -0.00563817  0.87783509  0.86694879  1
  V  V58  1  0.37869528  0.12980382  0.24242470  1
  V  V59  1  0.00907278  0.00338308  0.49701701  1
  V  V60  1  0.61964605  0.87743791  0.24469494  1
  V  V61  1  0.87436901  0.50030085  0.37476595  1
  V  V62  1  0.51831199  0.37010751  0.37223891  1
  V  V63  1  0.87082785  0.86813384  -0.00461786  1
  V  V64  1  0.87466322  0.37228243  0.50405732  1
  V  V65  1  0.49486364  0.73262173  0.75517587  1
  V  V66  1  0.25063563  0.37535199  0.12561454  1
  V  V67  1  0.87575345  0.74792762  0.62350296  1
  V  V68  1  0.12202908  0.62418997  -0.00254378  1
  V  V69  1  0.51591182  0.25155461  0.24628350  1
  V  V70  1  0.73705361  0.88639926  0.62563445  1
  V  V71  1  -0.00631483  0.24451141  0.75017955  1
  V  V72  1  0.49825916  0.86593692  0.37446427  1
  V  V73  1  0.37731026  0.00485473  0.37416627  1
  V  V74  1  0.12289471  0.24080571  0.38092676  1
  V  V75  1  -0.00268610  -0.00311063  -0.00638700  1
  V  V76  1  0.12704737  0.37508328  0.74891318  1
  V  V77  1  0.62129845  0.87369877  0.76727417  1
  V  V78  1  0.25309083  0.12378190  0.87304228  1
  V  V79  1  -0.00265230  0.74665696  0.24828011  1
  V  V80  1  0.00005616  0.37970062  0.87600801  1
  V  V81  1  0.37467970  0.48532572  0.37651236  1
  V  V82  1  0.74560062  0.49272592  0.24961725  1
  V  V83  1  0.38585900  -0.00940993  0.87077658  1
  V  V84  1  0.12926812  0.12249494  0.00029488  1
  Zn  Zn85  1  -0.00023266  0.50201739  0.00229861  1
  Zn  Zn86  1  0.12110130  0.87647806  0.74370050  1
  Zn  Zn87  1  0.37353332  0.72480392  0.63627696  1
  Zn  Zn88  1  0.86908176  0.24243861  0.63118729  1
  Zn  Zn89  1  0.38086946  0.24929432  0.12456208  1
  Zn  Zn90  1  0.12721686  0.25023473  0.87309267  1
  Zn  Zn91  1  0.75224300  0.37530689  0.63217431  1
  Zn  Zn92  1  0.12416709  0.74989827  0.87063871  1
  Zn  Zn93  1  0.86351205  0.49863940  0.86894601  1
  Zn  Zn94  1  0.25216217  0.62409324  0.37862548  1
  Zn  Zn95  1  0.87087522  0.74537969  0.12214168  1
  Zn  Zn96  1  0.12330119  0.50120866  0.12459826  1
  Zn  Zn97  1  0.12590048  0.37422513  0.25010230  1
  Zn  Zn98  1  0.25442466  0.37782718  0.61993192  1
  Zn  Zn99  1  0.13016711  0.00265829  0.61950835  1
  Zn  Zn100  1  0.13143398  -0.00779298  0.11917067  1
  Zn  Zn101  1  0.87381533  0.62382856  0.24593005  1
  Zn  Zn102  1  0.37639039  0.87152782  -0.00277430  1
  Zn  Zn103  1  -0.00358536  0.62186701  0.12294780  1
  Zn  Zn104  1  0.24663490  0.12355408  0.37808420  1
  Zn  Zn105  1  0.24412893  0.85899179  0.62082162  1
  Zn  Zn106  1  0.87336031  0.87595148  0.50093802  1
  Zn  Zn107  1  0.19038459  0.18753295  0.18852640  1
  Zn  Zn108  1  0.18422979  0.18509373  0.68414898  1
  Zn  Zn109  1  0.18789274  0.68594056  0.18550981  1
  Zn  Zn110  1  0.18922479  0.68733481  0.68698172  1
  Zn  Zn111  1  0.69008224  0.18858781  0.18059383  1
  Zn  Zn112  1  0.68726543  0.18787317  0.68798338  1
  Zn  Zn113  1  0.68544426  0.68600524  0.18933316  1
  Zn  Zn114  1  0.68026633  0.69451296  0.68921088  1
  Zn  Zn115  1  0.31181417  0.30944970  0.31313246  1
  Zn  Zn116  1  0.31461413  0.31321353  0.81111155  1
  Zn  Zn117  1  0.31302064  0.81366707  0.31434246  1
  Zn  Zn118  1  0.31319389  0.80885550  0.80778318  1
  Zn  Zn119  1  0.81052395  0.31407909  0.31323718  1
  Zn  Zn120  1  0.81179662  0.30789754  0.81824850  1
  Zn  Zn121  1  0.81079377  0.81342684  0.31072495  1
  Zn  Zn122  1  0.81015364  0.81206653  0.81042125  1
  Zn  Zn123  1  0.18711201  0.43174144  0.43979062  1
  Zn  Zn124  1  0.18712407  0.44169412  0.93499186  1
  Zn  Zn125  1  0.18833772  0.93858115  0.42890358  1
  Zn  Zn126  1  0.18436359  0.93653750  0.92686623  1
  Zn  Zn127  1  0.68710773  0.43779054  0.44106968  1
  Zn  Zn128  1  0.68564847  0.44490265  0.93680388  1
  Zn  Zn129  1  0.68684271  0.93839750  0.43518806  1
  Zn  Zn130  1  0.68569451  0.94543573  0.94146966  1
  Zn  Zn131  1  0.31803320  0.06020821  0.06215346  1
  Zn  Zn132  1  0.31692745  0.06757204  0.56019913  1
  Zn  Zn133  1  0.31111977  0.56642669  0.06246505  1
  Zn  Zn134  1  0.30950671  0.55863565  0.56450045  1
  Zn  Zn135  1  0.81522306  0.05929364  0.04932744  1
  Zn  Zn136  1  0.81781774  0.06431540  0.56245643  1
  Zn  Zn137  1  0.81039049  0.56494916  0.06200790  1
  Zn  Zn138  1  0.80829334  0.56335438  0.56328304  1
  Zn  Zn139  1  0.43772479  0.43656205  0.18951933  1
  Zn  Zn140  1  0.44351900  0.43901665  0.68795829  1
  Zn  Zn141  1  0.43604837  0.93462251  0.19045098  1
  Zn  Zn142  1  0.44096100  0.93466482  0.68306694  1
  Zn  Zn143  1  0.93694257  0.44026121  0.18708501  1
  Zn  Zn144  1  0.93968723  0.43560827  0.68683965  1
  Zn  Zn145  1  0.93793664  0.93524214  0.18274350  1
  Zn  Zn146  1  0.92708402  0.93871320  0.68521943  1
  Zn  Zn147  1  0.06374655  0.06042211  0.30854294  1
  Zn  Zn148  1  0.06297355  0.06286342  0.81130934  1
  Zn  Zn149  1  0.06370889  0.56315031  0.31386195  1
  Zn  Zn150  1  0.06237028  0.56479437  0.81335749  1
  Zn  Zn151  1  0.56210947  0.06373682  0.30912154  1
  Zn  Zn152  1  0.56622304  0.05144263  0.80602454  1
  Zn  Zn153  1  0.55967137  0.56132330  0.31400495  1
  Zn  Zn154  1  0.56553361  0.56458724  0.81645623  1
  Zn  Zn155  1  0.43813654  0.19151811  0.43479735  1
  Zn  Zn156  1  0.43707949  0.18717933  0.93788851  1
  Zn  Zn157  1  0.41728350  0.66702497  0.46763577  1
  Zn  Zn158  1  0.44158566  0.69463062  0.93445090  1
  Zn  Zn159  1  0.93377952  0.18589304  0.43943926  1
  Zn  Zn160  1  0.94499030  0.19194489  0.93993362  1
  Zn  Zn161  1  0.93832922  0.68753910  0.43541189  1
  Zn  Zn162  1  0.93438308  0.68814655  0.93122289  1
  Zn  Zn163  1  0.06494669  0.31344804  0.06044284  1
  Zn  Zn164  1  0.06400171  0.31192925  0.56409145  1
  Zn  Zn165  1  0.06052031  0.80896660  0.05997759  1
  Zn  Zn166  1  0.06115075  0.81694098  0.56334051  1
  Zn  Zn167  1  0.56212363  0.31319816  0.06210442  1
  Zn  Zn168  1  0.56527818  0.31555446  0.56307063  1
  Zn  Zn169  1  0.55834131  0.81602527  0.06454352  1
  Zn  Zn170  1  0.55486144  0.80824824  0.56755394  1
  O  O171  1  0.12367918  0.12324767  0.11310540  1
  O  O172  1  0.10774615  0.11964262  0.62676293  1
  O  O173  1  0.12486632  0.62429726  0.11040296  1
  O  O174  1  0.12403315  0.61292697  0.61937246  1
  O  O175  1  0.60877884  0.12716033  0.12404284  1
  O  O176  1  0.61314538  0.13133030  0.61734416  1
  O  O177  1  0.61783611  0.62183362  0.11706293  1
  O  O178  1  0.62881114  0.61841763  0.61527619  1
  O  O179  1  0.38283667  0.38332963  0.36839907  1
  O  O180  1  0.38889467  0.37239372  0.88131979  1
  O  O181  1  0.38202903  0.88740370  0.37660418  1
  O  O182  1  0.37101930  0.88878927  0.87491531  1
  O  O183  1  0.88082828  0.37911136  0.38580581  1
  O  O184  1  0.88018160  0.37817508  0.88226963  1
  O  O185  1  0.87930755  0.88401098  0.37452483  1
  O  O186  1  0.88380429  0.87154138  0.88030185  1
  O  O187  1  0.25983329  0.00381719  0.36403665  1
  O  O188  1  0.25967061  0.00658407  0.86590754  1
  O  O189  1  0.25769052  0.49551478  0.36853394  1
  O  O190  1  0.24927894  0.51207058  0.86783572  1
  O  O191  1  0.75722854  0.00624508  0.36629332  1
  O  O192  1  0.75496807  0.00929548  0.87645850  1
  O  O193  1  0.75198689  0.50213602  0.36770482  1
  O  O194  1  0.74939570  0.52058612  0.88026798  1
  O  O195  1  0.25005851  0.49399021  0.13342469  1
  O  O196  1  0.24168842  0.49732021  0.63346765  1
  O  O197  1  0.25165598  1.00148649  0.13733883  1
  O  O198  1  0.25403580  1.00724815  0.63714991  1
  O  O199  1  0.74093305  0.49595328  0.13132505  1
  O  O200  1  0.73513313  0.49391050  0.61966716  1
  O  O201  1  0.75713707  0.99330694  0.13692948  1
  O  O202  1  0.75165156  0.98538951  0.61489418  1
  O  O203  1  -0.00108701  0.36765503  0.25820697  1
  O  O204  1  0.00918186  0.36954758  0.75575507  1
  O  O205  1  0.00716835  0.86965690  0.25478283  1
  O  O206  1  -0.00553606  0.86979108  0.75286945  1
  O  O207  1  0.49847633  0.36483816  0.26074586  1
  O  O208  1  0.50824640  0.37082340  0.75954337  1
  O  O209  1  0.50922066  0.87965845  0.25984422  1
  O  O210  1  0.52250817  0.89623250  0.75208424  1
  O  O211  1  0.49403239  0.14239635  0.25884631  1
  O  O212  1  0.49939322  0.12767276  0.74086712  1
  O  O213  1  0.48996754  0.61912559  0.24117453  1
  O  O214  1  0.50686611  0.63297432  0.74777873  1
  O  O215  1  0.99490981  0.12981591  0.24313853  1
  O  O216  1  1.00242362  0.13387720  0.74258382  1
  O  O217  1  0.99858329  0.63370206  0.25031301  1
  O  O218  1  0.98727310  0.63376024  0.75478668  1
  O  O219  1  0.37184282  0.26215581  0.00213283  1
  O  O220  1  0.36984609  0.24767439  0.50896846  1
  O  O221  1  0.36801684  0.75102904  0.00745526  1
  O  O222  1  0.37547280  0.77431360  0.48449074  1
  O  O223  1  0.87585583  0.26910146  0.00656193  1
  O  O224  1  0.86520505  0.25757618  0.50145237  1
  O  O225  1  0.88209139  0.76439646  0.00282562  1
  O  O226  1  0.86487943  0.74903797  0.50385706  1
  O  O227  1  0.13127967  0.25154258  0.49208945  1
  O  O228  1  0.13348174  0.24080987  0.99703264  1
  O  O229  1  0.11254445  0.73987981  0.49161144  1
  O  O230  1  0.13201870  0.74349530  0.99667805  1
  O  O231  1  0.63741929  0.24594479  0.50125640  1
  O  O232  1  0.61821333  0.23372311  0.99704353  1
  O  O233  1  0.62697911  0.74316058  0.49328274  1
  O  O234  1  0.61944171  0.73780784  1.00523482  1
  O  O235  1  0.49765454  0.26057209  0.14216097  1
  O  O236  1  0.49537653  0.24604177  0.62870007  1
  O  O237  1  0.49115754  0.73799237  0.12206711  1
  O  O238  1  0.48912551  0.76374210  0.64643162  1
  O  O239  1  0.99580754  0.24408112  0.12823698  1
  O  O240  1  0.99880136  0.24036747  0.63116928  1
  O  O241  1  0.99987321  0.74932903  0.13920764  1
  O  O242  1  0.98589571  0.75538309  0.63006533  1
  O  O243  1  0.00381747  0.25394795  0.37250724  1
  O  O244  1  0.00267236  0.25905470  0.86821228  1
  O  O245  1  0.00625435  0.75514135  0.36523453  1
  O  O246  1  -0.00198709  0.75804636  0.86156337  1
  O  O247  1  0.50025614  0.26389601  0.36758588  1
  O  O248  1  0.50585487  0.25749199  0.87099300  1
  O  O249  1  0.50694890  0.76227611  0.38146821  1
  O  O250  1  0.49972789  0.75220171  0.85683606  1
  O  O251  1  0.25516025  0.13958342  0.49537495  1
  O  O252  1  0.24732008  0.12705160  0.99473447  1
  O  O253  1  0.23039086  0.61427083  0.49529494  1
  O  O254  1  0.24390278  0.62987091  0.98956243  1
  O  O255  1  0.74752563  0.13129793  0.49229682  1
  O  O256  1  0.71875341  0.11850262  1.01569690  1
  O  O257  1  0.73902571  0.63114273  0.49249567  1
  O  O258  1  0.73582838  0.62699706  0.99726973  1
  O  O259  1  0.25766519  0.37371721  0.00275612  1
  O  O260  1  0.24862445  0.35898481  0.50353660  1
  O  O261  1  0.24927553  0.86190867  -0.00833325  1
  O  O262  1  0.26343909  0.88693135  0.49855938  1
  O  O263  1  0.75693978  0.37951473  0.00541132  1
  O  O264  1  0.75780774  0.36721382  0.49878862  1
  O  O265  1  0.75760623  0.88548274  0.01056427  1
  O  O266  1  0.74902745  0.86738233  0.50502269  1
  O  O267  1  0.13843222  0.49750304  0.25172245  1
  O  O268  1  0.12800070  0.49431602  0.74377013  1
  O  O269  1  0.13432958  0.99089375  0.24845642  1
  O  O270  1  0.13732707  0.99972094  0.74968980  1
  O  O271  1  0.62936933  0.50549510  0.23645369  1
  O  O272  1  0.61789972  0.49149695  0.74301020  1
  O  O273  1  0.63393985  0.99066730  0.25508982  1
  O  O274  1  0.64905952  0.98960856  0.75544405  1
  O  O275  1  0.37177997  0.00655691  0.25566588  1
  O  O276  1  0.37294325  0.00449058  0.75689315  1
  O  O277  1  0.36711462  0.50709094  0.25577467  1
  O  O278  1  0.36240421  0.49647569  0.74337177  1
  O  O279  1  0.86989694  0.00408719  0.25738940  1
  O  O280  1  0.84830163  -0.00607514  0.74574375  1
  O  O281  1  0.86455430  0.49965766  0.25829014  1
  O  O282  1  0.87627372  0.51296220  0.74420931  1
  O  O283  1  0.11466055  0.36540172  0.37375775  1
  O  O284  1  0.11737576  0.37399282  0.86786284  1
  O  O285  1  0.11836885  0.86776197  0.36673360  1
  O  O286  1  0.10941051  0.87087942  0.86738935  1
  O  O287  1  0.61660427  0.37911790  0.36966784  1
  O  O288  1  0.61516176  0.36923351  0.87459163  1
  O  O289  1  0.61866128  0.86842105  0.36873225  1
  O  O290  1  0.63519006  0.87330981  0.86575395  1
  O  O291  1  0.37431782  0.12744343  0.13812545  1
  O  O292  1  0.38763311  0.13467051  0.62985759  1
  O  O293  1  0.38116759  0.63088411  0.13342821  1
  O  O294  1  0.39078816  0.63141946  0.57435090  1
  O  O295  1  0.88115474  0.12973254  0.12876353  1
  O  O296  1  0.89056873  0.12665507  0.62471440  1
  O  O297  1  0.87640440  0.62888801  0.12737065  1
  O  O298  1  0.86399631  0.63742864  0.63093547  1
  O  O299  1  0.25407030  0.25847774  0.11822358  1
  O  O300  1  0.25876514  0.24923361  0.61978632  1
  O  O301  1  0.25892766  0.74183136  0.11285642  1
  O  O302  1  0.26152348  0.74753720  0.62973390  1
  O  O303  1  0.75895488  0.24882667  0.10745883  1
  O  O304  1  0.75199075  0.25350812  0.61655676  1
  O  O305  1  0.74948017  0.76375089  0.13252183  1
  O  O306  1  0.75019625  0.75489359  0.61205992  1
  O  O307  1  0.23983782  0.24961336  0.38108987  1
  O  O308  1  0.25151172  0.24152257  0.88048964  1
  O  O309  1  0.23628490  0.74909003  0.37410392  1
  O  O310  1  0.24822994  0.73881608  0.87977820  1
  O  O311  1  0.75550728  0.23983473  0.38190496  1
  O  O312  1  0.73899859  0.25297770  0.89167915  1
  O  O313  1  0.74198329  0.74829907  0.38451691  1
  O  O314  1  0.75648599  0.73357860  0.87821874  1
  O  O315  1  0.01168049  0.11710403  0.00192608  1
  O  O316  1  -0.00366927  0.11814913  0.50974389  1
  O  O317  1  0.00781466  0.62551153  -0.00257848  1
  O  O318  1  0.00643054  0.61073874  0.49288608  1
  O  O319  1  0.50344543  0.11615854  0.00074972  1
  O  O320  1  0.50514864  0.12080465  0.50281927  1
  O  O321  1  0.50598667  0.62039193  0.00501481  1
  O  O322  1  0.51722500  0.60772244  0.48142876  1
  O  O323  1  0.50814828  0.38114518  0.48493429  1
  O  O324  1  0.49375920  0.38305488  0.99513553  1
  O  O325  1  0.49423075  0.88368371  0.49333584  1
  O  O326  1  0.49749452  0.88911114  1.00007523  1
  O  O327  1  0.99284366  0.38098631  0.49527496  1
  O  O328  1  0.99384607  0.37556324  0.99095631  1
  O  O329  1  0.99446218  0.88496235  0.49114438  1
  O  O330  1  0.99660270  0.88006629  0.99094467  1
  O  O331  1  0.49542698  0.48671176  0.37781215  1
  O  O332  1  0.50593290  0.49405674  0.88880318  1
  O  O333  1  0.49459142  0.99323996  0.37990593  1
  O  O334  1  0.48748008  1.00694245  0.88096211  1
  O  O335  1  0.99555910  0.49171720  0.38096889  1
  O  O336  1  0.99534604  0.48748316  0.87308807  1
  O  O337  1  0.99242444  0.99756732  0.37743809  1
  O  O338  1  1.00161578  0.99342740  0.88186438  1
  O  O339  1  0.00617455  0.00639871  0.11738896  1
  O  O340  1  -0.00365700  0.00685641  0.61471208  1
  O  O341  1  0.00551070  0.50220343  0.12289863  1
  O  O342  1  0.00799204  0.49469031  0.61472965  1
  O  O343  1  0.48997481  -0.00063104  0.11158669  1
  O  O344  1  0.49503875  0.01159421  0.61253643  1
  O  O345  1  0.50385461  0.50762115  0.11793502  1
  O  O346  1  0.51093682  0.49114547  0.61092710  1
  O  O347  1  0.25137626  0.38134254  0.24133911  1
  O  O348  1  0.23938622  0.38221609  0.75296231  1
  O  O349  1  0.24149577  0.88393437  0.25608325  1
  O  O350  1  0.24831181  0.88436000  0.74794337  1
  O  O351  1  0.75218455  0.38530674  0.24197114  1
  O  O352  1  0.73758548  0.37065784  0.75540299  1
  O  O353  1  0.74173037  0.88291641  0.24542996  1
  O  O354  1  0.73863758  0.86630571  0.73477391  1
  O  O355  1  0.25950402  0.11893938  0.25414853  1
  O  O356  1  0.25619823  0.12111892  0.75562618  1
  O  O357  1  0.25710226  0.61634370  0.25361955  1
  O  O358  1  0.24427502  0.61669938  0.76571613  1
  O  O359  1  0.75260506  0.11958041  0.25324320  1
  O  O360  1  0.74840896  0.12231377  0.75730572  1
  O  O361  1  0.74870611  0.61263396  0.25560295  1
  O  O362  1  0.75271515  0.63195147  0.75867291  1
  O  O363  1  0.37781014  0.11496399  0.36737067  1
  O  O364  1  0.37038898  0.11827142  0.86827424  1
  O  O365  1  0.37371114  0.61439837  0.36994728  1
  O  O366  1  0.36200725  0.62407537  0.88356391  1
  O  O367  1  0.86615642  0.11896769  0.36676664  1
  O  O368  1  0.84599365  0.13819222  0.95198659  1
  O  O369  1  0.86642584  0.61703678  0.37477554  1
  O  O370  1  0.86407489  0.62227822  0.86455357  1
  O  O371  1  0.13921558  0.37617358  0.12489004  1
  O  O372  1  0.12642845  0.38435728  0.63378225  1
  O  O373  1  0.12233442  0.87285321  0.13748498  1
  O  O374  1  0.12909042  0.88418790  0.62467270  1
  O  O375  1  0.63153141  0.38588941  0.11761499  1
  O  O376  1  0.62648389  0.38137780  0.63836189  1
  O  O377  1  0.62969166  0.87210338  0.13677851  1
  O  O378  1  0.63611164  0.87424044  0.62090040  1
  O  O379  1  0.11788574  0.25198327  0.25632359  1
  O  O380  1  0.11744116  0.25921411  0.75044093  1
  O  O381  1  0.12072321  0.75453914  0.25686636  1
  O  O382  1  0.10895323  0.74898101  0.74675519  1
  O  O383  1  0.61513789  0.24785412  0.24745665  1
  O  O384  1  0.61943327  0.25717244  0.75960190  1
  O  O385  1  0.62855721  0.75780394  0.26333972  1
  O  O386  1  0.61081683  0.76657244  0.74506274  1
  O  O387  1  0.38116576  0.24216864  0.25010583  1
  O  O388  1  0.38344199  0.24380570  0.74486752  1
  O  O389  1  0.36730216  0.73747126  0.24549312  1
  O  O390  1  0.38732991  0.74486924  0.75211547  1
  O  O391  1  0.87967502  0.24497094  0.24432831  1
  O  O392  1  0.88905492  0.25811390  0.74970762  1
  O  O393  1  0.88409121  0.74813850  0.25141052  1
  O  O394  1  0.87958243  0.74249521  0.74070499  1
  O  O395  1  0.38553980  0.49534126  0.48903087  1
  O  O396  1  0.38275472  0.49056680  1.00534849  1
  O  O397  1  0.38496943  0.99692414  0.49047294  1
  O  O398  1  0.38354367  0.99826050  0.98944421  1
  O  O399  1  0.87993638  0.49420529  0.49658231  1
  O  O400  1  0.87748015  0.49199597  0.99898472  1
  O  O401  1  0.88082456  1.00118836  0.48471014  1
  O  O402  1  0.89193911  0.98515480  1.00665239  1
  O  O403  1  0.11972092  0.00453585  -0.00039393  1
  O  O404  1  0.11212693  -0.00027210  0.49295135  1
  O  O405  1  0.12284614  0.50961443  0.00062875  1
  O  O406  1  0.11654016  0.50220746  0.50716385  1
  O  O407  1  0.60657755  0.01147816  -0.00142232  1
  O  O408  1  0.61335590  0.00712620  0.49300519  1
  O  O409  1  0.61615937  0.51019956  0.01102959  1
  O  O410  1  0.62050215  0.50546994  0.50735572  1
  O  O411  1  0.36533521  0.37586535  0.11743045  1
  O  O412  1  0.37561414  0.36110700  0.63292404  1
  O  O413  1  0.37797371  0.85876924  0.12636288  1
  O  O414  1  0.37226281  0.88169715  0.60782705  1
  O  O415  1  0.86698693  0.37183395  0.11921669  1
  O  O416  1  0.87354132  0.37344817  0.61368178  1
  O  O417  1  0.86576722  0.87106214  0.11824685  1
  O  O418  1  0.86041033  0.86265799  0.62138238  1
  O  O419  1  0.12366626  0.13715548  0.37004733  1
  O  O420  1  0.13336505  0.12529516  0.88558583  1
  O  O421  1  0.12530245  0.63384237  0.38269585  1
  O  O422  1  0.13067381  0.62751770  0.88485718  1
  O  O423  1  0.63784065  0.12068629  0.37929420  1
  O  O424  1  0.61534503  0.13525527  0.87544176  1
  O  O425  1  0.63024904  0.63293593  0.37726235  1
  O  O426  1  0.63306319  0.62639143  0.88800810  1
