# generated using pymatgen
data_V85Zn86O256
_symmetry_space_group_name_H-M   'P 1'
_cell_length_a   16.95516904
_cell_length_b   16.95086959
_cell_length_c   16.94784382
_cell_angle_alpha   90.05557792
_cell_angle_beta   89.99280649
_cell_angle_gamma   90.03617082
_symmetry_Int_Tables_number   1
_chemical_formula_structural   V85Zn86O256
_chemical_formula_sum   'V85 Zn86 O256'
_cell_volume   4870.88936643
_cell_formula_units_Z   1
loop_
 _symmetry_equiv_pos_site_id
 _symmetry_equiv_pos_as_xyz
  1  'x, y, z'
loop_
 _atom_site_type_symbol
 _atom_site_label
 _atom_site_symmetry_multiplicity
 _atom_site_fract_x
 _atom_site_fract_y
 _atom_site_fract_z
 _atom_site_occupancy
  V  V0  1  0.62120197  0.87518852  0.75046525  1
  V  V1  1  0.87986328  0.12258249  0.73727473  1
  V  V2  1  0.50013739  0.37727536  0.37668915  1
  V  V3  1  -0.00253193  0.00420728  0.50424840  1
  V  V4  1  0.74338410  0.48598309  0.74622642  1
  V  V5  1  0.25692892  0.37129989  0.62581988  1
  V  V6  1  0.25069542  0.74560530  -0.00641711  1
  V  V7  1  0.12515964  0.50046716  0.61896210  1
  V  V8  1  0.50813499  0.11346148  0.12193375  1
  V  V9  1  0.37979717  -0.00154597  0.85969109  1
  V  V10  1  0.37776823  0.87478088  0.49779383  1
  V  V11  1  0.75906896  0.86372949  0.61290703  1
  V  V12  1  0.37223881  0.49575712  0.87891535  1
  V  V13  1  0.12326755  0.49634678  0.12252008  1
  V  V14  1  -0.00754646  0.75680381  0.76162509  1
  V  V15  1  0.48245742  0.12585929  0.62703127  1
  V  V16  1  0.87508746  0.62066647  0.24948879  1
  V  V17  1  -0.05658034  0.43889020  0.55926329  1
  V  V18  1  0.74741773  0.88045049  0.12281058  1
  V  V19  1  0.88048202  0.38813418  -0.00670008  1
  V  V20  1  0.24914031  0.50748844  0.75224112  1
  V  V21  1  0.49866753  0.00026687  0.49394723  1
  V  V22  1  0.75231510  0.61878599  0.87171687  1
  V  V23  1  0.87596802  0.75040758  0.12403145  1
  V  V24  1  0.75032470  0.12560174  0.38042021  1
  V  V25  1  0.37540476  0.62391253  0.25119233  1
  V  V26  1  0.50323861  0.37144022  0.86992612  1
  V  V27  1  0.75003565  0.37580843  0.12335669  1
  V  V28  1  0.25068599  0.75130962  0.50134204  1
  V  V29  1  0.12417366  0.25263391  0.37634665  1
  V  V30  1  0.49913008  0.75085724  0.75367758  1
  V  V31  1  0.12874545  0.87719209  0.75753650  1
  V  V32  1  0.75056829  0.75035747  -0.00190632  1
  V  V33  1  0.62216467  0.75434734  0.87553637  1
  V  V34  1  0.87254564  -0.00539284  0.37979402  1
  V  V35  1  -0.00379414  0.87553023  0.37623954  1
  V  V36  1  0.37960079  0.50173482  0.38133659  1
  V  V37  1  0.50114734  0.75266723  0.25523369  1
  V  V38  1  0.00536273  -0.00112963  -0.00182917  1
  V  V39  1  0.87663458  0.62585528  0.75384084  1
  V  V40  1  0.75092926  -0.00033898  0.74873658  1
  V  V41  1  0.12701594  0.37319874  0.75234290  1
  V  V42  1  0.25933969  0.37268405  0.11974674  1
  V  V43  1  0.75120037  0.62698898  0.38343418  1
  V  V44  1  0.61949186  0.48635465  0.62003788  1
  V  V45  1  0.62775929  0.24627440  0.86640116  1
  V  V46  1  0.12732638  0.00411530  0.62805923  1
  V  V47  1  0.49914080  0.24929673  0.24743408  1
  V  V48  1  0.25652900  0.24778834  0.50127270  1
  V  V49  1  0.49944459  0.49085030  -0.00105897  1
  V  V50  1  0.62676053  0.25015222  0.37722283  1
  V  V51  1  -0.01102963  0.38602913  0.37712510  1
  V  V52  1  -0.05896588  0.68794101  0.57878797  1
  V  V53  1  0.24658005  0.11998476  0.37161306  1
  V  V54  1  0.12216665  0.62543499  0.50643090  1
  V  V55  1  0.37033782  0.12348123  0.24711886  1
  V  V56  1  0.37449694  0.74894475  0.12353507  1
  V  V57  1  -0.00142766  0.25016848  0.25207499  1
  V  V58  1  0.24856467  0.62239069  0.37526838  1
  V  V59  1  0.75102688  0.50070701  0.25578686  1
  V  V60  1  0.12600627  0.75123650  0.37130573  1
  V  V61  1  0.75593943  0.26312321  0.50904653  1
  V  V62  1  0.37411873  0.62499116  0.75511738  1
  V  V63  1  0.37317720  -0.00439724  0.36980878  1
  V  V64  1  0.62377683  0.00177157  0.62314347  1
  V  V65  1  0.12582460  0.62134263  -0.00771811  1
  V  V66  1  0.62553763  0.37626022  0.24994508  1
  V  V67  1  0.00011554  0.62003929  0.11870289  1
  V  V68  1  0.88150848  0.87576755  -0.00423443  1
  V  V69  1  0.24903395  0.88140029  0.12958195  1
  V  V70  1  0.87558401  0.24935401  0.11866397  1
  V  V71  1  0.25546162  0.11889382  0.85568379  1
  V  V72  1  0.38067540  0.87802802  -0.00382673  1
  V  V73  1  0.00124564  0.12532033  0.12358423  1
  V  V74  1  0.48615432  0.24745702  0.74444801  1
  V  V75  1  0.62281439  0.87713702  0.25152757  1
  V  V76  1  0.74685171  0.00148914  0.24750063  1
  V  V77  1  0.13400300  0.12676775  -0.00009406  1
  V  V78  1  0.37550285  0.74858384  0.62593022  1
  V  V79  1  0.50046508  0.62354553  0.12373657  1
  V  V80  1  0.62745406  0.75230911  0.38257863  1
  V  V81  1  0.00585213  0.24175675  0.74354384  1
  V  V82  1  0.62376718  0.62419227  -0.00161130  1
  V  V83  1  0.87995626  -0.00086592  0.87299860  1
  V  V84  1  0.38103452  0.37439296  0.50160436  1
  Zn  Zn85  1  0.62452868  0.50031940  0.12400558  1
  Zn  Zn86  1  0.50176699  0.61797001  0.62060871  1
  Zn  Zn87  1  0.75204738  0.12451453  0.87680410  1
  Zn  Zn88  1  0.87948443  0.26036551  0.62282930  1
  Zn  Zn89  1  0.12849009  0.88693120  0.25416397  1
  Zn  Zn90  1  0.12527070  0.75066769  0.87621795  1
  Zn  Zn91  1  0.62301686  0.12832373  0.50341276  1
  Zn  Zn92  1  0.38021510  0.25132489  0.11476612  1
  Zn  Zn93  1  0.63100619  0.11707861  0.00107227  1
  Zn  Zn94  1  0.25188012  0.87905060  0.62927395  1
  Zn  Zn95  1  0.25809185  0.25323225  -0.00723167  1
  Zn  Zn96  1  0.87316656  0.12486227  0.24957662  1
  Zn  Zn97  1  0.13219524  0.00600839  0.13198973  1
  Zn  Zn98  1  0.12640035  0.37676613  0.24951865  1
  Zn  Zn99  1  0.00646857  0.38069222  0.88402211  1
  Zn  Zn100  1  0.50779607  0.99164514  0.99163126  1
  Zn  Zn101  1  0.12658718  0.24771342  0.87414712  1
  Zn  Zn102  1  0.25030651  0.49688247  0.25013839  1
  Zn  Zn103  1  0.00251598  0.75267076  0.24578263  1
  Zn  Zn104  1  0.61787633  0.62039279  0.50184105  1
  Zn  Zn105  1  0.12017234  0.12730610  0.50519806  1
  Zn  Zn106  1  0.74671331  0.24897888  -0.00241672  1
  Zn  Zn107  1  0.18715159  0.19054245  0.18747021  1
  Zn  Zn108  1  0.19090886  0.18660993  0.68385605  1
  Zn  Zn109  1  0.18902502  0.68726182  0.18411560  1
  Zn  Zn110  1  0.18460837  0.69170646  0.68877542  1
  Zn  Zn111  1  0.68802811  0.18866148  0.18893373  1
  Zn  Zn112  1  0.68690635  0.18703065  0.68844406  1
  Zn  Zn113  1  0.68755702  0.68889083  0.18757662  1
  Zn  Zn114  1  0.68548609  0.68381125  0.68317458  1
  Zn  Zn115  1  0.31115909  0.31244797  0.30894797  1
  Zn  Zn116  1  0.31329393  0.31213421  0.81796467  1
  Zn  Zn117  1  0.31287629  0.81156749  0.31224314  1
  Zn  Zn118  1  0.31111641  0.81559957  0.81530909  1
  Zn  Zn119  1  0.81403641  0.31166432  0.31308968  1
  Zn  Zn120  1  0.81758646  0.30729030  0.81157055  1
  Zn  Zn121  1  0.81210708  0.81025872  0.31227631  1
  Zn  Zn122  1  0.80877268  0.81457689  0.81054798  1
  Zn  Zn123  1  0.18843874  0.43608681  0.43795336  1
  Zn  Zn124  1  0.18847953  0.43909364  0.93903457  1
  Zn  Zn125  1  0.18671161  0.93825570  0.44026368  1
  Zn  Zn126  1  0.19382265  0.93977371  0.93926039  1
  Zn  Zn127  1  0.68952727  0.43816420  0.43851690  1
  Zn  Zn128  1  0.68620889  0.43387228  0.93533768  1
  Zn  Zn129  1  0.68535065  0.93545025  0.43677019  1
  Zn  Zn130  1  0.68777277  0.93995736  0.93573860  1
  Zn  Zn131  1  0.32133617  0.06265535  0.05831735  1
  Zn  Zn132  1  0.30685246  0.06011522  0.56004866  1
  Zn  Zn133  1  0.31047596  0.55991587  0.06123190  1
  Zn  Zn134  1  0.31393899  0.56252820  0.56397809  1
  Zn  Zn135  1  0.81205833  0.06389545  0.06067367  1
  Zn  Zn136  1  0.81013539  0.05804218  0.56046296  1
  Zn  Zn137  1  0.80957622  0.56144358  0.06383550  1
  Zn  Zn138  1  0.80048761  0.56101555  0.56918196  1
  Zn  Zn139  1  0.43722914  0.43952029  0.19036555  1
  Zn  Zn140  1  0.43980288  0.43346908  0.69115494  1
  Zn  Zn141  1  0.43515026  0.93648714  0.18794616  1
  Zn  Zn142  1  0.44004764  0.93498948  0.68361839  1
  Zn  Zn143  1  0.93806302  0.43709808  0.18701263  1
  Zn  Zn144  1  0.94507968  0.44893224  0.73325039  1
  Zn  Zn145  1  0.93796045  0.93867098  0.18978336  1
  Zn  Zn146  1  0.93992912  0.93261380  0.68442888  1
  Zn  Zn147  1  0.06194719  0.06294611  0.31090851  1
  Zn  Zn148  1  0.06431845  0.06051139  0.81447113  1
  Zn  Zn149  1  0.06300352  0.56329569  0.30801173  1
  Zn  Zn150  1  0.05816151  0.56381662  0.81066333  1
  Zn  Zn151  1  0.56283133  0.06306930  0.31202782  1
  Zn  Zn152  1  0.56033664  0.06636431  0.81034962  1
  Zn  Zn153  1  0.56367319  0.56349186  0.31552458  1
  Zn  Zn154  1  0.56345039  0.56294069  0.80873827  1
  Zn  Zn155  1  0.43701722  0.18567764  0.43599645  1
  Zn  Zn156  1  0.43525898  0.18542476  0.93670689  1
  Zn  Zn157  1  0.44275397  0.68732488  0.43866724  1
  Zn  Zn158  1  0.43707729  0.68494544  0.93566409  1
  Zn  Zn159  1  0.93464685  0.18602986  0.43845357  1
  Zn  Zn160  1  0.94218801  0.18779688  0.93101512  1
  Zn  Zn161  1  0.93933252  0.68312337  0.42041837  1
  Zn  Zn162  1  0.93819964  0.68417905  0.93708261  1
  Zn  Zn163  1  0.06495134  0.31191194  0.06033942  1
  Zn  Zn164  1  0.06830226  0.30688593  0.56649478  1
  Zn  Zn165  1  0.06458691  0.81043455  0.06261597  1
  Zn  Zn166  1  0.06551151  0.82306798  0.56068515  1
  Zn  Zn167  1  0.56438308  0.30719322  0.05853091  1
  Zn  Zn168  1  0.56461567  0.31025844  0.56551091  1
  Zn  Zn169  1  0.56330148  0.81294275  0.06657081  1
  Zn  Zn170  1  0.56006668  0.81446342  0.56552469  1
  O  O171  1  0.11915429  0.12677449  0.11733287  1
  O  O172  1  0.12612668  0.10915546  0.62598783  1
  O  O173  1  0.11767045  0.61946634  0.11836836  1
  O  O174  1  0.13017737  0.61859368  0.61418510  1
  O  O175  1  0.61092315  0.12894918  0.12777254  1
  O  O176  1  0.62034647  0.11142477  0.62524642  1
  O  O177  1  0.61869618  0.62499158  0.11703414  1
  O  O178  1  0.62423927  0.61253738  0.62211905  1
  O  O179  1  0.37834339  0.38202987  0.38095069  1
  O  O180  1  0.38832568  0.38472819  0.87028339  1
  O  O181  1  0.36932606  0.88770553  0.37954204  1
  O  O182  1  0.36821863  0.88858748  0.88279343  1
  O  O183  1  0.88995799  0.37437815  0.37349840  1
  O  O184  1  0.87311878  0.36825276  0.89258924  1
  O  O185  1  0.88230715  0.88168850  0.37039383  1
  O  O186  1  0.86974668  0.88701715  0.88319697  1
  O  O187  1  0.25653597  0.01282720  0.38080902  1
  O  O188  1  0.26079799  0.01188231  0.87817848  1
  O  O189  1  0.25670540  0.50588869  0.37348764  1
  O  O190  1  0.26052164  0.49291127  0.86498560  1
  O  O191  1  0.75466802  0.00548158  0.37104161  1
  O  O192  1  0.75809856  -0.00145187  0.86065835  1
  O  O193  1  0.74437484  0.50757094  0.36210444  1
  O  O194  1  0.73924643  0.51276576  0.86501961  1
  O  O195  1  0.24480899  0.48953218  0.12679258  1
  O  O196  1  0.24444783  0.49334683  0.63186871  1
  O  O197  1  0.25482146  0.98369736  0.11829297  1
  O  O198  1  0.23285440  0.99651184  0.61989227  1
  O  O199  1  0.74687404  0.49160197  0.13462206  1
  O  O200  1  0.73666421  0.49843725  0.63926682  1
  O  O201  1  0.75689582  0.99232350  0.13519692  1
  O  O202  1  0.74163580  0.99508725  0.63328432  1
  O  O203  1  0.00138314  0.36676900  0.25987354  1
  O  O204  1  0.02103216  0.36169083  0.74070058  1
  O  O205  1  0.00348754  0.87312291  0.26029689  1
  O  O206  1  0.00900418  0.86246854  0.74775941  1
  O  O207  1  0.50490166  0.36723341  0.25379292  1
  O  O208  1  0.49974438  0.35938693  0.75644670  1
  O  O209  1  0.51121636  0.86612249  0.24016672  1
  O  O210  1  0.51351124  0.86907866  0.74662005  1
  O  O211  1  0.49406410  0.13093459  0.24354716  1
  O  O212  1  0.49952010  0.13636312  0.74045447  1
  O  O213  1  0.49523650  0.63105349  0.24449556  1
  O  O214  1  0.49153194  0.63366200  0.74752759  1
  O  O215  1  0.99587131  0.13789775  0.24707522  1
  O  O216  1  0.99317835  0.12953776  0.75539071  1
  O  O217  1  0.99136737  0.62726352  0.24073521  1
  O  O218  1  0.98849730  0.64134875  0.74957450  1
  O  O219  1  0.37150102  0.24785114  0.00224454  1
  O  O220  1  0.36368548  0.25760682  0.49116391  1
  O  O221  1  0.36957505  0.75256998  0.00326747  1
  O  O222  1  0.37157561  0.75851551  0.50165960  1
  O  O223  1  0.87661244  0.25299910  0.01097459  1
  O  O224  1  0.86119851  0.24424203  0.50461949  1
  O  O225  1  0.87134952  0.75848542  0.00262437  1
  O  O226  1  0.88870064  0.73832040  0.51196793  1
  O  O227  1  0.13557675  0.24772886  0.49329590  1
  O  O228  1  0.12978848  0.24065456  0.99482848  1
  O  O229  1  0.12906320  0.74497818  0.49207028  1
  O  O230  1  0.13255668  0.74214369  0.99804108  1
  O  O231  1  0.63687939  0.24905142  0.49503668  1
  O  O232  1  0.62428741  0.24469890  0.98361337  1
  O  O233  1  0.61701227  0.75660517  0.48424891  1
  O  O234  1  0.62858698  0.74742014  0.99238212  1
  O  O235  1  0.50072982  0.24549390  0.13688933  1
  O  O236  1  0.50376592  0.24102270  0.63630344  1
  O  O237  1  0.49451025  0.74277415  0.13348733  1
  O  O238  1  0.49320270  0.75137525  0.63874918  1
  O  O239  1  0.99490824  0.24721506  0.13283154  1
  O  O240  1  1.00014379  0.24687938  0.63606227  1
  O  O241  1  0.99386849  0.74251169  0.12645631  1
  O  O242  1  1.00028248  0.75366955  0.63261808  1
  O  O243  1  0.00497262  0.25563540  0.37093521  1
  O  O244  1  0.00453383  0.25578663  0.86023431  1
  O  O245  1  0.00899057  0.75810571  0.37082340  1
  O  O246  1  0.00278549  0.75111910  0.86467258  1
  O  O247  1  0.50433620  0.25417187  0.36489127  1
  O  O248  1  0.50498809  0.25166291  0.86451912  1
  O  O249  1  0.50684652  0.74776098  0.36006356  1
  O  O250  1  0.50669758  0.74704702  0.86350486  1
  O  O251  1  0.24805860  0.13307895  0.49037496  1
  O  O252  1  0.23985026  0.12255756  1.00247107  1
  O  O253  1  0.24228683  0.63069394  0.49468825  1
  O  O254  1  0.23922663  0.63375937  1.00760684  1
  O  O255  1  0.74584997  0.12637171  0.48954300  1
  O  O256  1  0.74938990  0.13059044  0.99578288  1
  O  O257  1  0.74730292  0.62049310  0.48574235  1
  O  O258  1  0.74424345  0.62945630  0.99305193  1
  O  O259  1  0.24639031  0.37426515  0.01549362  1
  O  O260  1  0.25951296  0.36848746  0.50568568  1
  O  O261  1  0.25998909  0.86732658  0.00846729  1
  O  O262  1  0.26083978  0.86925548  0.50035878  1
  O  O263  1  0.75779253  0.37222070  0.00807710  1
  O  O264  1  0.75390103  0.36114298  0.49527900  1
  O  O265  1  0.76022859  0.87223562  0.00630756  1
  O  O266  1  0.74629066  0.88043702  0.51387038  1
  O  O267  1  0.12888767  0.50088090  0.23675132  1
  O  O268  1  0.13374004  0.49524274  0.73911125  1
  O  O269  1  0.12458144  1.00044448  0.24472365  1
  O  O270  1  0.11520843  0.98690847  0.73988869  1
  O  O271  1  0.63130696  0.49333834  0.24675333  1
  O  O272  1  0.63766126  0.50286692  0.74467776  1
  O  O273  1  0.63703368  0.99220248  0.25610297  1
  O  O274  1  0.63055395  0.99388840  0.74534036  1
  O  O275  1  0.37980207  0.00849577  0.25993904  1
  O  O276  1  0.37447500  -0.01077022  0.76064884  1
  O  O277  1  0.37408953  0.50671685  0.26229571  1
  O  O278  1  0.36893707  0.50605778  0.75607500  1
  O  O279  1  0.86329324  0.00058396  0.26018805  1
  O  O280  1  0.87192781  0.00176359  0.75479698  1
  O  O281  1  0.86610336  0.51180033  0.24123869  1
  O  O282  1  0.85359514  0.51816880  0.74307996  1
  O  O283  1  0.11869604  0.36390115  0.37616723  1
  O  O284  1  0.12827224  0.37286252  0.86547135  1
  O  O285  1  0.12160058  0.86644089  0.37405808  1
  O  O286  1  0.12896318  0.87812535  0.86166963  1
  O  O287  1  0.61941593  0.37043186  0.37057897  1
  O  O288  1  0.61224704  0.36314972  0.87802002  1
  O  O289  1  0.63121479  0.86756956  0.35982653  1
  O  O290  1  0.63260565  0.86154674  0.86604628  1
  O  O291  1  0.38512674  0.12570275  0.13444834  1
  O  O292  1  0.38341482  0.11915308  0.62037461  1
  O  O293  1  0.37984762  0.62882547  0.13059353  1
  O  O294  1  0.37549957  0.62970846  0.63737557  1
  O  O295  1  0.88178730  0.13367343  0.12713433  1
  O  O296  1  0.87286400  0.11996892  0.63586978  1
  O  O297  1  0.88158881  0.62917870  0.12631278  1
  O  O298  1  0.87218147  0.63090135  0.63319142  1
  O  O299  1  0.25152837  0.26423247  0.12579601  1
  O  O300  1  0.24811299  0.25849792  0.61421787  1
  O  O301  1  0.25677945  0.75660556  0.11576612  1
  O  O302  1  0.25702725  0.75025439  0.61707966  1
  O  O303  1  0.75871477  0.25856901  0.12634988  1
  O  O304  1  0.75154032  0.24788192  0.61271454  1
  O  O305  1  0.75621963  0.75627026  0.11680570  1
  O  O306  1  0.74146943  0.76559144  0.62660873  1
  O  O307  1  0.24283015  0.24364455  0.37933307  1
  O  O308  1  0.25033577  0.23273563  0.87317023  1
  O  O309  1  0.24434216  0.74384202  0.38115532  1
  O  O310  1  0.24843447  0.75159938  0.88936894  1
  O  O311  1  0.74831921  0.24242249  0.38156512  1
  O  O312  1  0.73787421  0.24940333  0.87176305  1
  O  O313  1  0.73981316  0.73966731  0.36730128  1
  O  O314  1  0.74261742  0.74294536  0.88040231  1
  O  O315  1  0.01213977  0.11913481  0.00134815  1
  O  O316  1  0.00292114  0.10952709  0.49140175  1
  O  O317  1  0.00727517  0.62866734  0.01109167  1
  O  O318  1  0.00376257  0.63370371  0.51145432  1
  O  O319  1  0.50000297  0.12380967  0.01658879  1
  O  O320  1  0.50117131  0.11902004  0.50701018  1
  O  O321  1  0.50542404  0.61579125  0.00276048  1
  O  O322  1  0.50302130  0.62676444  0.50640869  1
  O  O323  1  0.48645090  0.36486126  0.49630169  1
  O  O324  1  0.50392378  0.38640235  0.99463766  1
  O  O325  1  0.48627615  0.88438143  0.50370247  1
  O  O326  1  0.48472349  0.87044451  1.00704986  1
  O  O327  1  0.99979600  0.37496532  0.49435883  1
  O  O328  1  0.98603064  0.37364883  1.00143568  1
  O  O329  1  1.00511346  0.88614466  0.48401304  1
  O  O330  1  0.98876017  0.88174165  1.00738305  1
  O  O331  1  0.49132915  0.49065881  0.37082497  1
  O  O332  1  0.49702688  0.49120464  0.87794060  1
  O  O333  1  0.49035393  1.00765806  0.38640779  1
  O  O334  1  0.48418777  1.00611541  0.87232751  1
  O  O335  1  1.00639557  0.48426574  0.37138683  1
  O  O336  1  0.98849297  0.48256006  0.83602801  1
  O  O337  1  0.99046614  0.99418591  0.37792269  1
  O  O338  1  0.99451683  1.00119074  0.88917785  1
  O  O339  1  -0.00415118  0.00864344  0.11362936  1
  O  O340  1  0.01004141  -0.00854976  0.61424469  1
  O  O341  1  0.00855591  0.50862567  0.12911098  1
  O  O342  1  0.00861582  0.49087732  0.62440585  1
  O  O343  1  0.49922135  0.01229707  0.12746272  1
  O  O344  1  0.50447276  0.00625913  0.61597188  1
  O  O345  1  0.49998828  0.50410201  0.11592346  1
  O  O346  1  0.51540257  0.49917156  0.63688799  1
  O  O347  1  0.24607046  0.37664002  0.23931368  1
  O  O348  1  0.24544146  0.38009460  0.74299733  1
  O  O349  1  0.25072506  0.86758934  0.23322784  1
  O  O350  1  0.23266737  0.86644937  0.74706247  1
  O  O351  1  0.74766951  0.38196154  0.24521832  1
  O  O352  1  0.75576831  0.38889385  0.75761736  1
  O  O353  1  0.74553749  0.88178639  0.24211578  1
  O  O354  1  0.73854007  0.88151074  0.74298571  1
  O  O355  1  0.26173776  0.13245955  0.25686879  1
  O  O356  1  0.24959096  0.12033638  0.75761637  1
  O  O357  1  0.25869795  0.62533323  0.25680052  1
  O  O358  1  0.25458969  0.61416831  0.74683846  1
  O  O359  1  0.74910363  0.11813498  0.25990111  1
  O  O360  1  0.75836328  0.11507366  0.75103487  1
  O  O361  1  0.75490575  0.61743395  0.25233357  1
  O  O362  1  0.75832275  0.63121074  0.75863171  1
  O  O363  1  0.36737114  0.11735833  0.36773143  1
  O  O364  1  0.36397853  0.11175678  0.87534349  1
  O  O365  1  0.37113421  0.61797143  0.37204785  1
  O  O366  1  0.37926720  0.61509883  0.86186136  1
  O  O367  1  0.86544250  0.11705685  0.37136021  1
  O  O368  1  0.87483222  0.11193035  0.86790341  1
  O  O369  1  0.86527397  0.62570492  0.36071562  1
  O  O370  1  0.86411814  0.62955218  0.86764231  1
  O  O371  1  0.13097541  0.38250480  0.12619221  1
  O  O372  1  0.13889023  0.38185781  0.62729641  1
  O  O373  1  0.14052736  0.87352810  0.12450425  1
  O  O374  1  0.12856308  0.88363690  0.63463151  1
  O  O375  1  0.63709330  0.37253955  0.12912228  1
  O  O376  1  0.62370599  0.38645823  0.62572963  1
  O  O377  1  0.64015649  0.86849905  0.13431474  1
  O  O378  1  0.62741374  0.88670985  0.63122417  1
  O  O379  1  0.11521856  0.25221984  0.25832085  1
  O  O380  1  0.12399385  0.25498049  0.74969676  1
  O  O381  1  0.12637956  0.74755113  0.26333409  1
  O  O382  1  0.11448839  0.75807491  0.75375013  1
  O  O383  1  0.61959205  0.25671967  0.25711863  1
  O  O384  1  0.61666264  0.24621330  0.76158737  1
  O  O385  1  0.61878117  0.75651330  0.25494297  1
  O  O386  1  0.61772221  0.75541543  0.75520483  1
  O  O387  1  0.38462168  0.24126174  0.24955778  1
  O  O388  1  0.38732952  0.25112101  0.75092760  1
  O  O389  1  0.38340993  0.74489615  0.24647959  1
  O  O390  1  0.37952679  0.74448199  0.75029700  1
  O  O391  1  0.88182763  0.25111055  0.23857293  1
  O  O392  1  0.88361701  0.24060214  0.74428667  1
  O  O393  1  0.87383269  0.73827821  0.24057173  1
  O  O394  1  0.88601976  0.74871967  0.75447636  1
  O  O395  1  0.36956517  0.49117456  0.48911366  1
  O  O396  1  0.38336965  0.50747710  0.98646584  1
  O  O397  1  0.37887489  0.99390634  0.49258191  1
  O  O398  1  0.38305039  0.99144054  0.99166258  1
  O  O399  1  0.88153117  0.50077146  0.51183692  1
  O  O400  1  0.87133557  0.48672927  1.00234176  1
  O  O401  1  0.88061485  1.00202973  0.48800248  1
  O  O402  1  0.88134999  0.99442939  0.99241215  1
  O  O403  1  0.11904248  0.00423848  0.00559079  1
  O  O404  1  0.11739144  0.00107914  0.51058744  1
  O  O405  1  0.12958488  0.50802848  0.01167161  1
  O  O406  1  0.13022977  0.50728422  0.51075883  1
  O  O407  1  0.61950744  0.00240177  -0.00540511  1
  O  O408  1  0.61420803  -0.00008635  0.50560142  1
  O  O409  1  0.61717724  0.50528163  0.00011842  1
  O  O410  1  0.63026964  0.49771167  0.51539979  1
  O  O411  1  0.36238790  0.37582948  0.12992362  1
  O  O412  1  0.36495489  0.38260424  0.61685271  1
  O  O413  1  0.36703136  0.86839927  0.11984772  1
  O  O414  1  0.37180219  0.86821830  0.61669332  1
  O  O415  1  0.86710650  0.36997650  0.11838688  1
  O  O416  1  0.89153319  0.38377010  0.62694706  1
  O  O417  1  0.86624983  0.87105516  0.11952811  1
  O  O418  1  0.85789453  0.87716653  0.62919524  1
  O  O419  1  0.13190116  0.13598945  0.37566984  1
  O  O420  1  0.14000801  0.12049754  0.88072067  1
  O  O421  1  0.12483223  0.63002483  0.38621560  1
  O  O422  1  0.11915671  0.62303621  0.88867555  1
  O  O423  1  0.63225799  0.13260903  0.37654852  1
  O  O424  1  0.62669924  0.13600913  0.87359204  1
  O  O425  1  0.63276051  0.63399945  0.37582372  1
  O  O426  1  0.62978145  0.63639193  0.87779494  1
