# generated using pymatgen
data_V85Zn86O256
_symmetry_space_group_name_H-M   'P 1'
_cell_length_a   16.94416908
_cell_length_b   16.94403238
_cell_length_c   16.93492911
_cell_angle_alpha   89.97058929
_cell_angle_beta   89.95327168
_cell_angle_gamma   89.93525481
_symmetry_Int_Tables_number   1
_chemical_formula_structural   V85Zn86O256
_chemical_formula_sum   'V85 Zn86 O256'
_cell_volume   4862.05596162
_cell_formula_units_Z   1
loop_
 _symmetry_equiv_pos_site_id
 _symmetry_equiv_pos_as_xyz
  1  'x, y, z'
loop_
 _atom_site_type_symbol
 _atom_site_label
 _atom_site_symmetry_multiplicity
 _atom_site_fract_x
 _atom_site_fract_y
 _atom_site_fract_z
 _atom_site_occupancy
  V  V0  1  0.89402363  0.12840872  0.24582346  1
  V  V1  1  0.37441067  0.00817347  0.37822670  1
  V  V2  1  0.62730807  0.61758277  0.50903096  1
  V  V3  1  0.87838949  -0.00337195  0.88298112  1
  V  V4  1  0.00849388  -0.00408118  0.49884549  1
  V  V5  1  0.50276823  0.62239292  0.12184032  1
  V  V6  1  0.75269705  0.24552428  0.49135293  1
  V  V7  1  0.00454350  0.62178725  0.11724894  1
  V  V8  1  0.37551097  0.87675067  0.50733981  1
  V  V9  1  0.75545784  0.26124860  0.00939530  1
  V  V10  1  0.11774382  0.37433255  0.75006740  1
  V  V11  1  -0.00058196  -0.00567964  0.00850091  1
  V  V12  1  0.62494303  0.00049964  0.12781008  1
  V  V13  1  0.24769645  -0.00365537  0.73718216  1
  V  V14  1  0.74360263  0.48490292  0.24322473  1
  V  V15  1  0.50350758  0.12644171  0.62472549  1
  V  V16  1  0.12349408  0.37583828  0.24467527  1
  V  V17  1  0.50820546  0.74561514  0.75252924  1
  V  V18  1  0.87308500  0.62651396  0.76069978  1
  V  V19  1  0.24684405  0.50183896  0.24581490  1
  V  V20  1  0.87597346  0.37490155  0.49965195  1
  V  V21  1  0.25092602  0.24263496  0.49257852  1
  V  V22  1  0.87935094  0.87441682  0.48980079  1
  V  V23  1  0.00901912  0.49616095  -0.00150569  1
  V  V24  1  0.62581115  0.12328942  -0.00244015  1
  V  V25  1  0.55781147  0.30875131  0.19512922  1
  V  V26  1  0.00126421  0.49879789  0.49884666  1
  V  V27  1  0.75207095  0.00396076  0.75077775  1
  V  V28  1  0.13139535  0.87574835  0.24777064  1
  V  V29  1  0.49899986  0.48831280  -0.00396719  1
  V  V30  1  0.12993728  0.00048852  0.12660587  1
  V  V31  1  0.12056783  0.75642879  0.37806805  1
  V  V32  1  0.37219874  -0.00432472  0.87825040  1
  V  V33  1  0.49760706  0.12377913  0.13357039  1
  V  V34  1  -0.00038836  0.62353341  0.62523210  1
  V  V35  1  0.24737931  0.37349224  0.62380819  1
  V  V36  1  0.33621589  0.68318193  0.19550597  1
  V  V37  1  0.37685487  0.48577679  0.87609137  1
  V  V38  1  0.62762427  0.00057051  0.62355063  1
  V  V39  1  0.24353492  0.62980189  0.88211495  1
  V  V40  1  0.50592896  0.25115072  0.76783942  1
  V  V41  1  0.24734811  0.12183110  0.87651736  1
  V  V42  1  0.25171338  0.00770258  0.25402409  1
  V  V43  1  0.87416676  0.24849852  0.62707477  1
  V  V44  1  0.50121224  0.86930911  0.87676378  1
  V  V45  1  0.87056055  0.62420964  0.24707188  1
  V  V46  1  0.74911684  0.12966746  0.87895098  1
  V  V47  1  0.50039108  0.74409992  0.24689041  1
  V  V48  1  0.75266521  0.87537439  0.62369363  1
  V  V49  1  0.12078904  0.12582110  0.00696654  1
  V  V50  1  0.87573274  0.12560224  0.74980402  1
  V  V51  1  0.75039255  0.00951987  0.25552313  1
  V  V52  1  0.49987016  0.61687971  0.62378288  1
  V  V53  1  0.62332314  0.74750112  0.37505646  1
  V  V54  1  0.37721385  0.50580022  0.37261689  1
  V  V55  1  0.37559106  0.24932005  0.62550016  1
  V  V56  1  0.36971776  0.25706587  0.12567276  1
  V  V57  1  0.37287626  0.62646306  0.75137227  1
  V  V58  1  0.00302380  0.37032045  0.37031885  1
  V  V59  1  0.62613007  0.87353279  0.75307370  1
  V  V60  1  0.87678177  0.00596689  0.37482292  1
  V  V61  1  0.86379220  0.49562459  0.88328635  1
  V  V62  1  0.12749200  0.24269319  0.36947060  1
  V  V63  1  -0.00434181  0.75736424  0.25373765  1
  V  V64  1  0.62060102  0.25759091  0.37446146  1
  V  V65  1  0.87449662  0.75499286  0.11493348  1
  V  V66  1  0.88892230  0.25645054  0.12561391  1
  V  V67  1  0.37453912  0.12268279  0.75179847  1
  V  V68  1  0.24648810  0.38111019  0.11418720  1
  V  V69  1  0.00807662  0.12077918  0.62300120  1
  V  V70  1  0.12119181  0.24911894  0.87666446  1
  V  V71  1  0.12925860  0.87880524  0.74332305  1
  V  V72  1  0.74476650  0.50345907  0.73772891  1
  V  V73  1  0.62973721  0.12382017  0.49171649  1
  V  V74  1  0.75515073  0.87657822  0.11653959  1
  V  V75  1  0.12517579  0.62448001  0.49916748  1
  V  V76  1  0.62644196  0.87260160  0.25040654  1
  V  V77  1  0.24763941  0.49959410  0.74926628  1
  V  V78  1  0.24983232  0.75504677  0.50927606  1
  V  V79  1  0.37621547  0.37608864  0.49754604  1
  V  V80  1  0.25221560  0.62706541  0.37521396  1
  V  V81  1  0.36875992  0.86661977  0.01309442  1
  V  V82  1  0.74831688  0.62260320  0.36923364  1
  V  V83  1  0.00504116  0.75174909  0.75390720  1
  V  V84  1  0.87453186  0.75094587  0.62413465  1
  Zn  Zn85  1  0.24811894  0.74950942  0.01952908  1
  Zn  Zn86  1  0.50291978  -0.00325984  0.49901738  1
  Zn  Zn87  1  0.73928670  0.38096994  0.61857643  1
  Zn  Zn88  1  0.61595188  0.37783611  0.75038186  1
  Zn  Zn89  1  0.87542204  0.49806125  0.37167424  1
  Zn  Zn90  1  -0.00390424  0.24864295  0.75174851  1
  Zn  Zn91  1  0.49913798  0.37434067  0.36789149  1
  Zn  Zn92  1  0.74971333  0.74870446  0.49951611  1
  Zn  Zn93  1  0.37395448  0.13359998  0.25657290  1
  Zn  Zn94  1  0.13062898  0.11904564  0.49804239  1
  Zn  Zn95  1  0.12314405  0.75086090  0.89020354  1
  Zn  Zn96  1  0.62706227  0.62514312  -0.02075750  1
  Zn  Zn97  1  0.50489251  0.49475416  0.49981263  1
  Zn  Zn98  1  0.62758118  0.48831179  0.12104386  1
  Zn  Zn99  1  0.25428158  0.25431998  -0.00297637  1
  Zn  Zn100  1  0.37396230  0.75433010  0.62814076  1
  Zn  Zn101  1  0.49987503  0.87557780  0.37744528  1
  Zn  Zn102  1  0.49678174  -0.00124730  0.00315306  1
  Zn  Zn103  1  0.12311438  0.49819995  0.62456013  1
  Zn  Zn104  1  0.00324113  0.87471168  0.88061542  1
  Zn  Zn105  1  0.74294204  0.74715586  -0.02367750  1
  Zn  Zn106  1  -0.01204180  0.36967129  0.88009924  1
  Zn  Zn107  1  0.18752676  0.18963134  0.18672117  1
  Zn  Zn108  1  0.18726322  0.18753034  0.68832830  1
  Zn  Zn109  1  0.17204863  0.68608136  0.18721308  1
  Zn  Zn110  1  0.18518596  0.68684128  0.68894675  1
  Zn  Zn111  1  0.69461442  0.18453167  0.18334162  1
  Zn  Zn112  1  0.68781292  0.19307658  0.68421300  1
  Zn  Zn113  1  0.68666688  0.68719003  0.12068781  1
  Zn  Zn114  1  0.69008268  0.68519171  0.80653063  1
  Zn  Zn115  1  0.31201627  0.31555635  0.30852046  1
  Zn  Zn116  1  0.30702054  0.30750493  0.80840205  1
  Zn  Zn117  1  0.30853040  0.82295234  0.32405851  1
  Zn  Zn118  1  0.31395136  0.81227021  0.81223808  1
  Zn  Zn119  1  0.81697404  0.30571236  0.31266497  1
  Zn  Zn120  1  0.77289878  0.33220827  0.83098131  1
  Zn  Zn121  1  0.80828842  0.81196650  0.30748716  1
  Zn  Zn122  1  0.82095702  0.81976545  0.80909432  1
  Zn  Zn123  1  0.18879383  0.43572122  0.43455223  1
  Zn  Zn124  1  0.18356531  0.44095877  0.93123868  1
  Zn  Zn125  1  0.19159721  0.93517413  0.43476772  1
  Zn  Zn126  1  0.18681961  0.93124423  0.93593892  1
  Zn  Zn127  1  0.69006068  0.43762153  0.43401705  1
  Zn  Zn128  1  0.67881840  0.44086678  0.92912685  1
  Zn  Zn129  1  0.69143526  0.93693537  0.43611391  1
  Zn  Zn130  1  0.68629059  0.93978607  0.93766722  1
  Zn  Zn131  1  0.31039453  0.06188675  0.06449793  1
  Zn  Zn132  1  0.31518713  0.06335381  0.56175510  1
  Zn  Zn133  1  0.31115290  0.55542303  0.05635978  1
  Zn  Zn134  1  0.31214119  0.56208898  0.56288201  1
  Zn  Zn135  1  0.81514130  0.06435204  0.06727302  1
  Zn  Zn136  1  0.81561913  0.06329224  0.55999507  1
  Zn  Zn137  1  0.81130637  0.56038209  0.06400225  1
  Zn  Zn138  1  0.81541972  0.56628266  0.56016653  1
  Zn  Zn139  1  0.42604655  0.44629387  0.18122888  1
  Zn  Zn140  1  0.43744476  0.43422157  0.68915590  1
  Zn  Zn141  1  0.43819944  0.93800049  0.19233863  1
  Zn  Zn142  1  0.43845280  0.93797559  0.68807758  1
  Zn  Zn143  1  0.93628744  0.43949630  0.18656100  1
  Zn  Zn144  1  0.93203135  0.43762097  0.68893381  1
  Zn  Zn145  1  0.94102565  0.93877894  0.18734737  1
  Zn  Zn146  1  0.94082587  0.93883828  0.68708967  1
  Zn  Zn147  1  0.06204136  0.05845008  0.31690187  1
  Zn  Zn148  1  0.06138687  0.06050647  0.81356434  1
  Zn  Zn149  1  0.06096585  0.56357737  0.31115610  1
  Zn  Zn150  1  0.05918725  0.56077940  0.81605783  1
  Zn  Zn151  1  0.56035357  0.06362997  0.31514962  1
  Zn  Zn152  1  0.56174425  0.06107897  0.81401912  1
  Zn  Zn153  1  0.56255682  0.56159910  0.30763272  1
  Zn  Zn154  1  0.55788476  0.55636436  0.81076107  1
  Zn  Zn155  1  0.44317609  0.18873764  0.43783741  1
  Zn  Zn156  1  0.43329394  0.18349122  0.94494055  1
  Zn  Zn157  1  0.43851071  0.68832113  0.43871647  1
  Zn  Zn158  1  0.43717736  0.68482646  0.93859432  1
  Zn  Zn159  1  0.94103562  0.18522111  0.43392084  1
  Zn  Zn160  1  0.93715434  0.18362908  0.94218252  1
  Zn  Zn161  1  0.93650482  0.68664196  0.43551105  1
  Zn  Zn162  1  0.93550483  0.68887877  0.93886917  1
  Zn  Zn163  1  0.06181888  0.31467388  0.06255073  1
  Zn  Zn164  1  0.06229082  0.30809759  0.56009378  1
  Zn  Zn165  1  0.06675776  0.81249243  0.06493480  1
  Zn  Zn166  1  0.06131199  0.81463224  0.56501719  1
  Zn  Zn167  1  0.56363250  0.30715997  0.02700892  1
  Zn  Zn168  1  0.56353828  0.31319879  0.56577048  1
  Zn  Zn169  1  0.55700753  0.81180653  0.06362885  1
  Zn  Zn170  1  0.56203138  0.80677830  0.56454031  1
  O  O171  1  0.12982338  0.11785336  0.11647945  1
  O  O172  1  0.11162726  0.13178421  0.62121840  1
  O  O173  1  0.10297590  0.61809211  0.13162687  1
  O  O174  1  0.11681962  0.62337537  0.61797677  1
  O  O175  1  0.61973688  0.11889957  0.12031897  1
  O  O176  1  0.62071494  0.12246711  0.61567076  1
  O  O177  1  0.60579558  0.61013593  0.13821485  1
  O  O178  1  0.61847275  0.62741783  0.60863719  1
  O  O179  1  0.37402881  0.38465427  0.38197727  1
  O  O180  1  0.36205049  0.38813685  0.86902199  1
  O  O181  1  0.37874895  0.88634808  0.38880971  1
  O  O182  1  0.38234721  0.88052841  0.87958207  1
  O  O183  1  0.88501760  0.37214257  0.38376108  1
  O  O184  1  0.87168469  0.39223842  0.87032202  1
  O  O185  1  0.86906572  0.87810166  0.38584605  1
  O  O186  1  0.88169815  0.89304205  0.87137888  1
  O  O187  1  0.26072696  -0.00048750  0.36862998  1
  O  O188  1  0.25898789  0.00171264  0.86857487  1
  O  O189  1  0.25491942  0.50846938  0.36923725  1
  O  O190  1  0.25694024  0.51005122  0.86956975  1
  O  O191  1  0.76476033  -0.00418033  0.36868112  1
  O  O192  1  0.75849501  0.00789016  0.87235811  1
  O  O193  1  0.75186224  0.51045765  0.36668410  1
  O  O194  1  0.76156713  0.50561034  0.86563737  1
  O  O195  1  0.25217368  0.49511412  0.13299709  1
  O  O196  1  0.24713090  0.49216268  0.63170500  1
  O  O197  1  0.23839737  1.00063772  0.13439801  1
  O  O198  1  0.25204966  1.00595477  0.63808878  1
  O  O199  1  0.74814243  0.49501897  0.13841509  1
  O  O200  1  0.75470274  0.50399140  0.63361779  1
  O  O201  1  0.74651826  0.99363844  0.13476280  1
  O  O202  1  0.74742229  0.99473557  0.62846003  1
  O  O203  1  0.00993467  0.38546646  0.25931181  1
  O  O204  1  0.00836030  0.37305984  0.75155845  1
  O  O205  1  0.00611145  0.86203699  0.24900273  1
  O  O206  1  0.00904341  0.86897989  0.75175334  1
  O  O207  1  0.49786767  0.37417283  0.24559068  1
  O  O208  1  0.49635386  0.35573671  0.75045801  1
  O  O209  1  0.51185129  0.86786789  0.25179787  1
  O  O210  1  0.50319620  0.86652850  0.75588015  1
  O  O211  1  0.49952641  0.12420492  0.23767498  1
  O  O212  1  0.49351304  0.12925803  0.74520411  1
  O  O213  1  0.49411785  0.63479516  0.24610620  1
  O  O214  1  0.49238788  0.62921542  0.74297491  1
  O  O215  1  0.99223518  0.12202200  0.24907999  1
  O  O216  1  0.99429030  0.12407046  0.74105727  1
  O  O217  1  0.98888829  0.62915895  0.24302266  1
  O  O218  1  0.99513761  0.63269716  0.74549626  1
  O  O219  1  0.37138430  0.24514021  0.01712459  1
  O  O220  1  0.36925619  0.25562479  0.50336364  1
  O  O221  1  0.37108113  0.76253324  -0.00155748  1
  O  O222  1  0.36695857  0.75776550  0.50058320  1
  O  O223  1  0.86683587  0.24126635  0.01447529  1
  O  O224  1  0.86991446  0.25385801  0.50167334  1
  O  O225  1  0.87018648  0.75025150  0.01240027  1
  O  O226  1  0.87549105  0.75749860  0.50559668  1
  O  O227  1  0.13542433  0.25065154  0.49001684  1
  O  O228  1  0.12561099  0.24284577  0.99279826  1
  O  O229  1  0.12929182  0.74836394  0.49477083  1
  O  O230  1  0.13568791  0.75199323  1.00369630  1
  O  O231  1  0.63252758  0.24367600  0.49279415  1
  O  O232  1  0.64264643  0.23347794  1.00205976  1
  O  O233  1  0.62736296  0.73949755  0.49120112  1
  O  O234  1  0.63324294  0.74094880  1.02467726  1
  O  O235  1  0.49909009  0.25000721  0.12729445  1
  O  O236  1  0.49352646  0.23731729  0.62806157  1
  O  O237  1  0.49605290  0.73941918  0.13671885  1
  O  O238  1  0.49719851  0.73656175  0.63327144  1
  O  O239  1  0.98830521  0.24574304  0.11786062  1
  O  O240  1  0.98861455  0.24092752  0.62206660  1
  O  O241  1  0.99284904  0.74078795  0.13228772  1
  O  O242  1  0.99157581  0.74606820  0.63152026  1
  O  O243  1  0.01041309  0.26302694  0.38042458  1
  O  O244  1  0.00696724  0.25067738  0.87510040  1
  O  O245  1  0.00862648  0.74324196  0.36578606  1
  O  O246  1  0.00050714  0.75189796  0.86727722  1
  O  O247  1  0.51053281  0.25500145  0.37436081  1
  O  O248  1  0.49494243  0.24198382  0.86652087  1
  O  O249  1  0.51042677  0.74928846  0.36901216  1
  O  O250  1  0.49225549  0.75957087  0.86609118  1
  O  O251  1  0.24919063  0.13836694  0.50455311  1
  O  O252  1  0.23888991  0.12381066  0.99237553  1
  O  O253  1  0.24269987  0.63100396  0.49553127  1
  O  O254  1  0.25692916  0.62756419  0.98457510  1
  O  O255  1  0.74212877  0.13314469  0.50334960  1
  O  O256  1  0.74358420  0.12208053  0.99540649  1
  O  O257  1  0.74116895  0.62636028  0.49180883  1
  O  O258  1  0.73858797  0.63533208  1.02416082  1
  O  O259  1  0.23828805  0.37841729  0.01088470  1
  O  O260  1  0.25931897  0.36749832  0.50380856  1
  O  O261  1  0.26507717  0.87346681  -0.00113709  1
  O  O262  1  0.25889093  0.86575758  0.49742921  1
  O  O263  1  0.74594749  0.35850678  -0.00037571  1
  O  O264  1  0.76021747  0.36913468  0.49987697  1
  O  O265  1  0.74495607  0.87481612  0.01414854  1
  O  O266  1  0.75761536  0.87325001  0.51021024  1
  O  O267  1  0.13826998  0.49428961  0.25815585  1
  O  O268  1  0.12769209  0.49052823  0.75016650  1
  O  O269  1  0.13037212  0.99399163  0.24898120  1
  O  O270  1  0.13229330  0.98768120  0.75414857  1
  O  O271  1  0.63978784  0.49657377  0.25025647  1
  O  O272  1  0.64225007  0.50157180  0.75044143  1
  O  O273  1  0.63215470  0.99412432  0.25031259  1
  O  O274  1  0.63199165  0.99482156  0.74340696  1
  O  O275  1  0.36788440  0.00026157  0.25971588  1
  O  O276  1  0.36801246  0.00300581  0.75700776  1
  O  O277  1  0.35978615  0.49711051  0.26111312  1
  O  O278  1  0.36997249  0.50539172  0.75776732  1
  O  O279  1  0.87235690  0.00845362  0.25562937  1
  O  O280  1  0.87025915  0.00715423  0.75559841  1
  O  O281  1  0.86723190  0.50820619  0.25133646  1
  O  O282  1  0.87426493  0.51179046  0.75860270  1
  O  O283  1  0.12045978  0.36855137  0.36678239  1
  O  O284  1  0.12186256  0.36546376  0.86714614  1
  O  O285  1  0.12673142  0.86264545  0.36767929  1
  O  O286  1  0.12247326  0.86959111  0.86324515  1
  O  O287  1  0.62251643  0.36230368  0.37980661  1
  O  O288  1  0.66187149  0.36202496  0.85342600  1
  O  O289  1  0.62663334  0.86532692  0.36978730  1
  O  O290  1  0.61017051  0.88465215  0.86871856  1
  O  O291  1  0.38332583  0.13114876  0.12704921  1
  O  O292  1  0.38483977  0.12829876  0.63051603  1
  O  O293  1  0.38329721  0.61681802  0.12813984  1
  O  O294  1  0.37995192  0.62538149  0.63543842  1
  O  O295  1  0.87416688  0.12930752  0.14130065  1
  O  O296  1  0.88232134  0.13085086  0.62867897  1
  O  O297  1  0.88030873  0.63444401  0.13306016  1
  O  O298  1  0.88152277  0.63487957  0.62972216  1
  O  O299  1  0.25374934  0.26132110  0.12120792  1
  O  O300  1  0.25649467  0.25476943  0.61926045  1
  O  O301  1  0.26277684  0.73467800  0.13791925  1
  O  O302  1  0.25152602  0.74375426  0.61275375  1
  O  O303  1  0.76078438  0.24586693  0.11419103  1
  O  O304  1  0.76203162  0.24978290  0.61334490  1
  O  O305  1  0.76457317  0.76583134  0.14352979  1
  O  O306  1  0.76701525  0.75993327  0.62373305  1
  O  O307  1  0.24250753  0.25700023  0.38277252  1
  O  O308  1  0.23884445  0.24261484  0.87665113  1
  O  O309  1  0.24219563  0.74477725  0.38478431  1
  O  O310  1  0.25103783  0.73409312  0.86924633  1
  O  O311  1  0.74366954  0.25148464  0.38541080  1
  O  O312  1  0.76681702  0.23307487  0.89231909  1
  O  O313  1  0.73991982  0.73963385  0.37291614  1
  O  O314  1  0.75322658  0.75593141  0.86597220  1
  O  O315  1  0.01526856  0.11335598  -0.00477365  1
  O  O316  1  0.00111692  0.11504944  0.50577865  1
  O  O317  1  -0.00563223  0.61988885  0.01183336  1
  O  O318  1  0.00460898  0.61866850  0.50340004  1
  O  O319  1  0.50949284  0.12454546  0.01171121  1
  O  O320  1  0.50977758  0.12249164  0.50964904  1
  O  O321  1  0.49935627  0.61627283  0.00765916  1
  O  O322  1  0.50936269  0.62288099  0.50588309  1
  O  O323  1  0.48602323  0.37459543  0.50155120  1
  O  O324  1  0.49638036  0.38738858  0.99413940  1
  O  O325  1  0.49329415  0.87479484  0.49983062  1
  O  O326  1  0.49091905  0.87578233  0.99221094  1
  O  O327  1  0.99604568  0.38013113  0.49334343  1
  O  O328  1  1.00109129  0.39118620  0.99927772  1
  O  O329  1  0.99069931  0.88289305  0.50519690  1
  O  O330  1  1.00521464  0.88956101  1.00125804  1
  O  O331  1  0.49103563  0.49623097  0.37492796  1
  O  O332  1  0.48412386  0.49783733  0.87665013  1
  O  O333  1  0.49177474  0.99601903  0.37769583  1
  O  O334  1  0.48609343  0.99340677  0.87498774  1
  O  O335  1  0.99934681  0.49123439  0.38245048  1
  O  O336  1  0.98861540  0.50048376  0.88598635  1
  O  O337  1  0.98678174  0.99953947  0.38307048  1
  O  O338  1  0.99424053  1.00036525  0.88578574  1
  O  O339  1  0.01463784  -0.00083896  0.12123821  1
  O  O340  1  -0.00606090  0.00966801  0.61311442  1
  O  O341  1  -0.01261982  0.51194821  0.11033572  1
  O  O342  1  -0.00099034  0.50535366  0.61656597  1
  O  O343  1  0.50592353  0.00766526  0.12548712  1
  O  O344  1  0.50832629  0.01105010  0.62635338  1
  O  O345  1  0.49788990  0.50314200  0.11313108  1
  O  O346  1  0.49484229  0.51233844  0.62439096  1
  O  O347  1  0.24120676  0.38533389  0.24233245  1
  O  O348  1  0.23703752  0.37803685  0.74446372  1
  O  O349  1  0.24026853  0.88676235  0.25590954  1
  O  O350  1  0.23943797  0.88088890  0.75312464  1
  O  O351  1  0.75665609  0.38787658  0.25945877  1
  O  O352  1  0.77008140  0.39886372  0.73531115  1
  O  O353  1  0.73940955  0.88504546  0.24706965  1
  O  O354  1  0.74923665  0.88381912  0.73786791  1
  O  O355  1  0.25115633  0.11209200  0.24751936  1
  O  O356  1  0.25407475  0.11783752  0.75656185  1
  O  O357  1  0.25618198  0.62431271  0.25231384  1
  O  O358  1  0.25640474  0.61863144  0.75331432  1
  O  O359  1  0.75300795  0.11165345  0.25041623  1
  O  O360  1  0.75374739  0.12293485  0.75786177  1
  O  O361  1  0.76106537  0.61888951  0.25483530  1
  O  O362  1  0.76367574  0.61644357  0.74460789  1
  O  O363  1  0.38139746  0.11349413  0.37576301  1
  O  O364  1  0.36818935  0.11554456  0.87302943  1
  O  O365  1  0.36905836  0.61372502  0.38340622  1
  O  O366  1  0.36781929  0.61867420  0.86329116  1
  O  O367  1  0.87836384  0.11912889  0.36068528  1
  O  O368  1  0.87099041  0.11566523  0.86931446  1
  O  O369  1  0.86495332  0.62455869  0.36843424  1
  O  O370  1  0.87955843  0.61858064  0.86504225  1
  O  O371  1  0.12930297  0.37229650  0.13708546  1
  O  O372  1  0.12850502  0.37267174  0.63227286  1
  O  O373  1  0.12292808  0.88228453  0.14082318  1
  O  O374  1  0.12355856  0.87050314  0.64325940  1
  O  O375  1  0.61076795  0.36344625  0.12814637  1
  O  O376  1  0.62896114  0.36560590  0.63691255  1
  O  O377  1  0.62977540  0.88236969  0.13465349  1
  O  O378  1  0.63435917  0.87835681  0.62909037  1
  O  O379  1  0.13188457  0.26166911  0.25853016  1
  O  O380  1  0.12151764  0.25593174  0.75857512  1
  O  O381  1  0.11777723  0.75789024  0.25780125  1
  O  O382  1  0.11519339  0.75608614  0.75131223  1
  O  O383  1  0.62449799  0.25156852  0.25228210  1
  O  O384  1  0.60631443  0.23870035  0.75124395  1
  O  O385  1  0.61615779  0.75722512  0.25696846  1
  O  O386  1  0.61334029  0.75806853  0.74563732  1
  O  O387  1  0.36937031  0.24808512  0.23541526  1
  O  O388  1  0.38104331  0.24116817  0.74538075  1
  O  O389  1  0.38229791  0.75428193  0.25996006  1
  O  O390  1  0.38324044  0.74210845  0.74797121  1
  O  O391  1  0.87366632  0.23573184  0.24156355  1
  O  O392  1  0.87499420  0.24285049  0.73856843  1
  O  O393  1  0.88228669  0.74382370  0.24849602  1
  O  O394  1  0.88744562  0.74648522  0.74278650  1
  O  O395  1  0.37467096  0.49142925  0.49280222  1
  O  O396  1  0.38045396  0.50193380  0.98247934  1
  O  O397  1  0.37710349  0.99457496  0.49546993  1
  O  O398  1  0.37500104  0.99177849  0.99291979  1
  O  O399  1  0.88100356  0.49135272  0.49610241  1
  O  O400  1  0.87766048  0.50653691  0.98613514  1
  O  O401  1  0.88091499  0.99422466  0.49192137  1
  O  O402  1  0.88671833  1.00871429  0.99550090  1
  O  O403  1  0.12367158  0.00374915  0.00913072  1
  O  O404  1  0.11308178  -0.00080146  0.49053634  1
  O  O405  1  0.10760982  0.50527981  -0.00801283  1
  O  O406  1  0.11917183  0.50462994  0.49989835  1
  O  O407  1  0.62183083  0.00802187  0.00855548  1
  O  O408  1  0.62736882  0.00719850  0.50425553  1
  O  O409  1  0.61517360  0.50155070  0.00015686  1
  O  O410  1  0.62376189  0.51349707  0.49288060  1
  O  O411  1  0.35947382  0.37004110  0.12653416  1
  O  O412  1  0.36855445  0.36919022  0.61853653  1
  O  O413  1  0.38155531  0.87887694  0.11100026  1
  O  O414  1  0.37881743  0.87474818  0.61312933  1
  O  O415  1  0.87934308  0.35554866  0.13479504  1
  O  O416  1  0.87957932  0.36596245  0.61087834  1
  O  O417  1  0.86766281  0.86873009  0.13238578  1
  O  O418  1  0.87072770  0.87140620  0.61786441  1
  O  O419  1  0.11975909  0.13891585  0.37633489  1
  O  O420  1  0.12877375  0.13174002  0.87920456  1
  O  O421  1  0.12986422  0.63614025  0.37871446  1
  O  O422  1  0.14078966  0.62614085  0.86782301  1
  O  O423  1  0.61996808  0.13415909  0.38654468  1
  O  O424  1  0.63590451  0.11503590  0.88513397  1
  O  O425  1  0.63067782  0.63053085  0.37871046  1
  O  O426  1  0.61449140  0.63165969  0.86788217  1
