# generated using pymatgen
data_V85Zn86O256
_symmetry_space_group_name_H-M   'P 1'
_cell_length_a   16.94270347
_cell_length_b   16.93166142
_cell_length_c   16.93322850
_cell_angle_alpha   90.02199515
_cell_angle_beta   89.95982967
_cell_angle_gamma   89.98956790
_symmetry_Int_Tables_number   1
_chemical_formula_structural   V85Zn86O256
_chemical_formula_sum   'V85 Zn86 O256'
_cell_volume   4857.60176980
_cell_formula_units_Z   1
loop_
 _symmetry_equiv_pos_site_id
 _symmetry_equiv_pos_as_xyz
  1  'x, y, z'
loop_
 _atom_site_type_symbol
 _atom_site_label
 _atom_site_symmetry_multiplicity
 _atom_site_fract_x
 _atom_site_fract_y
 _atom_site_fract_z
 _atom_site_occupancy
  V  V0  1  0.00032107  0.74872495  0.24972707  1
  V  V1  1  0.38035087  0.73571889  0.12847753  1
  V  V2  1  0.38730552  0.74816295  0.62872494  1
  V  V3  1  0.49973912  0.73491596  0.24712362  1
  V  V4  1  0.74998201  0.75036598  0.49959759  1
  V  V5  1  0.76546470  0.26360660  0.50985803  1
  V  V6  1  0.36964918  0.01600877  0.36830764  1
  V  V7  1  0.12280194  0.75107576  0.87719517  1
  V  V8  1  0.87043712  0.26272106  0.12400449  1
  V  V9  1  -0.00153762  0.75666121  0.75451827  1
  V  V10  1  -0.00172153  0.11222907  0.11658260  1
  V  V11  1  0.49944415  0.87111966  0.87310147  1
  V  V12  1  0.63047890  0.49331136  0.12648833  1
  V  V13  1  0.24890702  0.12779932  0.87525683  1
  V  V14  1  0.62457976  0.49151370  0.62637395  1
  V  V15  1  0.25669947  0.50027482  0.24614269  1
  V  V16  1  0.00173130  0.25133505  0.24635144  1
  V  V17  1  0.12224673  0.87827511  0.75205387  1
  V  V18  1  0.74765575  0.12398381  0.38617910  1
  V  V19  1  0.38189982  0.87442292  0.00551713  1
  V  V20  1  -0.05683131  0.44402803  0.55388979  1
  V  V21  1  0.25833071  0.62502912  0.36821160  1
  V  V22  1  0.86782820  0.12380066  0.24797882  1
  V  V23  1  0.62614325  0.88000953  0.24866785  1
  V  V24  1  0.87158821  0.62107301  0.25081184  1
  V  V25  1  -0.00676284  0.13542046  0.62357153  1
  V  V26  1  0.12507419  0.61623016  0.49837597  1
  V  V27  1  0.87401313  0.87868668  -0.00755115  1
  V  V28  1  0.49474647  0.87688806  0.37121460  1
  V  V29  1  -0.00434716  0.00023215  0.49903988  1
  V  V30  1  0.75441607  0.61913707  0.87551447  1
  V  V31  1  0.86785218  0.37860471  -0.01938803  1
  V  V32  1  0.75248324  0.49346897  0.75097103  1
  V  V33  1  0.04404530  0.93528442  0.93552847  1
  V  V34  1  0.25336198  0.74730980  0.00230431  1
  V  V35  1  0.62306637  0.24276330  0.87825336  1
  V  V36  1  0.25251633  0.24633531  0.49450849  1
  V  V37  1  0.74528199  0.23488445  -0.00099476  1
  V  V38  1  0.12424528  0.62002856  -0.00148689  1
  V  V39  1  0.61955436  0.87563903  0.74849312  1
  V  V40  1  0.25127757  0.87390720  0.62396068  1
  V  V41  1  0.74934795  0.87685021  0.62676794  1
  V  V42  1  0.12525748  0.25369282  0.37055395  1
  V  V43  1  0.49741670  0.25915767  0.75489704  1
  V  V44  1  0.62777914  0.01201598  0.12327154  1
  V  V45  1  0.74912973  0.00252072  0.75896493  1
  V  V46  1  0.39349699  0.62875213  0.74893583  1
  V  V47  1  0.49149157  0.24711776  0.24873033  1
  V  V48  1  -0.00013779  0.62965520  0.62073661  1
  V  V49  1  0.24827737  0.24972448  0.00290849  1
  V  V50  1  0.37467121  0.37741331  0.48895459  1
  V  V51  1  0.48350749  0.12794450  0.12395848  1
  V  V52  1  0.25130667  0.37764867  0.62224240  1
  V  V53  1  0.62422016  0.74902109  0.37435546  1
  V  V54  1  0.86674788  0.13478647  0.75182498  1
  V  V55  1  0.87484538  0.75336768  0.62638899  1
  V  V56  1  0.62618026  0.24785945  0.38404661  1
  V  V57  1  0.62173110  0.74765304  0.87065668  1
  V  V58  1  0.37908955  0.36705967  0.00140719  1
  V  V59  1  0.61927469  0.62685369  0.50886798  1
  V  V60  1  0.12462883  0.75117858  0.37393898  1
  V  V61  1  0.49705771  0.50372308  0.50447789  1
  V  V62  1  0.25097915  0.00229292  0.74747869  1
  V  V63  1  0.12635938  0.37641011  0.75478917  1
  V  V64  1  0.11538138  0.25216731  0.87536474  1
  V  V65  1  0.12539326  0.00271096  0.62159168  1
  V  V66  1  0.24898109  0.88066583  0.13300180  1
  V  V67  1  0.74994181  0.88087147  0.12763887  1
  V  V68  1  0.63443256  0.36872403  0.24792827  1
  V  V69  1  0.61952642  0.62402773  0.00857450  1
  V  V70  1  0.86944337  -0.00123099  0.37035620  1
  V  V71  1  -0.00219774  0.38410999  0.36588162  1
  V  V72  1  0.37899193  0.00279188  0.87364122  1
  V  V73  1  0.25106947  0.37015933  0.13268900  1
  V  V74  1  0.38301498  0.49391862  0.87378363  1
  V  V75  1  -0.00093741  0.62003792  0.12292586  1
  V  V76  1  0.74993677  0.74871044  0.00145259  1
  V  V77  1  0.25367068  0.62433991  0.87113590  1
  V  V78  1  0.25095850  0.74952125  0.50060496  1
  V  V79  1  0.49923758  0.49715789  0.00732447  1
  V  V80  1  -0.00423319  0.49314179  -0.01708137  1
  V  V81  1  0.50434716  0.12871802  0.62416497  1
  V  V82  1  0.50657147  0.00674157  0.49672387  1
  V  V83  1  0.12362807  0.49036346  0.12696993  1
  V  V84  1  0.12915755  0.12429612  0.49338227  1
  Zn  Zn85  1  0.11857762  0.88552885  0.24374523  1
  Zn  Zn86  1  0.37508955  0.12887938  0.74773760  1
  Zn  Zn87  1  0.87514340  0.00582992  0.87805746  1
  Zn  Zn88  1  0.75034369  0.62087007  0.37565241  1
  Zn  Zn89  1  0.37578504  0.25037667  0.62535359  1
  Zn  Zn90  1  0.75382071  0.49073205  0.24965970  1
  Zn  Zn91  1  0.50234533  0.37619570  0.37279945  1
  Zn  Zn92  1  0.87606337  0.62647546  0.75544737  1
  Zn  Zn93  1  0.62765644  0.00510658  0.62006400  1
  Zn  Zn94  1  0.87037079  0.49748346  0.38113704  1
  Zn  Zn95  1  0.87551188  0.74993090  0.12449675  1
  Zn  Zn96  1  0.11788411  0.11537163  -0.00133804  1
  Zn  Zn97  1  0.37519067  0.87778822  0.49910773  1
  Zn  Zn98  1  0.24287974  0.01999896  0.24917374  1
  Zn  Zn99  1  0.50890291  0.01109903  -0.00408759  1
  Zn  Zn100  1  0.25335075  0.50175417  0.74754300  1
  Zn  Zn101  1  0.62312199  0.37505399  0.75745587  1
  Zn  Zn102  1  0.12543718  0.49984265  0.62470482  1
  Zn  Zn103  1  -0.00676142  0.25620242  0.74903897  1
  Zn  Zn104  1  0.38429589  0.50705919  0.36405196  1
  Zn  Zn105  1  -0.00108129  0.87703153  0.37176208  1
  Zn  Zn106  1  0.87452915  0.87591214  0.49795235  1
  Zn  Zn107  1  0.17812941  0.18529666  0.18018810  1
  Zn  Zn108  1  0.18719368  0.18983908  0.68421291  1
  Zn  Zn109  1  0.18809705  0.68585359  0.18579156  1
  Zn  Zn110  1  0.18845774  0.68859500  0.68835686  1
  Zn  Zn111  1  0.69054738  0.19158908  0.18971305  1
  Zn  Zn112  1  0.68402832  0.19078282  0.68572298  1
  Zn  Zn113  1  0.68580334  0.68858635  0.18642599  1
  Zn  Zn114  1  0.68420079  0.68552321  0.68881109  1
  Zn  Zn115  1  0.31080450  0.19476372  0.30902010  1
  Zn  Zn116  1  0.31072577  0.31295264  0.81415995  1
  Zn  Zn117  1  0.31712110  0.80920150  0.31007665  1
  Zn  Zn118  1  0.31407747  0.81116816  0.81041557  1
  Zn  Zn119  1  0.81486288  0.30990143  0.31897375  1
  Zn  Zn120  1  0.80300398  0.30755409  0.81489101  1
  Zn  Zn121  1  0.81298199  0.81147574  0.31184740  1
  Zn  Zn122  1  0.80932281  0.81247117  0.81447621  1
  Zn  Zn123  1  0.18877581  0.43484038  0.42985791  1
  Zn  Zn124  1  0.19198732  0.43669965  0.93775339  1
  Zn  Zn125  1  0.18791152  0.93740627  0.43181357  1
  Zn  Zn126  1  0.20675184  0.93681508  0.94042370  1
  Zn  Zn127  1  0.68863056  0.43650200  0.43578520  1
  Zn  Zn128  1  0.68462274  0.43032359  0.93612146  1
  Zn  Zn129  1  0.68697645  0.93657872  0.43524028  1
  Zn  Zn130  1  0.68644717  0.93926603  0.94023085  1
  Zn  Zn131  1  0.31105997  0.06289453  0.06075645  1
  Zn  Zn132  1  0.31954227  0.06378109  0.55808630  1
  Zn  Zn133  1  0.31267749  0.55764400  0.05999655  1
  Zn  Zn134  1  0.31411240  0.56518286  0.56360712  1
  Zn  Zn135  1  0.81676875  0.05976218  0.06510350  1
  Zn  Zn136  1  0.81127767  0.06496057  0.56519606  1
  Zn  Zn137  1  0.81243235  0.55856252  0.06281159  1
  Zn  Zn138  1  0.80623881  0.56859473  0.57091646  1
  Zn  Zn139  1  0.43923807  0.43043857  0.18513626  1
  Zn  Zn140  1  0.43624411  0.43851040  0.68301319  1
  Zn  Zn141  1  0.43926151  0.93951179  0.18892958  1
  Zn  Zn142  1  0.43932840  0.93912852  0.68543291  1
  Zn  Zn143  1  0.93858632  0.43799917  0.18586733  1
  Zn  Zn144  1  0.93515952  0.43680320  0.72120918  1
  Zn  Zn145  1  0.93209004  0.93529727  0.18852634  1
  Zn  Zn146  1  0.93522221  0.94294372  0.68815477  1
  Zn  Zn147  1  0.05933888  0.06488944  0.30927885  1
  Zn  Zn148  1  0.06259994  0.07311082  0.80566415  1
  Zn  Zn149  1  0.06841680  0.56300677  0.30719410  1
  Zn  Zn150  1  0.06575928  0.56527255  0.80788697  1
  Zn  Zn151  1  0.56428007  0.06548073  0.30866735  1
  Zn  Zn152  1  0.56286805  0.06661633  0.80875817  1
  Zn  Zn153  1  0.57021853  0.55817739  0.31857450  1
  Zn  Zn154  1  0.56561814  0.55831447  0.81861153  1
  Zn  Zn155  1  0.44343763  0.19034555  0.44032737  1
  Zn  Zn156  1  0.43979907  0.18881546  0.93799347  1
  Zn  Zn157  1  0.43806084  0.69028725  0.44007268  1
  Zn  Zn158  1  0.43971326  0.68519872  0.93897304  1
  Zn  Zn159  1  0.93718511  0.18920586  0.43548554  1
  Zn  Zn160  1  0.93194543  0.18871070  0.93686557  1
  Zn  Zn161  1  0.93620290  0.68531389  0.43672415  1
  Zn  Zn162  1  0.93701163  0.68823882  0.93937228  1
  Zn  Zn163  1  0.05738138  0.31225140  0.05807036  1
  Zn  Zn164  1  0.06894422  0.31182813  0.56171633  1
  Zn  Zn165  1  0.06681152  0.80645104  0.06862741  1
  Zn  Zn166  1  0.06454150  0.81324490  0.56040594  1
  Zn  Zn167  1  0.56370042  0.30999141  0.06325471  1
  Zn  Zn168  1  0.56259205  0.31346380  0.56315987  1
  Zn  Zn169  1  0.56281183  0.81253257  0.06484272  1
  Zn  Zn170  1  0.56247072  0.81875857  0.55894995  1
  O  O171  1  0.10310480  0.12561844  0.11737384  1
  O  O172  1  0.11797812  0.12049858  0.61409983  1
  O  O173  1  0.12078372  0.61555691  0.11628538  1
  O  O174  1  0.11925094  0.62492463  0.61716563  1
  O  O175  1  0.62501627  0.11353644  0.13458538  1
  O  O176  1  0.60980817  0.12152359  0.63011645  1
  O  O177  1  0.62642365  0.61964111  0.11317836  1
  O  O178  1  0.62623415  0.61912321  0.61418998  1
  O  O179  1  0.37597213  0.38310692  0.38735232  1
  O  O180  1  0.36780256  0.38541738  0.88500021  1
  O  O181  1  0.38608509  0.87773483  0.37472667  1
  O  O182  1  0.38169935  0.87915960  0.88084650  1
  O  O183  1  0.89275346  0.37767974  0.37406064  1
  O  O184  1  0.87486766  0.37166972  0.88144672  1
  O  O185  1  0.87639349  0.88374644  0.37625139  1
  O  O186  1  0.87349902  0.87375949  0.88807329  1
  O  O187  1  0.26842064  -0.00184357  0.37777863  1
  O  O188  1  0.25962666  0.00678546  0.86828822  1
  O  O189  1  0.24920030  0.50743814  0.36274836  1
  O  O190  1  0.26302760  0.50931599  0.87530730  1
  O  O191  1  0.76071165  0.00663882  0.38085310  1
  O  O192  1  0.74934364  -0.00428728  0.86224838  1
  O  O193  1  0.75207972  0.50310036  0.36863172  1
  O  O194  1  0.73776475  0.50898067  0.86388873  1
  O  O195  1  0.24277549  0.49436899  0.12656279  1
  O  O196  1  0.24857165  0.49212867  0.62588760  1
  O  O197  1  0.25809411  0.98381739  0.12711766  1
  O  O198  1  0.24737510  0.99365845  0.62661492  1
  O  O199  1  0.73496282  0.50396286  0.12816358  1
  O  O200  1  0.74006088  0.50807191  0.64212700  1
  O  O201  1  0.74345427  0.98891092  0.12278140  1
  O  O202  1  0.74768576  0.99146408  0.63216558  1
  O  O203  1  0.00012814  0.36806019  0.25800714  1
  O  O204  1  0.01853670  0.37060545  0.74848912  1
  O  O205  1  0.00089779  0.86355966  0.24900007  1
  O  O206  1  0.00606195  0.86469203  0.74259691  1
  O  O207  1  0.50994886  0.36208051  0.24933080  1
  O  O208  1  0.49969865  0.36273570  0.74367977  1
  O  O209  1  0.50739718  0.86888607  0.25585403  1
  O  O210  1  0.51140245  0.87960895  0.75719237  1
  O  O211  1  0.50273575  0.13773455  0.24063590  1
  O  O212  1  0.49593632  0.13528176  0.74239747  1
  O  O213  1  0.50871631  0.63627217  0.25822984  1
  O  O214  1  0.49243198  0.62534365  0.75812650  1
  O  O215  1  0.98855241  0.13316811  0.24212235  1
  O  O216  1  0.98872181  0.13058997  0.73945376  1
  O  O217  1  0.99250790  0.62880258  0.24428688  1
  O  O218  1  1.00253445  0.63675996  0.73841294  1
  O  O219  1  0.36421644  0.25826283  -0.00706481  1
  O  O220  1  0.36793724  0.25871610  0.49886407  1
  O  O221  1  0.37378088  0.75704294  0.00563037  1
  O  O222  1  0.36732861  0.75272807  0.50910665  1
  O  O223  1  0.86659229  0.25967951  0.00320602  1
  O  O224  1  0.86541526  0.24908518  0.49979964  1
  O  O225  1  0.86519499  0.75548895  0.00272152  1
  O  O226  1  0.86653004  0.75264757  0.50545588  1
  O  O227  1  0.13199332  0.24326463  0.49246391  1
  O  O228  1  0.13014904  0.25035380  0.99040283  1
  O  O229  1  0.13117978  0.74259848  0.49250728  1
  O  O230  1  0.13148856  0.74140058  0.99513583  1
  O  O231  1  0.62628550  0.25408891  0.48650711  1
  O  O232  1  0.63728576  0.25020318  0.99583854  1
  O  O233  1  0.62951673  0.74548056  0.49701678  1
  O  O234  1  0.62889605  0.74342749  0.99375854  1
  O  O235  1  0.50457443  0.23803733  0.13637142  1
  O  O236  1  0.49900960  0.24457294  0.63159192  1
  O  O237  1  0.49292034  0.75228763  0.13420600  1
  O  O238  1  0.48598593  0.75955509  0.62087106  1
  O  O239  1  0.99103589  0.24585983  0.13080990  1
  O  O240  1  1.00567198  0.23804108  0.62359744  1
  O  O241  1  0.99988016  0.73930651  0.13311040  1
  O  O242  1  0.99685522  0.74658503  0.63095317  1
  O  O243  1  0.00376413  0.25861084  0.36677434  1
  O  O244  1  0.01237408  0.24517283  0.87323357  1
  O  O245  1  0.00755210  0.74983553  0.36823131  1
  O  O246  1  0.00786476  0.74328788  0.86507882  1
  O  O247  1  0.50947293  0.24920193  0.36532565  1
  O  O248  1  0.50886480  0.24726777  0.86777551  1
  O  O249  1  0.50419162  0.75883868  0.36953217  1
  O  O250  1  0.50658457  0.76254907  0.88056400  1
  O  O251  1  0.24063824  0.13262845  0.50449854  1
  O  O252  1  0.24411480  0.13138129  0.99622120  1
  O  O253  1  0.24297482  0.63114005  0.49307611  1
  O  O254  1  0.24724279  0.62786863  0.98897847  1
  O  O255  1  0.75298334  0.13083418  0.48954021  1
  O  O256  1  0.75826027  0.13682913  1.00020595  1
  O  O257  1  0.74320041  0.63866256  0.50206752  1
  O  O258  1  0.74327659  0.63059319  0.99581623  1
  O  O259  1  0.25751008  0.36778452  0.00618354  1
  O  O260  1  0.25431686  0.36944048  0.50334258  1
  O  O261  1  0.26423246  0.86767884  0.00962080  1
  O  O262  1  0.25102697  0.86954481  0.50781328  1
  O  O263  1  0.76428947  0.36875260  -0.00347179  1
  O  O264  1  0.75167854  0.36306755  0.49705358  1
  O  O265  1  0.75511369  0.86716195  0.00521518  1
  O  O266  1  0.74720116  0.86470315  0.50709682  1
  O  O267  1  0.13690092  0.50336673  0.23582651  1
  O  O268  1  0.13108701  0.49221210  0.74772560  1
  O  O269  1  0.13290082  0.99448233  0.26706468  1
  O  O270  1  0.12982150  0.99676035  0.74240989  1
  O  O271  1  0.62457741  0.48882769  0.24287399  1
  O  O272  1  0.63025887  0.49869983  0.74409978  1
  O  O273  1  0.62089886  0.98627314  0.24283825  1
  O  O274  1  0.63119179  0.99252455  0.74798269  1
  O  O275  1  0.37444361  -0.00270091  0.26651783  1
  O  O276  1  0.37120271  -0.00147820  0.76112712  1
  O  O277  1  0.36271788  0.49582287  0.24654405  1
  O  O278  1  0.37624354  0.50751955  0.75736429  1
  O  O279  1  0.87631927  0.00906045  0.25899127  1
  O  O280  1  0.86543453  0.00781918  0.75338215  1
  O  O281  1  0.87316581  0.50781053  0.24932369  1
  O  O282  1  0.85839281  0.50956815  0.75331863  1
  O  O283  1  0.11269968  0.36209667  0.37968050  1
  O  O284  1  0.13567550  0.36586735  0.86584932  1
  O  O285  1  0.12348174  0.85968630  0.37495455  1
  O  O286  1  0.11901566  0.87490528  0.87777154  1
  O  O287  1  0.62256162  0.36584419  0.36645073  1
  O  O288  1  0.62589254  0.35587079  0.87399451  1
  O  O289  1  0.61678204  0.87064395  0.36700327  1
  O  O290  1  0.61775262  0.86874423  0.87079437  1
  O  O291  1  0.38507892  0.12225843  0.12682374  1
  O  O292  1  0.38641055  0.12800990  0.62643699  1
  O  O293  1  0.37192079  0.63686896  0.11680869  1
  O  O294  1  0.37011429  0.63588343  0.63695895  1
  O  O295  1  0.88060486  0.13364772  0.13108294  1
  O  O296  1  0.88379107  0.11867610  0.63747646  1
  O  O297  1  0.88133934  0.62606692  0.13059713  1
  O  O298  1  0.88405814  0.63524896  0.62872070  1
  O  O299  1  0.23968366  0.25726080  0.11060805  1
  O  O300  1  0.24996274  0.25761249  0.61115142  1
  O  O301  1  0.25909926  0.75568585  0.12010270  1
  O  O302  1  0.25366459  0.75913883  0.62163213  1
  O  O303  1  0.75737516  0.24682585  0.11167965  1
  O  O304  1  0.74408882  0.24625085  0.60719992  1
  O  O305  1  0.74669753  0.75798600  0.11280393  1
  O  O306  1  0.75360735  0.75690492  0.62123628  1
  O  O307  1  0.24055586  0.25150879  0.38540118  1
  O  O308  1  0.24289807  0.24410648  0.88368098  1
  O  O309  1  0.24457332  0.74366011  0.37686914  1
  O  O310  1  0.24562496  0.74555612  0.88222884  1
  O  O311  1  0.74536844  0.24277191  0.38495356  1
  O  O312  1  0.74009741  0.24646326  0.88849831  1
  O  O313  1  0.74330535  0.75028150  0.38434146  1
  O  O314  1  0.74026659  0.74601348  0.88570358  1
  O  O315  1  -0.00673172  0.12548900  0.01211475  1
  O  O316  1  0.00379609  0.11644461  0.50494350  1
  O  O317  1  0.00263862  0.61642031  0.00496344  1
  O  O318  1  0.00935498  0.63389838  0.51206658  1
  O  O319  1  0.49738824  0.12760200  0.01802829  1
  O  O320  1  0.49873523  0.11817697  0.50828785  1
  O  O321  1  0.50966348  0.61359838  -0.00481656  1
  O  O322  1  0.50783897  0.61820589  0.49649680  1
  O  O323  1  0.49047377  0.38220138  0.50014798  1
  O  O324  1  0.48840142  0.37905213  1.00591262  1
  O  O325  1  0.49752279  0.88308394  0.48743205  1
  O  O326  1  0.49160780  0.87719045  0.99483913  1
  O  O327  1  1.00245594  0.38222750  0.49426650  1
  O  O328  1  0.98398778  0.38207426  1.00092088  1
  O  O329  1  1.00085492  0.88928110  0.49913389  1
  O  O330  1  0.99372560  0.87075137  1.00299080  1
  O  O331  1  0.50047332  0.49680409  0.38742749  1
  O  O332  1  0.48992328  0.50049626  0.88641696  1
  O  O333  1  0.49305662  0.99742953  0.37689097  1
  O  O334  1  0.49537415  0.99192501  0.87624753  1
  O  O335  1  1.00460201  0.48666527  0.36800341  1
  O  O336  1  1.00130053  0.50681409  0.88366710  1
  O  O337  1  0.98677976  1.00153500  0.38274601  1
  O  O338  1  0.99763685  0.99695210  0.86720432  1
  O  O339  1  -0.00851687  0.01365391  0.12795955  1
  O  O340  1  0.00654613  0.00805845  0.61774169  1
  O  O341  1  0.00819404  0.50274789  0.11778045  1
  O  O342  1  -0.00025745  0.50694500  0.62135929  1
  O  O343  1  0.50583755  0.01416707  0.12688842  1
  O  O344  1  0.49967220  0.00640842  0.61410568  1
  O  O345  1  0.50899693  0.49705393  0.11387186  1
  O  O346  1  0.50728861  0.49989606  0.61345054  1
  O  O347  1  0.24748438  0.38235799  0.23334337  1
  O  O348  1  0.24373451  0.37519292  0.73960977  1
  O  O349  1  0.25197159  0.87066495  0.23666722  1
  O  O350  1  0.24304215  0.88133633  0.74484695  1
  O  O351  1  0.73913949  0.36913838  0.25306991  1
  O  O352  1  0.74898620  0.39025961  0.75431622  1
  O  O353  1  0.74077134  0.86584708  0.23840545  1
  O  O354  1  0.74029241  0.88067865  0.74655632  1
  O  O355  1  0.25196503  0.13168786  0.24126898  1
  O  O356  1  0.25162440  0.11876037  0.75337333  1
  O  O357  1  0.24645298  0.61727035  0.25794151  1
  O  O358  1  0.25403701  0.62613780  0.76225938  1
  O  O359  1  0.76380821  0.13351776  0.26028896  1
  O  O360  1  0.76016756  0.11840924  0.74135655  1
  O  O361  1  0.76389460  0.63057520  0.24900951  1
  O  O362  1  0.74780708  0.61967534  0.76058931  1
  O  O363  1  0.37605135  0.11994090  0.37566649  1
  O  O364  1  0.37044121  0.11618678  0.87466504  1
  O  O365  1  0.36177814  0.62468026  0.38031071  1
  O  O366  1  0.37044849  0.62044833  0.86909737  1
  O  O367  1  0.86920415  0.11925832  0.36794123  1
  O  O368  1  0.87848987  0.12430153  0.85643958  1
  O  O369  1  0.87438203  0.62015787  0.36609525  1
  O  O370  1  0.85807280  0.63249081  0.87646961  1
  O  O371  1  0.13159241  0.38522996  0.11412489  1
  O  O372  1  0.13660553  0.37734032  0.62906776  1
  O  O373  1  0.14469164  0.86928612  0.12485991  1
  O  O374  1  0.13520746  0.88100739  0.62856234  1
  O  O375  1  0.62232661  0.38143363  0.13353941  1
  O  O376  1  0.62358928  0.38869801  0.62769469  1
  O  O377  1  0.63054015  0.88109265  0.13143736  1
  O  O378  1  0.63005842  0.87594966  0.63430022  1
  O  O379  1  0.11000991  0.24499786  0.25670095  1
  O  O380  1  0.12641049  0.25649868  0.75817646  1
  O  O381  1  0.11457136  0.74779483  0.25583256  1
  O  O382  1  0.12050896  0.75898872  0.75756280  1
  O  O383  1  0.62001428  0.25462456  0.25798728  1
  O  O384  1  0.61893980  0.25181343  0.75997335  1
  O  O385  1  0.61855508  0.75834896  0.25339637  1
  O  O386  1  0.62961704  0.75753196  0.76354414  1
  O  O387  1  0.39339485  0.25757659  0.25773299  1
  O  O388  1  0.38167140  0.24981134  0.74938982  1
  O  O389  1  0.38679585  0.74998007  0.24049722  1
  O  O390  1  0.37302634  0.74159854  0.74182547  1
  O  O391  1  0.88185788  0.24604910  0.24290492  1
  O  O392  1  0.87185949  0.23961539  0.74939377  1
  O  O393  1  0.88644361  0.74292009  0.24920237  1
  O  O394  1  0.88282334  0.75060324  0.74672963  1
  O  O395  1  0.38280741  0.49629494  0.50049898  1
  O  O396  1  0.38280104  0.49282097  0.99419430  1
  O  O397  1  0.38609439  0.99874018  0.48607454  1
  O  O398  1  0.37633844  0.99192052  0.98859296  1
  O  O399  1  0.87731856  0.50516024  0.50254472  1
  O  O400  1  0.87929982  0.48646794  1.00071189  1
  O  O401  1  0.88157849  0.99968899  0.49464813  1
  O  O402  1  0.87277615  0.98866160  0.99512955  1
  O  O403  1  0.11532444  -0.00738750  -0.01327208  1
  O  O404  1  0.11922806  0.00744987  0.49915438  1
  O  O405  1  0.11735978  0.50271297  0.00240552  1
  O  O406  1  0.13047544  0.51363573  0.49804591  1
  O  O407  1  0.62192525  -0.00624895  0.01526756  1
  O  O408  1  0.61121533  -0.00470709  0.49878922  1
  O  O409  1  0.61907021  0.50321769  0.00522853  1
  O  O410  1  0.62066801  0.50717860  0.50734156  1
  O  O411  1  0.36417965  0.37777106  0.11289388  1
  O  O412  1  0.36312429  0.37439172  0.61593280  1
  O  O413  1  0.37106005  0.86893264  0.11945156  1
  O  O414  1  0.36385472  0.87054694  0.62658551  1
  O  O415  1  0.87608356  0.36450624  0.12158359  1
  O  O416  1  0.89319277  0.38999220  0.61971083  1
  O  O417  1  0.86523258  0.87176048  0.11704283  1
  O  O418  1  0.86714478  0.87077544  0.62334764  1
  O  O419  1  0.11295388  0.13853242  0.38739164  1
  O  O420  1  0.13083659  0.13259444  0.87757114  1
  O  O421  1  0.13136939  0.63379555  0.38024551  1
  O  O422  1  0.13492818  0.62961655  0.87885532  1
  O  O423  1  0.63734069  0.13310940  0.36702405  1
  O  O424  1  0.62094420  0.14042592  0.87448582  1
  O  O425  1  0.62919923  0.63251591  0.38814630  1
  O  O426  1  0.63123803  0.63259378  0.88489496  1
