# generated using pymatgen
data_V85Zn86O256
_symmetry_space_group_name_H-M   'P 1'
_cell_length_a   16.94481294
_cell_length_b   16.94483260
_cell_length_c   16.93259387
_cell_angle_alpha   90.01735651
_cell_angle_beta   90.06664798
_cell_angle_gamma   90.01200297
_symmetry_Int_Tables_number   1
_chemical_formula_structural   V85Zn86O256
_chemical_formula_sum   'V85 Zn86 O256'
_cell_volume   4861.80158079
_cell_formula_units_Z   1
loop_
 _symmetry_equiv_pos_site_id
 _symmetry_equiv_pos_as_xyz
  1  'x, y, z'
loop_
 _atom_site_type_symbol
 _atom_site_label
 _atom_site_symmetry_multiplicity
 _atom_site_fract_x
 _atom_site_fract_y
 _atom_site_fract_z
 _atom_site_occupancy
  V  V0  1  -0.00140897  0.24512837  0.25587621  1
  V  V1  1  0.49972414  0.61814017  0.11551299  1
  V  V2  1  0.75286711  0.24586521  0.49826924  1
  V  V3  1  0.37339333  0.60840904  0.25435919  1
  V  V4  1  0.25481228  0.60844816  0.36898584  1
  V  V5  1  0.24654747  0.13854408  0.37656344  1
  V  V6  1  0.62487164  0.61613060  -0.00603490  1
  V  V7  1  0.12161782  0.62269109  0.49765036  1
  V  V8  1  0.25060853  0.87375994  0.12579795  1
  V  V9  1  0.12889872  0.50111295  0.13418784  1
  V  V10  1  0.36736468  0.25150542  0.61811148  1
  V  V11  1  0.24708282  0.00172970  0.74907239  1
  V  V12  1  0.75134634  0.00419416  0.74995813  1
  V  V13  1  0.50401700  0.38218680  0.37589006  1
  V  V14  1  0.24494291  0.13610092  0.87280530  1
  V  V15  1  -0.00068580  0.87064982  0.87236840  1
  V  V16  1  0.87604550  0.88078589  0.49529797  1
  V  V17  1  0.75337451  0.12896595  0.87380980  1
  V  V18  1  0.87601696  0.49531456  0.37811749  1
  V  V19  1  0.87519888  0.86754108  0.00551502  1
  V  V20  1  0.37469369  0.00225552  0.87326440  1
  V  V21  1  0.75111946  0.62324691  0.37390423  1
  V  V22  1  0.76907278  0.36298383  0.11844437  1
  V  V23  1  0.87456407  0.24623901  0.63568773  1
  V  V24  1  0.12077678  0.00186438  0.62047667  1
  V  V25  1  0.87483830  -0.00297613  0.86960346  1
  V  V26  1  0.27261873  0.72192639  0.51560426  1
  V  V27  1  0.38141802  0.50084829  0.87091905  1
  V  V28  1  0.25406689  0.74511467  -0.00216678  1
  V  V29  1  -0.00156830  0.36814109  0.38086920  1
  V  V30  1  0.50097639  -0.00660073  -0.00640214  1
  V  V31  1  0.11893822  0.86725867  0.25186960  1
  V  V32  1  0.24995944  0.38216492  0.63169149  1
  V  V33  1  -0.00448173  0.49519678  0.50653513  1
  V  V34  1  0.50110873  0.25145378  0.74927104  1
  V  V35  1  0.50042366  0.87504441  0.37284990  1
  V  V36  1  0.24584517  0.61183353  0.85997420  1
  V  V37  1  0.62699388  0.00693696  0.61762174  1
  V  V38  1  0.49691722  0.74536537  0.25531292  1
  V  V39  1  0.12600160  0.13182688  -0.00003484  1
  V  V40  1  0.87802188  0.12074532  0.26400037  1
  V  V41  1  0.12512584  0.13818152  0.49619276  1
  V  V42  1  0.24817753  0.87391783  0.61773482  1
  V  V43  1  0.62606283  0.49392719  0.12813029  1
  V  V44  1  0.37506612  0.74537633  0.12617558  1
  V  V45  1  0.75099312  0.74084569  -0.00172528  1
  V  V46  1  0.12388328  0.62409919  0.00317361  1
  V  V47  1  0.74857688  0.86689197  0.12549820  1
  V  V48  1  0.87577458  0.63272126  0.76124384  1
  V  V49  1  -0.00241211  0.00269824  0.48806933  1
  V  V50  1  0.62042276  0.87360954  0.75349663  1
  V  V51  1  0.37572381  0.00305716  0.37098865  1
  V  V52  1  0.36631255  0.37674616  0.48966523  1
  V  V53  1  0.50606870  0.24962437  0.25150064  1
  V  V54  1  0.63003504  0.25034966  0.87831171  1
  V  V55  1  0.11679319  0.87119896  0.74495500  1
  V  V56  1  -0.00226661  0.63215996  0.63005658  1
  V  V57  1  0.37375671  0.87476419  -0.00232940  1
  V  V58  1  -0.00133202  -0.00095078  0.00130145  1
  V  V59  1  0.12701280  0.37336827  0.25955087  1
  V  V60  1  0.12109652  0.74775599  0.87112269  1
  V  V61  1  0.50430500  0.13064145  0.61494847  1
  V  V62  1  0.01148257  0.24903997  0.75305431  1
  V  V63  1  -0.00927743  0.49623008  0.00769608  1
  V  V64  1  0.62465067  0.62108764  0.50773498  1
  V  V65  1  -0.00113237  0.63792503  0.13149719  1
  V  V66  1  0.75409877  0.50431114  0.75935199  1
  V  V67  1  0.24928944  -0.00090173  0.24911919  1
  V  V68  1  -0.05846085  0.18025367  0.07804627  1
  V  V69  1  0.75930667  0.37983312  0.62093648  1
  V  V70  1  0.62787843  0.37742128  0.74913217  1
  V  V71  1  0.12096840  0.00566050  0.12583565  1
  V  V72  1  0.50104172  0.12443480  0.12223242  1
  V  V73  1  0.37466696  0.12595068  0.24659261  1
  V  V74  1  0.37505406  0.12662455  0.74751707  1
  V  V75  1  0.61978031  0.74649013  0.87344390  1
  V  V76  1  0.50196066  0.37700666  0.88521007  1
  V  V77  1  0.37445706  0.88344147  0.50154257  1
  V  V78  1  0.25032396  0.37516290  0.12791335  1
  V  V79  1  0.75152205  0.87633610  0.62593741  1
  V  V80  1  0.88067371  0.63902602  0.25052913  1
  V  V81  1  0.75303445  -0.00295360  0.25542324  1
  V  V82  1  0.00101807  0.37524275  0.88054292  1
  V  V83  1  0.75354063  0.74931332  0.50150530  1
  V  V84  1  0.63003595  0.12334713  -0.00132578  1
  Zn  Zn85  1  -0.00270837  0.12511717  0.62857018  1
  Zn  Zn86  1  0.43953799  0.69723444  0.67482918  1
  Zn  Zn87  1  0.87166393  0.49654023  0.88386722  1
  Zn  Zn88  1  -0.00729168  0.86759788  0.36778643  1
  Zn  Zn89  1  0.46015353  0.83686254  0.82766736  1
  Zn  Zn90  1  0.75480982  0.49582843  0.24901218  1
  Zn  Zn91  1  0.62141426  0.24274689  0.38876700  1
  Zn  Zn92  1  0.37402169  0.25109384  0.12043327  1
  Zn  Zn93  1  0.62415022  0.74878249  0.37449248  1
  Zn  Zn94  1  0.12873444  0.74589429  0.37696753  1
  Zn  Zn95  1  0.62373678  0.87356385  0.24759543  1
  Zn  Zn96  1  0.62614267  -0.00441518  0.12413720  1
  Zn  Zn97  1  0.24990738  0.25397033  -0.00130489  1
  Zn  Zn98  1  0.74467986  0.11446460  0.38255152  1
  Zn  Zn99  1  0.51058918  0.01111611  0.48928008  1
  Zn  Zn100  1  0.12851484  0.50297037  0.63457482  1
  Zn  Zn101  1  0.63314753  0.37186203  0.25318967  1
  Zn  Zn102  1  0.87896454  0.75297298  0.63138082  1
  Zn  Zn103  1  0.49667500  0.50008655  0.50463172  1
  Zn  Zn104  1  0.13232969  0.38267171  0.76434268  1
  Zn  Zn105  1  0.37600682  0.37624084  0.00292755  1
  Zn  Zn106  1  0.61937330  0.50457040  0.63022565  1
  Zn  Zn107  1  0.18481345  0.19147218  0.18998730  1
  Zn  Zn108  1  0.18672654  0.18977038  0.68252333  1
  Zn  Zn109  1  0.18947614  0.68546050  0.18929007  1
  Zn  Zn110  1  0.18363224  0.68758521  0.68475421  1
  Zn  Zn111  1  0.69295810  0.18556459  0.18730392  1
  Zn  Zn112  1  0.68920459  0.18893591  0.68856763  1
  Zn  Zn113  1  0.68610761  0.68530797  0.18719325  1
  Zn  Zn114  1  0.69093007  0.68931761  0.69076270  1
  Zn  Zn115  1  0.31677109  0.31520977  0.30544450  1
  Zn  Zn116  1  0.31759855  0.31496460  0.81134900  1
  Zn  Zn117  1  0.31041879  0.80344062  0.32137007  1
  Zn  Zn118  1  0.29742553  0.80895917  0.80611250  1
  Zn  Zn119  1  0.81674543  0.31217951  0.30704371  1
  Zn  Zn120  1  0.81786941  0.31626952  0.81373648  1
  Zn  Zn121  1  0.81095294  0.81248889  0.31521669  1
  Zn  Zn122  1  0.80554105  0.81103156  0.81699908  1
  Zn  Zn123  1  0.18389057  0.43609819  0.44225835  1
  Zn  Zn124  1  0.18114768  0.43909778  0.94368118  1
  Zn  Zn125  1  0.18649571  0.94559822  0.43439974  1
  Zn  Zn126  1  0.18742985  0.94022445  0.93620448  1
  Zn  Zn127  1  0.68876880  0.43414930  0.43780388  1
  Zn  Zn128  1  0.69243109  0.43474906  0.94282864  1
  Zn  Zn129  1  0.68713665  0.93491444  0.43528416  1
  Zn  Zn130  1  0.68759153  0.93309439  0.93621151  1
  Zn  Zn131  1  0.31105893  0.06349668  0.06102560  1
  Zn  Zn132  1  0.30951281  0.06518930  0.55903826  1
  Zn  Zn133  1  0.31410375  0.55747307  0.05701882  1
  Zn  Zn134  1  0.31767627  0.55477800  0.56072907  1
  Zn  Zn135  1  0.80774943  0.05274341  0.06143389  1
  Zn  Zn136  1  0.81730653  0.06620431  0.56507573  1
  Zn  Zn137  1  0.80995734  0.56235600  0.07121118  1
  Zn  Zn138  1  0.81447893  0.56257990  0.56730917  1
  Zn  Zn139  1  0.44184204  0.43498905  0.18635582  1
  Zn  Zn140  1  0.43817142  0.44492965  0.68992369  1
  Zn  Zn141  1  0.43887927  0.93706606  0.18486134  1
  Zn  Zn142  1  0.43756045  0.94460493  0.67841554  1
  Zn  Zn143  1  0.93905816  0.44036195  0.19378678  1
  Zn  Zn144  1  0.93939139  0.43843926  0.69458578  1
  Zn  Zn145  1  0.93667148  0.93910244  0.18636436  1
  Zn  Zn146  1  0.93798682  0.93705476  0.68346558  1
  Zn  Zn147  1  0.06425550  0.06261476  0.31300431  1
  Zn  Zn148  1  0.06212108  0.06321649  0.81202876  1
  Zn  Zn149  1  0.06012998  0.55959590  0.31544850  1
  Zn  Zn150  1  0.05780058  0.55708699  0.81245670  1
  Zn  Zn151  1  0.57096278  0.06529213  0.31001403  1
  Zn  Zn152  1  0.56203717  0.06199283  0.80824877  1
  Zn  Zn153  1  0.56505551  0.56227958  0.31164418  1
  Zn  Zn154  1  0.56013630  0.56410863  0.80444742  1
  Zn  Zn155  1  0.43463071  0.19313536  0.43479679  1
  Zn  Zn156  1  0.43697440  0.19045582  0.93877609  1
  Zn  Zn157  1  0.44661422  0.70054490  0.49914185  1
  Zn  Zn158  1  0.43657940  0.67815084  0.83898347  1
  Zn  Zn159  1  0.93096928  0.19106830  0.44493621  1
  Zn  Zn160  1  0.93606585  0.18688020  0.91459495  1
  Zn  Zn161  1  0.93965103  0.68990799  0.43712436  1
  Zn  Zn162  1  0.93941845  0.68500510  0.94188007  1
  Zn  Zn163  1  0.06549716  0.31875325  0.06480387  1
  Zn  Zn164  1  0.06101720  0.31450995  0.56640107  1
  Zn  Zn165  1  0.06575114  0.81437488  0.06176639  1
  Zn  Zn166  1  0.06279872  0.80616280  0.54718850  1
  Zn  Zn167  1  0.57042443  0.30783270  0.06371132  1
  Zn  Zn168  1  0.56445573  0.31748697  0.56314776  1
  Zn  Zn169  1  0.56184711  0.80683206  0.06112312  1
  Zn  Zn170  1  0.56944762  0.81850332  0.56078169  1
  O  O171  1  0.13250560  0.11190444  0.11834908  1
  O  O172  1  0.12420450  0.11697686  0.61600145  1
  O  O173  1  0.11873515  0.61880765  0.12658648  1
  O  O174  1  0.11661919  0.62160733  0.61899340  1
  O  O175  1  0.62052402  0.12183283  0.11369167  1
  O  O176  1  0.61641099  0.11929818  0.63170285  1
  O  O177  1  0.61932918  0.61441657  0.12100926  1
  O  O178  1  0.63259279  0.62669078  0.61082701  1
  O  O179  1  0.38187600  0.36761020  0.38515025  1
  O  O180  1  0.38637251  0.37903594  0.87752708  1
  O  O181  1  0.37831973  0.88939728  0.37414845  1
  O  O182  1  0.36765205  0.88446178  0.88051143  1
  O  O183  1  0.88499829  0.38460980  0.37116665  1
  O  O184  1  0.89148837  0.37747894  0.87542322  1
  O  O185  1  0.87536335  0.87182866  0.39060004  1
  O  O186  1  0.87853950  0.87777707  0.88296124  1
  O  O187  1  0.25910489  0.00743609  0.36618402  1
  O  O188  1  0.25481108  0.00886993  0.86753728  1
  O  O189  1  0.24401751  0.50941705  0.37474450  1
  O  O190  1  0.24686130  0.50931627  0.87581001  1
  O  O191  1  0.74946942  -0.00542578  0.36042922  1
  O  O192  1  0.75547315  0.00389422  0.86858109  1
  O  O193  1  0.75894125  0.50556239  0.37510155  1
  O  O194  1  0.75300623  0.49355962  0.86401600  1
  O  O195  1  0.23555037  0.49591735  0.12218988  1
  O  O196  1  0.25357209  0.48584715  0.62565986  1
  O  O197  1  0.24341977  0.99331890  0.12871396  1
  O  O198  1  0.23760019  0.99566428  0.62768675  1
  O  O199  1  0.74213760  0.49160277  0.12935418  1
  O  O200  1  0.75040731  0.49240264  0.63676936  1
  O  O201  1  0.74885152  0.98349013  0.13123588  1
  O  O202  1  0.74656902  0.99936675  0.63265494  1
  O  O203  1  0.00530641  0.36704886  0.26055796  1
  O  O204  1  0.00354038  0.36589337  0.75844606  1
  O  O205  1  0.01462357  0.87891089  0.24991775  1
  O  O206  1  0.01029935  0.87773351  0.75359927  1
  O  O207  1  0.50186772  0.36512078  0.25792329  1
  O  O208  1  0.51121038  0.37030930  0.75923230  1
  O  O209  1  0.49735578  0.86742128  0.25746652  1
  O  O210  1  0.51526345  0.88774904  0.74255622  1
  O  O211  1  0.49614796  0.12748412  0.23929988  1
  O  O212  1  0.49399282  0.13083059  0.73980080  1
  O  O213  1  0.49200971  0.62989457  0.24733272  1
  O  O214  1  0.48343376  0.62402365  0.75051680  1
  O  O215  1  0.99342594  0.13112451  0.25583379  1
  O  O216  1  1.00664024  0.14234111  0.74986669  1
  O  O217  1  0.98945635  0.62442827  0.24784425  1
  O  O218  1  0.98582878  0.62298174  0.74399609  1
  O  O219  1  0.37035174  0.25643441  0.00209869  1
  O  O220  1  0.37877004  0.26214416  0.50850806  1
  O  O221  1  0.36118496  0.75658463  0.00342364  1
  O  O222  1  0.36213805  0.77769182  0.47763227  1
  O  O223  1  0.88868204  0.23157857  0.01233030  1
  O  O224  1  0.86557854  0.25350211  0.51930203  1
  O  O225  1  0.86461485  0.75579401  -0.00651549  1
  O  O226  1  0.86411546  0.75515069  0.50379533  1
  O  O227  1  0.11813688  0.23692071  0.50397334  1
  O  O228  1  0.12376846  0.23436361  1.00821601  1
  O  O229  1  0.14321470  0.73108119  0.50666914  1
  O  O230  1  0.13556710  0.74640579  0.99388551  1
  O  O231  1  0.64776998  0.25521708  0.50887072  1
  O  O232  1  0.62281364  0.23866324  0.98584482  1
  O  O233  1  0.63867585  0.74105540  0.49659809  1
  O  O234  1  0.63130854  0.73886576  0.99593297  1
  O  O235  1  0.50081552  0.23700376  0.12730775  1
  O  O236  1  0.49453751  0.24711925  0.63004806  1
  O  O237  1  0.49265438  0.74144397  0.13296037  1
  O  O238  1  0.48918625  0.75199670  0.59340773  1
  O  O239  1  1.00005995  0.24608990  0.13284787  1
  O  O240  1  0.99033085  0.25291166  0.63527592  1
  O  O241  1  1.00639023  0.73708923  0.12124282  1
  O  O242  1  0.99964526  0.73589145  0.61767088  1
  O  O243  1  -0.00670757  0.26086911  0.37341036  1
  O  O244  1  0.00295284  0.25665341  0.86141568  1
  O  O245  1  0.01766158  0.76081149  0.40073984  1
  O  O246  1  0.01448580  0.75372572  0.88239953  1
  O  O247  1  0.50186388  0.25606616  0.36598204  1
  O  O248  1  0.50910880  0.25516499  0.86834987  1
  O  O249  1  0.49855433  0.76006783  0.36919379  1
  O  O250  1  0.51433240  0.75376653  0.88639439  1
  O  O251  1  0.23915084  0.12167221  0.48897252  1
  O  O252  1  0.24162500  0.12544598  0.99059316  1
  O  O253  1  0.24058316  0.61542114  0.48937851  1
  O  O254  1  0.24260889  0.63163229  0.99495120  1
  O  O255  1  0.75718741  0.14054238  0.50121366  1
  O  O256  1  0.73754526  0.11423779  0.99006869  1
  O  O257  1  0.74767872  0.63114336  0.49429260  1
  O  O258  1  0.74229836  0.63377309  1.00794351  1
  O  O259  1  0.24198266  0.37243772  0.01607584  1
  O  O260  1  0.26195573  0.37473979  0.50483254  1
  O  O261  1  0.25136521  0.86844626  0.00545284  1
  O  O262  1  0.25369121  0.88334528  0.50774154  1
  O  O263  1  0.75051990  0.37580910  0.01839806  1
  O  O264  1  0.74985687  0.37114359  0.51713642  1
  O  O265  1  0.75663196  0.86697857  0.00602487  1
  O  O266  1  0.75556787  0.86893433  0.50446053  1
  O  O267  1  0.11690941  0.48822615  0.24411453  1
  O  O268  1  0.12054527  0.49449615  0.74642747  1
  O  O269  1  0.12950521  0.99355326  0.24144202  1
  O  O270  1  0.12775584  0.99379940  0.74141311  1
  O  O271  1  0.63093605  0.49809647  0.24149565  1
  O  O272  1  0.63454814  0.49307383  0.75079044  1
  O  O273  1  0.63618929  0.99509487  0.24322195  1
  O  O274  1  0.63328158  0.99500509  0.74203125  1
  O  O275  1  0.37077722  0.00597854  0.25319398  1
  O  O276  1  0.36765808  0.00710012  0.75150750  1
  O  O277  1  0.37815721  0.50973721  0.24737312  1
  O  O278  1  0.36742104  0.48775139  0.77068746  1
  O  O279  1  0.86788258  0.00746141  0.24620364  1
  O  O280  1  0.86766360  -0.00890802  0.76085176  1
  O  O281  1  0.87693338  0.51093227  0.26544553  1
  O  O282  1  0.86943218  0.51094229  0.75497222  1
  O  O283  1  0.11608908  0.37867726  0.36740218  1
  O  O284  1  0.10998370  0.37617779  0.87968342  1
  O  O285  1  0.13092561  0.87815366  0.35762662  1
  O  O286  1  0.12217695  0.86860392  0.86573791  1
  O  O287  1  0.61900544  0.36537819  0.37458952  1
  O  O288  1  0.62401534  0.36829825  0.86961985  1
  O  O289  1  0.61326589  0.87196220  0.37172214  1
  O  O290  1  0.62588242  0.86794219  0.86437543  1
  O  O291  1  0.38384369  0.12427021  0.12822020  1
  O  O292  1  0.37976138  0.13242004  0.62696930  1
  O  O293  1  0.38084400  0.62650639  0.12946802  1
  O  O294  1  0.35493067  0.66044215  0.57268734  1
  O  O295  1  0.87725473  0.11974322  0.13001061  1
  O  O296  1  0.87777959  0.14073381  0.62993218  1
  O  O297  1  0.88262615  0.62233704  0.14314657  1
  O  O298  1  0.88163901  0.62910270  0.63585161  1
  O  O299  1  0.25123079  0.25982146  0.12498057  1
  O  O300  1  0.26279453  0.25604175  0.62530287  1
  O  O301  1  0.25504118  0.75226523  0.11764670  1
  O  O302  1  0.24694416  0.76309014  0.61793199  1
  O  O303  1  0.74929342  0.26364432  0.12716921  1
  O  O304  1  0.76052733  0.25643822  0.62681725  1
  O  O305  1  0.74588248  0.75878503  0.11700645  1
  O  O306  1  0.75149818  0.75908776  0.61824496  1
  O  O307  1  0.25715843  0.23689243  0.36695279  1
  O  O308  1  0.25174940  0.23927437  0.87334603  1
  O  O309  1  0.24695828  0.73324532  0.38967379  1
  O  O310  1  0.23952848  0.74007542  0.88121188  1
  O  O311  1  0.75739615  0.25732533  0.39412232  1
  O  O312  1  0.74600423  0.23795468  0.86825396  1
  O  O313  1  0.74851654  0.74136789  0.38284626  1
  O  O314  1  0.73562366  0.75372893  0.88912932  1
  O  O315  1  0.00162701  0.12229923  0.00576737  1
  O  O316  1  0.00433801  0.11803652  0.50170783  1
  O  O317  1  0.00598563  0.62000661  0.01167440  1
  O  O318  1  0.00501432  0.61599258  0.50666220  1
  O  O319  1  0.50836332  0.11661752  0.00296067  1
  O  O320  1  0.49590039  0.12848040  0.51084064  1
  O  O321  1  0.50998040  0.62793064  0.01487580  1
  O  O322  1  0.52282776  0.61774554  0.48321435  1
  O  O323  1  0.49255877  0.37190693  0.49052128  1
  O  O324  1  0.50561231  0.36957466  0.98733573  1
  O  O325  1  0.49233272  0.88526854  0.48649648  1
  O  O326  1  0.49434045  0.88706449  1.00517211  1
  O  O327  1  1.00414599  0.38488822  0.49494687  1
  O  O328  1  1.00271908  0.38543663  0.99771516  1
  O  O329  1  0.99138613  0.88694286  0.50583854  1
  O  O330  1  0.99372974  0.87770204  0.99332649  1
  O  O331  1  0.50731006  0.48499193  0.37638860  1
  O  O332  1  0.48966687  0.49260668  0.87335206  1
  O  O333  1  0.49285475  0.99596746  0.37056851  1
  O  O334  1  0.49037626  1.00527884  0.88177918  1
  O  O335  1  0.99439786  0.49129753  0.38556518  1
  O  O336  1  0.99730003  0.49433508  0.89033738  1
  O  O337  1  1.00451886  0.99257264  0.38596549  1
  O  O338  1  0.99244067  0.99372880  0.87900872  1
  O  O339  1  0.01050074  -0.00578464  0.11541197  1
  O  O340  1  0.01020227  0.00379472  0.62128843  1
  O  O341  1  0.00845009  0.50700661  0.12373089  1
  O  O342  1  -0.00500099  0.50835566  0.61752272  1
  O  O343  1  0.50143140  0.00995047  0.11578989  1
  O  O344  1  0.51000741  0.01287029  0.61928588  1
  O  O345  1  0.51012375  0.50775549  0.12900239  1
  O  O346  1  0.50655308  0.49339769  0.61867628  1
  O  O347  1  0.23911299  0.37032360  0.24164969  1
  O  O348  1  0.24901184  0.36702958  0.73502792  1
  O  O349  1  0.24499669  0.87885415  0.24443351  1
  O  O350  1  0.23714105  0.88167354  0.73866483  1
  O  O351  1  0.75024376  0.37593346  0.23944827  1
  O  O352  1  0.74513595  0.38104537  0.74582128  1
  O  O353  1  0.75079233  0.87677344  0.24193775  1
  O  O354  1  0.74221491  0.88567430  0.74696144  1
  O  O355  1  0.25479043  0.11887243  0.25367482  1
  O  O356  1  0.25190753  0.12167698  0.75454732  1
  O  O357  1  0.25728049  0.62717682  0.26056651  1
  O  O358  1  0.24806825  0.62916856  0.76211953  1
  O  O359  1  0.75980026  0.11392405  0.24869189  1
  O  O360  1  0.74523762  0.11189355  0.75872483  1
  O  O361  1  0.76186394  0.62530323  0.25731375  1
  O  O362  1  0.76369589  0.61704355  0.74623704  1
  O  O363  1  0.37103681  0.11719867  0.36938737  1
  O  O364  1  0.36706981  0.12102431  0.86834753  1
  O  O365  1  0.35943536  0.62089255  0.36747008  1
  O  O366  1  0.35643648  0.61034139  0.88196279  1
  O  O367  1  0.86860391  0.12595881  0.36697801  1
  O  O368  1  0.86351454  0.11132295  0.87569743  1
  O  O369  1  0.86921540  0.62186721  0.36956564  1
  O  O370  1  0.87997030  0.62268297  0.86400413  1
  O  O371  1  0.12919028  0.38284233  0.13731732  1
  O  O372  1  0.14516904  0.37540344  0.61671755  1
  O  O373  1  0.13047341  0.88222994  0.13407281  1
  O  O374  1  0.12753965  0.88022791  0.62666035  1
  O  O375  1  0.62328318  0.38622191  0.12659137  1
  O  O376  1  0.63552364  0.37288802  0.64006812  1
  O  O377  1  0.63361915  0.87365388  0.12467141  1
  O  O378  1  0.63339206  0.88488319  0.63078858  1
  O  O379  1  0.11000536  0.25836101  0.24810586  1
  O  O380  1  0.11360988  0.25890329  0.74079841  1
  O  O381  1  0.13004223  0.76486963  0.25042288  1
  O  O382  1  0.12945297  0.75955592  0.75824115  1
  O  O383  1  0.61303434  0.24815127  0.24590600  1
  O  O384  1  0.62313157  0.25639971  0.76027872  1
  O  O385  1  0.60955758  0.74792927  0.25152727  1
  O  O386  1  0.62988034  0.75936667  0.75932561  1
  O  O387  1  0.38867505  0.24233923  0.24452778  1
  O  O388  1  0.38208206  0.24486226  0.74125854  1
  O  O389  1  0.38299657  0.74261410  0.24689583  1
  O  O390  1  0.39010145  0.76020414  0.76598686  1
  O  O391  1  0.88843760  0.23818639  0.25121102  1
  O  O392  1  0.88590934  0.25212309  0.74196999  1
  O  O393  1  0.87823108  0.73811759  0.25785885  1
  O  O394  1  0.86772228  0.73772069  0.75222739  1
  O  O395  1  0.37896359  0.48076063  0.49844741  1
  O  O396  1  0.36580951  0.49042445  0.98061833  1
  O  O397  1  0.37668239  0.99699685  0.48907533  1
  O  O398  1  0.38068705  0.99549813  0.99394522  1
  O  O399  1  0.88261874  0.50734978  0.48917994  1
  O  O400  1  0.88737107  0.51132199  1.00353858  1
  O  O401  1  0.88463465  0.99350138  0.50674644  1
  O  O402  1  0.87857874  0.99011075  0.98922826  1
  O  O403  1  0.11867884  0.00723809  0.00577846  1
  O  O404  1  0.11641309  0.00599701  0.50585289  1
  O  O405  1  0.11448159  0.50852799  0.01235621  1
  O  O406  1  0.11522963  0.50815348  0.50669141  1
  O  O407  1  0.61640254  0.00445566  -0.00280576  1
  O  O408  1  0.62865202  -0.00251154  0.51329083  1
  O  O409  1  0.63091009  0.51135716  0.00644381  1
  O  O410  1  0.63415864  0.51351165  0.50356273  1
  O  O411  1  0.36429131  0.37614357  0.12551637  1
  O  O412  1  0.36592587  0.36897112  0.61769364  1
  O  O413  1  0.36983936  0.86765462  0.11844558  1
  O  O414  1  0.36275658  0.88681590  0.61292012  1
  O  O415  1  0.86868246  0.37717527  0.12967331  1
  O  O416  1  0.86664733  0.36582190  0.63535124  1
  O  O417  1  0.87021761  0.87644211  0.11130152  1
  O  O418  1  0.86882017  0.87268469  0.61677342  1
  O  O419  1  0.13500324  0.12025827  0.38314416  1
  O  O420  1  0.13369091  0.11763512  0.88568437  1
  O  O421  1  0.13130744  0.62252971  0.38128460  1
  O  O422  1  0.13105957  0.62996711  0.87906987  1
  O  O423  1  0.63244454  0.13064270  0.37530475  1
  O  O424  1  0.63157395  0.13040635  0.87789238  1
  O  O425  1  0.64075317  0.62418817  0.37970118  1
  O  O426  1  0.62008267  0.63085799  0.88355014  1
