# generated using pymatgen
data_V85Zn86O256
_symmetry_space_group_name_H-M   'P 1'
_cell_length_a   16.93138350
_cell_length_b   16.93064239
_cell_length_c   16.93406836
_cell_angle_alpha   90.01535513
_cell_angle_beta   90.02647474
_cell_angle_gamma   89.97099303
_symmetry_Int_Tables_number   1
_chemical_formula_structural   V85Zn86O256
_chemical_formula_sum   'V85 Zn86 O256'
_cell_volume   4854.30515793
_cell_formula_units_Z   1
loop_
 _symmetry_equiv_pos_site_id
 _symmetry_equiv_pos_as_xyz
  1  'x, y, z'
loop_
 _atom_site_type_symbol
 _atom_site_label
 _atom_site_symmetry_multiplicity
 _atom_site_fract_x
 _atom_site_fract_y
 _atom_site_fract_z
 _atom_site_occupancy
  V  V0  1  0.76277437  0.62247310  0.87148107  1
  V  V1  1  0.75220063  0.12783622  0.87446400  1
  V  V2  1  0.37295025  0.50074980  0.87970984  1
  V  V3  1  0.74672875  0.37881653  0.62320343  1
  V  V4  1  0.12580074  0.37517377  0.75068361  1
  V  V5  1  0.87706689  0.73988834  0.12579664  1
  V  V6  1  0.00584467  0.74100978  0.25138296  1
  V  V7  1  -0.00215164  0.87642333  0.87451050  1
  V  V8  1  0.38079818  0.63568540  0.25363095  1
  V  V9  1  0.37796947  0.36612076  0.50525312  1
  V  V10  1  0.26114567  0.36987224  0.62314733  1
  V  V11  1  0.24924325  0.50387338  0.75174894  1
  V  V12  1  0.38082374  0.00107198  0.37633541  1
  V  V13  1  0.86570507  0.36438025  -0.00655307  1
  V  V14  1  0.62493490  0.49268931  0.12998284  1
  V  V15  1  -0.01315483  0.50046476  0.00179518  1
  V  V16  1  0.49693658  0.25141039  0.73639683  1
  V  V17  1  0.12739953  0.50670048  0.62554946  1
  V  V18  1  0.25278777  0.12568906  0.87479909  1
  V  V19  1  0.12341375  0.75277933  0.87750291  1
  V  V20  1  0.87258626  0.87625114  0.00065619  1
  V  V21  1  0.12325527  0.63236472  0.49916733  1
  V  V22  1  0.86934450  0.74507951  0.62573581  1
  V  V23  1  0.24394971  0.12817868  0.38944345  1
  V  V24  1  0.00141281  0.25024844  0.25309917  1
  V  V25  1  0.50378740  0.86067466  0.87288154  1
  V  V26  1  0.62420407  0.62775064  -0.00719915  1
  V  V27  1  0.86551599  0.11994972  0.24874023  1
  V  V28  1  0.37104519  0.87805738  0.00571165  1
  V  V29  1  0.62645221  0.25068902  0.87668041  1
  V  V30  1  0.12464578  0.12664757  0.00138367  1
  V  V31  1  0.62075566  0.85742494  0.74902106  1
  V  V32  1  0.62533952  0.38372501  0.74640776  1
  V  V33  1  0.75201231  0.87653410  0.13412239  1
  V  V34  1  0.37697841  0.25144828  0.13076374  1
  V  V35  1  0.73844413  0.00132578  0.74624027  1
  V  V36  1  0.24769799  0.50093371  0.25218489  1
  V  V37  1  -0.00063927  0.12640820  0.12727779  1
  V  V38  1  0.87296808  0.37324053  0.49460724  1
  V  V39  1  0.11866322  0.62219920  0.00965714  1
  V  V40  1  0.00972613  -0.00626251  0.51173751  1
  V  V41  1  0.63090117  0.73856245  0.36843456  1
  V  V42  1  0.37929587  0.00245118  0.87185821  1
  V  V43  1  0.50030310  0.12989545  0.12980638  1
  V  V44  1  0.74539163  0.75233512  -0.00630504  1
  V  V45  1  -0.00632417  0.74264484  0.75101085  1
  V  V46  1  0.50103186  0.63505500  0.12814742  1
  V  V47  1  0.49971923  0.37433778  0.87441680  1
  V  V48  1  0.13243497  -0.00642566  0.12804308  1
  V  V49  1  0.37851725  0.50024569  0.37854616  1
  V  V50  1  0.24896393  0.62862890  0.87715782  1
  V  V51  1  0.00980655  0.87379506  0.37162927  1
  V  V52  1  0.38130908  0.12867488  0.73611588  1
  V  V53  1  0.76774985  0.50068424  0.75332764  1
  V  V54  1  0.87052188  0.24019903  0.62083713  1
  V  V55  1  -0.00160185  0.50361776  0.49680674  1
  V  V56  1  0.62323817  0.12658699  0.51453029  1
  V  V57  1  0.61418764  0.86928622  0.24933850  1
  V  V58  1  0.50181630  0.00158324  -0.00216226  1
  V  V59  1  0.51142048  0.50191035  0.50175486  1
  V  V60  1  0.38036853  0.87276939  0.50414440  1
  V  V61  1  0.86919618  -0.00461681  0.37116433  1
  V  V62  1  0.24813504  0.75568088  0.01025921  1
  V  V63  1  0.50634125  0.00219334  0.51594115  1
  V  V64  1  0.75122825  0.49712892  0.25553719  1
  V  V65  1  0.86963181  0.87069624  0.49835679  1
  V  V66  1  0.62969622  0.00103227  0.13153080  1
  V  V67  1  0.37347726  0.37532067  0.00204006  1
  V  V68  1  0.24767326  0.62998252  0.37765806  1
  V  V69  1  0.25168356  0.75136917  0.50290863  1
  V  V70  1  0.49995880  0.50058625  0.00302658  1
  V  V71  1  0.62039877  0.24590984  0.35776205  1
  V  V72  1  0.24536828  0.37539474  0.12871910  1
  V  V73  1  0.00160725  0.24101146  0.75005755  1
  V  V74  1  0.64005073  0.62835640  0.50364556  1
  V  V75  1  0.62926483  0.12732073  -0.00035324  1
  V  V76  1  0.05819441  0.16866077  0.56704848  1
  V  V77  1  -0.00068928  0.00055898  -0.00077040  1
  V  V78  1  0.50163581  0.36918592  0.36109961  1
  V  V79  1  0.12504193  0.25211893  0.87577765  1
  V  V80  1  0.12204823  0.87839701  0.74167291  1
  V  V81  1  0.37469099  0.12979385  0.25462665  1
  V  V82  1  0.24942645  0.25168655  0.00172479  1
  V  V83  1  0.24659855  0.00050989  0.74291131  1
  V  V84  1  0.74329564  0.87498113  0.62114459  1
  Zn  Zn85  1  0.86812938  0.50868096  0.37889799  1
  Zn  Zn86  1  0.13367951  0.86699436  0.24951668  1
  Zn  Zn87  1  0.12426942  0.37285791  0.25758948  1
  Zn  Zn88  1  -0.00675089  0.38151584  0.86971852  1
  Zn  Zn89  1  0.74310237  0.11846742  0.37225592  1
  Zn  Zn90  1  0.87654590  0.11679417  0.74285822  1
  Zn  Zn91  1  0.39195754  0.63729067  0.75541352  1
  Zn  Zn92  1  0.37513102  0.76200803  0.13526892  1
  Zn  Zn93  1  0.74560978  0.36777931  0.12334943  1
  Zn  Zn94  1  0.12624653  0.24769330  0.38584042  1
  Zn  Zn95  1  0.50588915  0.63007713  0.63056741  1
  Zn  Zn96  1  0.50105415  0.86948178  0.37378112  1
  Zn  Zn97  1  0.87250622  0.00100588  0.87140659  1
  Zn  Zn98  1  0.38220257  0.74800497  0.63617259  1
  Zn  Zn99  1  -0.00811442  0.62192625  0.63098895  1
  Zn  Zn100  1  0.74575767  0.24869006  0.49325653  1
  Zn  Zn101  1  0.86558729  0.24762264  0.12183765  1
  Zn  Zn102  1  0.25392811  -0.00576419  0.25005883  1
  Zn  Zn103  1  0.24725212  0.87695220  0.62272321  1
  Zn  Zn104  1  0.87014061  0.62522553  0.25698086  1
  Zn  Zn105  1  0.11583464  0.50224283  0.13083613  1
  Zn  Zn106  1  0.00172839  0.37397644  0.37362121  1
  Zn  Zn107  1  0.18847227  0.18377366  0.19301755  1
  Zn  Zn108  1  0.19626812  0.18916915  0.68867954  1
  Zn  Zn109  1  0.18989723  0.68785480  0.18932954  1
  Zn  Zn110  1  0.19007020  0.69206589  0.68912338  1
  Zn  Zn111  1  0.68996555  0.18972774  0.18482176  1
  Zn  Zn112  1  0.68716087  0.19327169  0.69060267  1
  Zn  Zn113  1  0.68844863  0.68440938  0.18567292  1
  Zn  Zn114  1  0.69026278  0.68361300  0.68546982  1
  Zn  Zn115  1  0.31240500  0.31078798  0.31756269  1
  Zn  Zn116  1  0.31370052  0.31364834  0.80955861  1
  Zn  Zn117  1  0.30895110  0.81646398  0.31842860  1
  Zn  Zn118  1  0.31182860  0.81547238  0.81614779  1
  Zn  Zn119  1  0.80841937  0.31200884  0.30741524  1
  Zn  Zn120  1  0.81443386  0.31101019  0.81049663  1
  Zn  Zn121  1  0.81259444  0.80782915  0.31332969  1
  Zn  Zn122  1  0.80974099  0.81287517  0.81213433  1
  Zn  Zn123  1  0.18887429  0.43598416  0.43892154  1
  Zn  Zn124  1  0.18104466  0.43955048  0.94018985  1
  Zn  Zn125  1  0.19135492  0.94062931  0.43578675  1
  Zn  Zn126  1  0.18721876  0.93929394  0.93465173  1
  Zn  Zn127  1  0.68407532  0.43098895  0.43176577  1
  Zn  Zn128  1  0.68824275  0.44243588  0.93460465  1
  Zn  Zn129  1  0.68538642  0.93486010  0.43532887  1
  Zn  Zn130  1  0.68506495  0.93901812  0.93466447  1
  Zn  Zn131  1  0.31353837  0.06449187  0.06213531  1
  Zn  Zn132  1  0.31428066  0.06117685  0.56221699  1
  Zn  Zn133  1  0.31086449  0.56659235  0.06703143  1
  Zn  Zn134  1  0.31925771  0.56405223  0.56454610  1
  Zn  Zn135  1  0.81125860  0.06322328  0.06088483  1
  Zn  Zn136  1  0.80826301  0.05546724  0.55747098  1
  Zn  Zn137  1  0.80766407  0.56019041  0.06357935  1
  Zn  Zn138  1  0.81163868  0.55911583  0.56537697  1
  Zn  Zn139  1  0.43369379  0.44502466  0.18770679  1
  Zn  Zn140  1  0.44610324  0.46350700  0.69493436  1
  Zn  Zn141  1  0.43917897  0.94445679  0.18784437  1
  Zn  Zn142  1  0.43858402  0.93199967  0.68860053  1
  Zn  Zn143  1  0.93178173  0.43507847  0.18311984  1
  Zn  Zn144  1  0.93866302  0.43036302  0.68124244  1
  Zn  Zn145  1  0.94105629  0.93554355  0.18796711  1
  Zn  Zn146  1  0.92989259  0.93393905  0.68828031  1
  Zn  Zn147  1  0.05921837  0.06017408  0.31491429  1
  Zn  Zn148  1  0.06330921  0.06323650  0.81139895  1
  Zn  Zn149  1  0.06151225  0.56501177  0.31624288  1
  Zn  Zn150  1  0.06057529  0.56357022  0.82030788  1
  Zn  Zn151  1  0.56084312  0.06235873  0.31256404  1
  Zn  Zn152  1  0.56239262  0.06294549  0.80656000  1
  Zn  Zn153  1  0.56535098  0.56114398  0.31147919  1
  Zn  Zn154  1  0.56865749  0.56279453  0.81461176  1
  Zn  Zn155  1  0.44220351  0.18645980  0.44070993  1
  Zn  Zn156  1  0.44036250  0.18924456  0.93627159  1
  Zn  Zn157  1  0.44570115  0.69075200  0.43979541  1
  Zn  Zn158  1  0.43311241  0.68842928  0.94209161  1
  Zn  Zn159  1  0.93164594  0.18565644  0.43020285  1
  Zn  Zn160  1  0.93740010  0.18737404  0.93322027  1
  Zn  Zn161  1  0.93332123  0.68883727  0.43549596  1
  Zn  Zn162  1  0.93786665  0.68770941  0.94152170  1
  Zn  Zn163  1  0.05636692  0.31680969  0.06390260  1
  Zn  Zn164  1  0.06513633  0.33123308  0.56371176  1
  Zn  Zn165  1  0.05872686  0.81160623  0.06531435  1
  Zn  Zn166  1  0.05788785  0.81067308  0.56341524  1
  Zn  Zn167  1  0.56275417  0.30996381  0.06111319  1
  Zn  Zn168  1  0.56244934  0.31538740  0.55675550  1
  Zn  Zn169  1  0.56228981  0.81407762  0.05994038  1
  Zn  Zn170  1  0.56496250  0.80618482  0.55954459  1
  O  O171  1  0.11848379  0.11866647  0.11948683  1
  O  O172  1  0.12259433  0.12257681  0.62683829  1
  O  O173  1  0.13118351  0.62382358  0.11287412  1
  O  O174  1  0.12537091  0.61706718  0.62140014  1
  O  O175  1  0.61881783  0.11844777  0.12188602  1
  O  O176  1  0.62706589  0.12946768  0.61340487  1
  O  O177  1  0.61707114  0.61690333  0.11607559  1
  O  O178  1  0.62667399  0.62522804  0.60825097  1
  O  O179  1  0.37878140  0.38267252  0.38304909  1
  O  O180  1  0.37811680  0.38098201  0.88233281  1
  O  O181  1  0.37893845  0.88351540  0.38724856  1
  O  O182  1  0.38191907  0.88740137  0.88296954  1
  O  O183  1  0.87422286  0.37497480  0.38696130  1
  O  O184  1  0.87685111  0.36983487  0.88640198  1
  O  O185  1  0.88187284  0.87734065  0.38031402  1
  O  O186  1  0.88071522  0.87624237  0.88235300  1
  O  O187  1  0.26374646  0.01117788  0.37787860  1
  O  O188  1  0.25919602  0.00586365  0.86731905  1
  O  O189  1  0.25824578  0.50939179  0.37226167  1
  O  O190  1  0.24939643  0.50910311  0.87268746  1
  O  O191  1  0.76448683  -0.00280743  0.37729304  1
  O  O192  1  0.74765870  0.01158754  0.86708805  1
  O  O193  1  0.74779627  0.49326550  0.35947892  1
  O  O194  1  0.75152967  0.50972597  0.86634441  1
  O  O195  1  0.25051217  0.49328783  0.13652780  1
  O  O196  1  0.24397587  0.50033379  0.63563201  1
  O  O197  1  0.23517798  1.00663511  0.12364572  1
  O  O198  1  0.25357376  0.99842959  0.63916550  1
  O  O199  1  0.73847040  0.49384228  0.12723213  1
  O  O200  1  0.75499375  0.48546198  0.63360130  1
  O  O201  1  0.73998722  0.99024818  0.11848736  1
  O  O202  1  0.75265945  0.98504205  0.63209216  1
  O  O203  1  0.00001536  0.36517160  0.25083122  1
  O  O204  1  0.00819243  0.36225660  0.74637696  1
  O  O205  1  0.00516886  0.86752898  0.25722120  1
  O  O206  1  0.00484060  0.86977083  0.75633203  1
  O  O207  1  0.48931821  0.37907611  0.26222692  1
  O  O208  1  0.50680150  0.37562014  0.75579238  1
  O  O209  1  0.51064850  0.87457900  0.24630437  1
  O  O210  1  0.51344008  0.87888215  0.75730129  1
  O  O211  1  0.48660768  0.11983766  0.24147084  1
  O  O212  1  0.49258987  0.13714348  0.75354332  1
  O  O213  1  0.49098558  0.61837129  0.24161364  1
  O  O214  1  0.49187222  0.57876317  0.73694951  1
  O  O215  1  0.99297206  0.12827814  0.24288986  1
  O  O216  1  0.99716772  0.13532634  0.75082481  1
  O  O217  1  0.99879379  0.63767705  0.25103609  1
  O  O218  1  1.00567290  0.63863914  0.75153895  1
  O  O219  1  0.36859694  0.25453994  0.00790875  1
  O  O220  1  0.38490493  0.26646713  0.50036199  1
  O  O221  1  0.36517099  0.76117452  0.00193296  1
  O  O222  1  0.36877775  0.75895794  0.49807660  1
  O  O223  1  0.87948895  0.26104009  -0.00055714  1
  O  O224  1  0.87089807  0.25417137  0.50321219  1
  O  O225  1  0.86987921  0.75818930  0.00776320  1
  O  O226  1  0.88265421  0.76419776  0.50855675  1
  O  O227  1  0.11038860  0.23670326  0.51037466  1
  O  O228  1  0.12919891  0.24724222  0.99664295  1
  O  O229  1  0.13103894  0.73896627  0.50625345  1
  O  O230  1  0.12879264  0.74587652  0.99824957  1
  O  O231  1  0.62252801  0.23566602  0.49469504  1
  O  O232  1  0.61946354  0.24426404  0.98450577  1
  O  O233  1  0.62870122  0.73410616  0.48954528  1
  O  O234  1  0.63438273  0.74125562  1.00687408  1
  O  O235  1  0.49470292  0.23715037  0.11996384  1
  O  O236  1  0.50254529  0.25906833  0.63754294  1
  O  O237  1  0.49601062  0.73851365  0.11955033  1
  O  O238  1  0.49568105  0.74351411  0.61768063  1
  O  O239  1  0.99880913  0.23718492  0.12980287  1
  O  O240  1  0.99957457  0.24101470  0.62406905  1
  O  O241  1  0.98929950  0.75733462  0.13885266  1
  O  O242  1  0.99093764  0.74867744  0.63518955  1
  O  O243  1  0.00420866  0.24838558  0.36732148  1
  O  O244  1  0.00773342  0.25217135  0.86492821  1
  O  O245  1  -0.00401577  0.75909827  0.35975001  1
  O  O246  1  0.00266153  0.75644738  0.87028578  1
  O  O247  1  0.50976501  0.25526724  0.37579649  1
  O  O248  1  0.50620377  0.25892096  0.86897432  1
  O  O249  1  0.52015807  0.75484776  0.38042338  1
  O  O250  1  0.49694619  0.76159893  0.88149027  1
  O  O251  1  0.25343542  0.12398181  0.48860133  1
  O  O252  1  0.24575414  0.13249798  0.99457530  1
  O  O253  1  0.24533391  0.62972436  0.49594100  1
  O  O254  1  0.24423969  0.63180353  0.99328157  1
  O  O255  1  0.73397100  0.12250018  0.49593777  1
  O  O256  1  0.74041644  0.11951479  0.98838635  1
  O  O257  1  0.73774206  0.61500562  0.49791387  1
  O  O258  1  0.74291821  0.63166720  0.99461761  1
  O  O259  1  0.25357133  0.37199249  0.00856193  1
  O  O260  1  0.26420592  0.38556007  0.51125947  1
  O  O261  1  0.25853292  0.86838773  -0.00660074  1
  O  O262  1  0.25742259  0.86773670  0.49940485  1
  O  O263  1  0.76345424  0.38079847  -0.00317396  1
  O  O264  1  0.75472539  0.37332590  0.50590072  1
  O  O265  1  0.75211261  0.86925824  0.00481475  1
  O  O266  1  0.75615050  0.87955169  0.50887346  1
  O  O267  1  0.13620469  0.50082061  0.25097444  1
  O  O268  1  0.13106002  0.49885511  0.74609387  1
  O  O269  1  0.12348646  1.00260442  0.23445302  1
  O  O270  1  0.13450149  0.99147391  0.75769845  1
  O  O271  1  0.63443273  0.50200955  0.24016445  1
  O  O272  1  0.63771137  0.48506220  0.75631455  1
  O  O273  1  0.61998046  0.99231821  0.23733168  1
  O  O274  1  0.63466663  0.99365847  0.75014242  1
  O  O275  1  0.37542679  0.00728410  0.25994781  1
  O  O276  1  0.37160813  0.00540540  0.75640213  1
  O  O277  1  0.36453817  0.50891465  0.26124066  1
  O  O278  1  0.35625599  0.49677172  0.76287473  1
  O  O279  1  0.88364696  0.00705504  0.25851565  1
  O  O280  1  0.85969047  -0.00149726  0.75202406  1
  O  O281  1  0.86465159  0.50183206  0.24970793  1
  O  O282  1  0.86763652  0.49197701  0.74676875  1
  O  O283  1  0.12359749  0.36709311  0.37705931  1
  O  O284  1  0.12542968  0.36741938  0.86778868  1
  O  O285  1  0.11276804  0.88010868  0.37472945  1
  O  O286  1  0.11655546  0.87035449  0.86973901  1
  O  O287  1  0.61532662  0.35668358  0.37606419  1
  O  O288  1  0.62102894  0.36841617  0.87018783  1
  O  O289  1  0.62280169  0.87200962  0.36247652  1
  O  O290  1  0.61604002  0.87734814  0.86288403  1
  O  O291  1  0.38127556  0.12974011  0.13196786  1
  O  O292  1  0.37230442  0.12520448  0.63724256  1
  O  O293  1  0.38249431  0.62691397  0.13618980  1
  O  O294  1  0.38055033  0.62497899  0.63397417  1
  O  O295  1  0.88316473  0.12298819  0.13062900  1
  O  O296  1  0.86639919  0.13601787  0.62143122  1
  O  O297  1  0.87163997  0.63816146  0.12250694  1
  O  O298  1  0.87343361  0.63981522  0.61959423  1
  O  O299  1  0.25460437  0.25695648  0.12291902  1
  O  O300  1  0.25119013  0.27040593  0.63241440  1
  O  O301  1  0.25427062  0.74790378  0.11374445  1
  O  O302  1  0.25316910  0.75196036  0.61288373  1
  O  O303  1  0.75109430  0.25368733  0.12140215  1
  O  O304  1  0.75720692  0.25995070  0.62337228  1
  O  O305  1  0.75672663  0.75762394  0.11550532  1
  O  O306  1  0.75751950  0.76229211  0.63191796  1
  O  O307  1  0.24765176  0.23340892  0.37338393  1
  O  O308  1  0.24523760  0.24587903  0.88004586  1
  O  O309  1  0.25377759  0.73770881  0.38767027  1
  O  O310  1  0.24337355  0.74462090  0.88658948  1
  O  O311  1  0.73413721  0.24650875  0.37264680  1
  O  O312  1  0.74055837  0.23733518  0.86480638  1
  O  O313  1  0.73046334  0.75910196  0.37457946  1
  O  O314  1  0.75215094  0.74557806  0.88794248  1
  O  O315  1  0.00405884  0.12093885  0.00633992  1
  O  O316  1  -0.00231633  0.11248919  0.50211129  1
  O  O317  1  0.00559396  0.61362494  -0.00185062  1
  O  O318  1  0.00812673  0.62073838  0.50404216  1
  O  O319  1  0.50723656  0.12031714  0.00555776  1
  O  O320  1  0.50952306  0.11259807  0.50020248  1
  O  O321  1  0.50503154  0.62061797  0.00591154  1
  O  O322  1  0.50904227  0.61043749  0.49558566  1
  O  O323  1  0.49721103  0.38545701  0.48796966  1
  O  O324  1  0.49123357  0.37925703  0.99575269  1
  O  O325  1  0.49708873  0.88719928  0.49942878  1
  O  O326  1  0.49520340  0.88242532  0.99161053  1
  O  O327  1  0.99060512  0.38527194  0.49934629  1
  O  O328  1  0.99069170  0.38404199  0.99553890  1
  O  O329  1  0.99427615  0.88032068  0.49328096  1
  O  O330  1  0.99400883  0.88016734  0.99455483  1
  O  O331  1  0.49431099  0.49299114  0.37787589  1
  O  O332  1  0.49507982  0.49283147  0.88549211  1
  O  O333  1  0.48968831  0.99894628  0.38136363  1
  O  O334  1  0.49360874  0.99692063  0.87861396  1
  O  O335  1  1.00051089  0.49754395  0.38841532  1
  O  O336  1  1.00650376  0.49630672  0.89300756  1
  O  O337  1  0.99091535  0.99177056  0.38304762  1
  O  O338  1  0.99871241  0.99490406  0.88174176  1
  O  O339  1  0.00770123  0.00971248  0.11917995  1
  O  O340  1  -0.00569181  -0.00761197  0.61085617  1
  O  O341  1  0.00151452  0.49464946  0.10905775  1
  O  O342  1  0.00804565  0.50157350  0.61646995  1
  O  O343  1  0.50610071  0.01203767  0.11794210  1
  O  O344  1  0.49905911  -0.00067300  0.61420310  1
  O  O345  1  0.50404609  0.50924727  0.11996735  1
  O  O346  1  0.50729071  0.49304495  0.60145439  1
  O  O347  1  0.25049173  0.38377501  0.24588992  1
  O  O348  1  0.24448927  0.38513373  0.74639172  1
  O  O349  1  0.24545373  0.88063925  0.25497325  1
  O  O350  1  0.23982999  0.88445973  0.75281625  1
  O  O351  1  0.75478514  0.38937161  0.24118083  1
  O  O352  1  0.74549132  0.37819228  0.74335963  1
  O  O353  1  0.74160815  0.87020116  0.23643360  1
  O  O354  1  0.73635589  0.87990612  0.74766859  1
  O  O355  1  0.26304514  0.11838534  0.25549110  1
  O  O356  1  0.25868341  0.11960303  0.75747983  1
  O  O357  1  0.25594853  0.62065405  0.25931415  1
  O  O358  1  0.24282241  0.62040182  0.76604652  1
  O  O359  1  0.76234793  0.12246233  0.24905645  1
  O  O360  1  0.74897453  0.11755068  0.75398480  1
  O  O361  1  0.75223779  0.60491165  0.23721566  1
  O  O362  1  0.74512408  0.61318770  0.75869867  1
  O  O363  1  0.37133474  0.12168274  0.37097137  1
  O  O364  1  0.37305526  0.11501151  0.87256623  1
  O  O365  1  0.37184027  0.61930269  0.37179256  1
  O  O366  1  0.36566101  0.61849556  0.87723884  1
  O  O367  1  0.87058415  0.11388881  0.36629732  1
  O  O368  1  0.86514905  0.12411061  0.86956681  1
  O  O369  1  0.87458861  0.62197990  0.37197441  1
  O  O370  1  0.86212800  0.63013576  0.87857762  1
  O  O371  1  0.13706566  0.37599648  0.12833706  1
  O  O372  1  0.13580210  0.39036194  0.63020816  1
  O  O373  1  0.12012133  0.89144933  0.12319153  1
  O  O374  1  0.12545495  0.87019050  0.63848802  1
  O  O375  1  0.61948651  0.38943990  0.11816224  1
  O  O376  1  0.63531653  0.36828213  0.63298718  1
  O  O377  1  0.62991126  0.88119564  0.12921866  1
  O  O378  1  0.63077548  0.86903386  0.63695429  1
  O  O379  1  0.11141789  0.24776735  0.24970139  1
  O  O380  1  0.12039538  0.25292108  0.75419934  1
  O  O381  1  0.11064373  0.74960010  0.24356622  1
  O  O382  1  0.11851860  0.75873790  0.75760086  1
  O  O383  1  0.61751743  0.24039594  0.25897013  1
  O  O384  1  0.61693934  0.25883450  0.75958774  1
  O  O385  1  0.62686874  0.75404286  0.25655441  1
  O  O386  1  0.62770234  0.75900207  0.75251861  1
  O  O387  1  0.37075401  0.24282967  0.24241437  1
  O  O388  1  0.38494169  0.24071018  0.75729721  1
  O  O389  1  0.37113383  0.73959505  0.25318236  1
  O  O390  1  0.37007802  0.74815571  0.75224218  1
  O  O391  1  0.88513574  0.23882418  0.24993994  1
  O  O392  1  0.88566213  0.24949230  0.73725152  1
  O  O393  1  0.88226654  0.74930821  0.24139831  1
  O  O394  1  0.88376207  0.75868863  0.74104376  1
  O  O395  1  0.38628877  0.49865024  0.48875172  1
  O  O396  1  0.37820230  0.49644028  0.99839095  1
  O  O397  1  0.38688046  0.99575966  0.49662636  1
  O  O398  1  0.37933906  0.99701375  0.99256377  1
  O  O399  1  0.88270227  0.49212900  0.50173800  1
  O  O400  1  0.88329593  0.49429140  1.00167025  1
  O  O401  1  0.88232108  0.98810463  0.49334226  1
  O  O402  1  0.88187283  0.99335379  0.99799735  1
  O  O403  1  0.12028417  0.00616606  0.00767682  1
  O  O404  1  0.10911611  -0.00620420  0.50014339  1
  O  O405  1  0.11786223  0.50848296  0.00592526  1
  O  O406  1  0.12039535  0.50897432  0.50868251  1
  O  O407  1  0.61919061  0.00506629  0.00879669  1
  O  O408  1  0.61302265  0.00924705  0.49550445  1
  O  O409  1  0.61856191  0.50787561  0.00579862  1
  O  O410  1  0.61688024  0.50929888  0.48619427  1
  O  O411  1  0.36495506  0.37208574  0.12271688  1
  O  O412  1  0.37060658  0.39170832  0.61795063  1
  O  O413  1  0.38234574  0.87942199  0.11035023  1
  O  O414  1  0.37110625  0.87580601  0.61335975  1
  O  O415  1  0.87450558  0.36952661  0.10740957  1
  O  O416  1  0.87055910  0.36235266  0.61230914  1
  O  O417  1  0.86718325  0.87153225  0.11994900  1
  O  O418  1  0.86599926  0.86688457  0.61679231  1
  O  O419  1  0.14047095  0.12188502  0.37249384  1
  O  O420  1  0.13131400  0.13182516  0.88192902  1
  O  O421  1  0.13600558  0.62030408  0.38695901  1
  O  O422  1  0.13100403  0.63280887  0.88766183  1
  O  O423  1  0.62273884  0.13353677  0.37926115  1
  O  O424  1  0.62931509  0.13242021  0.87785939  1
  O  O425  1  0.62578263  0.63323453  0.37878845  1
  O  O426  1  0.63178836  0.62172819  0.88850427  1
