# generated using pymatgen
data_V85Zn86O256
_symmetry_space_group_name_H-M   'P 1'
_cell_length_a   16.95063811
_cell_length_b   16.94544243
_cell_length_c   16.94832999
_cell_angle_alpha   89.96159304
_cell_angle_beta   90.07168653
_cell_angle_gamma   89.95067051
_symmetry_Int_Tables_number   1
_chemical_formula_structural   V85Zn86O256
_chemical_formula_sum   'V85 Zn86 O256'
_cell_volume   4868.16485563
_cell_formula_units_Z   1
loop_
 _symmetry_equiv_pos_site_id
 _symmetry_equiv_pos_as_xyz
  1  'x, y, z'
loop_
 _atom_site_type_symbol
 _atom_site_label
 _atom_site_symmetry_multiplicity
 _atom_site_fract_x
 _atom_site_fract_y
 _atom_site_fract_z
 _atom_site_occupancy
  V  V0  1  0.37441365  0.62703092  0.75152916  1
  V  V1  1  0.37638308  0.62494507  0.24921521  1
  V  V2  1  0.37021807  0.50555688  0.87919029  1
  V  V3  1  0.87903865  0.63897627  0.24765876  1
  V  V4  1  0.50727127  0.74870416  0.75378494  1
  V  V5  1  0.62478525  0.76278896  0.87602121  1
  V  V6  1  0.75764370  0.49934174  0.25164166  1
  V  V7  1  0.37277177  0.36545915  0.50300373  1
  V  V8  1  0.37509914  0.12903015  0.73520261  1
  V  V9  1  0.12594340  0.25069455  0.88029839  1
  V  V10  1  0.25498752  0.37025174  0.62819146  1
  V  V11  1  0.75259226  0.24612948  0.00885082  1
  V  V12  1  -0.00602778  0.50129993  0.49179808  1
  V  V13  1  -0.00080173  0.64079688  0.12781631  1
  V  V14  1  0.25419439  0.24771099  0.01594147  1
  V  V15  1  0.75079307  0.75016009  0.00499165  1
  V  V16  1  0.75247568  0.50051413  0.75105378  1
  V  V17  1  0.88546418  0.75562194  0.62828037  1
  V  V18  1  0.12458132  0.62517784  0.50013926  1
  V  V19  1  0.87638610  0.86971833  0.00753448  1
  V  V20  1  0.11321177  0.75263691  0.37242531  1
  V  V21  1  0.12490714  0.50338531  0.12632622  1
  V  V22  1  -0.00995369  0.37690588  0.37350715  1
  V  V23  1  0.50148466  0.74912331  0.25361334  1
  V  V24  1  0.57027576  0.92819649  0.69682152  1
  V  V25  1  0.74834613  0.12391545  0.87853407  1
  V  V26  1  0.75618387  0.61936332  0.37656991  1
  V  V27  1  0.24803542  0.88318155  0.11930543  1
  V  V28  1  0.62727074  0.62605196  0.00487632  1
  V  V29  1  0.24977619  0.00104919  0.75085173  1
  V  V30  1  0.75613864  0.37202545  0.62323139  1
  V  V31  1  0.50557539  0.50059865  0.00324402  1
  V  V32  1  0.75041397  0.87664107  0.62704800  1
  V  V33  1  0.62349536  0.87670515  0.25375112  1
  V  V34  1  0.24858202  0.62925514  0.37427770  1
  V  V35  1  0.75477277  0.75113804  0.49919919  1
  V  V36  1  0.60813585  0.12014565  0.00506240  1
  V  V37  1  0.37418763  0.75104595  0.12171074  1
  V  V38  1  -0.00144839  0.89665830  0.37643341  1
  V  V39  1  0.75485509  0.86736795  0.13214198  1
  V  V40  1  0.80972275  0.06451366  0.42087617  1
  V  V41  1  0.25380203  -0.00193127  0.25383813  1
  V  V42  1  0.38717433  -0.00155271  0.87297927  1
  V  V43  1  0.60363303  0.11689729  0.50868004  1
  V  V44  1  0.00144097  0.62648281  0.62660070  1
  V  V45  1  0.12551624  0.74574874  0.86522453  1
  V  V46  1  0.24779672  0.50629100  0.75414617  1
  V  V47  1  0.87815212  0.49946706  0.87851856  1
  V  V48  1  0.62679430  0.24157622  0.37382820  1
  V  V49  1  0.62433852  0.37548158  0.75174567  1
  V  V50  1  0.00792173  -0.00061457  0.01044825  1
  V  V51  1  0.62327157  0.38139815  0.24832602  1
  V  V52  1  0.37563067  0.50034129  0.37589963  1
  V  V53  1  0.49581183  0.25012485  0.73624518  1
  V  V54  1  0.25601621  0.75452623  0.49986288  1
  V  V55  1  0.88131021  0.63094500  0.75246210  1
  V  V56  1  -0.00784749  0.25378685  0.24041024  1
  V  V57  1  0.11977092  0.87655412  0.74295159  1
  V  V58  1  0.37626228  0.37198165  0.00748224  1
  V  V59  1  0.11218285  0.01654844  0.61477637  1
  V  V60  1  0.12340402  0.37311061  0.25323987  1
  V  V61  1  0.25068710  0.12560261  0.87960435  1
  V  V62  1  0.74559677  -0.00555723  0.75332418  1
  V  V63  1  0.74733372  0.38162229  0.12414279  1
  V  V64  1  0.49807136  0.24485582  0.23794782  1
  V  V65  1  0.62127552  0.25159960  0.87646510  1
  V  V66  1  0.25015780  0.74953487  -0.00860255  1
  V  V67  1  0.12093604  0.87492487  0.24381380  1
  V  V68  1  0.62613284  0.50195307  0.62557668  1
  V  V69  1  0.12836391  0.62568217  -0.00353206  1
  V  V70  1  0.25007848  0.50129699  0.25332363  1
  V  V71  1  0.49847328  0.50102286  0.50003734  1
  V  V72  1  0.38334711  0.12183379  0.23549826  1
  V  V73  1  0.86776961  0.13038251  0.23761880  1
  V  V74  1  0.88276036  0.12874785  0.75013190  1
  V  V75  1  0.87756207  0.37157268  0.00662520  1
  V  V76  1  0.38665893  0.87668490  -0.00862511  1
  V  V77  1  0.00001838  0.86991369  0.87027763  1
  V  V78  1  0.12398233  0.49433572  0.62227599  1
  V  V79  1  0.75285349  0.00339993  0.24750803  1
  V  V80  1  0.75066885  0.62702136  0.87757043  1
  V  V81  1  0.49193972  0.87760017  0.38510767  1
  V  V82  1  0.50422159  0.62613034  0.12463134  1
  V  V83  1  0.87644291  -0.00163776  0.87801126  1
  V  V84  1  0.25832980  0.87847064  0.62118718  1
  Zn  Zn85  1  0.37892062  0.75183067  0.62445534  1
  Zn  Zn86  1  0.88033671  0.24549106  0.61255530  1
  Zn  Zn87  1  0.49775229  0.37662078  0.87530312  1
  Zn  Zn88  1  0.13578051  0.11736387  0.01864014  1
  Zn  Zn89  1  0.86830902  0.37777557  0.49078834  1
  Zn  Zn90  1  0.50031117  0.37402871  0.37407682  1
  Zn  Zn91  1  0.61156653  0.00700598  0.12723433  1
  Zn  Zn92  1  0.00087098  0.50050666  0.00408021  1
  Zn  Zn93  1  -0.00152110  0.13133900  0.12276114  1
  Zn  Zn94  1  0.12276017  0.15025574  0.44334266  1
  Zn  Zn95  1  0.50006306  0.62466566  0.62595481  1
  Zn  Zn96  1  0.12367477  0.37647277  0.75628797  1
  Zn  Zn97  1  0.25540877  0.23138181  0.51631818  1
  Zn  Zn98  1  0.62866716  0.62201210  0.49873077  1
  Zn  Zn99  1  0.87998453  0.88910983  0.49677385  1
  Zn  Zn100  1  0.62709271  0.74718916  0.37822194  1
  Zn  Zn101  1  0.00246101  0.37330685  0.88120006  1
  Zn  Zn102  1  0.25350732  0.37060592  0.13104624  1
  Zn  Zn103  1  0.74910225  0.24780648  0.49595667  1
  Zn  Zn104  1  0.00106149  0.25490335  0.75372735  1
  Zn  Zn105  1  0.37861324  0.00797826  0.38692629  1
  Zn  Zn106  1  0.25926871  0.14535873  0.36714492  1
  Zn  Zn107  1  0.17194585  0.17224416  0.21190312  1
  Zn  Zn108  1  0.18916322  0.18962543  0.69520915  1
  Zn  Zn109  1  0.18763658  0.69363932  0.18539660  1
  Zn  Zn110  1  0.18988542  0.68745392  0.68605749  1
  Zn  Zn111  1  0.68339200  0.18900961  0.18509732  1
  Zn  Zn112  1  0.68826652  0.18711501  0.68702243  1
  Zn  Zn113  1  0.68843846  0.68834119  0.18891837  1
  Zn  Zn114  1  0.69158602  0.68859752  0.68846824  1
  Zn  Zn115  1  0.31863637  0.31236128  0.31178672  1
  Zn  Zn116  1  0.31314040  0.31484340  0.81711553  1
  Zn  Zn117  1  0.31136948  0.81309490  0.31126053  1
  Zn  Zn118  1  0.31263267  0.81440719  0.80862740  1
  Zn  Zn119  1  0.81153478  0.31070894  0.31196816  1
  Zn  Zn120  1  0.80884703  0.31370007  0.81931875  1
  Zn  Zn121  1  0.81734925  0.81518540  0.31785837  1
  Zn  Zn122  1  0.81191541  0.81194290  0.81411238  1
  Zn  Zn123  1  0.17584687  0.33932874  0.43654540  1
  Zn  Zn124  1  0.19227320  0.43620742  0.94075524  1
  Zn  Zn125  1  0.18763462  0.94102324  0.43774196  1
  Zn  Zn126  1  0.18814222  0.93483483  0.93385820  1
  Zn  Zn127  1  0.68583858  0.43671146  0.43402690  1
  Zn  Zn128  1  0.68859385  0.43887418  0.93916984  1
  Zn  Zn129  1  0.67680561  0.93436828  0.44387549  1
  Zn  Zn130  1  0.68793471  0.93882188  0.94324005  1
  Zn  Zn131  1  0.32297987  0.06053342  0.06133658  1
  Zn  Zn132  1  0.29861911  0.06231417  0.55542222  1
  Zn  Zn133  1  0.31144858  0.56369513  0.06357949  1
  Zn  Zn134  1  0.31157215  0.56208591  0.56451740  1
  Zn  Zn135  1  0.80908053  0.05634332  0.06490241  1
  Zn  Zn136  1  0.80375401  0.06533067  0.58043760  1
  Zn  Zn137  1  0.81434145  0.56157844  0.06808941  1
  Zn  Zn138  1  0.81526464  0.56262921  0.56542310  1
  Zn  Zn139  1  0.44171141  0.43825953  0.18527574  1
  Zn  Zn140  1  0.43799094  0.43774237  0.68915836  1
  Zn  Zn141  1  0.43734383  0.93985632  0.18556337  1
  Zn  Zn142  1  0.43827615  0.93957631  0.55810398  1
  Zn  Zn143  1  0.93685608  0.44458645  0.18458567  1
  Zn  Zn144  1  0.94354108  0.43238111  0.68949031  1
  Zn  Zn145  1  0.93510854  0.93469391  0.19405127  1
  Zn  Zn146  1  0.93672662  0.94130485  0.68845581  1
  Zn  Zn147  1  0.06468652  0.06280569  0.29433584  1
  Zn  Zn148  1  0.06597562  0.06057753  0.81995765  1
  Zn  Zn149  1  0.06073010  0.56342434  0.31296670  1
  Zn  Zn150  1  0.06065774  0.56137598  0.81315232  1
  Zn  Zn151  1  0.56342428  0.06145799  0.31689305  1
  Zn  Zn152  1  0.55884897  0.07361389  0.81208523  1
  Zn  Zn153  1  0.56870039  0.56165501  0.31455527  1
  Zn  Zn154  1  0.56223433  0.56556779  0.81773550  1
  Zn  Zn155  1  0.43891281  0.18733494  0.42967135  1
  Zn  Zn156  1  0.43428299  0.19000442  0.93274565  1
  Zn  Zn157  1  0.43809828  0.68641575  0.43843361  1
  Zn  Zn158  1  0.43971851  0.68916565  0.93457693  1
  Zn  Zn159  1  0.94076839  0.19711578  0.43355956  1
  Zn  Zn160  1  0.93747848  0.18584658  0.93884684  1
  Zn  Zn161  1  0.93420308  0.68775853  0.43752399  1
  Zn  Zn162  1  0.94171490  0.68882944  0.94062386  1
  Zn  Zn163  1  0.06747524  0.31283350  0.06426292  1
  Zn  Zn164  1  0.05552435  0.21039423  0.57222319  1
  Zn  Zn165  1  0.06535483  0.81367731  0.05881050  1
  Zn  Zn166  1  0.06455225  0.81838463  0.55570251  1
  Zn  Zn167  1  0.56603876  0.31408808  0.06258999  1
  Zn  Zn168  1  0.56721901  0.31516158  0.55793621  1
  Zn  Zn169  1  0.54916495  0.84133771  0.07613776  1
  Zn  Zn170  1  0.56646989  0.80130748  0.56303011  1
  O  O171  1  0.11243572  0.12618667  0.12818721  1
  O  O172  1  0.12401476  0.11968167  0.63134718  1
  O  O173  1  0.11969943  0.62300244  0.12042651  1
  O  O174  1  0.11877516  0.61962792  0.62232269  1
  O  O175  1  0.62358347  0.12409744  0.10982870  1
  O  O176  1  0.63207880  0.13116707  0.60548857  1
  O  O177  1  0.62126536  0.63131427  0.11270705  1
  O  O178  1  0.62871939  0.61173509  0.62484068  1
  O  O179  1  0.37886471  0.38616067  0.38362267  1
  O  O180  1  0.37643796  0.38827618  0.88688414  1
  O  O181  1  0.39117148  0.87079985  0.37211389  1
  O  O182  1  0.36628110  0.89111162  0.87631627  1
  O  O183  1  0.88547965  0.38162356  0.36820418  1
  O  O184  1  0.87189397  0.38467394  0.88810950  1
  O  O185  1  0.89356352  0.87645638  0.37531939  1
  O  O186  1  0.88163521  0.88148224  0.88052126  1
  O  O187  1  0.25570127  -0.01155918  0.35800563  1
  O  O188  1  0.24867728  0.00760314  0.86723102  1
  O  O189  1  0.25615152  0.51097607  0.36096763  1
  O  O190  1  0.25882566  0.49974625  0.86889314  1
  O  O191  1  0.74743862  -0.00060560  0.36912593  1
  O  O192  1  0.75848751  0.00032760  0.87211887  1
  O  O193  1  0.74962643  0.50830834  0.36717546  1
  O  O194  1  0.76037199  0.50694703  0.87269591  1
  O  O195  1  0.24089934  0.50496537  0.13657268  1
  O  O196  1  0.24293999  0.49860350  0.63417366  1
  O  O197  1  0.25824571  0.98656559  0.12826327  1
  O  O198  1  0.23667882  0.99421583  0.63568773  1
  O  O199  1  0.74847419  0.48892858  0.13128998  1
  O  O200  1  0.74423359  0.49620795  0.63192702  1
  O  O201  1  0.74204671  0.98625554  0.13247277  1
  O  O202  1  0.74766933  0.98546820  0.63619893  1
  O  O203  1  0.00322134  0.37854679  0.25308728  1
  O  O204  1  0.00498109  0.37651398  0.76453145  1
  O  O205  1  0.00944042  0.87795624  0.26060367  1
  O  O206  1  0.00626679  0.87933247  0.75895919  1
  O  O207  1  0.50763690  0.36813087  0.24926107  1
  O  O208  1  0.50669502  0.37146208  0.75534696  1
  O  O209  1  0.50730715  0.86514427  0.25999820  1
  O  O210  1  0.51221156  0.86468202  0.74961452  1
  O  O211  1  0.50089353  0.13666642  0.25165931  1
  O  O212  1  0.48832246  0.13666672  0.74919472  1
  O  O213  1  0.49842723  0.63056001  0.24660711  1
  O  O214  1  0.49295267  0.63016901  0.74946815  1
  O  O215  1  0.98616108  0.13752259  0.24784087  1
  O  O216  1  0.98407023  0.12233582  0.76326496  1
  O  O217  1  0.98646644  0.62376004  0.24494734  1
  O  O218  1  0.98795883  0.62214136  0.74475353  1
  O  O219  1  0.36804512  0.26087602  -0.00545315  1
  O  O220  1  0.37629193  0.26292330  0.49867737  1
  O  O221  1  0.36478018  0.75166254  -0.00162420  1
  O  O222  1  0.36040724  0.74188097  0.50345482  1
  O  O223  1  0.86416594  0.25874232  -0.00625010  1
  O  O224  1  0.86661474  0.25869177  0.49600913  1
  O  O225  1  0.86964821  0.76338175  -0.00633809  1
  O  O226  1  0.86667977  0.75281837  0.50927207  1
  O  O227  1  0.13809196  0.25589282  0.50441644  1
  O  O228  1  0.13595182  0.24744966  0.99483936  1
  O  O229  1  0.13319635  0.74414947  0.49241833  1
  O  O230  1  0.13142730  0.74581224  0.98824305  1
  O  O231  1  0.62639449  0.24427712  0.48780481  1
  O  O232  1  0.62983726  0.24147091  0.99468553  1
  O  O233  1  0.64225276  0.74247099  0.50172338  1
  O  O234  1  0.63290706  0.74332857  0.99367402  1
  O  O235  1  0.50665689  0.25300369  0.13947365  1
  O  O236  1  0.50496765  0.26163034  0.63798775  1
  O  O237  1  0.49390667  0.74760826  0.13391130  1
  O  O238  1  0.49989595  0.74514560  0.63761125  1
  O  O239  1  0.99641483  0.25743229  0.13605356  1
  O  O240  1  0.98806289  0.26169254  0.64124856  1
  O  O241  1  1.00495193  0.74027679  0.12258385  1
  O  O242  1  0.99011898  0.74924758  0.61850271  1
  O  O243  1  -0.00293925  0.27082920  0.35789037  1
  O  O244  1  0.01191885  0.24876956  0.87846793  1
  O  O245  1  0.01189983  0.75016456  0.37837239  1
  O  O246  1  0.00917128  0.76269117  0.88007189  1
  O  O247  1  0.51202558  0.25525588  0.36524813  1
  O  O248  1  0.51202261  0.25303971  0.87109828  1
  O  O249  1  0.50265394  0.75504640  0.36972288  1
  O  O250  1  0.51092959  0.74322433  0.86300285  1
  O  O251  1  0.23745010  0.12318160  0.48237557  1
  O  O252  1  0.25372468  0.12954499  0.99708580  1
  O  O253  1  0.24264863  0.63015302  0.49464772  1
  O  O254  1  0.23698739  0.63422500  1.00505543  1
  O  O255  1  0.75427012  0.12213248  0.48801867  1
  O  O256  1  0.74884342  0.13205200  0.99651366  1
  O  O257  1  0.75605257  0.63053549  0.49237651  1
  O  O258  1  0.74602540  0.62921348  0.99955851  1
  O  O259  1  0.25884322  0.36640151  0.00600152  1
  O  O260  1  0.26002312  0.38167520  0.51388378  1
  O  O261  1  0.25369673  0.86764628  0.00268928  1
  O  O262  1  0.23948310  0.86542516  0.50965104  1
  O  O263  1  0.75309081  0.36967017  0.00784330  1
  O  O264  1  0.74905657  0.37713325  0.50951097  1
  O  O265  1  0.75751971  0.87190602  0.01170162  1
  O  O266  1  0.75230701  0.86955087  0.50844292  1
  O  O267  1  0.13233315  0.49913146  0.24377643  1
  O  O268  1  0.13357786  0.50350475  0.74531790  1
  O  O269  1  0.13810293  0.98258790  0.24581669  1
  O  O270  1  0.13050369  0.99415245  0.74687828  1
  O  O271  1  0.63634375  0.49021137  0.25339294  1
  O  O272  1  0.63050849  0.49684393  0.74621277  1
  O  O273  1  0.63267213  0.99253411  0.24981762  1
  O  O274  1  0.62773236  0.99655796  0.75628570  1
  O  O275  1  0.37308257  0.00424768  0.25119564  1
  O  O276  1  0.36116704  0.00990141  0.76173175  1
  O  O277  1  0.36970093  0.50459330  0.25328229  1
  O  O278  1  0.37066751  0.50715094  0.75927115  1
  O  O279  1  0.86008005  0.00723553  0.24766757  1
  O  O280  1  0.86733092  0.00762578  0.75905944  1
  O  O281  1  0.86157965  0.51029660  0.24438574  1
  O  O282  1  0.87084577  0.50703159  0.75948882  1
  O  O283  1  0.10892012  0.38955318  0.36038940  1
  O  O284  1  0.12684842  0.36544106  0.87937836  1
  O  O285  1  0.11587551  0.87096118  0.36878730  1
  O  O286  1  0.11862343  0.86940234  0.86321172  1
  O  O287  1  0.62235949  0.36743756  0.36364759  1
  O  O288  1  0.62520767  0.36811660  0.87092993  1
  O  O289  1  0.61810895  0.86884856  0.36752862  1
  O  O290  1  0.63259466  0.86224346  0.87992428  1
  O  O291  1  0.38846244  0.11662324  0.13475763  1
  O  O292  1  0.35850436  0.12309711  0.63756707  1
  O  O293  1  0.38166118  0.63189028  0.12994011  1
  O  O294  1  0.37634413  0.62600748  0.63957499  1
  O  O295  1  0.87673336  0.12087364  0.13364878  1
  O  O296  1  0.87079927  0.12810645  0.64574625  1
  O  O297  1  0.88455084  0.62341495  0.13629748  1
  O  O298  1  0.88051009  0.63445745  0.63390990  1
  O  O299  1  0.24667758  0.24883401  0.11670876  1
  O  O300  1  0.25085076  0.26662602  0.63380963  1
  O  O301  1  0.25592073  0.75715460  0.11232490  1
  O  O302  1  0.24954769  0.75951201  0.61766067  1
  O  O303  1  0.74449568  0.26084953  0.11401920  1
  O  O304  1  0.75463014  0.25941166  0.62343595  1
  O  O305  1  0.75124875  0.75939952  0.12136036  1
  O  O306  1  0.75965515  0.75979936  0.62259217  1
  O  O307  1  0.25091071  0.26317185  0.38499305  1
  O  O308  1  0.24691130  0.24177313  0.88479526  1
  O  O309  1  0.24339024  0.74829083  0.38193043  1
  O  O310  1  0.24121821  0.75527306  0.88323061  1
  O  O311  1  0.73076442  0.25532262  0.37263468  1
  O  O312  1  0.73791161  0.24670213  0.88643199  1
  O  O313  1  0.75248373  0.74455887  0.38475775  1
  O  O314  1  0.74557943  0.74426857  0.88245317  1
  O  O315  1  -0.00388522  0.10692798  0.00092210  1
  O  O316  1  0.01926753  0.14071846  0.48787960  1
  O  O317  1  0.01139836  0.62521747  0.00890760  1
  O  O318  1  0.00315792  0.62088699  0.50568468  1
  O  O319  1  0.51014195  0.12795147  -0.00533677  1
  O  O320  1  0.50395311  0.12903983  0.50502534  1
  O  O321  1  0.50879128  0.62141810  0.00333047  1
  O  O322  1  0.50319153  0.61406988  0.50335900  1
  O  O323  1  0.49282339  0.38657098  0.50043133  1
  O  O324  1  0.49593715  0.38366667  1.00026984  1
  O  O325  1  0.50403464  0.86642560  0.49002393  1
  O  O326  1  0.48286052  0.85289914  0.98287706  1
  O  O327  1  0.99723873  0.38449217  0.47924185  1
  O  O328  1  0.99158210  0.37819762  1.00110754  1
  O  O329  1  0.99975164  0.87835872  0.48252348  1
  O  O330  1  0.99472775  0.88183575  0.99412516  1
  O  O331  1  0.49613569  0.50000688  0.38330907  1
  O  O332  1  0.49256661  0.50088821  0.88796442  1
  O  O333  1  0.49949838  0.98068717  0.37116509  1
  O  O334  1  0.48528963  1.00262652  0.86726790  1
  O  O335  1  0.99851227  0.49700374  0.38184239  1
  O  O336  1  0.98704823  0.50275378  0.88170469  1
  O  O337  1  1.00574233  0.99473976  0.36931394  1
  O  O338  1  0.99331936  0.98977502  0.88385748  1
  O  O339  1  -0.00524844  -0.00667053  0.11068198  1
  O  O340  1  0.01463605  -0.00104971  0.62899257  1
  O  O341  1  0.01337339  0.51141223  0.12512936  1
  O  O342  1  0.00799294  0.50447778  0.62069162  1
  O  O343  1  0.51543534  -0.04927490  0.10974231  1
  O  O344  1  0.50929571  -0.01920162  0.63909987  1
  O  O345  1  0.49657226  0.51032788  0.11176119  1
  O  O346  1  0.50971089  0.50087585  0.61949951  1
  O  O347  1  0.24286822  0.38536620  0.24982841  1
  O  O348  1  0.25295356  0.38939600  0.74599679  1
  O  O349  1  0.24850325  0.87789663  0.23769030  1
  O  O350  1  0.24183485  0.88344561  0.74325863  1
  O  O351  1  0.74579905  0.38156187  0.24336551  1
  O  O352  1  0.74402559  0.38105198  0.74637353  1
  O  O353  1  0.74660317  0.88009526  0.24939596  1
  O  O354  1  0.75521474  0.88644807  0.74599589  1
  O  O355  1  0.26723379  0.11144986  0.24073776  1
  O  O356  1  0.25427110  0.11977594  0.76129653  1
  O  O357  1  0.25644856  0.62276385  0.25252505  1
  O  O358  1  0.25813070  0.61519054  0.74841991  1
  O  O359  1  0.75264061  0.11709548  0.24314838  1
  O  O360  1  0.75268319  0.11271692  0.75862472  1
  O  O361  1  0.75803471  0.61963614  0.25400672  1
  O  O362  1  0.76202180  0.62012929  0.75582903  1
  O  O363  1  0.37596092  0.12307744  0.35855310  1
  O  O364  1  0.36542927  0.11491151  0.87339057  1
  O  O365  1  0.37012283  0.62046160  0.36788769  1
  O  O366  1  0.37860286  0.61489087  0.86619537  1
  O  O367  1  0.86970818  0.12534359  0.36440065  1
  O  O368  1  0.86802410  0.11230433  0.87413301  1
  O  O369  1  0.86696287  0.62855890  0.36182566  1
  O  O370  1  0.87218788  0.62188833  0.87135382  1
  O  O371  1  0.12857494  0.38882003  0.13242110  1
  O  O372  1  0.13693707  0.39120635  0.63237745  1
  O  O373  1  0.13563915  0.86661256  0.13115555  1
  O  O374  1  0.12822961  0.87667237  0.63550521  1
  O  O375  1  0.63339251  0.37230963  0.13723329  1
  O  O376  1  0.63495486  0.38556923  0.63024114  1
  O  O377  1  0.63911611  0.86365907  0.14543400  1
  O  O378  1  0.63212151  0.87101289  0.63184033  1
  O  O379  1  0.11451951  0.27036086  0.24216518  1
  O  O380  1  0.12748744  0.25237692  0.76909596  1
  O  O381  1  0.13398313  0.76329263  0.26050289  1
  O  O382  1  0.13036206  0.75676949  0.75926722  1
  O  O383  1  0.61762569  0.25440289  0.25680824  1
  O  O384  1  0.62029999  0.25368798  0.75865410  1
  O  O385  1  0.61424310  0.75286258  0.25390591  1
  O  O386  1  0.61997049  0.74061078  0.76173892  1
  O  O387  1  0.39113916  0.24431661  0.24960116  1
  O  O388  1  0.38434440  0.24203807  0.75988003  1
  O  O389  1  0.38502575  0.74543415  0.24565584  1
  O  O390  1  0.38323095  0.74254941  0.75251947  1
  O  O391  1  0.87761415  0.24231418  0.24908467  1
  O  O392  1  0.87035781  0.23194373  0.76626516  1
  O  O393  1  0.86909660  0.73739267  0.24812099  1
  O  O394  1  0.87148145  0.74274617  0.74209648  1
  O  O395  1  0.38214519  0.49900594  0.49438643  1
  O  O396  1  0.37978966  0.49868289  0.99465869  1
  O  O397  1  0.36518321  0.99404830  0.49819847  1
  O  O398  1  0.37247779  0.99113997  0.98284587  1
  O  O399  1  0.89016974  0.49834810  0.50792859  1
  O  O400  1  0.87513553  0.49441449  0.99423187  1
  O  O401  1  0.86280821  1.01002818  0.49012150  1
  O  O402  1  0.87969200  0.98849120  0.99425463  1
  O  O403  1  0.11099546  -0.00268552  -0.00456019  1
  O  O404  1  0.12684012  -0.00105577  0.51688512  1
  O  O405  1  0.12781444  0.50915360  0.00783040  1
  O  O406  1  0.11180910  0.51023524  0.51040493  1
  O  O407  1  0.62815772  0.01813436  -0.00230556  1
  O  O408  1  0.62021654  0.01747778  0.49463562  1
  O  O409  1  0.61660960  0.51040483  -0.00502691  1
  O  O410  1  0.61732245  0.49952826  0.50798001  1
  O  O411  1  0.37195247  0.38361096  0.11191464  1
  O  O412  1  0.36576094  0.38691546  0.61607722  1
  O  O413  1  0.36709790  0.86723970  0.11104676  1
  O  O414  1  0.36070002  0.87284615  0.62707447  1
  O  O415  1  0.86667112  0.38202849  0.11317724  1
  O  O416  1  0.86071164  0.38104364  0.62784873  1
  O  O417  1  0.86840118  0.87680087  0.11895461  1
  O  O418  1  0.86995428  0.87184940  0.62123020  1
  O  O419  1  0.14409085  0.13304165  0.33193216  1
  O  O420  1  0.13779016  0.12944009  0.88306213  1
  O  O421  1  0.13016952  0.63356679  0.37745319  1
  O  O422  1  0.11777494  0.63461072  0.88312505  1
  O  O423  1  0.61904793  0.13675053  0.38457618  1
  O  O424  1  0.62988738  0.13303461  0.88388909  1
  O  O425  1  0.64143188  0.62751369  0.37671883  1
  O  O426  1  0.63336490  0.63011411  0.88681304  1
