# generated using pymatgen
data_V85Zn86O256
_symmetry_space_group_name_H-M   'P 1'
_cell_length_a   16.94675924
_cell_length_b   16.94580702
_cell_length_c   16.93433092
_cell_angle_alpha   90.00122181
_cell_angle_beta   90.00222142
_cell_angle_gamma   90.08671379
_symmetry_Int_Tables_number   1
_chemical_formula_structural   V85Zn86O256
_chemical_formula_sum   'V85 Zn86 O256'
_cell_volume   4863.13650816
_cell_formula_units_Z   1
loop_
 _symmetry_equiv_pos_site_id
 _symmetry_equiv_pos_as_xyz
  1  'x, y, z'
loop_
 _atom_site_type_symbol
 _atom_site_label
 _atom_site_symmetry_multiplicity
 _atom_site_fract_x
 _atom_site_fract_y
 _atom_site_fract_z
 _atom_site_occupancy
  V  V0  1  0.74445183  0.24837647  0.50283209  1
  V  V1  1  0.75187506  0.00137707  0.25089087  1
  V  V2  1  0.26516487  0.75372810  0.00147446  1
  V  V3  1  0.49716884  -0.00818849  -0.00007728  1
  V  V4  1  0.12671982  0.00135408  0.12422336  1
  V  V5  1  0.49565367  0.12775918  0.12959453  1
  V  V6  1  0.62283292  0.36746572  0.25336402  1
  V  V7  1  0.50478054  0.13591215  0.62258336  1
  V  V8  1  0.62668699  0.73654506  0.86862331  1
  V  V9  1  0.87542078  0.62592540  0.75281145  1
  V  V10  1  0.87445080  0.74118488  0.62149906  1
  V  V11  1  0.62227953  0.87309902  0.75277450  1
  V  V12  1  0.24963294  0.25363352  0.51363733  1
  V  V13  1  0.62609232  -0.00029832  0.12323012  1
  V  V14  1  0.49858957  0.37309921  0.38162722  1
  V  V15  1  0.12523410  0.50516680  0.60153490  1
  V  V16  1  -0.00283724  0.50190304  0.00320697  1
  V  V17  1  -0.00821767  0.24461604  0.75392845  1
  V  V18  1  0.24680816  0.74644842  0.48096091  1
  V  V19  1  0.87831128  0.13557029  0.25382500  1
  V  V20  1  -0.00618609  0.87811010  0.87397776  1
  V  V21  1  0.37360047  0.36451228  0.00139331  1
  V  V22  1  0.12600367  0.87502243  0.74908363  1
  V  V23  1  0.25162253  0.62198973  0.86317133  1
  V  V24  1  0.87357201  0.75433473  0.12004575  1
  V  V25  1  0.38457102  0.13378945  0.75101604  1
  V  V26  1  0.37723495  0.00161868  0.37786090  1
  V  V27  1  0.75342632  0.37427189  0.12749379  1
  V  V28  1  0.61643191  0.62322001  0.48619960  1
  V  V29  1  0.87917206  0.38812964  0.49720295  1
  V  V30  1  0.50004394  0.62281762  0.12407582  1
  V  V31  1  0.74214282  0.12447432  0.38123055  1
  V  V32  1  0.25580423  0.00319670  0.25139426  1
  V  V33  1  0.87267832  0.37637596  -0.00110311  1
  V  V34  1  0.86562491  0.50405920  0.87515028  1
  V  V35  1  -0.00427646  0.37892830  0.87073282  1
  V  V36  1  0.48578709  0.74186147  0.74479660  1
  V  V37  1  0.12202577  0.12513477  0.50630228  1
  V  V38  1  0.25317774  0.13002818  0.87915308  1
  V  V39  1  0.12525286  0.74674207  0.87823587  1
  V  V40  1  0.75073376  0.24917539  0.00045755  1
  V  V41  1  0.24921334  0.36365276  0.11933080  1
  V  V42  1  0.86082052  0.62761488  0.25780845  1
  V  V43  1  0.62550816  0.12430476  -0.00504739  1
  V  V44  1  0.87324457  0.24366449  0.62710497  1
  V  V45  1  0.36821450  0.50025450  0.86882697  1
  V  V46  1  0.37813412  0.49884160  0.37778839  1
  V  V47  1  0.12940184  0.87331666  0.24884119  1
  V  V48  1  0.74987195  0.87587066  0.12232275  1
  V  V49  1  -0.00536631  0.00196825  -0.00328199  1
  V  V50  1  0.74944252  0.87259320  0.62523227  1
  V  V51  1  0.74316641  0.74329015  0.48659604  1
  V  V52  1  0.11391974  0.36811105  0.24760837  1
  V  V53  1  0.25021639  0.49296661  0.24654120  1
  V  V54  1  0.87639104  0.00247209  0.37671694  1
  V  V55  1  0.11667743  0.24833444  0.37409802  1
  V  V56  1  0.76905847  0.11802734  0.87773221  1
  V  V57  1  0.00837229  0.87931486  0.37658686  1
  V  V58  1  0.50239751  0.36968234  0.85661693  1
  V  V59  1  0.12817447  0.12787108  -0.00102118  1
  V  V60  1  0.74665552  0.38057921  0.62638961  1
  V  V61  1  0.87414920  0.87548462  0.49974100  1
  V  V62  1  0.37583057  -0.00665684  0.87668441  1
  V  V63  1  0.12600434  0.49945127  0.12401672  1
  V  V64  1  0.50291240  0.87313019  0.37868431  1
  V  V65  1  0.62572758  0.86974545  0.25276516  1
  V  V66  1  0.50176585  0.74731122  0.25440692  1
  V  V67  1  0.25253848  0.00406683  0.74611991  1
  V  V68  1  0.12949785  0.25485563  0.87669591  1
  V  V69  1  0.62381080  0.00241001  0.62266756  1
  V  V70  1  0.49771029  0.49490213  -0.00126559  1
  V  V71  1  0.37091059  0.62398270  0.24696426  1
  V  V72  1  0.00059101  0.74735247  0.74554927  1
  V  V73  1  0.74735801  0.50344831  0.74570304  1
  V  V74  1  0.13685024  0.38562539  0.74298001  1
  V  V75  1  0.25594130  0.12858449  0.37737441  1
  V  V76  1  0.74871087  0.74291801  -0.00743019  1
  V  V77  1  0.25888066  0.85999560  0.62702271  1
  V  V78  1  0.61910912  0.50614288  0.62411964  1
  V  V79  1  0.62578450  0.49715013  0.12551180  1
  V  V80  1  0.76243971  0.00122936  0.75530807  1
  V  V81  1  0.37191602  0.37816938  0.50634301  1
  V  V82  1  -0.00027620  0.62678890  0.12645468  1
  V  V83  1  -0.00261041  0.75597785  0.25028178  1
  V  V84  1  0.00242274  0.13221395  0.13113599  1
  Zn  Zn85  1  -0.00303994  0.11977939  0.63466791  1
  Zn  Zn86  1  0.38065995  0.87059009  0.50810773  1
  Zn  Zn87  1  0.88286030  0.25728373  0.13213668  1
  Zn  Zn88  1  0.13122236  0.62687016  0.00414979  1
  Zn  Zn89  1  0.36764420  0.24244231  0.12928666  1
  Zn  Zn90  1  0.49615664  0.86831344  0.87821475  1
  Zn  Zn91  1  0.48478122  0.63489263  0.61471839  1
  Zn  Zn92  1  0.23866668  0.61638223  0.37949621  1
  Zn  Zn93  1  0.12491676  0.00053891  0.62541391  1
  Zn  Zn94  1  0.62841751  0.61942663  -0.00465580  1
  Zn  Zn95  1  0.38258048  0.76139981  0.12036861  1
  Zn  Zn96  1  0.25756544  0.88054349  0.11439884  1
  Zn  Zn97  1  -0.00424051  0.60704716  0.59761079  1
  Zn  Zn98  1  0.50332245  0.00234808  0.50202545  1
  Zn  Zn99  1  0.61651491  0.24873809  0.86137453  1
  Zn  Zn100  1  0.61944644  0.24327412  0.38236551  1
  Zn  Zn101  1  0.00127709  0.00036017  0.50534248  1
  Zn  Zn102  1  0.74852071  0.49919393  0.26396138  1
  Zn  Zn103  1  0.48687058  0.24297418  0.25838654  1
  Zn  Zn104  1  0.37948480  0.26469802  0.63519699  1
  Zn  Zn105  1  0.00064638  0.38054413  0.38620424  1
  Zn  Zn106  1  0.87067609  0.87963630  -0.00732881  1
  Zn  Zn107  1  0.18987811  0.18559290  0.19153965  1
  Zn  Zn108  1  0.18475408  0.19093841  0.69352016  1
  Zn  Zn109  1  0.14944990  0.65526574  0.23899290  1
  Zn  Zn110  1  0.18232942  0.67969080  0.68361533  1
  Zn  Zn111  1  0.68672225  0.18730078  0.18788248  1
  Zn  Zn112  1  0.68709416  0.18411993  0.69132492  1
  Zn  Zn113  1  0.68408985  0.68995292  0.18241148  1
  Zn  Zn114  1  0.68757776  0.68300297  0.68231219  1
  Zn  Zn115  1  0.31182689  0.30853690  0.31242141  1
  Zn  Zn116  1  0.31431985  0.31536961  0.81507995  1
  Zn  Zn117  1  0.31810046  0.81529711  0.30820441  1
  Zn  Zn118  1  0.30990182  0.81185890  0.81428275  1
  Zn  Zn119  1  0.80977928  0.31539606  0.31816387  1
  Zn  Zn120  1  0.78157586  0.29667825  0.79528755  1
  Zn  Zn121  1  0.81469118  0.81593883  0.31246824  1
  Zn  Zn122  1  0.81063526  0.81167595  0.81052527  1
  Zn  Zn123  1  0.19023040  0.43268138  0.43328479  1
  Zn  Zn124  1  0.18640756  0.43760137  0.93960333  1
  Zn  Zn125  1  0.18993330  0.93721199  0.44219915  1
  Zn  Zn126  1  0.18589120  0.93788028  0.93463311  1
  Zn  Zn127  1  0.68446623  0.43545267  0.44185966  1
  Zn  Zn128  1  0.68438123  0.43516198  0.93432460  1
  Zn  Zn129  1  0.68725158  0.93584753  0.43929427  1
  Zn  Zn130  1  0.68613929  0.93338590  0.93465470  1
  Zn  Zn131  1  0.31441462  0.06003084  0.06024297  1
  Zn  Zn132  1  0.31669969  0.06440214  0.56363306  1
  Zn  Zn133  1  0.31208450  0.56329483  0.05836454  1
  Zn  Zn134  1  0.30043638  0.56609417  0.56202036  1
  Zn  Zn135  1  0.81644468  0.06498190  0.06568518  1
  Zn  Zn136  1  0.81169819  0.06266577  0.56457742  1
  Zn  Zn137  1  0.81123919  0.56376800  0.06781226  1
  Zn  Zn138  1  0.81467117  0.56268961  0.43712379  1
  Zn  Zn139  1  0.43774239  0.43058705  0.18938764  1
  Zn  Zn140  1  0.40947364  0.48086061  0.66516865  1
  Zn  Zn141  1  0.43613347  0.93938241  0.18896241  1
  Zn  Zn142  1  0.44042874  0.94000761  0.69198897  1
  Zn  Zn143  1  0.97094885  0.47906040  0.24176019  1
  Zn  Zn144  1  0.93744944  0.43575085  0.68343420  1
  Zn  Zn145  1  0.93776724  0.94390028  0.18575148  1
  Zn  Zn146  1  0.93925430  0.93371027  0.68340123  1
  Zn  Zn147  1  0.06586886  0.06281885  0.31454053  1
  Zn  Zn148  1  0.06426094  0.06270456  0.81406741  1
  Zn  Zn149  1  0.05427046  0.56815143  0.40734477  1
  Zn  Zn150  1  0.05963671  0.56310367  0.81057589  1
  Zn  Zn151  1  0.56319307  0.05745218  0.31133827  1
  Zn  Zn152  1  0.56520602  0.06074167  0.81150883  1
  Zn  Zn153  1  0.56123931  0.55609691  0.31130934  1
  Zn  Zn154  1  0.55750354  0.55848723  0.80833645  1
  Zn  Zn155  1  0.43600221  0.19042358  0.44517555  1
  Zn  Zn156  1  0.44049871  0.18677541  0.93847081  1
  Zn  Zn157  1  0.42835086  0.69079684  0.43639371  1
  Zn  Zn158  1  0.44098314  0.68078525  0.93092191  1
  Zn  Zn159  1  0.93470837  0.19108354  0.44282610  1
  Zn  Zn160  1  0.93938855  0.19190871  0.94246326  1
  Zn  Zn161  1  0.93788549  0.69894605  0.43429601  1
  Zn  Zn162  1  0.93764782  0.68804420  0.93663766  1
  Zn  Zn163  1  0.06281130  0.31310381  0.05883546  1
  Zn  Zn164  1  0.06078940  0.31283263  0.56816128  1
  Zn  Zn165  1  0.06704611  0.81533224  0.06162818  1
  Zn  Zn166  1  0.06594515  0.80949956  0.56193777  1
  Zn  Zn167  1  0.56456834  0.31053964  0.05898789  1
  Zn  Zn168  1  0.56294453  0.31796837  0.56520437  1
  Zn  Zn169  1  0.56475877  0.80951730  0.06226710  1
  Zn  Zn170  1  0.56389671  0.80999422  0.56481967  1
  O  O171  1  0.12082750  0.12105860  0.12145962  1
  O  O172  1  0.12253736  0.12575931  0.61976152  1
  O  O173  1  0.11455413  0.62053779  0.13092679  1
  O  O174  1  0.11678997  0.60991435  0.62302642  1
  O  O175  1  0.62151520  0.11906661  0.11386525  1
  O  O176  1  0.61318427  0.11838207  0.63441954  1
  O  O177  1  0.61836861  0.61374320  0.12369401  1
  O  O178  1  0.61919528  0.61630342  0.61595334  1
  O  O179  1  0.38069777  0.37923192  0.38091214  1
  O  O180  1  0.38226575  0.37936554  0.88505337  1
  O  O181  1  0.38911189  0.88336720  0.37377228  1
  O  O182  1  0.37629345  0.88968509  0.86877660  1
  O  O183  1  0.87717995  0.36704754  0.39339575  1
  O  O184  1  0.88216491  0.38437963  0.88135099  1
  O  O185  1  0.88390048  0.88315284  0.37935423  1
  O  O186  1  0.89023474  0.86926066  0.87356987  1
  O  O187  1  0.25698733  0.00540360  0.37165503  1
  O  O188  1  0.25639982  0.00611101  0.86599169  1
  O  O189  1  0.25815957  0.49565932  0.36059520  1
  O  O190  1  0.26047360  0.50733647  0.88573484  1
  O  O191  1  0.75597542  0.00553949  0.37215168  1
  O  O192  1  0.74830016  0.00263220  0.86462916  1
  O  O193  1  0.75077487  0.49501207  0.37550607  1
  O  O194  1  0.75994108  0.49555924  0.86887526  1
  O  O195  1  0.24564593  0.49112930  0.12688165  1
  O  O196  1  0.22451532  0.49737697  0.61892962  1
  O  O197  1  0.24563454  1.00326492  0.13384792  1
  O  O198  1  0.25041312  0.99862285  0.63800752  1
  O  O199  1  0.73763842  0.49246128  0.12524997  1
  O  O200  1  0.74094841  0.49445834  0.63183807  1
  O  O201  1  0.74679742  0.99496785  0.12962570  1
  O  O202  1  0.74479753  0.99651598  0.63681177  1
  O  O203  1  0.01387168  0.36774442  0.23707820  1
  O  O204  1  0.00306538  0.36868818  0.76187496  1
  O  O205  1  0.00588362  0.87524512  0.25327511  1
  O  O206  1  0.00887395  0.86984662  0.75525581  1
  O  O207  1  0.50696953  0.36927620  0.25970434  1
  O  O208  1  0.49435322  0.37644903  0.76128069  1
  O  O209  1  0.50817220  0.86891187  0.25520370  1
  O  O210  1  0.50764068  0.86535797  0.75256594  1
  O  O211  1  0.51015016  0.12393692  0.23286353  1
  O  O212  1  0.49413307  0.12196027  0.74193765  1
  O  O213  1  0.49496225  0.63076728  0.24626232  1
  O  O214  1  0.50175431  0.63976506  0.74821675  1
  O  O215  1  0.99231696  0.11875955  0.24296119  1
  O  O216  1  1.00335779  0.14034443  0.75572928  1
  O  O217  1  0.98420148  0.64152812  0.23693422  1
  O  O218  1  0.98907700  0.63259041  0.75054985  1
  O  O219  1  0.37974544  0.26089068  0.00541571  1
  O  O220  1  0.36628733  0.25934710  0.50718008  1
  O  O221  1  0.36874570  0.74772633  -0.00488247  1
  O  O222  1  0.35700882  0.75680948  0.49743894  1
  O  O223  1  0.87030239  0.25917052  0.00848006  1
  O  O224  1  0.86467619  0.25471498  0.51015761  1
  O  O225  1  0.86813279  0.75397096  0.00423249  1
  O  O226  1  0.86261134  0.75527212  0.50455611  1
  O  O227  1  0.13168801  0.24610729  0.49694446  1
  O  O228  1  0.11935259  0.24413247  0.98452503  1
  O  O229  1  0.14829071  0.76195774  0.50169523  1
  O  O230  1  0.12802209  0.74847036  0.98780512  1
  O  O231  1  0.63987982  0.25472098  0.50227543  1
  O  O232  1  0.63403346  0.24116149  0.99532090  1
  O  O233  1  0.63590237  0.73848061  0.50534365  1
  O  O234  1  0.63118204  0.74714731  0.98902261  1
  O  O235  1  0.50432074  0.23328508  0.12251445  1
  O  O236  1  0.50124452  0.23980350  0.62600350  1
  O  O237  1  0.50158798  0.74226529  0.13388342  1
  O  O238  1  0.49945342  0.75070385  0.63948126  1
  O  O239  1  1.00147562  0.23610127  0.11993850  1
  O  O240  1  0.99099087  0.24958693  0.63745436  1
  O  O241  1  0.99217322  0.75047346  0.12836839  1
  O  O242  1  0.99126641  0.75403053  0.63082836  1
  O  O243  1  0.01399610  0.25065273  0.38024837  1
  O  O244  1  0.00338398  0.26041987  0.87220424  1
  O  O245  1  -0.00769395  0.76576664  0.35712960  1
  O  O246  1  0.00825681  0.75610039  0.86939198  1
  O  O247  1  0.50208911  0.25404630  0.37583483  1
  O  O248  1  0.49986404  0.26294265  0.87591280  1
  O  O249  1  0.49472825  0.75799518  0.36194776  1
  O  O250  1  0.50848326  0.75009866  0.86569475  1
  O  O251  1  0.24178757  0.13133839  0.49669663  1
  O  O252  1  0.24555123  0.11935472  0.98666690  1
  O  O253  1  0.24945306  0.64094294  0.49279925  1
  O  O254  1  0.24962548  0.63711471  0.99079309  1
  O  O255  1  0.75475195  0.13270331  0.49163788  1
  O  O256  1  0.74507928  0.12724519  0.99759121  1
  O  O257  1  0.74181180  0.63810087  0.49524488  1
  O  O258  1  0.74799887  0.63888305  1.00560885  1
  O  O259  1  0.25959236  0.37824041  0.00791929  1
  O  O260  1  0.25866291  0.36302184  0.49358118  1
  O  O261  1  0.24591824  0.85868768  -0.00704313  1
  O  O262  1  0.25299264  0.87199849  0.51584208  1
  O  O263  1  0.75065923  0.36647121  0.00475525  1
  O  O264  1  0.75935713  0.36777117  0.50792685  1
  O  O265  1  0.75106425  0.86666599  0.00456830  1
  O  O266  1  0.75192467  0.86632515  0.50721531  1
  O  O267  1  0.13750528  0.48409654  0.23778985  1
  O  O268  1  0.12490991  0.48516626  0.75857348  1
  O  O269  1  0.13133963  0.99161552  0.24515720  1
  O  O270  1  0.13504024  0.99182006  0.75223585  1
  O  O271  1  0.62544163  0.48658405  0.24170643  1
  O  O272  1  0.63610491  0.51044792  0.73894216  1
  O  O273  1  0.63184534  0.98966213  0.24330846  1
  O  O274  1  0.63228121  0.99055955  0.74393793  1
  O  O275  1  0.36776529  0.00013678  0.26479135  1
  O  O276  1  0.36993097  0.01142514  0.75749518  1
  O  O277  1  0.36998593  0.50248743  0.25405909  1
  O  O278  1  0.36791999  0.48392518  0.77188979  1
  O  O279  1  0.86896677  0.00886310  0.25591617  1
  O  O280  1  0.86048307  -0.00978448  0.74758906  1
  O  O281  1  0.86544137  0.52556415  0.23695478  1
  O  O282  1  0.87354559  0.50883472  0.75679337  1
  O  O283  1  0.12430761  0.36437783  0.36459455  1
  O  O284  1  0.11713951  0.37056227  0.87183663  1
  O  O285  1  0.11470693  0.88389551  0.36686166  1
  O  O286  1  0.11967252  0.86782473  0.86468767  1
  O  O287  1  0.61545430  0.37182310  0.36983558  1
  O  O288  1  0.60549260  0.37662621  0.87729946  1
  O  O289  1  0.61294450  0.88270497  0.36669913  1
  O  O290  1  0.62256030  0.86642782  0.86306550  1
  O  O291  1  0.39226189  0.12350404  0.11800212  1
  O  O292  1  0.38860486  0.12589614  0.63452181  1
  O  O293  1  0.38358153  0.62253539  0.13297087  1
  O  O294  1  0.38550063  0.58568598  0.62869407  1
  O  O295  1  0.88473358  0.12719978  0.13613334  1
  O  O296  1  0.87689330  0.13865390  0.62307247  1
  O  O297  1  0.87726433  0.64056566  0.12893274  1
  O  O298  1  0.88218032  0.63720362  0.63135307  1
  O  O299  1  0.24682808  0.25944456  0.12321877  1
  O  O300  1  0.25255437  0.24598663  0.61657649  1
  O  O301  1  0.25502672  0.75049532  0.10298667  1
  O  O302  1  0.25081852  0.75978914  0.63117015  1
  O  O303  1  0.75041213  0.25567038  0.11595518  1
  O  O304  1  0.75627965  0.25603348  0.62066707  1
  O  O305  1  0.75524166  0.75756723  0.11669942  1
  O  O306  1  0.75756917  0.75323100  0.61763885  1
  O  O307  1  0.24312184  0.24132905  0.38480759  1
  O  O308  1  0.24181845  0.24232888  0.87199378  1
  O  O309  1  0.25041489  0.75197605  0.37796565  1
  O  O310  1  0.24384045  0.74343520  0.88052586  1
  O  O311  1  0.74727001  0.24084322  0.38439487  1
  O  O312  1  0.76107871  0.23693559  0.89349904  1
  O  O313  1  0.74878305  0.76041801  0.38883327  1
  O  O314  1  0.74079806  0.75430125  0.88147897  1
  O  O315  1  0.00735849  0.11866351  0.00587501  1
  O  O316  1  0.01331478  0.12669228  0.50112535  1
  O  O317  1  -0.00107111  0.62247513  0.01355933  1
  O  O318  1  -0.00002443  0.62710919  0.48747814  1
  O  O319  1  0.50944576  0.11610496  0.00570558  1
  O  O320  1  0.49773394  0.12246389  0.51826500  1
  O  O321  1  0.50137351  0.61054956  0.00428355  1
  O  O322  1  0.51257719  0.63685947  0.49777884  1
  O  O323  1  0.49175360  0.37077286  0.48871781  1
  O  O324  1  0.49263026  0.38355492  1.00176576  1
  O  O325  1  0.50083627  0.87565044  0.49289395  1
  O  O326  1  0.50779595  0.88788043  0.99856943  1
  O  O327  1  0.98336455  0.36956204  0.50448575  1
  O  O328  1  0.99467701  0.38296713  0.99231754  1
  O  O329  1  0.99584365  0.87361755  0.49051142  1
  O  O330  1  1.00194986  0.88324002  0.99067399  1
  O  O331  1  0.48835302  0.48802528  0.36923666  1
  O  O332  1  0.49027522  0.49215595  0.88079620  1
  O  O333  1  0.49409266  0.99566828  0.37876032  1
  O  O334  1  0.49355300  0.99935435  0.88261291  1
  O  O335  1  1.00015279  0.48735363  0.35028601  1
  O  O336  1  0.99016505  0.49523344  0.88089236  1
  O  O337  1  0.99397110  0.99481312  0.37800632  1
  O  O338  1  1.00770843  0.99063670  0.88377592  1
  O  O339  1  0.00776295  0.00963406  0.11782106  1
  O  O340  1  0.00509431  0.00284577  0.62430254  1
  O  O341  1  0.00464984  0.51161219  0.12868059  1
  O  O342  1  0.01724190  0.49732491  0.63232717  1
  O  O343  1  0.50586206  0.00899484  0.11896103  1
  O  O344  1  0.50836702  0.00797925  0.62618656  1
  O  O345  1  0.50886444  0.49955543  0.11960010  1
  O  O346  1  0.52136819  0.48893771  0.63046690  1
  O  O347  1  0.24712285  0.38035950  0.23948117  1
  O  O348  1  0.23442005  0.36978958  0.75317190  1
  O  O349  1  0.24273943  0.88663890  0.25262435  1
  O  O350  1  0.24553421  0.88122836  0.74401980  1
  O  O351  1  0.74321218  0.37463599  0.24291235  1
  O  O352  1  0.76411688  0.39590650  0.73839158  1
  O  O353  1  0.74332241  0.87964520  0.24529672  1
  O  O354  1  0.74289438  0.88181438  0.74550138  1
  O  O355  1  0.24396400  0.11123198  0.26225041  1
  O  O356  1  0.25517771  0.11936435  0.75952216  1
  O  O357  1  0.26084158  0.60849923  0.24079534  1
  O  O358  1  0.24658342  0.62926935  0.76389192  1
  O  O359  1  0.75764930  0.12017271  0.25633954  1
  O  O360  1  0.75102642  0.10800790  0.76178664  1
  O  O361  1  0.75864386  0.63173226  0.24640142  1
  O  O362  1  0.76531764  0.61725540  0.74274989  1
  O  O363  1  0.36297904  0.11965910  0.38443696  1
  O  O364  1  0.37066865  0.11969730  0.87032074  1
  O  O365  1  0.37158527  0.61564345  0.36249761  1
  O  O366  1  0.36893522  0.60815362  0.87723437  1
  O  O367  1  0.86912430  0.12131047  0.37053632  1
  O  O368  1  0.86824630  0.11987963  0.88629134  1
  O  O369  1  0.87038607  0.63439220  0.36132471  1
  O  O370  1  0.87847658  0.61655588  0.86715711  1
  O  O371  1  0.13222158  0.37705414  0.12594571  1
  O  O372  1  0.12072684  0.38335373  0.63767300  1
  O  O373  1  0.13180138  0.88434739  0.13086817  1
  O  O374  1  0.13596324  0.87557242  0.63733761  1
  O  O375  1  0.63202326  0.37781261  0.13057305  1
  O  O376  1  0.63952604  0.38721370  0.61607283  1
  O  O377  1  0.62979165  0.88041627  0.13209545  1
  O  O378  1  0.62992934  0.87996976  0.63571438  1
  O  O379  1  0.13361875  0.25627691  0.26181960  1
  O  O380  1  0.11539360  0.26051370  0.76034666  1
  O  O381  1  0.11215150  0.76721750  0.24011475  1
  O  O382  1  0.12189826  0.75548204  0.75827332  1
  O  O383  1  0.62356020  0.25999215  0.25238687  1
  O  O384  1  0.67269868  0.26336681  0.76559647  1
  O  O385  1  0.61874392  0.76175928  0.24640567  1
  O  O386  1  0.62485115  0.75501295  0.75405602  1
  O  O387  1  0.37487120  0.24978682  0.24246272  1
  O  O388  1  0.36926787  0.23804428  0.74972869  1
  O  O389  1  0.38225279  0.73902620  0.24620822  1
  O  O390  1  0.38789780  0.75188425  0.75655074  1
  O  O391  1  0.87052957  0.23908293  0.25087442  1
  O  O392  1  0.88026615  0.25773190  0.74196315  1
  O  O393  1  0.87694390  0.74836058  0.24043737  1
  O  O394  1  0.87775282  0.74481051  0.74280823  1
  O  O395  1  0.36161725  0.49270950  0.48313783  1
  O  O396  1  0.38236794  0.49055313  0.99409434  1
  O  O397  1  0.37588398  0.99521534  0.48959878  1
  O  O398  1  0.38544334  1.00477191  0.98933865  1
  O  O399  1  0.87282030  0.48725738  0.50437120  1
  O  O400  1  0.87680260  0.49807196  0.99484664  1
  O  O401  1  0.87602986  0.99308355  0.49557285  1
  O  O402  1  0.89046602  0.99725656  1.00742180  1
  O  O403  1  0.11906425  0.00696083  0.00411667  1
  O  O404  1  0.12535552  0.01070084  0.50357187  1
  O  O405  1  0.11547119  0.50433692  0.00694965  1
  O  O406  1  0.12038821  0.49720837  0.49762766  1
  O  O407  1  0.62073561  0.00540188  0.00358033  1
  O  O408  1  0.62776301  -0.00427441  0.51848109  1
  O  O409  1  0.61762111  0.49856670  0.00686979  1
  O  O410  1  0.62910640  0.51562625  0.51028225  1
  O  O411  1  0.36611999  0.37447832  0.11712875  1
  O  O412  1  0.38028618  0.38206722  0.61039981  1
  O  O413  1  0.36969010  0.87414811  0.12979965  1
  O  O414  1  0.36114966  0.88141833  0.62947431  1
  O  O415  1  0.85884562  0.37704395  0.11970377  1
  O  O416  1  0.86630744  0.36829730  0.61668211  1
  O  O417  1  0.87115264  0.86679294  0.12362444  1
  O  O418  1  0.86940259  0.86434936  0.61864506  1
  O  O419  1  0.13465643  0.13011965  0.38323532  1
  O  O420  1  0.13435726  0.13382871  0.87707397  1
  O  O421  1  0.13188421  0.62194302  0.34465801  1
  O  O422  1  0.12991196  0.63202585  0.87693563  1
  O  O423  1  0.63824230  0.12269668  0.37030131  1
  O  O424  1  0.63126939  0.12506747  0.88571908  1
  O  O425  1  0.62063993  0.61961455  0.38691577  1
  O  O426  1  0.62237514  0.63317747  0.87455993  1
