# generated using pymatgen
data_V85Zn86O256
_symmetry_space_group_name_H-M   'P 1'
_cell_length_a   16.94102684
_cell_length_b   16.94493856
_cell_length_c   16.93961822
_cell_angle_alpha   90.07222097
_cell_angle_beta   90.00752407
_cell_angle_gamma   90.01235691
_symmetry_Int_Tables_number   1
_chemical_formula_structural   V85Zn86O256
_chemical_formula_sum   'V85 Zn86 O256'
_cell_volume   4862.76171014
_cell_formula_units_Z   1
loop_
 _symmetry_equiv_pos_site_id
 _symmetry_equiv_pos_as_xyz
  1  'x, y, z'
loop_
 _atom_site_type_symbol
 _atom_site_label
 _atom_site_symmetry_multiplicity
 _atom_site_fract_x
 _atom_site_fract_y
 _atom_site_fract_z
 _atom_site_occupancy
  V  V0  1  -0.00178977  0.12967542  0.13082466  1
  V  V1  1  0.62514010  0.62706040  0.50453195  1
  V  V2  1  0.49771540  0.12644520  0.62713647  1
  V  V3  1  0.11565764  0.36709036  0.24926208  1
  V  V4  1  0.12449537  0.50944906  0.12840557  1
  V  V5  1  0.49159283  0.50298763  -0.00638552  1
  V  V6  1  -0.00478053  0.64067119  0.13182441  1
  V  V7  1  0.10781121  0.75227614  0.37298125  1
  V  V8  1  0.24979936  0.87753874  0.62804257  1
  V  V9  1  0.87731434  0.48745723  0.87876045  1
  V  V10  1  0.62354252  0.00197714  0.11929627  1
  V  V11  1  0.37569103  0.87611971  0.50192726  1
  V  V12  1  0.75123039  0.75214004  0.50077671  1
  V  V13  1  0.50110866  0.62518667  0.12905553  1
  V  V14  1  0.11349171  0.87475828  0.25342220  1
  V  V15  1  0.87214244  0.64224943  0.25025220  1
  V  V16  1  0.12921894  0.00297367  0.63019815  1
  V  V17  1  0.38279499  0.50254883  0.37194882  1
  V  V18  1  0.75291080  0.88037736  0.63295064  1
  V  V19  1  0.00562865  0.49841299  0.00388967  1
  V  V20  1  -0.00502532  -0.00090727  0.00250044  1
  V  V21  1  0.25327604  0.49756362  0.24908472  1
  V  V22  1  0.10787297  0.24955406  0.36938209  1
  V  V23  1  0.23745778  0.38288257  0.62037946  1
  V  V24  1  -0.00125978  0.87637821  0.88067478  1
  V  V25  1  0.00039068  0.13047221  0.62584386  1
  V  V26  1  0.62443048  0.37629467  0.75096445  1
  V  V27  1  0.75741867  0.37649434  0.62295636  1
  V  V28  1  0.39203763  0.24575092  0.12414391  1
  V  V29  1  0.24762385  0.75805095  -0.00022132  1
  V  V30  1  0.50065907  0.62917324  0.63185364  1
  V  V31  1  0.37666777  0.75609803  0.11920066  1
  V  V32  1  0.75093034  0.50643971  0.75854612  1
  V  V33  1  0.87792265  -0.00740442  0.37264478  1
  V  V34  1  0.25135931  0.12798250  0.37204066  1
  V  V35  1  0.62904419  0.00222686  0.63706061  1
  V  V36  1  0.36569764  -0.00909056  0.86952252  1
  V  V37  1  0.37029009  0.37167142  -0.00345525  1
  V  V38  1  0.24864699  0.25114739  0.49699216  1
  V  V39  1  0.12537734  0.00014827  0.12499738  1
  V  V40  1  0.75660645  0.25140274  0.49838650  1
  V  V41  1  0.61921688  0.74557090  0.86670833  1
  V  V42  1  0.50006894  0.74970701  0.24915933  1
  V  V43  1  0.24854554  0.12970431  0.87120037  1
  V  V44  1  0.12941277  0.88074701  0.75365905  1
  V  V45  1  0.87166153  0.25071447  0.13588621  1
  V  V46  1  -0.07114102  0.43791493  0.43075729  1
  V  V47  1  0.36983713  0.25341625  0.63171917  1
  V  V48  1  0.00192599  -0.00784192  0.49630051  1
  V  V49  1  0.79777306  0.68098901  0.93641167  1
  V  V50  1  0.12458123  0.12588483  0.49803983  1
  V  V51  1  0.62655812  0.75149933  0.37465038  1
  V  V52  1  0.37667065  0.00187381  0.37498098  1
  V  V53  1  0.62705702  0.12647253  0.50044511  1
  V  V54  1  0.37387197  0.62269492  0.75426361  1
  V  V55  1  0.87411348  0.12298344  0.74977176  1
  V  V56  1  0.50718305  0.36682566  0.36227658  1
  V  V57  1  0.24985324  0.74859208  0.49408442  1
  V  V58  1  0.25243557  -0.00165791  0.24850925  1
  V  V59  1  0.62361011  0.25067629  0.87338520  1
  V  V60  1  0.37830026  0.75168951  0.62983132  1
  V  V61  1  0.25190221  0.36280728  0.12557373  1
  V  V62  1  0.76030301  0.86514863  0.10564184  1
  V  V63  1  0.63057628  0.49429064  0.12147330  1
  V  V64  1  0.24715488  0.61803850  0.88455565  1
  V  V65  1  0.87752808  0.37386882  0.01244468  1
  V  V66  1  0.38885755  0.12800396  0.24585958  1
  V  V67  1  0.12951276  0.13473771  0.00109934  1
  V  V68  1  0.48983869  0.00336807  0.00212245  1
  V  V69  1  0.49496602  0.25145997  0.75029982  1
  V  V70  1  0.62584005  0.50068477  0.62709544  1
  V  V71  1  0.00483396  0.61683395  0.61996936  1
  V  V72  1  0.86871395  -0.00325418  0.87483648  1
  V  V73  1  0.49721111  0.87078819  0.87475826  1
  V  V74  1  0.24138841  0.50523747  0.74199747  1
  V  V75  1  0.50199310  0.00063706  0.50255132  1
  V  V76  1  0.87785376  0.75055017  0.62645198  1
  V  V77  1  0.48998364  0.37801333  0.87124022  1
  V  V78  1  0.75005961  0.25439106  0.00236761  1
  V  V79  1  0.75081044  -0.00388774  0.24644173  1
  V  V80  1  0.38051525  0.37543856  0.49982435  1
  V  V81  1  0.62527578  0.63096308  -0.00411215  1
  V  V82  1  0.00314629  0.74962104  0.75083352  1
  V  V83  1  0.50152504  0.87520616  0.37534074  1
  V  V84  1  0.74704884  0.12241585  0.87101522  1
  Zn  Zn85  1  0.24601785  0.62206587  0.37562991  1
  Zn  Zn86  1  0.75684316  0.49040088  0.25776112  1
  Zn  Zn87  1  0.75020691  0.12219342  0.37303194  1
  Zn  Zn88  1  0.87822139  0.25508369  0.62616332  1
  Zn  Zn89  1  0.37495457  0.62581382  0.25007772  1
  Zn  Zn90  1  0.88187695  0.87147104  0.49643445  1
  Zn  Zn91  1  0.50311981  0.49922799  0.50092616  1
  Zn  Zn92  1  0.62281064  0.24334890  0.36461988  1
  Zn  Zn93  1  0.62762727  0.87186482  0.24005728  1
  Zn  Zn94  1  0.62354075  0.87355949  0.75198668  1
  Zn  Zn95  1  0.36584525  0.11854114  0.74669359  1
  Zn  Zn96  1  0.61873824  0.12643302  -0.00032033  1
  Zn  Zn97  1  -0.00262098  0.25925837  0.76644169  1
  Zn  Zn98  1  0.12636733  0.74751436  0.87884028  1
  Zn  Zn99  1  0.63334454  0.35150131  0.22501484  1
  Zn  Zn100  1  0.87589162  0.62539027  0.75693827  1
  Zn  Zn101  1  0.12859399  0.60870699  0.50931081  1
  Zn  Zn102  1  0.76142708  0.61719302  0.38047511  1
  Zn  Zn103  1  0.25444217  0.87753499  0.12372856  1
  Zn  Zn104  1  0.11422512  0.37979786  0.75671044  1
  Zn  Zn105  1  0.12005622  0.26236932  0.88059798  1
  Zn  Zn106  1  0.87792239  0.12451638  0.25377170  1
  Zn  Zn107  1  0.19139405  0.18514537  0.18665180  1
  Zn  Zn108  1  0.18366023  0.19344610  0.69334430  1
  Zn  Zn109  1  0.18893352  0.68889478  0.19319256  1
  Zn  Zn110  1  0.18711501  0.69063751  0.68685166  1
  Zn  Zn111  1  0.68754141  0.18097296  0.18640831  1
  Zn  Zn112  1  0.68903097  0.18916580  0.68843990  1
  Zn  Zn113  1  0.68994630  0.68744945  0.18431691  1
  Zn  Zn114  1  0.69148018  0.68838358  0.69024199  1
  Zn  Zn115  1  0.31676169  0.31173169  0.30989863  1
  Zn  Zn116  1  0.27926893  0.33178733  0.82834339  1
  Zn  Zn117  1  0.31459551  0.81397496  0.30997206  1
  Zn  Zn118  1  0.31175815  0.80973263  0.81349623  1
  Zn  Zn119  1  0.80279420  0.31332672  0.31283811  1
  Zn  Zn120  1  0.81447079  0.31218873  0.81196834  1
  Zn  Zn121  1  0.81174737  0.81478513  0.30992472  1
  Zn  Zn122  1  0.81411920  0.81618389  0.81183209  1
  Zn  Zn123  1  0.19008211  0.43372766  0.43254858  1
  Zn  Zn124  1  0.18970436  0.44458011  0.94199488  1
  Zn  Zn125  1  0.18736998  0.93613669  0.43650294  1
  Zn  Zn126  1  0.18527307  0.93981704  0.94031456  1
  Zn  Zn127  1  0.69274077  0.43691404  0.43745852  1
  Zn  Zn128  1  0.68631655  0.43868873  0.94032977  1
  Zn  Zn129  1  0.69092238  0.93767554  0.44075008  1
  Zn  Zn130  1  0.68282339  0.93644113  0.93742089  1
  Zn  Zn131  1  0.31370557  0.06520103  0.06047372  1
  Zn  Zn132  1  0.31036719  0.06393049  0.56248539  1
  Zn  Zn133  1  0.31436237  0.56246646  0.06559369  1
  Zn  Zn134  1  0.31439891  0.56350706  0.56004886  1
  Zn  Zn135  1  0.80977524  0.06329995  0.06100789  1
  Zn  Zn136  1  0.81455706  0.06148813  0.56086899  1
  Zn  Zn137  1  0.83382160  0.54483300  0.09531388  1
  Zn  Zn138  1  0.81752880  0.56236290  0.56388934  1
  Zn  Zn139  1  0.44256877  0.43685307  0.18439682  1
  Zn  Zn140  1  0.43239800  0.44203268  0.68712768  1
  Zn  Zn141  1  0.44029357  0.93678307  0.18706169  1
  Zn  Zn142  1  0.44104638  0.93631043  0.69268705  1
  Zn  Zn143  1  0.95296665  0.46419645  0.22970662  1
  Zn  Zn144  1  0.93828258  0.43839925  0.69007083  1
  Zn  Zn145  1  0.93335659  0.93310409  0.18356401  1
  Zn  Zn146  1  0.94123574  0.94050981  0.68982497  1
  Zn  Zn147  1  0.06206179  0.06029935  0.31286045  1
  Zn  Zn148  1  0.06018959  0.06906740  0.81427855  1
  Zn  Zn149  1  0.07425302  0.54283966  0.34793258  1
  Zn  Zn150  1  0.06187127  0.56197890  0.81455387  1
  Zn  Zn151  1  0.56842703  0.06015818  0.31089840  1
  Zn  Zn152  1  0.55473979  0.06361793  0.81564097  1
  Zn  Zn153  1  0.59042915  0.54753982  0.32497128  1
  Zn  Zn154  1  0.55956890  0.56273030  0.81324764  1
  Zn  Zn155  1  0.43704616  0.18844213  0.43953071  1
  Zn  Zn156  1  0.43032316  0.18619119  0.93637014  1
  Zn  Zn157  1  0.44029552  0.68681983  0.44122161  1
  Zn  Zn158  1  0.43425308  0.68894392  0.93747100  1
  Zn  Zn159  1  0.93289293  0.18039763  0.43902354  1
  Zn  Zn160  1  0.93627563  0.18527067  0.94320554  1
  Zn  Zn161  1  0.93601672  0.68145731  0.43747171  1
  Zn  Zn162  1  0.95962681  0.68020150  0.94296521  1
  Zn  Zn163  1  0.05898696  0.31457097  0.06668855  1
  Zn  Zn164  1  0.05575618  0.31788133  0.55324940  1
  Zn  Zn165  1  0.07057765  0.81576033  0.06183596  1
  Zn  Zn166  1  0.06651243  0.80955363  0.56250067  1
  Zn  Zn167  1  0.55891546  0.31195883  0.05268249  1
  Zn  Zn168  1  0.56519470  0.31199767  0.56290902  1
  Zn  Zn169  1  0.56551950  0.81667644  0.05583194  1
  Zn  Zn170  1  0.56315506  0.81443143  0.56690458  1
  O  O171  1  0.12077384  0.11992518  0.11966493  1
  O  O172  1  0.12117903  0.12000721  0.62095548  1
  O  O173  1  0.12063133  0.61244263  0.13891526  1
  O  O174  1  0.11100557  0.62987070  0.62478338  1
  O  O175  1  0.63070870  0.10671024  0.11664309  1
  O  O176  1  0.61964576  0.11936699  0.62176525  1
  O  O177  1  0.61738150  0.62086940  0.11398861  1
  O  O178  1  0.61842290  0.62385127  0.62394970  1
  O  O179  1  0.38687906  0.38157372  0.37904813  1
  O  O180  1  0.37507250  0.36727660  0.88555272  1
  O  O181  1  0.38086953  0.88303265  0.38141106  1
  O  O182  1  0.37837446  0.88372164  0.87226492  1
  O  O183  1  0.86795491  0.37080235  0.38686737  1
  O  O184  1  0.87328527  0.38411266  0.88589791  1
  O  O185  1  0.87038768  0.88683794  0.37927678  1
  O  O186  1  0.88458481  0.88697712  0.86845563  1
  O  O187  1  0.25654847  0.00724234  0.36950560  1
  O  O188  1  0.26256574  0.00164932  0.87997428  1
  O  O189  1  0.26663175  0.49684087  0.36425731  1
  O  O190  1  0.25333686  0.51526364  0.86702711  1
  O  O191  1  0.75544035  -0.00140253  0.36695847  1
  O  O192  1  0.75894670  0.00699030  0.88008792  1
  O  O193  1  0.70746188  0.51746904  0.36174774  1
  O  O194  1  0.75854336  0.49524373  0.86877872  1
  O  O195  1  0.24614028  0.49319948  0.13301507  1
  O  O196  1  0.24978266  0.49592767  0.62762866  1
  O  O197  1  0.24696396  1.00033652  0.13273047  1
  O  O198  1  0.23698128  0.99535551  0.62080826  1
  O  O199  1  0.72950688  0.49938538  0.10858381  1
  O  O200  1  0.74536343  0.49485614  0.63173487  1
  O  O201  1  0.74387172  0.99205184  0.12714189  1
  O  O202  1  0.74185314  0.99178713  0.61965227  1
  O  O203  1  0.01763543  0.36854911  0.23749430  1
  O  O204  1  0.00072615  0.37282243  0.75040077  1
  O  O205  1  0.01457666  0.88400198  0.24790899  1
  O  O206  1  0.00809544  0.87017867  0.75957469  1
  O  O207  1  0.50787766  0.37718846  0.26027296  1
  O  O208  1  0.50060970  0.37172998  0.75293134  1
  O  O209  1  0.50469442  0.86827965  0.25683654  1
  O  O210  1  0.50482853  0.87895521  0.76691256  1
  O  O211  1  0.48711307  0.11551868  0.25207789  1
  O  O212  1  0.49172492  0.13353948  0.74466342  1
  O  O213  1  0.50276147  0.63047927  0.23732364  1
  O  O214  1  0.49043405  0.62188076  0.74009614  1
  O  O215  1  1.00006534  0.11818560  0.23478919  1
  O  O216  1  0.99270540  0.12641788  0.74005155  1
  O  O217  1  0.98567649  0.62131496  0.23649955  1
  O  O218  1  0.99910019  0.63513670  0.74430514  1
  O  O219  1  0.37799649  0.25707150  0.01296121  1
  O  O220  1  0.36937510  0.25674773  0.50891772  1
  O  O221  1  0.36243044  0.74587783  0.00815359  1
  O  O222  1  0.36999996  0.75474604  0.51033131  1
  O  O223  1  0.86718971  0.25560631  0.00515754  1
  O  O224  1  0.85984072  0.23901132  0.50722243  1
  O  O225  1  0.86359227  0.73729585  -0.01639313  1
  O  O226  1  0.86884793  0.75185940  0.50763037  1
  O  O227  1  0.12909425  0.24626095  0.48855427  1
  O  O228  1  0.12441798  0.23788480  1.00447385  1
  O  O229  1  0.13383874  0.75250882  0.48656714  1
  O  O230  1  0.14267350  0.74742621  0.99985780  1
  O  O231  1  0.63009828  0.23627971  0.50349392  1
  O  O232  1  0.63113315  0.24749208  0.99143284  1
  O  O233  1  0.63248267  0.74717329  0.49914344  1
  O  O234  1  0.62008494  0.73707750  0.98930933  1
  O  O235  1  0.49061626  0.24977928  0.12239856  1
  O  O236  1  0.49082051  0.24660720  0.62998947  1
  O  O237  1  0.49612548  0.74527372  0.12578899  1
  O  O238  1  0.49033467  0.74375468  0.62375279  1
  O  O239  1  0.98661434  0.24012695  0.11837358  1
  O  O240  1  0.99900035  0.23671972  0.61609798  1
  O  O241  1  1.01624130  0.73738604  0.12413885  1
  O  O242  1  0.99440155  0.74961763  0.63342185  1
  O  O243  1  0.00895963  0.24007388  0.37625931  1
  O  O244  1  0.01026203  0.23266619  0.87785836  1
  O  O245  1  0.00972139  0.75372009  0.38067317  1
  O  O246  1  0.00481100  0.75687302  0.86989306  1
  O  O247  1  0.49692970  0.26407847  0.37820892  1
  O  O248  1  0.50144444  0.25574549  0.86894281  1
  O  O249  1  0.50359493  0.75724897  0.37163062  1
  O  O250  1  0.50579887  0.75818780  0.87951862  1
  O  O251  1  0.24307176  0.13056802  0.49312343  1
  O  O252  1  0.23887741  0.11544051  0.99012427  1
  O  O253  1  0.24667894  0.63378459  0.49750096  1
  O  O254  1  0.25634658  0.62814629  0.98790179  1
  O  O255  1  0.74083293  0.13051107  0.50287177  1
  O  O256  1  0.74981607  0.13439283  0.98522575  1
  O  O257  1  0.74533290  0.63751884  0.50191126  1
  O  O258  1  0.74124232  0.62400651  1.00106070  1
  O  O259  1  0.26432464  0.38514383  0.01293570  1
  O  O260  1  0.26124913  0.37203204  0.50169110  1
  O  O261  1  0.24865735  0.86203358  0.00176262  1
  O  O262  1  0.25738318  0.87025221  0.50659320  1
  O  O263  1  0.75709655  0.36135153  -0.00643281  1
  O  O264  1  0.73921038  0.36369199  0.51097927  1
  O  O265  1  0.75102088  0.87752406  0.00591694  1
  O  O266  1  0.75100860  0.86415965  0.51211175  1
  O  O267  1  0.13471705  0.48565945  0.24948514  1
  O  O268  1  0.13721127  0.49986356  0.75255310  1
  O  O269  1  0.13495234  0.99618650  0.24639644  1
  O  O270  1  0.11774739  0.99280115  0.74161432  1
  O  O271  1  0.62255362  0.50343439  0.22416755  1
  O  O272  1  0.63202290  0.49624142  0.74716003  1
  O  O273  1  0.63132057  0.99569531  0.23906569  1
  O  O274  1  0.62074786  1.00270352  0.73947438  1
  O  O275  1  0.36982941  0.00490638  0.25358441  1
  O  O276  1  0.37650371  0.00061943  0.76526919  1
  O  O277  1  0.37251702  0.49928131  0.25468927  1
  O  O278  1  0.36304307  0.51662120  0.74244549  1
  O  O279  1  0.86922367  -0.00171115  0.25642293  1
  O  O280  1  0.88043231  0.01233142  0.76015063  1
  O  O281  1  0.85932038  0.52279047  0.21421745  1
  O  O282  1  0.86912869  0.50302206  0.76424705  1
  O  O283  1  0.13239192  0.36158117  0.35738987  1
  O  O284  1  0.16869848  0.36677971  0.86525825  1
  O  O285  1  0.13071882  0.86335266  0.36790853  1
  O  O286  1  0.11860279  0.87520994  0.86838076  1
  O  O287  1  0.60844631  0.36871374  0.38576292  1
  O  O288  1  0.61510659  0.36983103  0.86956068  1
  O  O289  1  0.62060660  0.86381906  0.37949896  1
  O  O290  1  0.61825298  0.86452118  0.87340535  1
  O  O291  1  0.37200627  0.13829480  0.12987122  1
  O  O292  1  0.37735476  0.13447518  0.62577358  1
  O  O293  1  0.38507048  0.63420464  0.12616190  1
  O  O294  1  0.38207524  0.63309219  0.62879586  1
  O  O295  1  0.88257155  0.13153922  0.12450002  1
  O  O296  1  0.88328399  0.12162163  0.63377001  1
  O  O297  1  0.88946527  0.64179092  0.12453895  1
  O  O298  1  0.88299860  0.63823858  0.62862602  1
  O  O299  1  0.25750900  0.26051055  0.12700318  1
  O  O300  1  0.25464113  0.25743421  0.61740226  1
  O  O301  1  0.25734204  0.74725867  0.11538761  1
  O  O302  1  0.25458958  0.75676766  0.61361912  1
  O  O303  1  0.75823380  0.23914739  0.11143192  1
  O  O304  1  0.74956091  0.26028780  0.62068620  1
  O  O305  1  0.73911542  0.76746500  0.12156913  1
  O  O306  1  0.75910141  0.75541793  0.62104462  1
  O  O307  1  0.25029288  0.24358901  0.37956482  1
  O  O308  1  0.25453647  0.22975791  0.88035052  1
  O  O309  1  0.25860446  0.74901891  0.38773686  1
  O  O310  1  0.25052630  0.74305596  0.88702971  1
  O  O311  1  0.74397809  0.24269655  0.38649984  1
  O  O312  1  0.74338587  0.24416569  0.87865788  1
  O  O313  1  0.74216704  0.74961294  0.38436056  1
  O  O314  1  0.74391891  0.74485580  0.87278524  1
  O  O315  1  0.00886760  0.11518142  0.01109855  1
  O  O316  1  0.00649432  0.11458415  0.50704352  1
  O  O317  1  0.00320545  0.61049062  0.01935363  1
  O  O318  1  0.00289584  0.63382184  0.51698900  1
  O  O319  1  0.49871401  0.10809658  -0.00873150  1
  O  O320  1  0.50589816  0.12132071  0.50809202  1
  O  O321  1  0.50363441  0.61908511  0.00505463  1
  O  O322  1  0.50564250  0.62405216  0.51504436  1
  O  O323  1  0.48893135  0.37522015  0.49961316  1
  O  O324  1  0.48862409  0.38265448  0.99168488  1
  O  O325  1  0.49409185  0.88073538  0.49776765  1
  O  O326  1  0.50269946  0.88838059  0.98540488  1
  O  O327  1  0.99196674  0.38696054  0.49247065  1
  O  O328  1  0.99252338  0.38690428  1.00487481  1
  O  O329  1  1.00222942  0.88870152  0.50850446  1
  O  O330  1  1.00681816  0.88138010  0.98854249  1
  O  O331  1  0.49949327  0.48822404  0.37769916  1
  O  O332  1  0.49884558  0.49138451  0.88141194  1
  O  O333  1  0.49730656  0.99412869  0.38250715  1
  O  O334  1  0.48716208  0.99480842  0.88196680  1
  O  O335  1  0.97667937  0.48477375  0.34658170  1
  O  O336  1  0.98954982  0.51186178  0.88997296  1
  O  O337  1  0.99362654  1.00313712  0.38510575  1
  O  O338  1  0.99361077  0.99477461  0.88194116  1
  O  O339  1  0.00331557  0.00370523  0.11742477  1
  O  O340  1  0.01066859  0.00913249  0.61980523  1
  O  O341  1  0.01082138  0.50383771  0.12537619  1
  O  O342  1  -0.00915603  0.51934462  0.62786156  1
  O  O343  1  0.50370805  -0.00684475  0.10918424  1
  O  O344  1  0.50626772  0.00570398  0.62119907  1
  O  O345  1  0.50446570  0.50960913  0.11478725  1
  O  O346  1  0.50765366  0.50873765  0.62571055  1
  O  O347  1  0.25050094  0.38164308  0.24186653  1
  O  O348  1  0.25788653  0.39133728  0.73182748  1
  O  O349  1  0.24822812  0.88903984  0.25090123  1
  O  O350  1  0.23691742  0.86888685  0.74521743  1
  O  O351  1  0.73961503  0.37959768  0.25111968  1
  O  O352  1  0.74495066  0.38367090  0.74447013  1
  O  O353  1  0.74683318  0.88467937  0.24343612  1
  O  O354  1  0.74621938  0.87157366  0.73694441  1
  O  O355  1  0.25812915  0.11464552  0.25394721  1
  O  O356  1  0.24776793  0.12328709  0.76503616  1
  O  O357  1  0.25483924  0.61098230  0.25288788  1
  O  O358  1  0.25502546  0.62296131  0.75404683  1
  O  O359  1  0.75414784  0.10716961  0.24930851  1
  O  O360  1  0.75712705  0.12882945  0.76187153  1
  O  O361  1  0.76186179  0.62909440  0.24984415  1
  O  O362  1  0.75477328  0.61038284  0.74561387  1
  O  O363  1  0.37145101  0.12070587  0.36861611  1
  O  O364  1  0.36275331  0.11248617  0.87452957  1
  O  O365  1  0.38084277  0.61108454  0.37490740  1
  O  O366  1  0.36273059  0.63340950  0.86340925  1
  O  O367  1  0.87105230  0.10973229  0.37290332  1
  O  O368  1  0.86727487  0.11691329  0.86936576  1
  O  O369  1  0.87529366  0.62949174  0.35699991  1
  O  O370  1  0.86725570  0.61965000  0.88202269  1
  O  O371  1  0.13550098  0.37779191  0.13416068  1
  O  O372  1  0.13640363  0.37297618  0.61771493  1
  O  O373  1  0.13208328  0.88293748  0.13456378  1
  O  O374  1  0.12882982  0.88331220  0.63269787  1
  O  O375  1  0.61396359  0.39003055  0.11501157  1
  O  O376  1  0.63054508  0.38173982  0.63302644  1
  O  O377  1  0.63140091  0.88636714  0.12022688  1
  O  O378  1  0.63206293  0.88454547  0.62832258  1
  O  O379  1  0.13173773  0.25863388  0.25413418  1
  O  O380  1  0.12014456  0.25910442  0.75595173  1
  O  O381  1  0.13405033  0.76313681  0.26311599  1
  O  O382  1  0.11543849  0.75997854  0.75072093  1
  O  O383  1  0.62242041  0.24242828  0.25077565  1
  O  O384  1  0.61739126  0.25681593  0.75454467  1
  O  O385  1  0.61931186  0.75021730  0.25976564  1
  O  O386  1  0.62597656  0.74761177  0.76257312  1
  O  O387  1  0.37423996  0.24187906  0.23609414  1
  O  O388  1  0.37303858  0.25217138  0.73721077  1
  O  O389  1  0.38292235  0.74629351  0.24358941  1
  O  O390  1  0.36599713  0.74102921  0.73607176  1
  O  O391  1  0.86618279  0.24554884  0.23875067  1
  O  O392  1  0.87693439  0.23751198  0.74730737  1
  O  O393  1  0.87387686  0.74240368  0.24684650  1
  O  O394  1  0.88658141  0.74968522  0.74563624  1
  O  O395  1  0.37842974  0.49173591  0.49112592  1
  O  O396  1  0.38590669  0.49204878  1.00621798  1
  O  O397  1  0.38140417  0.99661836  0.49612447  1
  O  O398  1  0.38357539  0.99946185  0.99156283  1
  O  O399  1  0.87021167  0.50563741  0.48211999  1
  O  O400  1  0.88124172  0.49083573  1.00131982  1
  O  O401  1  0.88511923  0.99721252  0.49397422  1
  O  O402  1  0.88790474  1.00754612  0.99068240  1
  O  O403  1  0.11464150  0.00480419  0.00701130  1
  O  O404  1  0.12083960  0.00639624  0.50494518  1
  O  O405  1  0.11859698  0.49422692  0.01533509  1
  O  O406  1  0.11677970  0.51284092  0.45231895  1
  O  O407  1  0.61131734  0.00271472  0.00118436  1
  O  O408  1  0.62097550  0.00862358  0.50980683  1
  O  O409  1  0.61225702  0.50928271  0.00162822  1
  O  O410  1  0.62518934  0.50971803  0.51149706  1
  O  O411  1  0.37348922  0.36375852  0.12146128  1
  O  O412  1  0.36918885  0.37055867  0.61525825  1
  O  O413  1  0.37360336  0.86059333  0.13016573  1
  O  O414  1  0.37177279  0.87018106  0.62363159  1
  O  O415  1  0.87468164  0.36493841  0.11441864  1
  O  O416  1  0.86071191  0.37611497  0.62792075  1
  O  O417  1  0.86018402  0.87544401  0.12142818  1
  O  O418  1  0.87107893  0.86743043  0.62599514  1
  O  O419  1  0.13199810  0.13182558  0.37635318  1
  O  O420  1  0.13800863  0.11696556  0.88442048  1
  O  O421  1  0.12770989  0.64683950  0.36516341  1
  O  O422  1  0.14311840  0.62910860  0.86971760  1
  O  O423  1  0.62569458  0.12215027  0.38822137  1
  O  O424  1  0.63088179  0.13150404  0.87302493  1
  O  O425  1  0.61329939  0.64300921  0.38921559  1
  O  O426  1  0.61998172  0.63135418  0.88235300  1
