# generated using pymatgen
data_V85Zn86O256
_symmetry_space_group_name_H-M   'P 1'
_cell_length_a   16.91657123
_cell_length_b   16.90812957
_cell_length_c   16.91676687
_cell_angle_alpha   90.02823954
_cell_angle_beta   90.02185901
_cell_angle_gamma   89.94103277
_symmetry_Int_Tables_number   1
_chemical_formula_structural   V85Zn86O256
_chemical_formula_sum   'V85 Zn86 O256'
_cell_volume   4838.65835551
_cell_formula_units_Z   1
loop_
 _symmetry_equiv_pos_site_id
 _symmetry_equiv_pos_as_xyz
  1  'x, y, z'
loop_
 _atom_site_type_symbol
 _atom_site_label
 _atom_site_symmetry_multiplicity
 _atom_site_fract_x
 _atom_site_fract_y
 _atom_site_fract_z
 _atom_site_occupancy
  V  V0  1  0.00342811  0.12288103  0.12478557  1
  V  V1  1  0.37463028  0.37540237  -0.00122385  1
  V  V2  1  -0.00217372  0.25479607  0.25263130  1
  V  V3  1  0.00165504  -0.00361897  0.00435863  1
  V  V4  1  0.87116786  0.37825475  -0.00821098  1
  V  V5  1  0.63324997  0.87425513  0.74315582  1
  V  V6  1  0.74883900  0.75148079  0.51481219  1
  V  V7  1  0.24113569  0.50117950  0.74648994  1
  V  V8  1  0.50421230  0.25783221  0.25304006  1
  V  V9  1  0.50141734  0.12702612  0.12492580  1
  V  V10  1  0.50434651  0.38770068  0.37940145  1
  V  V11  1  0.75183861  0.62640634  0.37722090  1
  V  V12  1  0.62533162  0.26278304  0.87295333  1
  V  V13  1  0.37536377  0.12986285  0.25144821  1
  V  V14  1  0.12203692  0.74843479  0.37299438  1
  V  V15  1  0.76074077  0.61548192  0.87706941  1
  V  V16  1  0.25075573  0.13080057  0.37475976  1
  V  V17  1  0.24586161  0.38039139  0.62234728  1
  V  V18  1  0.00092030  0.61730681  0.13007459  1
  V  V19  1  0.62684053  0.00124115  0.12484525  1
  V  V20  1  0.87999300  0.61572355  0.74434778  1
  V  V21  1  0.37691078  -0.00099466  0.87277826  1
  V  V22  1  0.87358209  0.24909690  0.12365080  1
  V  V23  1  0.49829823  0.75405255  0.25737823  1
  V  V24  1  0.25057623  0.25284172  0.49898261  1
  V  V25  1  0.63183632  0.25359297  0.37528696  1
  V  V26  1  0.38034710  -0.00329194  0.37348304  1
  V  V27  1  0.50789210  0.86966529  0.87547703  1
  V  V28  1  0.74461693  0.37307975  0.12956985  1
  V  V29  1  0.00086274  0.74686278  0.73992913  1
  V  V30  1  0.88785629  0.13262404  0.74761396  1
  V  V31  1  0.11947544  0.25977587  0.37645445  1
  V  V32  1  0.12297031  -0.00324103  0.62317582  1
  V  V33  1  0.74298066  0.36290206  0.62410439  1
  V  V34  1  0.37491945  0.25308612  0.12684349  1
  V  V35  1  0.62978080  0.12844267  0.50059993  1
  V  V36  1  0.37500759  0.87367289  0.00106402  1
  V  V37  1  0.62177803  0.87807879  0.25381607  1
  V  V38  1  0.50173439  0.49454439  -0.00283782  1
  V  V39  1  0.75687131  0.11828155  0.37682732  1
  V  V40  1  0.62519783  0.75722689  0.37915303  1
  V  V41  1  0.24879000  0.75028095  0.49379499  1
  V  V42  1  0.11902899  0.12560647  0.50573936  1
  V  V43  1  -0.00090669  -0.00610475  0.48379105  1
  V  V44  1  0.61969320  0.61512599  0.49924319  1
  V  V45  1  0.11923804  0.36815876  0.75067800  1
  V  V46  1  0.62413070  0.62855646  -0.00841884  1
  V  V47  1  0.24206476  0.38504032  0.12393528  1
  V  V48  1  0.62543771  0.49860610  0.12841733  1
  V  V49  1  0.12155131  0.62355055  0.51008641  1
  V  V50  1  0.23883785  0.87870213  0.12515091  1
  V  V51  1  0.37040351  0.61942981  0.26293787  1
  V  V52  1  0.37311917  0.75150217  0.12810162  1
  V  V53  1  -0.00365320  0.49869233  -0.00600579  1
  V  V54  1  0.37774474  0.87567883  0.49920309  1
  V  V55  1  -0.00327838  0.75705532  0.25091987  1
  V  V56  1  0.37782207  0.49436358  0.87371703  1
  V  V57  1  0.75148915  0.87264456  0.12472110  1
  V  V58  1  0.50390396  0.12058246  0.62386160  1
  V  V59  1  0.13264469  0.87311250  0.74543733  1
  V  V60  1  0.37924527  0.39295627  0.49758238  1
  V  V61  1  0.25000966  0.24944829  -0.00143764  1
  V  V62  1  0.24743303  0.62432792  0.87835676  1
  V  V63  1  0.12487126  0.61835706  0.00725403  1
  V  V64  1  0.37363892  0.62542206  0.74975749  1
  V  V65  1  0.50619690  0.26268879  0.75140927  1
  V  V66  1  0.12590285  0.12046294  0.00145460  1
  V  V67  1  0.11903270  0.38423524  0.24459457  1
  V  V68  1  0.37803884  0.12489583  0.74821339  1
  V  V69  1  0.25004593  0.12337527  0.87066749  1
  V  V70  1  0.50575838  0.74746411  0.75247958  1
  V  V71  1  0.89341588  0.24837623  0.62058755  1
  V  V72  1  0.36713913  0.75681794  0.62702006  1
  V  V73  1  0.37633442  0.25046127  0.62221856  1
  V  V74  1  0.87329007  -0.00000769  0.87079977  1
  V  V75  1  0.74806294  0.74970760  -0.00574979  1
  V  V76  1  0.50076205  0.62567549  0.12592582  1
  V  V77  1  0.88567723  0.49396342  0.37426517  1
  V  V78  1  0.74410798  0.49484474  0.25662974  1
  V  V79  1  0.49681206  0.61773826  0.61967685  1
  V  V80  1  0.00146824  0.87167355  0.87254091  1
  V  V81  1  0.00040715  0.50019979  0.51631484  1
  V  V82  1  0.24316935  0.00340507  0.24706991  1
  V  V83  1  0.86957788  0.88190157  0.49693337  1
  V  V84  1  0.50122070  -0.00018059  -0.00006571  1
  Zn  Zn85  1  0.87458232  0.75170724  0.62586972  1
  Zn  Zn86  1  0.62759764  0.12461919  -0.00605490  1
  Zn  Zn87  1  0.87623509  0.36830475  0.49730357  1
  Zn  Zn88  1  0.11403719  0.24456413  0.86960712  1
  Zn  Zn89  1  0.24700602  0.74945328  0.00201694  1
  Zn  Zn90  1  0.87548944  0.87269608  -0.00089498  1
  Zn  Zn91  1  -0.01091252  0.37221174  0.86739623  1
  Zn  Zn92  1  0.75826347  -0.00352331  0.25390337  1
  Zn  Zn93  1  0.50209038  -0.00460833  0.49554320  1
  Zn  Zn94  1  0.63473410  -0.00621383  0.61732686  1
  Zn  Zn95  1  0.74750106  0.49129012  0.75132005  1
  Zn  Zn96  1  0.11978187  0.88316304  0.25867982  1
  Zn  Zn97  1  0.74667049  0.12400402  0.87189742  1
  Zn  Zn98  1  0.87743070  0.11842005  0.25327153  1
  Zn  Zn99  1  0.62338239  0.49009952  0.63005256  1
  Zn  Zn100  1  0.24345257  0.51021248  0.25941218  1
  Zn  Zn101  1  0.25482808  -0.00535086  0.73720563  1
  Zn  Zn102  1  0.12333042  0.74649899  0.87619348  1
  Zn  Zn103  1  0.75946791  -0.00091633  0.73643617  1
  Zn  Zn104  1  0.74765726  0.24606876  -0.00124893  1
  Zn  Zn105  1  0.87448648  0.62686467  0.25173798  1
  Zn  Zn106  1  0.87394242  0.74625193  0.12515491  1
  Zn  Zn107  1  0.18564763  0.19430121  0.18672590  1
  Zn  Zn108  1  0.18750006  0.18756154  0.68432223  1
  Zn  Zn109  1  0.18663945  0.68828567  0.18827709  1
  Zn  Zn110  1  0.18693244  0.68953772  0.68649950  1
  Zn  Zn111  1  0.68692961  0.18642617  0.19168718  1
  Zn  Zn112  1  0.69449330  0.18407143  0.69001746  1
  Zn  Zn113  1  0.68707013  0.68698628  0.18792900  1
  Zn  Zn114  1  0.68065487  0.66660060  0.69629661  1
  Zn  Zn115  1  0.29724410  0.35046917  0.32913458  1
  Zn  Zn116  1  0.31152986  0.31124139  0.81016386  1
  Zn  Zn117  1  0.30705603  0.81442905  0.31493325  1
  Zn  Zn118  1  0.31443057  0.81101439  0.81531706  1
  Zn  Zn119  1  0.81279413  0.31194661  0.31252509  1
  Zn  Zn120  1  0.80897110  0.30906012  0.80609375  1
  Zn  Zn121  1  0.81337809  0.81475026  0.31633363  1
  Zn  Zn122  1  0.81508390  0.80475317  0.81477686  1
  Zn  Zn123  1  0.18424215  0.44537507  0.43459133  1
  Zn  Zn124  1  0.18425588  0.43980133  0.93581453  1
  Zn  Zn125  1  0.19195736  0.93485579  0.43737565  1
  Zn  Zn126  1  0.18738302  0.93843859  0.93568143  1
  Zn  Zn127  1  0.69178687  0.43322488  0.44543297  1
  Zn  Zn128  1  0.68749717  0.43597444  0.93863778  1
  Zn  Zn129  1  0.69030682  0.93913115  0.44365588  1
  Zn  Zn130  1  0.68737856  0.93651312  0.93465423  1
  Zn  Zn131  1  0.31395621  0.06201812  0.06316754  1
  Zn  Zn132  1  0.31014591  0.06180010  0.56068522  1
  Zn  Zn133  1  0.31351599  0.56258500  0.06729289  1
  Zn  Zn134  1  0.30602524  0.56860993  0.56100346  1
  Zn  Zn135  1  0.81309939  0.06233426  0.05956860  1
  Zn  Zn136  1  0.81419430  0.06532599  0.56419074  1
  Zn  Zn137  1  0.81400116  0.56151072  0.06596773  1
  Zn  Zn138  1  0.81033784  0.55738302  0.56507236  1
  Zn  Zn139  1  0.43834182  0.43646998  0.18906225  1
  Zn  Zn140  1  0.43190516  0.43905315  0.68482528  1
  Zn  Zn141  1  0.43585408  0.93865238  0.18967856  1
  Zn  Zn142  1  0.44165731  0.93627166  0.68599321  1
  Zn  Zn143  1  0.93260333  0.43887886  0.18465848  1
  Zn  Zn144  1  0.93208401  0.43508614  0.68522804  1
  Zn  Zn145  1  0.93517252  0.93872812  0.18894056  1
  Zn  Zn146  1  0.94099196  0.93818898  0.67899407  1
  Zn  Zn147  1  0.06395481  0.07067157  0.31392090  1
  Zn  Zn148  1  0.06259790  0.05788682  0.81268928  1
  Zn  Zn149  1  0.06493003  0.57051909  0.31707211  1
  Zn  Zn150  1  0.06006152  0.55922512  0.81384484  1
  Zn  Zn151  1  0.56491307  0.06602113  0.31279093  1
  Zn  Zn152  1  0.56627138  0.06254042  0.81064347  1
  Zn  Zn153  1  0.56324532  0.56748388  0.31222524  1
  Zn  Zn154  1  0.56343348  0.55886785  0.81204056  1
  Zn  Zn155  1  0.43981055  0.19215373  0.43782023  1
  Zn  Zn156  1  0.44176556  0.18890155  0.93490976  1
  Zn  Zn157  1  0.43762248  0.68953912  0.43819852  1
  Zn  Zn158  1  0.43607990  0.68554404  0.93798070  1
  Zn  Zn159  1  0.94086544  0.18503800  0.44003000  1
  Zn  Zn160  1  0.93615978  0.18882383  0.93487304  1
  Zn  Zn161  1  0.93739565  0.68875582  0.43930495  1
  Zn  Zn162  1  0.93689942  0.68836850  0.93801677  1
  Zn  Zn163  1  0.06038419  0.30967724  0.05668447  1
  Zn  Zn164  1  0.06220103  0.31986844  0.56242501  1
  Zn  Zn165  1  0.06163978  0.80497707  0.06292488  1
  Zn  Zn166  1  0.06114452  0.81749504  0.56051471  1
  Zn  Zn167  1  0.56383969  0.31317260  0.06001779  1
  Zn  Zn168  1  0.56200065  0.30982145  0.55932839  1
  Zn  Zn169  1  0.56382922  0.81156488  0.06552213  1
  Zn  Zn170  1  0.55649479  0.80699757  0.56475473  1
  O  O171  1  0.11264063  0.13019399  0.11715382  1
  O  O172  1  0.12743276  0.12223056  0.61058428  1
  O  O173  1  0.11728755  0.62691994  0.11843875  1
  O  O174  1  0.12595753  0.62850562  0.60969964  1
  O  O175  1  0.61864939  0.11818159  0.12338595  1
  O  O176  1  0.61982763  0.12699915  0.61750972  1
  O  O177  1  0.61935939  0.61818533  0.11876938  1
  O  O178  1  0.61097251  0.63424501  0.61093381  1
  O  O179  1  0.39511559  0.36564352  0.38749244  1
  O  O180  1  0.36728474  0.38725426  0.88026810  1
  O  O181  1  0.37030776  0.88543958  0.38189705  1
  O  O182  1  0.38332990  0.87998347  0.88064497  1
  O  O183  1  0.86837853  0.38936480  0.37877226  1
  O  O184  1  0.86827185  0.37000532  0.88811599  1
  O  O185  1  0.87485689  0.86859840  0.39598811  1
  O  O186  1  0.88704275  0.87995303  0.87370658  1
  O  O187  1  0.25911854  0.00879277  0.36792777  1
  O  O188  1  0.25753608  0.01069516  0.87374805  1
  O  O189  1  0.26266496  0.45976174  0.35857995  1
  O  O190  1  0.25638995  0.50901211  0.86974021  1
  O  O191  1  0.74579141  0.01466640  0.37471867  1
  O  O192  1  0.76578523  -0.00584060  0.87152922  1
  O  O193  1  0.75342950  0.50632222  0.37244624  1
  O  O194  1  0.74569284  0.51174449  0.87439797  1
  O  O195  1  0.25353485  0.48758881  0.13271248  1
  O  O196  1  0.25566628  0.49269339  0.63470627  1
  O  O197  1  0.25732691  0.99152832  0.13459368  1
  O  O198  1  0.23295709  1.00552668  0.62244212  1
  O  O199  1  0.74605924  0.49359766  0.13546850  1
  O  O200  1  0.75054450  0.48422560  0.62707274  1
  O  O201  1  0.74109920  0.99131245  0.12361788  1
  O  O202  1  0.74792263  0.99843691  0.62346634  1
  O  O203  1  0.00410332  0.36362331  0.23907321  1
  O  O204  1  0.01667712  0.38519045  0.74892372  1
  O  O205  1  0.00534964  0.86143637  0.23834171  1
  O  O206  1  0.00892100  0.86752147  0.75557854  1
  O  O207  1  0.49577872  0.36856251  0.26397657  1
  O  O208  1  0.49589536  0.36118985  0.74245428  1
  O  O209  1  0.51222901  0.86877583  0.24561080  1
  O  O210  1  0.50605873  0.86703669  0.75728176  1
  O  O211  1  0.49546219  0.13288922  0.24352839  1
  O  O212  1  0.49518966  0.13032876  0.74160830  1
  O  O213  1  0.49260510  0.63468038  0.24512629  1
  O  O214  1  0.49106468  0.63242893  0.74641521  1
  O  O215  1  1.00104265  0.13525508  0.24076086  1
  O  O216  1  0.98724711  0.12133177  0.75350521  1
  O  O217  1  1.00034930  0.63338371  0.24359325  1
  O  O218  1  0.98859441  0.63120046  0.75823836  1
  O  O219  1  0.37136470  0.25647219  0.00327330  1
  O  O220  1  0.37000742  0.25641489  0.50688663  1
  O  O221  1  0.37384443  0.75520508  0.01039798  1
  O  O222  1  0.36767969  0.75417397  0.50524870  1
  O  O223  1  0.87264103  0.25693046  0.01228708  1
  O  O224  1  0.88326734  0.24890597  0.51520085  1
  O  O225  1  0.86474301  0.75267841  0.00392247  1
  O  O226  1  0.86528444  0.75355225  0.50382927  1
  O  O227  1  0.12570966  0.24600098  0.49432560  1
  O  O228  1  0.13317223  0.23698735  0.99765478  1
  O  O229  1  0.12764733  0.74443201  0.49444675  1
  O  O230  1  0.12718002  0.73491144  0.99641100  1
  O  O231  1  0.61956755  0.23690184  0.48948867  1
  O  O232  1  0.62106136  0.24879118  0.98426976  1
  O  O233  1  0.62970605  0.74834310  0.49313460  1
  O  O234  1  0.63200346  0.73920164  1.00742968  1
  O  O235  1  0.49656874  0.24902323  0.13218582  1
  O  O236  1  0.49764508  0.24144741  0.63410060  1
  O  O237  1  0.49356307  0.74769602  0.13661409  1
  O  O238  1  0.48721068  0.74083391  0.63373661  1
  O  O239  1  0.99197738  0.24276724  0.12857942  1
  O  O240  1  0.99258778  0.25340055  0.62713262  1
  O  O241  1  0.99753239  0.73775293  0.13198754  1
  O  O242  1  1.00394129  0.75040833  0.63743993  1
  O  O243  1  0.00532631  0.24517180  0.36371206  1
  O  O244  1  0.00352824  0.26127022  0.88539328  1
  O  O245  1  0.01060272  0.74558388  0.36618310  1
  O  O246  1  0.00163733  0.75828528  0.86847695  1
  O  O247  1  0.51047402  0.25484703  0.36811022  1
  O  O248  1  0.50672220  0.24902443  0.85991196  1
  O  O249  1  0.50774012  0.74872249  0.36439332  1
  O  O250  1  0.49103447  0.75748571  0.86527934  1
  O  O251  1  0.24387514  0.13390082  0.49301694  1
  O  O252  1  0.24412907  0.12647404  0.99410726  1
  O  O253  1  0.23627089  0.63535924  0.50040555  1
  O  O254  1  0.24324037  0.62167061  0.99575988  1
  O  O255  1  0.74314221  0.12505850  0.48813554  1
  O  O256  1  0.74744153  0.12788061  0.99318432  1
  O  O257  1  0.74278573  0.63008392  0.49214711  1
  O  O258  1  0.74465167  0.62875902  0.99684600  1
  O  O259  1  0.25227602  0.37134501  0.00560896  1
  O  O260  1  0.25422668  0.37255577  0.50743226  1
  O  O261  1  0.25623835  0.87532155  0.00684697  1
  O  O262  1  0.26129165  0.86172490  0.49851925  1
  O  O263  1  0.75557142  0.37267100  0.00965547  1
  O  O264  1  0.75939347  0.37536039  0.51579770  1
  O  O265  1  0.74685243  0.86592329  0.00643242  1
  O  O266  1  0.75935898  0.86705709  0.50084092  1
  O  O267  1  0.12237242  0.48771433  0.25580194  1
  O  O268  1  0.13682854  0.49294626  0.75385936  1
  O  O269  1  0.13840857  1.00261546  0.25539553  1
  O  O270  1  0.12522972  0.99141682  0.74110712  1
  O  O271  1  0.63653221  0.50578318  0.24605120  1
  O  O272  1  0.63943704  0.53453537  0.73613341  1
  O  O273  1  0.62658014  0.99206228  0.24459064  1
  O  O274  1  0.62626360  0.98256885  0.74922754  1
  O  O275  1  0.36695323  0.00798243  0.25545530  1
  O  O276  1  0.37428977  0.00518848  0.75365435  1
  O  O277  1  0.37917958  0.51864761  0.24393294  1
  O  O278  1  0.36615881  0.50409974  0.75781447  1
  O  O279  1  0.87153785  0.00516295  0.24841826  1
  O  O280  1  0.88036594  0.00514517  0.75464334  1
  O  O281  1  0.86440646  0.50149078  0.26047761  1
  O  O282  1  0.87466016  0.51248083  0.75054166  1
  O  O283  1  0.12099726  0.36378044  0.36640110  1
  O  O284  1  0.13214769  0.37211876  0.85832242  1
  O  O285  1  0.13114765  0.85700316  0.37548273  1
  O  O286  1  0.11502482  0.87500382  0.86921974  1
  O  O287  1  0.61457796  0.36743979  0.38549226  1
  O  O288  1  0.62303895  0.36327214  0.87528325  1
  O  O289  1  0.63079486  0.86563658  0.36932581  1
  O  O290  1  0.61268454  0.87495222  0.86682518  1
  O  O291  1  0.38172882  0.13247205  0.12979055  1
  O  O292  1  0.38237377  0.12987443  0.62778323  1
  O  O293  1  0.38075131  0.63817636  0.12870860  1
  O  O294  1  0.37839314  0.63183483  0.63072072  1
  O  O295  1  0.88619004  0.13273541  0.12285023  1
  O  O296  1  0.87567133  0.13757691  0.63548659  1
  O  O297  1  0.88345708  0.62588913  0.13104997  1
  O  O298  1  0.87028690  0.62803650  0.64112835  1
  O  O299  1  0.25692044  0.25447647  0.11544957  1
  O  O300  1  0.25634941  0.25858265  0.61920675  1
  O  O301  1  0.25820331  0.75881380  0.12536156  1
  O  O302  1  0.26162218  0.74566035  0.61810076  1
  O  O303  1  0.75508395  0.25587143  0.12638395  1
  O  O304  1  0.75940130  0.25873738  0.62858774  1
  O  O305  1  0.74884939  0.75606501  0.11730687  1
  O  O306  1  0.74487912  0.74026303  0.61551555  1
  O  O307  1  0.24130745  0.25219851  0.38098836  1
  O  O308  1  0.25202910  0.23672105  0.88016271  1
  O  O309  1  0.24087577  0.74856503  0.38330267  1
  O  O310  1  0.25223745  0.73496973  0.87875299  1
  O  O311  1  0.73664437  0.24440580  0.36802130  1
  O  O312  1  0.73483403  0.25052557  0.87360706  1
  O  O313  1  0.74209086  0.74239805  0.38163206  1
  O  O314  1  0.75130261  0.73982910  0.88898783  1
  O  O315  1  0.00677441  0.11764974  0.00463785  1
  O  O316  1  0.00894522  0.11030851  0.49457666  1
  O  O317  1  0.00508275  0.61807344  0.00622357  1
  O  O318  1  0.01168581  0.61665538  0.49578243  1
  O  O319  1  0.49959426  0.11811892  0.00798382  1
  O  O320  1  0.50561324  0.12473436  0.50890703  1
  O  O321  1  0.50594698  0.61833808  0.00559887  1
  O  O322  1  0.50592052  0.63031620  0.50759420  1
  O  O323  1  0.49338563  0.37560702  0.49144979  1
  O  O324  1  0.49305203  0.38794508  1.00454733  1
  O  O325  1  0.48471836  0.87412018  0.50198576  1
  O  O326  1  0.49646226  0.87733979  0.99394555  1
  O  O327  1  0.99967210  0.39494884  0.50081319  1
  O  O328  1  0.98838315  0.38441103  1.00675119  1
  O  O329  1  0.99485582  0.88734401  0.49620050  1
  O  O330  1  1.00202961  0.88023216  0.99400418  1
  O  O331  1  0.50695687  0.48657110  0.37103333  1
  O  O332  1  0.49051548  0.50570093  0.88366646  1
  O  O333  1  0.48438618  1.00776821  0.37316080  1
  O  O334  1  0.49563628  0.99172239  0.87958662  1
  O  O335  1  0.98655514  0.50458637  0.37279471  1
  O  O336  1  1.00240051  0.49178801  0.88929544  1
  O  O337  1  1.00760088  0.99946644  0.38453963  1
  O  O338  1  0.99322767  0.99252821  0.88375731  1
  O  O339  1  -0.00247357  0.00611738  0.11201072  1
  O  O340  1  0.01580840  -0.00143864  0.61038258  1
  O  O341  1  -0.00405922  0.51149705  0.11835372  1
  O  O342  1  -0.00385269  0.50377695  0.61461735  1
  O  O343  1  0.50623097  0.00429790  0.12101597  1
  O  O344  1  0.50446411  0.01180442  0.62324698  1
  O  O345  1  0.50464586  0.50493889  0.11865621  1
  O  O346  1  0.50027704  0.51373612  0.63089979  1
  O  O347  1  0.23311470  0.36149340  0.23388938  1
  O  O348  1  0.24599256  0.38200336  0.74193426  1
  O  O349  1  0.24841341  0.88548282  0.24217213  1
  O  O350  1  0.23677767  0.87587742  0.76017921  1
  O  O351  1  0.75134233  0.38351632  0.24332143  1
  O  O352  1  0.75450385  0.37631151  0.73315944  1
  O  O353  1  0.73839647  0.87232715  0.24355740  1
  O  O354  1  0.73433582  0.86690860  0.75713177  1
  O  O355  1  0.25436595  0.12292371  0.25293793  1
  O  O356  1  0.25774883  0.12414616  0.75604552  1
  O  O357  1  0.26490940  0.62536253  0.24590295  1
  O  O358  1  0.25270714  0.61896766  0.75677132  1
  O  O359  1  0.74881403  0.12243135  0.26419849  1
  O  O360  1  0.76514163  0.11944066  0.75426453  1
  O  O361  1  0.74850413  0.62019109  0.26370273  1
  O  O362  1  0.76753229  0.63263706  0.76311144  1
  O  O363  1  0.36836616  0.12357711  0.37033255  1
  O  O364  1  0.37075540  0.11952824  0.86910242  1
  O  O365  1  0.37789976  0.62834441  0.36157405  1
  O  O366  1  0.36769113  0.61499820  0.87147342  1
  O  O367  1  0.85897252  0.13550215  0.37483659  1
  O  O368  1  0.87502791  0.11736225  0.86546523  1
  O  O369  1  0.86578423  0.61614896  0.37529989  1
  O  O370  1  0.86898848  0.62702202  0.86781973  1
  O  O371  1  0.13076253  0.36950050  0.13010740  1
  O  O372  1  0.13758355  0.37316740  0.63481257  1
  O  O373  1  0.13700493  0.87051938  0.12540305  1
  O  O374  1  0.12504728  0.88076075  0.63402279  1
  O  O375  1  0.63673213  0.38077254  0.12060385  1
  O  O376  1  0.63630334  0.37206521  0.61944143  1
  O  O377  1  0.63242331  0.88005705  0.13278746  1
  O  O378  1  0.61649110  0.87302175  0.63983362  1
  O  O379  1  0.11520563  0.25607693  0.25676512  1
  O  O380  1  0.13129148  0.26398370  0.75023957  1
  O  O381  1  0.11993629  0.75005879  0.26066796  1
  O  O382  1  0.11998353  0.75495591  0.75423651  1
  O  O383  1  0.61189156  0.24764493  0.25730867  1
  O  O384  1  0.61348859  0.24700449  0.75733162  1
  O  O385  1  0.61771111  0.75564689  0.25716943  1
  O  O386  1  0.61174034  0.75493056  0.74702348  1
  O  O387  1  0.38604351  0.24535963  0.24466641  1
  O  O388  1  0.38486163  0.24492322  0.74440560  1
  O  O389  1  0.38070155  0.74668265  0.24674734  1
  O  O390  1  0.37958735  0.74635744  0.74359814  1
  O  O391  1  0.88088837  0.24777727  0.23980890  1
  O  O392  1  0.87868186  0.23899871  0.74380198  1
  O  O393  1  0.88252120  0.74841306  0.25025954  1
  O  O394  1  0.88540454  0.74339816  0.74731293  1
  O  O395  1  0.37139609  0.49197382  0.50399932  1
  O  O396  1  0.38159589  0.49723611  0.99432461  1
  O  O397  1  0.37443157  0.99257425  0.49202384  1
  O  O398  1  0.38269594  0.99329397  0.99553134  1
  O  O399  1  0.88833075  0.50496956  0.49156284  1
  O  O400  1  0.88182985  0.49015083  1.00515206  1
  O  O401  1  0.88785839  0.99338475  0.50072177  1
  O  O402  1  0.88468691  0.99608081  0.99102135  1
  O  O403  1  0.11839386  0.01208822  -0.00458871  1
  O  O404  1  0.11993887  0.00513274  0.50011800  1
  O  O405  1  0.11654805  0.50961633  -0.00045167  1
  O  O406  1  0.11393288  0.51248485  0.49436600  1
  O  O407  1  0.61712226  -0.00167693  0.00608407  1
  O  O408  1  0.61895296  0.01158882  0.49798833  1
  O  O409  1  0.61744217  0.50574529  0.00540943  1
  O  O410  1  0.62761301  0.51305528  0.50400095  1
  O  O411  1  0.36729570  0.37050711  0.11956267  1
  O  O412  1  0.36702564  0.37051139  0.61707152  1
  O  O413  1  0.37026915  0.86573929  0.12304798  1
  O  O414  1  0.37720278  0.86669708  0.61878936  1
  O  O415  1  0.86300351  0.36811527  0.12026564  1
  O  O416  1  0.87262827  0.35946941  0.62443716  1
  O  O417  1  0.85989474  0.87313825  0.12259564  1
  O  O418  1  0.88453248  0.86846337  0.60605319  1
  O  O419  1  0.13209229  0.13763585  0.38334202  1
  O  O420  1  0.13401912  0.12402611  0.87952754  1
  O  O421  1  0.12728145  0.63956669  0.38510019  1
  O  O422  1  0.13319987  0.62263984  0.88211949  1
  O  O423  1  0.63230768  0.13240578  0.38092952  1
  O  O424  1  0.62536726  0.13501954  0.87448981  1
  O  O425  1  0.62892698  0.63639034  0.38158928  1
  O  O426  1  0.63033797  0.62419888  0.88893076  1
