# generated using pymatgen
data_V85Zn86O256
_symmetry_space_group_name_H-M   'P 1'
_cell_length_a   16.94845976
_cell_length_b   16.94806306
_cell_length_c   16.93977346
_cell_angle_alpha   90.03183088
_cell_angle_beta   90.05533396
_cell_angle_gamma   90.01435505
_symmetry_Int_Tables_number   1
_chemical_formula_structural   V85Zn86O256
_chemical_formula_sum   'V85 Zn86 O256'
_cell_volume   4865.83774373
_cell_formula_units_Z   1
loop_
 _symmetry_equiv_pos_site_id
 _symmetry_equiv_pos_as_xyz
  1  'x, y, z'
loop_
 _atom_site_type_symbol
 _atom_site_label
 _atom_site_symmetry_multiplicity
 _atom_site_fract_x
 _atom_site_fract_y
 _atom_site_fract_z
 _atom_site_occupancy
  V  V0  1  0.37599933  0.75143040  0.12429165  1
  V  V1  1  0.00217663  0.37036516  0.86504586  1
  V  V2  1  0.75449930  0.00381716  0.75942821  1
  V  V3  1  0.24892361  0.48982534  0.74589074  1
  V  V4  1  0.49818847  0.36893093  0.37041119  1
  V  V5  1  0.12086925  -0.00328560  0.61497266  1
  V  V6  1  0.37689431  0.49704310  0.87552072  1
  V  V7  1  0.37735399  0.24391525  0.14140401  1
  V  V8  1  0.87447896  0.75202517  0.62222314  1
  V  V9  1  0.11930523  0.75021205  0.87491993  1
  V  V10  1  0.62371174  0.00119158  0.13786025  1
  V  V11  1  -0.00364807  0.88930762  0.87833742  1
  V  V12  1  0.50458300  0.87768294  0.37418034  1
  V  V13  1  0.12345852  0.62544758  0.00100801  1
  V  V14  1  0.87725137  0.89038026  -0.00121324  1
  V  V15  1  -0.00021483  0.50001142  0.00098061  1
  V  V16  1  0.62990132  0.50041857  0.13337495  1
  V  V17  1  0.12778657  0.87493917  0.26433969  1
  V  V18  1  0.74892149  0.49882013  0.74813938  1
  V  V19  1  0.25153666  -0.00140258  0.74495162  1
  V  V20  1  0.50061722  0.62339359  0.12435481  1
  V  V21  1  0.88416861  0.25154572  0.62734638  1
  V  V22  1  0.12768158  0.63724028  0.49675496  1
  V  V23  1  0.75314973  0.37689372  0.13723296  1
  V  V24  1  0.88505791  0.12850034  0.75815048  1
  V  V25  1  0.62303502  0.24598971  0.36404092  1
  V  V26  1  0.12559472  0.50016826  0.12563648  1
  V  V27  1  0.24781269  0.88585020  0.12972163  1
  V  V28  1  0.11667967  0.11773488  0.00138937  1
  V  V29  1  0.62428337  0.75060709  0.87295266  1
  V  V30  1  0.75997855  0.25028065  0.49885918  1
  V  V31  1  -0.00125358  0.62442988  0.62276545  1
  V  V32  1  0.24845700  0.12952814  0.36461625  1
  V  V33  1  0.24886759  0.62337378  0.87378316  1
  V  V34  1  0.62537797  0.62344950  0.00054311  1
  V  V35  1  0.74951420  0.87659864  0.62306369  1
  V  V36  1  0.61765379  0.13013500  0.49996345  1
  V  V37  1  0.24807283  0.37369461  0.12750517  1
  V  V38  1  0.76396362  0.12119192  0.37446618  1
  V  V39  1  0.75388406  0.75168389  -0.00044040  1
  V  V40  1  0.37408041  0.86157618  0.50301720  1
  V  V41  1  0.86346837  0.62599393  0.26234400  1
  V  V42  1  0.75030938  0.62523821  0.87333949  1
  V  V43  1  -0.00247354  0.62680193  0.13139360  1
  V  V44  1  0.49816601  0.63324433  0.62260157  1
  V  V45  1  0.36316947  0.25606299  0.61960998  1
  V  V46  1  0.37429142  0.62685052  0.25038575  1
  V  V47  1  -0.00168477  0.48982416  0.48787692  1
  V  V48  1  0.87934087  0.24232204  0.13039273  1
  V  V49  1  0.37589490  0.00218115  0.87331207  1
  V  V50  1  0.49494245  0.00459634  0.50449686  1
  V  V51  1  0.50679529  0.24664369  0.74275115  1
  V  V52  1  0.12635326  0.49345389  0.62197073  1
  V  V53  1  0.25119541  0.24849964  -0.00066418  1
  V  V54  1  0.50703392  0.36798027  0.87558187  1
  V  V55  1  0.24843958  0.63970424  0.37854614  1
  V  V56  1  0.50650017  0.75486770  0.24898588  1
  V  V57  1  0.12799162  0.13118815  0.49805184  1
  V  V58  1  0.12354268  0.87551477  0.75029102  1
  V  V59  1  0.37810159  0.12549287  0.73774797  1
  V  V60  1  0.87448990  0.37406650  0.00271202  1
  V  V61  1  0.37380615  0.63046916  0.74515943  1
  V  V62  1  0.62405432  0.87692366  0.74962691  1
  V  V63  1  0.25116565  0.12561916  0.87353904  1
  V  V64  1  0.00540904  0.24702568  0.26394650  1
  V  V65  1  0.62428168  0.13325467  -0.00341215  1
  V  V66  1  0.76614887  0.00105256  0.25515052  1
  V  V67  1  0.25322605  0.85985982  0.62194493  1
  V  V68  1  0.24958740  0.75149450  0.00128732  1
  V  V69  1  0.50093736  0.49718503  0.50242617  1
  V  V70  1  0.37447111  0.50073737  0.37659442  1
  V  V71  1  0.75113504  0.37302195  0.62088564  1
  V  V72  1  0.87522881  0.50173093  0.87513650  1
  V  V73  1  0.63371300  0.62394515  0.49764298  1
  V  V74  1  -0.01254082  0.87823568  0.38235916  1
  V  V75  1  0.74711080  0.87621808  0.12967572  1
  V  V76  1  0.62207405  0.00758976  0.62551262  1
  V  V77  1  0.63131359  0.74928050  0.37377681  1
  V  V78  1  0.37510613  0.87696127  0.00084177  1
  V  V79  1  0.24852315  0.50343773  0.25136858  1
  V  V80  1  0.36828951  0.00386143  0.36528371  1
  V  V81  1  0.50140119  0.00478307  0.00387512  1
  V  V82  1  0.49961901  0.87536806  0.87486177  1
  V  V83  1  0.86296976  0.48924797  0.37445372  1
  V  V84  1  0.36335289  0.37415550  0.50588359  1
  Zn  Zn85  1  0.74704966  0.13724899  0.87292883  1
  Zn  Zn86  1  0.00474339  0.74793465  0.26087645  1
  Zn  Zn87  1  0.75370009  0.75028867  0.49450962  1
  Zn  Zn88  1  0.37672064  0.37138132  0.00121289  1
  Zn  Zn89  1  0.12174084  0.24647682  0.86887832  1
  Zn  Zn90  1  0.74568121  0.25524350  -0.00291442  1
  Zn  Zn91  1  -0.00535870  0.11919560  0.61584003  1
  Zn  Zn92  1  0.49554233  0.75309410  0.74568755  1
  Zn  Zn93  1  0.50071661  0.13000220  0.14117504  1
  Zn  Zn94  1  0.11432457  0.38082324  0.26187464  1
  Zn  Zn95  1  0.62469641  0.49745021  0.62616994  1
  Zn  Zn96  1  0.50155560  0.49627285  -0.00016117  1
  Zn  Zn97  1  0.12748397  0.26082908  0.38414001  1
  Zn  Zn98  1  0.63058147  0.36811125  0.75486779  1
  Zn  Zn99  1  -0.00293564  0.75089679  0.74996611  1
  Zn  Zn100  1  0.62508628  0.37730719  0.25247584  1
  Zn  Zn101  1  0.87670289  0.89325805  0.50385394  1
  Zn  Zn102  1  -0.00861690  0.11453720  0.12904914  1
  Zn  Zn103  1  0.11522779  -0.00425232  0.12342231  1
  Zn  Zn104  1  0.87468166  0.62698617  0.74800192  1
  Zn  Zn105  1  0.12538059  0.36214208  0.73875349  1
  Zn  Zn106  1  0.87572193  0.75036330  0.12892120  1
  Zn  Zn107  1  0.18228153  0.18757938  0.18824942  1
  Zn  Zn108  1  0.18498555  0.18603029  0.68651395  1
  Zn  Zn109  1  0.18640530  0.69381562  0.18896330  1
  Zn  Zn110  1  0.18354364  0.68222209  0.68866063  1
  Zn  Zn111  1  0.69278040  0.18417560  0.18542660  1
  Zn  Zn112  1  0.69119823  0.18681020  0.68736725  1
  Zn  Zn113  1  0.68838815  0.68831582  0.18815886  1
  Zn  Zn114  1  0.68557180  0.68738678  0.68528913  1
  Zn  Zn115  1  0.30057021  0.31936446  0.31968811  1
  Zn  Zn116  1  0.31641133  0.30999428  0.81153215  1
  Zn  Zn117  1  0.31693616  0.81844967  0.31091212  1
  Zn  Zn118  1  0.30991359  0.81218511  0.81285084  1
  Zn  Zn119  1  0.81743264  0.30651490  0.31370326  1
  Zn  Zn120  1  0.81203993  0.31025233  0.81426058  1
  Zn  Zn121  1  0.81560831  0.81396083  0.30936060  1
  Zn  Zn122  1  0.81439590  0.81451910  0.81080000  1
  Zn  Zn123  1  0.18623096  0.44555213  0.43776976  1
  Zn  Zn124  1  0.18822178  0.43518893  0.93798038  1
  Zn  Zn125  1  0.19411358  0.93402527  0.43869059  1
  Zn  Zn126  1  0.18844235  0.93806491  0.93658864  1
  Zn  Zn127  1  0.68706601  0.43323998  0.43782828  1
  Zn  Zn128  1  0.68830446  0.43739592  0.94105339  1
  Zn  Zn129  1  0.68802978  0.93881988  0.43811364  1
  Zn  Zn130  1  0.68535314  0.94070820  0.94107971  1
  Zn  Zn131  1  0.31253047  0.06716720  0.06445616  1
  Zn  Zn132  1  0.30947684  0.06136187  0.55827093  1
  Zn  Zn133  1  0.31306775  0.56214492  0.06081260  1
  Zn  Zn134  1  0.31085804  0.56362435  0.56298149  1
  Zn  Zn135  1  0.80676982  0.06305165  0.06265072  1
  Zn  Zn136  1  0.80613762  0.06876093  0.56906434  1
  Zn  Zn137  1  0.81275851  0.56240458  0.06693158  1
  Zn  Zn138  1  0.81557004  0.55974529  0.55879031  1
  Zn  Zn139  1  0.43579359  0.43694547  0.18718087  1
  Zn  Zn140  1  0.43932819  0.43677323  0.68908672  1
  Zn  Zn141  1  0.43989830  0.93783686  0.18828979  1
  Zn  Zn142  1  0.43681148  0.93536338  0.68372404  1
  Zn  Zn143  1  0.93693495  0.43723623  0.19556496  1
  Zn  Zn144  1  0.93352106  0.43971941  0.68293145  1
  Zn  Zn145  1  0.94475031  0.93566665  0.18833438  1
  Zn  Zn146  1  0.93631835  0.93988427  0.69084357  1
  Zn  Zn147  1  0.06688985  0.06002239  0.30453527  1
  Zn  Zn148  1  0.06619522  0.06452992  0.81029047  1
  Zn  Zn149  1  0.06314516  0.56492098  0.31473620  1
  Zn  Zn150  1  0.06187783  0.55902870  0.80889138  1
  Zn  Zn151  1  0.56720196  0.05925061  0.31718008  1
  Zn  Zn152  1  0.56141862  0.06512719  0.81290627  1
  Zn  Zn153  1  0.56228651  0.56364219  0.31430620  1
  Zn  Zn154  1  0.56198567  0.56092232  0.81042700  1
  Zn  Zn155  1  0.43573854  0.18590393  0.31687261  1
  Zn  Zn156  1  0.43680961  0.18888418  0.93705396  1
  Zn  Zn157  1  0.44305763  0.68533946  0.43482959  1
  Zn  Zn158  1  0.43789417  0.68613670  0.93550933  1
  Zn  Zn159  1  0.94247142  0.05722134  0.43675367  1
  Zn  Zn160  1  0.93391235  0.19070171  0.93806350  1
  Zn  Zn161  1  0.94057546  0.69277206  0.43809939  1
  Zn  Zn162  1  0.93662527  0.68879294  0.93956199  1
  Zn  Zn163  1  0.06280042  0.30925649  0.06164623  1
  Zn  Zn164  1  0.06110196  0.31238147  0.55691710  1
  Zn  Zn165  1  0.05982948  0.81398618  0.06450279  1
  Zn  Zn166  1  0.05937512  0.81475141  0.55967268  1
  Zn  Zn167  1  0.55829628  0.31567669  0.06790008  1
  Zn  Zn168  1  0.56220534  0.31142683  0.56212139  1
  Zn  Zn169  1  0.56591258  0.81458401  0.06173561  1
  Zn  Zn170  1  0.56369280  0.81389480  0.55941928  1
  O  O171  1  0.12881605  0.12266009  0.10885328  1
  O  O172  1  0.12850865  0.11183142  0.61517546  1
  O  O173  1  0.11872490  0.62118230  0.12051561  1
  O  O174  1  0.11872823  0.61664373  0.61604644  1
  O  O175  1  0.62283482  0.11652582  0.11746751  1
  O  O176  1  0.63004221  0.11424211  0.61806625  1
  O  O177  1  0.62162658  0.61953467  0.12060697  1
  O  O178  1  0.61614253  0.62162140  0.61661747  1
  O  O179  1  0.37969164  0.38014190  0.38410815  1
  O  O180  1  0.38435623  0.38273557  0.87439522  1
  O  O181  1  0.38295607  0.88415869  0.38311719  1
  O  O182  1  0.37928156  0.88180737  0.88029255  1
  O  O183  1  0.87259320  0.39001410  0.36974532  1
  O  O184  1  0.88474966  0.38172623  0.88239559  1
  O  O185  1  0.88337542  0.87641002  0.38000995  1
  O  O186  1  0.88199740  0.86985479  0.88826155  1
  O  O187  1  0.26401521  0.00380890  0.37711238  1
  O  O188  1  0.25744756  0.00320305  0.86553465  1
  O  O189  1  0.25745918  0.51217840  0.36831501  1
  O  O190  1  0.25584639  0.50465007  0.86930105  1
  O  O191  1  0.74434268  0.00383349  0.36171762  1
  O  O192  1  0.74232564  0.00108587  0.86122504  1
  O  O193  1  0.76372791  0.50015250  0.38375118  1
  O  O194  1  0.75566586  0.50407660  0.86902448  1
  O  O195  1  0.24682849  0.49389812  0.12925427  1
  O  O196  1  0.23906705  0.50624035  0.63394878  1
  O  O197  1  0.25281239  0.98725724  0.12125619  1
  O  O198  1  0.24304838  0.99147737  0.63107424  1
  O  O199  1  0.74149901  0.49104617  0.12233068  1
  O  O200  1  0.75207867  0.49244089  0.63085348  1
  O  O201  1  0.74436132  0.99635796  0.13569231  1
  O  O202  1  0.73932191  0.99385216  0.63579610  1
  O  O203  1  0.00164442  0.35615382  0.24023881  1
  O  O204  1  -0.00034374  0.38434596  0.76314246  1
  O  O205  1  0.00853650  0.87044845  0.26130928  1
  O  O206  1  0.00520948  0.87269123  0.75993815  1
  O  O207  1  0.50005844  0.38306972  0.26675653  1
  O  O208  1  0.50321962  0.36407495  0.75593278  1
  O  O209  1  0.49696468  0.86612930  0.25975655  1
  O  O210  1  0.50448812  0.87401441  0.75593002  1
  O  O211  1  0.50257491  0.12327556  0.25364232  1
  O  O212  1  0.49178226  0.13703508  0.75407530  1
  O  O213  1  0.49351986  0.63269702  0.24406618  1
  O  O214  1  0.49196378  0.62468547  0.74088644  1
  O  O215  1  1.00815576  0.13997797  0.24372958  1
  O  O216  1  0.98722582  0.12021301  0.74677952  1
  O  O217  1  0.99572746  0.62852447  0.24456861  1
  O  O218  1  1.00014646  0.62539483  0.73476355  1
  O  O219  1  0.36317217  0.24836512  0.00944572  1
  O  O220  1  0.38035943  0.26075581  0.51758982  1
  O  O221  1  0.37081823  0.75631336  0.00353325  1
  O  O222  1  0.38436841  0.76282594  0.49499708  1
  O  O223  1  0.87437363  0.26034580  0.01070714  1
  O  O224  1  0.85977410  0.24352640  0.51147747  1
  O  O225  1  0.86185312  0.75172995  0.00302925  1
  O  O226  1  0.87152444  0.75363687  0.51204280  1
  O  O227  1  0.12604467  0.23525958  0.50242930  1
  O  O228  1  0.13735160  0.24200488  0.99689469  1
  O  O229  1  0.12505076  0.73540802  0.50761697  1
  O  O230  1  0.12868756  0.74464637  0.99360886  1
  O  O231  1  0.62988971  0.24326521  0.49345518  1
  O  O232  1  0.62098496  0.23532942  1.01162948  1
  O  O233  1  0.62524233  0.74205353  0.49143942  1
  O  O234  1  0.63588377  0.74612193  0.99469064  1
  O  O235  1  0.48032264  0.25295519  0.12666082  1
  O  O236  1  0.49183760  0.25422157  0.63900930  1
  O  O237  1  0.49835149  0.74735252  0.13082159  1
  O  O238  1  0.50376220  0.73744396  0.62499514  1
  O  O239  1  0.98672602  0.24519048  0.12183592  1
  O  O240  1  0.98659827  0.24831262  0.61756972  1
  O  O241  1  0.99673789  0.73529324  0.12203739  1
  O  O242  1  0.99225696  0.74427653  0.62551552  1
  O  O243  1  0.00317096  0.24646548  0.36183728  1
  O  O244  1  -0.00069527  0.26801933  0.87980597  1
  O  O245  1  0.00042641  0.76894967  0.37685756  1
  O  O246  1  0.01005584  0.75290759  0.87531360  1
  O  O247  1  0.50863087  0.25776150  0.37610475  1
  O  O248  1  0.49075808  0.25853194  0.86105474  1
  O  O249  1  0.50688618  0.75765815  0.36698480  1
  O  O250  1  0.50678727  0.75790986  0.87475234  1
  O  O251  1  0.23565680  0.11455802  0.48915411  1
  O  O252  1  0.24569394  0.13105790  0.99291896  1
  O  O253  1  0.23712115  0.62091340  0.49346391  1
  O  O254  1  0.24421206  0.63089194  0.99347448  1
  O  O255  1  0.73798753  0.13130255  0.49384202  1
  O  O256  1  0.73364234  0.12447907  0.99818888  1
  O  O257  1  0.73656883  0.62736109  0.50644344  1
  O  O258  1  0.74550319  0.63268621  0.99560957  1
  O  O259  1  0.25282089  0.36686254  0.00722858  1
  O  O260  1  0.26494503  0.38658454  0.50033822  1
  O  O261  1  0.25731108  0.87023238  0.00489329  1
  O  O262  1  0.26220581  0.87450888  0.50866778  1
  O  O263  1  0.76304026  0.37807646  0.00826359  1
  O  O264  1  0.74546115  0.36375489  0.50906164  1
  O  O265  1  0.75824322  0.86996651  0.00303794  1
  O  O266  1  0.74909954  0.87508177  0.51400434  1
  O  O267  1  0.13035530  0.50174697  0.24225986  1
  O  O268  1  0.13309707  0.49854016  0.74018278  1
  O  O269  1  0.12541441  0.97941968  0.24261588  1
  O  O270  1  0.13381329  0.99461618  0.74194516  1
  O  O271  1  0.62151186  0.50137699  0.23793455  1
  O  O272  1  0.63848173  0.49929086  0.74857843  1
  O  O273  1  0.62977216  0.99709116  0.23969570  1
  O  O274  1  0.62717576  0.99739488  0.74274882  1
  O  O275  1  0.37822550  -0.00630256  0.26718865  1
  O  O276  1  0.37257997  0.00777688  0.75077418  1
  O  O277  1  0.36907731  0.50839875  0.25437756  1
  O  O278  1  0.36893656  0.50666028  0.75816639  1
  O  O279  1  0.86408932  -0.00107316  0.24770994  1
  O  O280  1  0.86550342  0.01491445  0.74443622  1
  O  O281  1  0.88076795  0.51267061  0.26549245  1
  O  O282  1  0.86414534  0.50363652  0.75511756  1
  O  O283  1  0.13525792  0.37293209  0.37342831  1
  O  O284  1  0.10903353  0.37813815  0.87623800  1
  O  O285  1  0.12617357  0.87534401  0.36678859  1
  O  O286  1  0.11836917  0.86737313  0.87343773  1
  O  O287  1  0.61699552  0.36545447  0.37433997  1
  O  O288  1  0.61101187  0.38152938  0.87491102  1
  O  O289  1  0.61045811  0.86861344  0.38357736  1
  O  O290  1  0.61921882  0.87182517  0.87073292  1
  O  O291  1  0.37417005  0.14044294  0.12868238  1
  O  O292  1  0.37156847  0.13194094  0.63283636  1
  O  O293  1  0.38024555  0.63193371  0.12848233  1
  O  O294  1  0.38316077  0.61988387  0.63397048  1
  O  O295  1  0.87127723  0.13993275  0.11819868  1
  O  O296  1  0.87554801  0.13491791  0.63643540  1
  O  O297  1  0.88273355  0.62291341  0.13701771  1
  O  O298  1  0.88252575  0.63220389  0.62335049  1
  O  O299  1  0.25652932  0.25623280  0.12231895  1
  O  O300  1  0.26446915  0.24896525  0.62802349  1
  O  O301  1  0.25796582  0.75630597  0.11779128  1
  O  O302  1  0.24587530  0.76114965  0.63367858  1
  O  O303  1  0.76107535  0.25810826  0.12203986  1
  O  O304  1  0.75403669  0.25615678  0.61934433  1
  O  O305  1  0.74889914  0.75954489  0.11785742  1
  O  O306  1  0.75522730  0.75993792  0.62487582  1
  O  O307  1  0.24934771  0.23352216  0.37500704  1
  O  O308  1  0.25359809  0.24363679  0.88375450  1
  O  O309  1  0.25926326  0.73833265  0.37059256  1
  O  O310  1  0.23828141  0.74587161  0.88074089  1
  O  O311  1  0.74577256  0.24235611  0.38119954  1
  O  O312  1  0.74842441  0.25181733  0.88333485  1
  O  O313  1  0.73490182  0.76075508  0.37414952  1
  O  O314  1  0.74511671  0.74644468  0.88075796  1
  O  O315  1  0.01553210  0.13185799  -0.00330893  1
  O  O316  1  0.02310413  0.11391379  0.49995412  1
  O  O317  1  0.00387337  0.61861223  0.00689569  1
  O  O318  1  0.00990799  0.62220948  0.50643196  1
  O  O319  1  0.50572008  0.11768941  0.00424100  1
  O  O320  1  0.51433889  0.11394161  0.49772699  1
  O  O321  1  0.50780321  0.62489162  0.00672787  1
  O  O322  1  0.50528599  0.61638824  0.50623755  1
  O  O323  1  0.49534005  0.38308754  0.49298833  1
  O  O324  1  0.49548626  0.37505679  0.99157142  1
  O  O325  1  0.49342515  0.88334833  0.49507228  1
  O  O326  1  0.49550701  0.88522035  0.99707754  1
  O  O327  1  0.99975741  0.39178767  0.49969570  1
  O  O328  1  0.99091512  0.38175804  0.99675072  1
  O  O329  1  0.99887106  0.87858854  0.48744178  1
  O  O330  1  0.98371733  0.86947992  0.99491065  1
  O  O331  1  0.49381830  0.49606973  0.38482817  1
  O  O332  1  0.49130194  0.49314607  0.87402260  1
  O  O333  1  0.49346626  0.99344675  0.38454075  1
  O  O334  1  0.49509233  0.99560380  0.88352689  1
  O  O335  1  0.99508519  0.50380314  0.38492858  1
  O  O336  1  0.99383210  0.49503566  0.88094585  1
  O  O337  1  1.00368987  0.98591942  0.36847612  1
  O  O338  1  1.00635757  0.98791194  0.87358793  1
  O  O339  1  0.00049799  0.00258057  0.12084878  1
  O  O340  1  0.01817625  -0.00183406  0.63225328  1
  O  O341  1  0.00478435  0.50908547  0.12228098  1
  O  O342  1  0.00215375  0.50791720  0.61492121  1
  O  O343  1  0.50638883  0.00085304  0.11878142  1
  O  O344  1  0.50874970  -0.00480320  0.61508106  1
  O  O345  1  0.50548947  0.50606456  0.12220939  1
  O  O346  1  0.50195219  0.50627550  0.61713651  1
  O  O347  1  0.24823545  0.38702739  0.24184349  1
  O  O348  1  0.24896146  0.38742740  0.75623452  1
  O  O349  1  0.23978662  0.86921641  0.24222083  1
  O  O350  1  0.24494251  0.88065557  0.74512683  1
  O  O351  1  0.75066148  0.37222979  0.23988198  1
  O  O352  1  0.74898941  0.38287320  0.74482619  1
  O  O353  1  0.75399833  0.88616802  0.24081400  1
  O  O354  1  0.74570936  0.88288012  0.74203868  1
  O  O355  1  0.23983906  0.12121453  0.26533708  1
  O  O356  1  0.25908403  0.11736140  0.75375249  1
  O  O357  1  0.25414398  0.62255796  0.25481988  1
  O  O358  1  0.25557984  0.61651444  0.75594970  1
  O  O359  1  0.74725741  0.11043144  0.25829429  1
  O  O360  1  0.75674742  0.11832089  0.75293538  1
  O  O361  1  0.76503787  0.62697208  0.24806586  1
  O  O362  1  0.75000776  0.61821552  0.75566641  1
  O  O363  1  0.36220961  0.11390952  0.37562151  1
  O  O364  1  0.37054964  0.11937009  0.86538401  1
  O  O365  1  0.37088220  0.61979463  0.37062778  1
  O  O366  1  0.36993137  0.61671169  0.86882334  1
  O  O367  1  0.86281471  0.12442937  0.37994297  1
  O  O368  1  0.87295175  0.12924628  0.86233757  1
  O  O369  1  0.87772006  0.62355774  0.36581554  1
  O  O370  1  0.86871935  0.61992039  0.87320242  1
  O  O371  1  0.13699013  0.37984456  0.12222786  1
  O  O372  1  0.11856667  0.38874340  0.62288707  1
  O  O373  1  0.13626383  0.87545306  0.12234451  1
  O  O374  1  0.13065090  0.88133739  0.62831063  1
  O  O375  1  0.63284753  0.38202243  0.12821127  1
  O  O376  1  0.63688120  0.37619865  0.62881840  1
  O  O377  1  0.63954286  0.88577924  0.11567220  1
  O  O378  1  0.63044796  0.88292735  0.62991671  1
  O  O379  1  0.11525949  0.25546699  0.25107508  1
  O  O380  1  0.12864532  0.25127475  0.75529792  1
  O  O381  1  0.12046012  0.76890250  0.24208394  1
  O  O382  1  0.12297489  0.75593818  0.75926080  1
  O  O383  1  0.63303851  0.25122162  0.26151629  1
  O  O384  1  0.61067498  0.24684832  0.74606505  1
  O  O385  1  0.61383565  0.74460341  0.25619671  1
  O  O386  1  0.62297101  0.75831800  0.75604364  1
  O  O387  1  0.36828984  0.25479725  0.24438567  1
  O  O388  1  0.38196116  0.24392922  0.73980008  1
  O  O389  1  0.38647277  0.74662119  0.24457431  1
  O  O390  1  0.37549337  0.73449142  0.75847681  1
  O  O391  1  0.88446102  0.25144961  0.23660304  1
  O  O392  1  0.87124632  0.23722110  0.74235787  1
  O  O393  1  0.87933675  0.73854472  0.24873111  1
  O  O394  1  0.87582006  0.74792470  0.73776108  1
  O  O395  1  0.38421502  0.49590058  0.49787911  1
  O  O396  1  0.37552634  0.49919037  0.98592790  1
  O  O397  1  0.38323064  0.99498232  0.49364931  1
  O  O398  1  0.38410422  0.99862357  0.99693013  1
  O  O399  1  0.88851203  0.50825866  0.48623362  1
  O  O400  1  0.87999225  0.49479467  0.99589194  1
  O  O401  1  0.87444183  1.00584603  0.50928121  1
  O  O402  1  0.86694244  0.98849564  0.99783110  1
  O  O403  1  0.13143519  0.01474607  -0.00072586  1
  O  O404  1  0.13129958  -0.00200342  0.51322316  1
  O  O405  1  0.12104842  0.50665714  0.00582955  1
  O  O406  1  0.11387630  0.50967676  0.50504384  1
  O  O407  1  0.61673765  0.00764157  0.00953997  1
  O  O408  1  0.61937599  0.00533913  0.50785433  1
  O  O409  1  0.62394651  0.50768814  0.01075483  1
  O  O410  1  0.61605255  0.50616986  0.49913692  1
  O  O411  1  0.36396745  0.36711744  0.12480883  1
  O  O412  1  0.37716474  0.36618392  0.62135498  1
  O  O413  1  0.37002881  0.87000132  0.12072420  1
  O  O414  1  0.36680291  0.87582914  0.61523995  1
  O  O415  1  0.87027007  0.37128825  0.12002431  1
  O  O416  1  0.86258835  0.36540593  0.63145673  1
  O  O417  1  0.86556603  0.87269968  0.11349806  1
  O  O418  1  0.86695419  0.86972928  0.62649226  1
  O  O419  1  0.13492752  0.12166358  0.38356481  1
  O  O420  1  0.13334800  0.12509924  0.88366783  1
  O  O421  1  0.13241701  0.62491245  0.38795737  1
  O  O422  1  0.12797182  0.63093785  0.87871850  1
  O  O423  1  0.63265810  0.13141349  0.38349124  1
  O  O424  1  0.62186810  0.12082203  0.89313086  1
  O  O425  1  0.61710741  0.63616263  0.38509004  1
  O  O426  1  0.62979605  0.62981106  0.88014808  1
