# generated using pymatgen
data_V85Zn86O256
_symmetry_space_group_name_H-M   'P 1'
_cell_length_a   16.98190737
_cell_length_b   16.97437987
_cell_length_c   16.94932897
_cell_angle_alpha   90.04992382
_cell_angle_beta   89.93479421
_cell_angle_gamma   90.13686702
_symmetry_Int_Tables_number   1
_chemical_formula_structural   V85Zn86O256
_chemical_formula_sum   'V85 Zn86 O256'
_cell_volume   4885.74964856
_cell_formula_units_Z   1
loop_
 _symmetry_equiv_pos_site_id
 _symmetry_equiv_pos_as_xyz
  1  'x, y, z'
loop_
 _atom_site_type_symbol
 _atom_site_label
 _atom_site_symmetry_multiplicity
 _atom_site_fract_x
 _atom_site_fract_y
 _atom_site_fract_z
 _atom_site_occupancy
  V  V0  1  0.62766779  0.49908909  0.13455231  1
  V  V1  1  0.12230381  0.74288929  0.39291545  1
  V  V2  1  0.50210854  0.87151764  0.37655598  1
  V  V3  1  -0.00254792  0.12286826  0.12246370  1
  V  V4  1  0.50876452  0.00383916  0.50225918  1
  V  V5  1  0.25724809  0.51156203  0.26997050  1
  V  V6  1  0.86906482  0.25031823  0.62430363  1
  V  V7  1  0.49967836  0.62186221  0.12575267  1
  V  V8  1  0.63230333  0.50088092  0.63542360  1
  V  V9  1  0.49623545  0.12267770  0.12720608  1
  V  V10  1  0.74970675  0.62000066  0.37269407  1
  V  V11  1  0.38451944  0.12486741  0.74960824  1
  V  V12  1  0.87674776  0.75739544  0.12404637  1
  V  V13  1  0.50232792  0.26646649  0.75230122  1
  V  V14  1  0.00100451  0.37579566  0.87582369  1
  V  V15  1  0.12601278  0.24902830  0.87157424  1
  V  V16  1  0.00122690  0.38073404  0.37795809  1
  V  V17  1  0.00027481  0.75097003  0.74948538  1
  V  V18  1  0.25047121  0.87462271  0.62367056  1
  V  V19  1  0.87206823  0.61748823  0.74897607  1
  V  V20  1  0.37425734  0.62667752  0.75251110  1
  V  V21  1  0.62719500  0.00030778  0.12557781  1
  V  V22  1  0.12231819  0.24623759  0.38162494  1
  V  V23  1  0.86979080  0.62203588  0.24741793  1
  V  V24  1  0.37551976  0.86596765  0.50283220  1
  V  V25  1  0.75074231  0.38395822  0.13648182  1
  V  V26  1  0.12551533  0.38112908  0.24848314  1
  V  V27  1  0.00163795  0.49938996  0.00133849  1
  V  V28  1  0.24702702  -0.00583672  0.24815733  1
  V  V29  1  0.74840978  0.62014901  0.87166125  1
  V  V30  1  0.87581933  0.50099990  0.37481486  1
  V  V31  1  0.50357532  0.75329545  0.76861783  1
  V  V32  1  0.12739502  0.61868697  0.00138204  1
  V  V33  1  0.24551272  0.12243250  0.38525878  1
  V  V34  1  0.87630659  0.37533044  0.00020236  1
  V  V35  1  0.11881500  0.12001255  -0.00594331  1
  V  V36  1  0.61767591  0.25874189  0.88075914  1
  V  V37  1  0.27798219  0.39745856  0.60656020  1
  V  V38  1  0.25131979  0.12417927  0.87314040  1
  V  V39  1  0.87188107  0.38067451  0.50126318  1
  V  V40  1  0.37334721  0.12213467  0.25012444  1
  V  V41  1  0.75204731  0.75305838  -0.00605063  1
  V  V42  1  0.63017473  0.87531759  0.24833779  1
  V  V43  1  0.12359870  0.87416949  0.75224843  1
  V  V44  1  0.87587351  0.89319648  0.49751549  1
  V  V45  1  0.37964529  -0.00338537  0.87354652  1
  V  V46  1  0.87294795  0.12549454  0.75238594  1
  V  V47  1  0.62579121  0.62900222  -0.00547681  1
  V  V48  1  0.11520399  0.49798530  0.61006989  1
  V  V49  1  0.75825741  0.00173273  0.25057165  1
  V  V50  1  0.37516148  -0.00623785  0.37524179  1
  V  V51  1  0.24856892  0.24869564  -0.00177299  1
  V  V52  1  0.25217467  0.87076422  0.12154181  1
  V  V53  1  0.87420442  0.25012590  0.12438808  1
  V  V54  1  0.73737153  0.12276385  0.38235536  1
  V  V55  1  0.62199457  0.87251742  0.76517743  1
  V  V56  1  0.88967161  -0.00571867  0.87883652  1
  V  V57  1  0.37457481  0.37444123  -0.00499222  1
  V  V58  1  0.87412350  0.13064383  0.25859446  1
  V  V59  1  0.50259984  0.63017158  0.62330867  1
  V  V60  1  0.87274389  0.75152273  0.62061739  1
  V  V61  1  0.12313531  -0.00237739  0.11757817  1
  V  V62  1  0.74868934  -0.00153519  0.75359303  1
  V  V63  1  0.37755720  0.74601586  0.12582430  1
  V  V64  1  -0.00090779  0.25330080  0.74559464  1
  V  V65  1  0.24531364  0.38930924  0.12328005  1
  V  V66  1  0.50524350  0.74830729  0.24529991  1
  V  V67  1  0.36810153  0.24859047  0.12528317  1
  V  V68  1  0.62082811  0.26871190  0.37426881  1
  V  V69  1  0.24796051  0.61814103  0.86796908  1
  V  V70  1  0.12097015  0.74844523  0.87223223  1
  V  V71  1  0.12312142  0.86560764  0.24939363  1
  V  V72  1  0.13438517  0.38306644  0.74416731  1
  V  V73  1  0.62655393  0.74971478  0.37748408  1
  V  V74  1  0.37788542  0.24828254  0.61637445  1
  V  V75  1  0.37695956  0.87310899  -0.00551560  1
  V  V76  1  -0.00203496  0.62122077  0.61124134  1
  V  V77  1  0.25017027  -0.00013978  0.75163659  1
  V  V78  1  0.62423771  0.12713544  0.00296705  1
  V  V79  1  0.74454326  0.25274574  0.00287357  1
  V  V80  1  0.50222666  0.49138242  -0.00280627  1
  V  V81  1  0.62287708  0.61907393  0.49993677  1
  V  V82  1  0.00308815  0.61992918  0.12758686  1
  V  V83  1  0.50344740  -0.00571326  -0.00634305  1
  V  V84  1  0.37729316  0.49491137  0.86551285  1
  Zn  Zn85  1  0.48731234  0.28842968  0.27439256  1
  Zn  Zn86  1  0.00280906  0.25173322  0.24867500  1
  Zn  Zn87  1  0.75305686  0.38336589  0.63520337  1
  Zn  Zn88  1  -0.00036656  0.74850139  0.25265993  1
  Zn  Zn89  1  0.27750701  0.69018801  0.46167031  1
  Zn  Zn90  1  0.45784340  0.42000485  0.41107510  1
  Zn  Zn91  1  0.51394986  0.13156632  0.62000913  1
  Zn  Zn92  1  0.75099346  0.12484374  0.88094704  1
  Zn  Zn93  1  0.74577626  0.87433617  0.62630605  1
  Zn  Zn94  1  0.00030039  0.88254878  0.38917802  1
  Zn  Zn95  1  0.63145819  0.38485954  0.76257550  1
  Zn  Zn96  1  0.00202476  0.11909134  0.60061375  1
  Zn  Zn97  1  0.37794181  0.75421332  0.63274570  1
  Zn  Zn98  1  0.86944202  0.49562549  0.87086546  1
  Zn  Zn99  1  0.75383577  0.87674459  0.12147655  1
  Zn  Zn100  1  0.89111817  0.87648570  -0.00355556  1
  Zn  Zn101  1  0.25018407  0.74680441  -0.00282425  1
  Zn  Zn102  1  0.24733416  0.24723162  0.50388842  1
  Zn  Zn103  1  0.62810641  0.00155944  0.62670478  1
  Zn  Zn104  1  0.75048376  0.75356345  0.50056537  1
  Zn  Zn105  1  0.74253803  0.24873441  0.50417623  1
  Zn  Zn106  1  0.12099565  0.00768284  0.60020672  1
  Zn  Zn107  1  0.18413296  0.18667980  0.19229138  1
  Zn  Zn108  1  0.19178215  0.19018661  0.68305121  1
  Zn  Zn109  1  0.18902543  0.68364480  0.18517440  1
  Zn  Zn110  1  0.19569876  0.67711176  0.65840502  1
  Zn  Zn111  1  0.68342114  0.19310551  0.19372066  1
  Zn  Zn112  1  0.68500987  0.18668799  0.69068001  1
  Zn  Zn113  1  0.69044095  0.68613623  0.18313968  1
  Zn  Zn114  1  0.68743375  0.69200403  0.69087598  1
  Zn  Zn115  1  0.30804652  0.31362428  0.31326907  1
  Zn  Zn116  1  0.31346216  0.31381378  0.80380654  1
  Zn  Zn117  1  0.32891191  0.77457398  0.32865756  1
  Zn  Zn118  1  0.30874847  0.80969440  0.81366852  1
  Zn  Zn119  1  0.80831027  0.30994014  0.31530960  1
  Zn  Zn120  1  0.80704625  0.31480693  0.81403666  1
  Zn  Zn121  1  0.81525789  0.81250749  0.31336474  1
  Zn  Zn122  1  0.81316929  0.81165313  0.81251960  1
  Zn  Zn123  1  0.18963255  0.43811812  0.43679807  1
  Zn  Zn124  1  0.18932391  0.43831597  0.93371784  1
  Zn  Zn125  1  0.19148247  0.92725234  0.43308305  1
  Zn  Zn126  1  0.06342498  0.93869598  0.92864260  1
  Zn  Zn127  1  0.68811987  0.43957110  0.44106591  1
  Zn  Zn128  1  0.68863209  0.43938768  0.94386962  1
  Zn  Zn129  1  0.69436558  0.93669169  0.43603653  1
  Zn  Zn130  1  0.69459651  0.93769384  0.93728889  1
  Zn  Zn131  1  0.30963909  0.05845139  0.05794420  1
  Zn  Zn132  1  0.31944788  0.05653228  0.56481963  1
  Zn  Zn133  1  0.31587190  0.56246352  0.05941880  1
  Zn  Zn134  1  0.30461496  0.56663241  0.58003722  1
  Zn  Zn135  1  0.81513036  0.06127185  0.06150793  1
  Zn  Zn136  1  0.80921003  0.06635679  0.56798474  1
  Zn  Zn137  1  0.81437658  0.56360365  0.05979922  1
  Zn  Zn138  1  0.81142602  0.56663126  0.55751627  1
  Zn  Zn139  1  0.42552749  0.42889676  0.21708694  1
  Zn  Zn140  1  0.44896962  0.43675899  0.59670274  1
  Zn  Zn141  1  0.43868411  0.93379513  0.18675603  1
  Zn  Zn142  1  0.44381666  0.93592195  0.68814445  1
  Zn  Zn143  1  0.93735284  0.43972751  0.19021511  1
  Zn  Zn144  1  0.93800486  0.43707027  0.68656084  1
  Zn  Zn145  1  0.97846821  0.98575238  0.24488270  1
  Zn  Zn146  1  0.93567020  0.93593047  0.68569095  1
  Zn  Zn147  1  0.05560224  0.05730118  0.42362439  1
  Zn  Zn148  1  0.06077859  0.06348737  0.74826413  1
  Zn  Zn149  1  0.06551400  0.56249274  0.31432505  1
  Zn  Zn150  1  0.05589114  0.56439885  0.81009922  1
  Zn  Zn151  1  0.56265551  0.06066348  0.31203318  1
  Zn  Zn152  1  0.56716175  0.06702225  0.81430687  1
  Zn  Zn153  1  0.56297232  0.55777827  0.30987063  1
  Zn  Zn154  1  0.55881267  0.56477494  0.81398932  1
  Zn  Zn155  1  0.43909891  0.18525142  0.43557345  1
  Zn  Zn156  1  0.43944897  0.18642273  0.93819199  1
  Zn  Zn157  1  0.44151333  0.62072143  0.41719020  1
  Zn  Zn158  1  0.43727440  0.68357093  0.94067031  1
  Zn  Zn159  1  0.93186990  0.19627668  0.43580060  1
  Zn  Zn160  1  0.93726236  0.18689442  0.93494321  1
  Zn  Zn161  1  0.94084208  0.69450672  0.43403666  1
  Zn  Zn162  1  0.93678548  0.68599146  0.93650609  1
  Zn  Zn163  1  0.06472919  0.30909667  0.06406895  1
  Zn  Zn164  1  0.05620716  0.31120336  0.55937098  1
  Zn  Zn165  1  0.06227152  0.80532128  0.06206883  1
  Zn  Zn166  1  0.05743049  0.82100235  0.56976174  1
  Zn  Zn167  1  0.54897096  0.32498892  0.09411586  1
  Zn  Zn168  1  0.56371678  0.31225555  0.55448938  1
  Zn  Zn169  1  0.56668636  0.81320084  0.05785425  1
  Zn  Zn170  1  0.56572449  0.81458257  0.56852464  1
  O  O171  1  0.11865613  0.12228436  0.11668914  1
  O  O172  1  0.11508206  0.11667905  0.65058282  1
  O  O173  1  0.11536142  0.62819858  0.11336090  1
  O  O174  1  0.10829623  0.60450637  0.63868800  1
  O  O175  1  0.61388277  0.12199577  0.12333649  1
  O  O176  1  0.62497536  0.11516994  0.63044316  1
  O  O177  1  0.62287954  0.61823866  0.11368565  1
  O  O178  1  0.62347048  0.62432311  0.61912577  1
  O  O179  1  0.40601276  0.36886460  0.32451571  1
  O  O180  1  0.36503717  0.38393582  0.88053696  1
  O  O181  1  0.38190350  0.87299118  0.38265349  1
  O  O182  1  0.36926519  0.87803255  0.88824386  1
  O  O183  1  0.87790317  0.38262789  0.37825950  1
  O  O184  1  0.88244540  0.37460911  0.88375883  1
  O  O185  1  0.87383148  0.86987128  0.39413490  1
  O  O186  1  0.87580253  0.89038381  0.87266225  1
  O  O187  1  0.25583837  0.00324961  0.36395983  1
  O  O188  1  0.26429022  0.00987197  0.86320994  1
  O  O189  1  0.26063482  0.49670947  0.37067521  1
  O  O190  1  0.25857674  0.51150786  0.87580176  1
  O  O191  1  0.74685827  0.01380763  0.36559322  1
  O  O192  1  0.75890772  0.00404091  0.86634431  1
  O  O193  1  0.75579741  0.51371992  0.37657622  1
  O  O194  1  0.75276449  0.51521057  0.88400645  1
  O  O195  1  0.24674391  0.48951752  0.11592682  1
  O  O196  1  0.22221333  0.48988417  0.63604730  1
  O  O197  1  0.24505055  0.99092615  0.12729562  1
  O  O198  1  0.25007363  0.99540995  0.63890375  1
  O  O199  1  0.74679360  0.49058668  0.11991374  1
  O  O200  1  0.73572557  0.50767587  0.62349498  1
  O  O201  1  0.74427155  0.99995609  0.13136258  1
  O  O202  1  0.75390338  0.99891866  0.64358556  1
  O  O203  1  0.00890342  0.37485568  0.25386734  1
  O  O204  1  0.00084649  0.36573245  0.75638048  1
  O  O205  1  0.02134358  0.87164565  0.23384902  1
  O  O206  1  0.00840361  0.85944573  0.74421581  1
  O  O207  1  0.51197753  0.36457316  0.19647423  1
  O  O208  1  0.51151883  0.36480269  0.75140752  1
  O  O209  1  0.50949187  0.87044452  0.25574171  1
  O  O210  1  0.51246615  0.86906488  0.75207603  1
  O  O211  1  0.48416813  0.11279798  0.24176305  1
  O  O212  1  0.49112441  0.12733994  0.75053208  1
  O  O213  1  0.50922197  0.63315430  0.23255571  1
  O  O214  1  0.49402898  0.63602081  0.74861380  1
  O  O215  1  0.98454103  0.13138377  0.23988596  1
  O  O216  1  0.98463355  0.14579781  0.76318198  1
  O  O217  1  0.99240716  0.62307301  0.24184174  1
  O  O218  1  0.98911640  0.63403808  0.74426471  1
  O  O219  1  0.36743978  0.25310553  0.00377586  1
  O  O220  1  0.37651085  0.24384164  0.51329892  1
  O  O221  1  0.37637624  0.75721695  0.00761249  1
  O  O222  1  0.37684270  0.76510641  0.51328874  1
  O  O223  1  0.86679706  0.25473629  0.00585284  1
  O  O224  1  0.86708107  0.26006715  0.50895437  1
  O  O225  1  0.87019091  0.74860383  0.00641726  1
  O  O226  1  0.87392056  0.74990567  0.51306716  1
  O  O227  1  0.12410827  0.25348466  0.48592995  1
  O  O228  1  0.13109095  0.24120544  0.99373985  1
  O  O229  1  0.11447207  0.75903905  0.49163441  1
  O  O230  1  0.12599329  0.73466142  0.98939927  1
  O  O231  1  0.62890257  0.25177290  0.48398916  1
  O  O232  1  0.62897768  0.24680784  1.00140839  1
  O  O233  1  0.62750462  0.74550061  0.49114803  1
  O  O234  1  0.63731710  0.74072115  1.00476492  1
  O  O235  1  0.48191274  0.22896681  0.11308057  1
  O  O236  1  0.49579859  0.24880902  0.63433184  1
  O  O237  1  0.49721416  0.74394634  0.12469086  1
  O  O238  1  0.50273861  0.74226231  0.63839620  1
  O  O239  1  0.99403278  0.24126463  0.12638457  1
  O  O240  1  0.98723597  0.24938137  0.63236047  1
  O  O241  1  0.99224414  0.73429918  0.12539532  1
  O  O242  1  0.99429875  0.74131145  0.63218537  1
  O  O243  1  0.00534915  0.26354955  0.36873436  1
  O  O244  1  0.00704445  0.25898031  0.87094950  1
  O  O245  1  0.00895822  0.76218441  0.37004883  1
  O  O246  1  0.01285833  0.73795944  0.86539654  1
  O  O247  1  0.51467958  0.24472374  0.37631145  1
  O  O248  1  0.50780420  0.24631130  0.86875643  1
  O  O249  1  0.51681455  0.75270697  0.36383703  1
  O  O250  1  0.50069862  0.74539152  0.86814940  1
  O  O251  1  0.25846311  0.12194888  0.48767330  1
  O  O252  1  0.24339979  0.12903541  0.99237122  1
  O  O253  1  0.23555079  0.64457612  0.55049751  1
  O  O254  1  0.24238140  0.62467084  0.99046982  1
  O  O255  1  0.75577622  0.12569697  0.48441404  1
  O  O256  1  0.74173686  0.13523546  1.00614203  1
  O  O257  1  0.74296106  0.63227850  0.48914585  1
  O  O258  1  0.74426279  0.63146157  0.99449597  1
  O  O259  1  0.25097818  0.36781239  0.00534841  1
  O  O260  1  0.23742112  0.36659367  0.51520488  1
  O  O261  1  0.26161845  0.86923962  0.01371404  1
  O  O262  1  0.26210095  0.88254835  0.51259497  1
  O  O263  1  0.75975182  0.36902540  0.00612258  1
  O  O264  1  0.76143701  0.37530863  0.50463897  1
  O  O265  1  0.75712705  0.86596423  0.00133524  1
  O  O266  1  0.76050208  0.87325279  0.50446520  1
  O  O267  1  0.13528621  0.48700920  0.25852340  1
  O  O268  1  0.11475034  0.48249157  0.75355419  1
  O  O269  1  0.13978623  0.98506919  0.23769549  1
  O  O270  1  0.13991253  0.98619274  0.76747584  1
  O  O271  1  0.62818297  0.50614278  0.23404959  1
  O  O272  1  0.62410178  0.50534789  0.73919602  1
  O  O273  1  0.63522425  0.99591127  0.24426163  1
  O  O274  1  0.63254730  0.99126657  0.75596384  1
  O  O275  1  0.36476464  -0.00043893  0.25285450  1
  O  O276  1  0.37445003  0.00522631  0.75426817  1
  O  O277  1  0.35313460  0.50953484  0.23578304  1
  O  O278  1  0.38382546  0.51239119  0.76467772  1
  O  O279  1  0.86261284  0.01441810  0.24277286  1
  O  O280  1  0.86972942  0.00780443  0.75951719  1
  O  O281  1  0.87695609  0.50863530  0.26251380  1
  O  O282  1  0.87920597  0.51379083  0.75054719  1
  O  O283  1  0.11720490  0.37116405  0.37049481  1
  O  O284  1  0.12375349  0.36928592  0.86302987  1
  O  O285  1  0.12475217  0.86737404  0.35747982  1
  O  O286  1  0.12590242  0.86121264  0.86321056  1
  O  O287  1  0.62593882  0.36949963  0.37434844  1
  O  O288  1  0.62820814  0.36261096  0.88296203  1
  O  O289  1  0.62504554  0.86681098  0.36882873  1
  O  O290  1  0.62673825  0.87816763  0.86470800  1
  O  O291  1  0.37594625  0.12487654  0.12974416  1
  O  O292  1  0.38020874  0.13139823  0.63410130  1
  O  O293  1  0.38689182  0.63490440  0.11431363  1
  O  O294  1  0.38709958  0.62894609  0.63807219  1
  O  O295  1  0.88056606  0.13178107  0.12742825  1
  O  O296  1  0.87756506  0.13381321  0.63504870  1
  O  O297  1  0.88071238  0.62871376  0.13180767  1
  O  O298  1  0.87861732  0.63096861  0.63098627  1
  O  O299  1  0.25732351  0.24821540  0.12014882  1
  O  O300  1  0.26335588  0.25502885  0.62281696  1
  O  O301  1  0.26072197  0.75285486  0.12292984  1
  O  O302  1  0.25649885  0.77353444  0.64380870  1
  O  O303  1  0.75132462  0.26044575  0.11864281  1
  O  O304  1  0.76054291  0.25112459  0.62646894  1
  O  O305  1  0.76072502  0.74797486  0.11346667  1
  O  O306  1  0.76006832  0.75234789  0.62505902  1
  O  O307  1  0.24458442  0.24104070  0.37831629  1
  O  O308  1  0.24571708  0.24414021  0.87569053  1
  O  O309  1  0.22674077  0.76046177  0.38199964  1
  O  O310  1  0.23820852  0.73722333  0.87448862  1
  O  O311  1  0.73765820  0.24050681  0.37526925  1
  O  O312  1  0.74392934  0.24831277  0.89166531  1
  O  O313  1  0.74000196  0.74086943  0.37170590  1
  O  O314  1  0.75852733  0.73975018  0.88762308  1
  O  O315  1  0.00878662  0.13172898  0.00765806  1
  O  O316  1  -0.00011932  0.12977012  0.48996434  1
  O  O317  1  0.00564399  0.61610966  0.00437789  1
  O  O318  1  -0.00722970  0.62762559  0.51242646  1
  O  O319  1  0.50341662  0.11259673  0.00736452  1
  O  O320  1  0.49537849  0.10640779  0.49878003  1
  O  O321  1  0.50911818  0.61999970  0.00681999  1
  O  O322  1  0.51134690  0.63613801  0.51156962  1
  O  O323  1  0.49004884  0.38121201  0.50763708  1
  O  O324  1  0.49267606  0.38558929  1.00757948  1
  O  O325  1  0.49514466  0.87977581  0.49468324  1
  O  O326  1  0.49353474  0.88637358  1.00577015  1
  O  O327  1  0.98383006  0.37073289  0.48955006  1
  O  O328  1  0.99835950  0.38120678  0.99824328  1
  O  O329  1  0.98101862  0.87734535  0.50664484  1
  O  O330  1  1.00455307  0.87438948  0.99828965  1
  O  O331  1  0.48538631  0.52546966  0.38066110  1
  O  O332  1  0.49150691  0.50544707  0.88724013  1
  O  O333  1  0.49527114  0.99162321  0.38131899  1
  O  O334  1  0.49492993  1.00602496  0.88560009  1
  O  O335  1  0.99275168  0.48828904  0.37075220  1
  O  O336  1  0.99668507  0.49417220  0.88538528  1
  O  O337  1  1.00122203  0.98912349  0.35292690  1
  O  O338  1  0.98995212  1.00436361  0.86434077  1
  O  O339  1  0.00877812  0.01624038  0.13455754  1
  O  O340  1  0.00977361  0.01154275  0.65126911  1
  O  O341  1  -0.00441480  0.50936458  0.11462901  1
  O  O342  1  0.00540145  0.50638423  0.62512135  1
  O  O343  1  0.50367658  0.00736681  0.11810548  1
  O  O344  1  0.49976211  -0.00030277  0.60929331  1
  O  O345  1  0.50963782  0.51055961  0.11455994  1
  O  O346  1  0.51719731  0.52173349  0.62940572  1
  O  O347  1  0.24366548  0.38539299  0.24181418  1
  O  O348  1  0.23600552  0.37162601  0.73612158  1
  O  O349  1  0.24632893  0.87784610  0.23702420  1
  O  O350  1  0.24527253  0.88423732  0.74938489  1
  O  O351  1  0.75525053  0.37477089  0.23472420  1
  O  O352  1  0.74333038  0.37587959  0.74880165  1
  O  O353  1  0.74889370  0.88512841  0.24865200  1
  O  O354  1  0.74034347  0.88097954  0.75333781  1
  O  O355  1  0.25799569  0.11380632  0.25289586  1
  O  O356  1  0.26371925  0.12014896  0.75411721  1
  O  O357  1  0.23624635  0.60828165  0.25314722  1
  O  O358  1  0.26548274  0.63060043  0.75327416  1
  O  O359  1  0.75383556  0.12063903  0.25528548  1
  O  O360  1  0.76117123  0.12105643  0.75642559  1
  O  O361  1  0.76243204  0.62906732  0.25544113  1
  O  O362  1  0.75872902  0.63441642  0.76114062  1
  O  O363  1  0.36872344  0.11709604  0.36557460  1
  O  O364  1  0.37160803  0.11935775  0.86904611  1
  O  O365  1  0.35546799  0.67433363  0.38199334  1
  O  O366  1  0.36631799  0.62024558  0.87239207  1
  O  O367  1  0.86051922  0.13851754  0.36124989  1
  O  O368  1  0.87210766  0.11694948  0.87014172  1
  O  O369  1  0.87058168  0.62174944  0.36853538  1
  O  O370  1  0.86798550  0.62295115  0.86582201  1
  O  O371  1  0.13514706  0.36652150  0.13503702  1
  O  O372  1  0.10923800  0.38410363  0.63505497  1
  O  O373  1  0.13657284  0.87378255  0.12691781  1
  O  O374  1  0.13267032  0.88103394  0.63727431  1
  O  O375  1  0.64578315  0.38672730  0.11275340  1
  O  O376  1  0.62550139  0.39601775  0.62212465  1
  O  O377  1  0.62870472  0.88241401  0.13076348  1
  O  O378  1  0.62835068  0.88241776  0.63865375  1
  O  O379  1  0.12777187  0.26169396  0.26187379  1
  O  O380  1  0.11596817  0.26167018  0.75078788  1
  O  O381  1  0.12534834  0.75904709  0.24699233  1
  O  O382  1  0.11868777  0.75337534  0.75294557  1
  O  O383  1  0.61984120  0.24773402  0.26934574  1
  O  O384  1  0.61681492  0.24803091  0.76466616  1
  O  O385  1  0.62421427  0.75554037  0.25170027  1
  O  O386  1  0.61975324  0.76427688  0.75273696  1
  O  O387  1  0.37284932  0.23593559  0.23967664  1
  O  O388  1  0.38564786  0.24067593  0.74843782  1
  O  O389  1  0.38918624  0.75906616  0.23194965  1
  O  O390  1  0.38559290  0.74510606  0.75473725  1
  O  O391  1  0.87264217  0.24575097  0.24052369  1
  O  O392  1  0.87837309  0.24600128  0.74556758  1
  O  O393  1  0.87817717  0.74201048  0.24253530  1
  O  O394  1  0.88233089  0.74577336  0.74125682  1
  O  O395  1  0.34643621  0.46869547  0.55429508  1
  O  O396  1  0.38294581  0.49390280  0.99184114  1
  O  O397  1  0.38509699  0.99013230  0.49208497  1
  O  O398  1  0.38321094  0.99199447  0.99491695  1
  O  O399  1  0.87105072  0.49588608  0.48582618  1
  O  O400  1  0.88504288  0.49329745  0.99817618  1
  O  O401  1  0.87018724  0.99141128  0.50457976  1
  O  O402  1  0.87398286  1.00015921  0.98325302  1
  O  O403  1  0.12420192  0.01320033  0.00084354  1
  O  O404  1  0.12633741  -0.00339124  0.48993207  1
  O  O405  1  0.11722665  0.51015532  -0.00760632  1
  O  O406  1  0.12093684  0.49529486  0.51165104  1
  O  O407  1  0.62013433  0.00417640  0.00465948  1
  O  O408  1  0.61064376  -0.00919605  0.49702200  1
  O  O409  1  0.61744317  0.50766475  0.00519930  1
  O  O410  1  0.62940726  0.51548359  0.50816443  1
  O  O411  1  0.36038827  0.36234483  0.11712089  1
  O  O412  1  0.37299702  0.35772630  0.64716772  1
  O  O413  1  0.37216548  0.86903543  0.11546932  1
  O  O414  1  0.36898675  0.88049766  0.61988327  1
  O  O415  1  0.86761390  0.37200468  0.12023031  1
  O  O416  1  0.87393901  0.37072081  0.61774751  1
  O  O417  1  0.87594705  0.85909714  0.12349899  1
  O  O418  1  0.87056190  0.86787092  0.61837951  1
  O  O419  1  0.13673237  0.13427180  0.36763212  1
  O  O420  1  0.13219932  0.13259018  0.88038936  1
  O  O421  1  0.11487097  0.64327678  0.37778609  1
  O  O422  1  0.13180622  0.62584516  0.87614756  1
  O  O423  1  0.63640181  0.12502533  0.37270851  1
  O  O424  1  0.62784514  0.13589231  0.88768261  1
  O  O425  1  0.63233290  0.62997182  0.37996220  1
  O  O426  1  0.63189350  0.62192301  0.88644389  1
