# generated using pymatgen
data_V85Zn86O256
_symmetry_space_group_name_H-M   'P 1'
_cell_length_a   16.92732669
_cell_length_b   16.93468739
_cell_length_c   16.92848533
_cell_angle_alpha   90.04103364
_cell_angle_beta   89.99773563
_cell_angle_gamma   89.96638239
_symmetry_Int_Tables_number   1
_chemical_formula_structural   V85Zn86O256
_chemical_formula_sum   'V85 Zn86 O256'
_cell_volume   4852.70034957
_cell_formula_units_Z   1
loop_
 _symmetry_equiv_pos_site_id
 _symmetry_equiv_pos_as_xyz
  1  'x, y, z'
loop_
 _atom_site_type_symbol
 _atom_site_label
 _atom_site_symmetry_multiplicity
 _atom_site_fract_x
 _atom_site_fract_y
 _atom_site_fract_z
 _atom_site_occupancy
  V  V0  1  0.62990676  0.51284590  0.62044895  1
  V  V1  1  0.62219839  -0.00429509  0.12478415  1
  V  V2  1  0.38653255  0.63025258  0.24839499  1
  V  V3  1  0.24945821  -0.00050696  0.75034830  1
  V  V4  1  0.25296315  0.50012856  0.24918866  1
  V  V5  1  0.51288802  0.63211987  0.11740763  1
  V  V6  1  0.12243916  -0.00444644  0.12884681  1
  V  V7  1  0.12790617  0.12646429  0.49387090  1
  V  V8  1  0.74567184  0.12418247  0.37504533  1
  V  V9  1  0.25365214  0.60701176  0.87264777  1
  V  V10  1  0.12712070  0.49515593  0.61471396  1
  V  V11  1  0.00641566  0.37810061  0.38653999  1
  V  V12  1  -0.00891598  -0.00407953  -0.00246264  1
  V  V13  1  0.88346359  0.63090656  0.75518058  1
  V  V14  1  0.12383304  0.50213129  0.12343521  1
  V  V15  1  0.24979963  0.75087907  -0.00397349  1
  V  V16  1  0.87171652  0.37135927  -0.00123994  1
  V  V17  1  0.49942890  0.85993909  0.87108140  1
  V  V18  1  0.74668935  -0.00224648  0.24791472  1
  V  V19  1  0.87601241  0.50220968  0.87054237  1
  V  V20  1  0.00291650  0.61944796  0.62252722  1
  V  V21  1  0.81515913  0.31112782  0.17073334  1
  V  V22  1  0.49159765  0.12152687  0.13804544  1
  V  V23  1  0.50064741  -0.00217921  0.50368203  1
  V  V24  1  0.12394988  0.00067678  0.62542411  1
  V  V25  1  0.25111333  0.74512544  0.50197590  1
  V  V26  1  0.24800482  0.87350974  0.13447830  1
  V  V27  1  -0.00788092  0.12403091  0.62772644  1
  V  V28  1  0.12751927  0.38135620  0.74982223  1
  V  V29  1  0.49474222  0.86834050  0.37173051  1
  V  V30  1  0.70204966  0.56100477  0.80831206  1
  V  V31  1  0.62592040  0.12327227  -0.00227561  1
  V  V32  1  0.63167927  0.37800564  0.75314036  1
  V  V33  1  0.87578877  0.00119539  0.37284522  1
  V  V34  1  0.12542013  0.24844095  0.87224730  1
  V  V35  1  0.74825068  0.88311108  0.62564934  1
  V  V36  1  0.88178308  0.50316567  0.38628260  1
  V  V37  1  0.00531859  0.74511220  0.23987285  1
  V  V38  1  0.75245625  0.24644420  0.00110034  1
  V  V39  1  -0.01061474  0.86755540  0.87268043  1
  V  V40  1  0.75328953  0.62684329  0.37394297  1
  V  V41  1  0.24892169  0.87265257  0.62455964  1
  V  V42  1  0.26266480  0.37099387  0.62915367  1
  V  V43  1  0.26180727  0.24518734  0.49713507  1
  V  V44  1  0.75282837  0.38196304  0.62481560  1
  V  V45  1  0.63000291  0.47957623  0.12776005  1
  V  V46  1  -0.00457586  0.50470961  0.00436922  1
  V  V47  1  0.37091765  0.01123408  0.37059128  1
  V  V48  1  0.62361141  0.12221861  0.50260882  1
  V  V49  1  0.12047202  0.86637005  0.75191988  1
  V  V50  1  0.74907511  0.74954401  0.49506280  1
  V  V51  1  0.87600732  0.87453537  0.49596231  1
  V  V52  1  0.25140881  0.12244693  0.87343064  1
  V  V53  1  0.37781497  0.12945468  0.74170250  1
  V  V54  1  0.50143257  0.63432242  0.62434367  1
  V  V55  1  0.38290105  0.00095982  0.87185432  1
  V  V56  1  0.49378312  0.26786589  0.25452745  1
  V  V57  1  0.37421760  0.87532676  -0.00032671  1
  V  V58  1  0.62987469  0.24745598  0.87473656  1
  V  V59  1  -0.00004031  0.25365492  0.24523107  1
  V  V60  1  0.62230472  0.74389900  0.37283594  1
  V  V61  1  0.24912353  0.01506600  0.25171220  1
  V  V62  1  0.49865498  0.25441341  0.73855824  1
  V  V63  1  0.49501988  0.37681600  0.87565559  1
  V  V64  1  0.62248580  0.26714230  0.37161345  1
  V  V65  1  0.12316841  0.12290086  -0.00063562  1
  V  V66  1  0.61553644  0.87307244  0.74217919  1
  V  V67  1  0.49920780  0.00114013  -0.00195781  1
  V  V68  1  0.88170106  0.62123255  0.24131150  1
  V  V69  1  0.12131476  0.62568026  0.00195326  1
  V  V70  1  0.86632070  0.01277368  0.86649937  1
  V  V71  1  0.87130948  0.12709974  0.24104280  1
  V  V72  1  0.00223199  -0.00033034  0.49817769  1
  V  V73  1  -0.00786776  0.24711180  0.75050507  1
  V  V74  1  0.12701543  0.75118157  0.36956651  1
  V  V75  1  0.75153545  0.74251771  -0.00828359  1
  V  V76  1  0.25298534  0.62065469  0.37441782  1
  V  V77  1  0.37369648  0.62091662  0.74997687  1
  V  V78  1  0.12619622  0.37538737  0.25103009  1
  V  V79  1  0.00564436  0.87453516  0.36609481  1
  V  V80  1  0.37484808  0.37864382  -0.00172129  1
  V  V81  1  0.62032535  0.86712914  0.24785044  1
  V  V82  1  0.25171706  0.37231861  0.12508756  1
  V  V83  1  0.88353549  0.75211144  0.62802096  1
  V  V84  1  0.50222640  0.50123116  0.49419658  1
  Zn  Zn85  1  0.11986612  0.74553915  0.87140497  1
  Zn  Zn86  1  0.37830071  0.75246767  0.63161822  1
  Zn  Zn87  1  0.75750037  0.87318658  0.11364759  1
  Zn  Zn88  1  0.37171315  0.24511959  0.12910385  1
  Zn  Zn89  1  0.38185237  0.75231320  0.12680102  1
  Zn  Zn90  1  0.12971268  0.24650588  0.37390500  1
  Zn  Zn91  1  0.87239641  0.24996536  0.62433336  1
  Zn  Zn92  1  0.38717074  0.49252948  0.36956418  1
  Zn  Zn93  1  0.12122297  0.61865569  0.49673468  1
  Zn  Zn94  1  0.63025736  0.74089218  0.87307386  1
  Zn  Zn95  1  0.25268299  0.24765568  0.00058789  1
  Zn  Zn96  1  0.75069337  0.25179572  0.50221229  1
  Zn  Zn97  1  0.37273310  0.87366342  0.49825547  1
  Zn  Zn98  1  0.38654123  0.36915454  0.49714221  1
  Zn  Zn99  1  0.00073089  0.37470523  0.87512846  1
  Zn  Zn100  1  -0.00502019  0.12851092  0.12200577  1
  Zn  Zn101  1  0.50514652  0.50219878  0.00012240  1
  Zn  Zn102  1  0.87537248  0.75359605  0.11834559  1
  Zn  Zn103  1  0.49900342  0.12761890  0.61984319  1
  Zn  Zn104  1  0.74855117  0.48878594  0.25046108  1
  Zn  Zn105  1  0.88363828  0.37708787  0.50849621  1
  Zn  Zn106  1  0.74659729  0.01098091  0.74612004  1
  Zn  Zn107  1  0.18233116  0.18770054  0.18505994  1
  Zn  Zn108  1  0.18582650  0.18951260  0.68396318  1
  Zn  Zn109  1  0.19150757  0.68668281  0.18581696  1
  Zn  Zn110  1  0.18917499  0.68296420  0.69005480  1
  Zn  Zn111  1  0.67402207  0.18463820  0.19067392  1
  Zn  Zn112  1  0.69111731  0.19114386  0.68483309  1
  Zn  Zn113  1  0.69359617  0.68813283  0.18582935  1
  Zn  Zn114  1  0.68831654  0.70021455  0.68372716  1
  Zn  Zn115  1  0.31718571  0.31180679  0.31716852  1
  Zn  Zn116  1  0.31262446  0.31170846  0.81257962  1
  Zn  Zn117  1  0.31283181  0.81154506  0.31163705  1
  Zn  Zn118  1  0.31131709  0.80862355  0.81169461  1
  Zn  Zn119  1  0.81770442  0.31120385  0.33658066  1
  Zn  Zn120  1  0.81071828  0.31292160  0.81390893  1
  Zn  Zn121  1  0.82118438  0.81906461  0.28994855  1
  Zn  Zn122  1  0.80827319  0.81485543  0.81152753  1
  Zn  Zn123  1  0.19806935  0.43131091  0.43894524  1
  Zn  Zn124  1  0.18512237  0.43399506  0.94067738  1
  Zn  Zn125  1  0.18902996  0.93645910  0.43558087  1
  Zn  Zn126  1  0.18501783  0.93598638  0.93726787  1
  Zn  Zn127  1  0.69049521  0.44611726  0.44229865  1
  Zn  Zn128  1  0.68441360  0.43310405  0.94952233  1
  Zn  Zn129  1  0.68462871  0.93488027  0.43476977  1
  Zn  Zn130  1  0.68721065  0.92835617  0.93575053  1
  Zn  Zn131  1  0.31082077  0.06112545  0.06288687  1
  Zn  Zn132  1  0.31413611  0.06032966  0.55977851  1
  Zn  Zn133  1  0.31603070  0.56217834  0.06276466  1
  Zn  Zn134  1  0.31523909  0.55728486  0.56553998  1
  Zn  Zn135  1  0.80826168  0.05873554  0.05950239  1
  Zn  Zn136  1  0.81340951  0.06322866  0.55886840  1
  Zn  Zn137  1  0.80313771  0.56083553  0.06219983  1
  Zn  Zn138  1  0.81318965  0.56654627  0.56373000  1
  Zn  Zn139  1  0.43740931  0.44377934  0.18079249  1
  Zn  Zn140  1  0.44085318  0.44416045  0.68612835  1
  Zn  Zn141  1  0.43507708  0.93615628  0.19058223  1
  Zn  Zn142  1  0.43753650  0.93626404  0.68710429  1
  Zn  Zn143  1  0.94299884  0.44544478  0.19255758  1
  Zn  Zn144  1  0.94175792  0.43946435  0.69095519  1
  Zn  Zn145  1  0.93884837  0.93589233  0.18694169  1
  Zn  Zn146  1  0.93416758  0.93901041  0.69160482  1
  Zn  Zn147  1  0.06207525  0.06444038  0.30895219  1
  Zn  Zn148  1  0.05862647  0.05864926  0.81188301  1
  Zn  Zn149  1  0.06443647  0.56201410  0.31366338  1
  Zn  Zn150  1  0.06142779  0.56242923  0.81255759  1
  Zn  Zn151  1  0.56094044  0.05831346  0.31714760  1
  Zn  Zn152  1  0.59249512  0.07987914  0.78923781  1
  Zn  Zn153  1  0.56900560  0.56064261  0.30666971  1
  Zn  Zn154  1  0.53563983  0.56185876  0.80988417  1
  Zn  Zn155  1  0.44013258  0.18823865  0.43263518  1
  Zn  Zn156  1  0.44016894  0.19155535  0.93785071  1
  Zn  Zn157  1  0.43781695  0.68338241  0.44086107  1
  Zn  Zn158  1  0.43237665  0.68404166  0.94038309  1
  Zn  Zn159  1  0.93710003  0.19171993  0.43773304  1
  Zn  Zn160  1  0.93785911  0.18694010  0.93758538  1
  Zn  Zn161  1  0.93975161  0.68799209  0.43765330  1
  Zn  Zn162  1  0.93142046  0.68982186  0.94169834  1
  Zn  Zn163  1  0.06003588  0.31373584  0.06138972  1
  Zn  Zn164  1  0.06872672  0.30685453  0.56611931  1
  Zn  Zn165  1  0.06260771  0.81501003  0.05758612  1
  Zn  Zn166  1  0.06464552  0.81005749  0.55803430  1
  Zn  Zn167  1  0.55828649  0.30756393  0.06373419  1
  Zn  Zn168  1  0.57059429  0.31831873  0.56114002  1
  Zn  Zn169  1  0.57045023  0.80708890  0.05475597  1
  Zn  Zn170  1  0.56492895  0.81204871  0.55611834  1
  O  O171  1  0.12137202  0.11446338  0.11537562  1
  O  O172  1  0.11645901  0.11941808  0.61548438  1
  O  O173  1  0.13463521  0.61777704  0.10976532  1
  O  O174  1  0.12099438  0.61375026  0.62594522  1
  O  O175  1  0.61240327  0.11647322  0.11769594  1
  O  O176  1  0.62202992  0.13250879  0.60525445  1
  O  O177  1  0.61285705  0.62409127  0.13253340  1
  O  O178  1  0.61843009  0.62133333  0.63485464  1
  O  O179  1  0.36760469  0.38322344  0.38501323  1
  O  O180  1  0.38302472  0.36836123  0.88294696  1
  O  O181  1  0.38154670  0.87729722  0.37582619  1
  O  O182  1  0.38026711  0.88080493  0.87657979  1
  O  O183  1  0.88826239  0.38601033  0.38088240  1
  O  O184  1  0.87579554  0.38403894  0.88140190  1
  O  O185  1  0.88409239  0.88076364  0.37500667  1
  O  O186  1  0.88762408  0.88390724  0.86595865  1
  O  O187  1  0.26083217  -0.00572339  0.36655628  1
  O  O188  1  0.25967689  0.00320422  0.87041814  1
  O  O189  1  0.24864839  0.51174369  0.37043484  1
  O  O190  1  0.25008102  0.50916600  0.88129093  1
  O  O191  1  0.75443033  0.00707019  0.36957743  1
  O  O192  1  0.76588152  -0.00622587  0.87846961  1
  O  O193  1  0.75920511  0.50863254  0.37191133  1
  O  O194  1  0.75350146  0.50105683  0.87558933  1
  O  O195  1  0.24585809  0.48954011  0.12778739  1
  O  O196  1  0.24348822  0.48204643  0.62172600  1
  O  O197  1  0.24317994  0.99436314  0.13178025  1
  O  O198  1  0.24427834  0.99148350  0.62842001  1
  O  O199  1  0.73682872  0.49820525  0.13037245  1
  O  O200  1  0.74104277  0.49837809  0.62257303  1
  O  O201  1  0.74065852  0.99448149  0.13023317  1
  O  O202  1  0.75566124  0.98651727  0.62156710  1
  O  O203  1  0.00696251  0.37060687  0.25691194  1
  O  O204  1  0.00991205  0.36512876  0.75294444  1
  O  O205  1  0.00288462  0.86558130  0.26166509  1
  O  O206  1  0.00774327  0.88164920  0.76184302  1
  O  O207  1  0.49588998  0.36587270  0.24667785  1
  O  O208  1  0.50918520  0.37356676  0.75454210  1
  O  O209  1  0.50566801  0.87676103  0.26218952  1
  O  O210  1  0.50552369  0.87157510  0.75413965  1
  O  O211  1  0.50414651  0.12367718  0.23961527  1
  O  O212  1  0.49673378  0.13542772  0.74476863  1
  O  O213  1  0.48972295  0.62224735  0.24257882  1
  O  O214  1  0.48514102  0.63230644  0.74140455  1
  O  O215  1  0.98764680  0.13508084  0.25101919  1
  O  O216  1  1.00889997  0.13333648  0.73917512  1
  O  O217  1  0.99213595  0.62968180  0.25187175  1
  O  O218  1  0.99448082  0.62551002  0.73928973  1
  O  O219  1  0.37262025  0.25918746  0.00515690  1
  O  O220  1  0.36619994  0.24630370  0.50113779  1
  O  O221  1  0.36566557  0.75678777  0.00308666  1
  O  O222  1  0.36099560  0.75075407  0.50108758  1
  O  O223  1  0.86929936  0.25745376  -0.00313469  1
  O  O224  1  0.87032084  0.25726404  0.50234299  1
  O  O225  1  0.86494002  0.75363593  0.00371764  1
  O  O226  1  0.86850618  0.75703290  0.50313454  1
  O  O227  1  0.13477298  0.24075097  0.49819139  1
  O  O228  1  0.12377878  0.24104492  0.99155817  1
  O  O229  1  0.13571951  0.74537221  0.48947470  1
  O  O230  1  0.12989164  0.74090877  0.99756392  1
  O  O231  1  0.62273379  0.24421405  0.48509859  1
  O  O232  1  0.62904440  0.24330153  0.99494853  1
  O  O233  1  0.64124134  0.75501716  0.48850514  1
  O  O234  1  0.63817338  0.74648589  0.98894788  1
  O  O235  1  0.50161536  0.23898243  0.14087602  1
  O  O236  1  0.50572102  0.25420232  0.63556114  1
  O  O237  1  0.50058659  0.73707876  0.12052661  1
  O  O238  1  0.49808737  0.73900656  0.61422116  1
  O  O239  1  1.00471832  0.24833479  0.13923285  1
  O  O240  1  0.99960228  0.24159725  0.63333477  1
  O  O241  1  1.00120570  0.75715024  0.13708157  1
  O  O242  1  0.98851755  0.74775957  0.62088157  1
  O  O243  1  0.00051327  0.25953354  0.36331051  1
  O  O244  1  0.01084373  0.24838685  0.86869556  1
  O  O245  1  0.00989329  0.75461575  0.36893646  1
  O  O246  1  0.00024711  0.76417586  0.87796001  1
  O  O247  1  0.50943119  0.25038344  0.36439346  1
  O  O248  1  0.51024128  0.25987777  0.86758074  1
  O  O249  1  0.51011216  0.75476080  0.38263874  1
  O  O250  1  0.49948449  0.75792443  0.88073104  1
  O  O251  1  0.24372006  0.13730394  0.50993424  1
  O  O252  1  0.23875844  0.12348027  0.99392700  1
  O  O253  1  0.25083218  0.62847465  0.49206490  1
  O  O254  1  0.24785411  0.63025679  0.99074196  1
  O  O255  1  0.74323089  0.12573134  0.49084646  1
  O  O256  1  0.73626164  0.13070756  1.00585311  1
  O  O257  1  0.75960761  0.63569871  0.48517939  1
  O  O258  1  0.75643154  0.64005575  0.99894556  1
  O  O259  1  0.25501085  0.37175393  0.00806781  1
  O  O260  1  0.25310377  0.36105455  0.51240404  1
  O  O261  1  0.25386934  0.86922313  0.00580681  1
  O  O262  1  0.24789700  0.86595568  0.50871813  1
  O  O263  1  0.76377336  0.36653387  0.00172424  1
  O  O264  1  0.74950802  0.37663864  0.51477244  1
  O  O265  1  0.74658909  0.86044411  0.00134893  1
  O  O266  1  0.75674386  0.87035586  0.50201238  1
  O  O267  1  0.13230955  0.49674746  0.24267458  1
  O  O268  1  0.12146847  0.48515827  0.74623109  1
  O  O269  1  0.13132024  1.00359066  0.23964155  1
  O  O270  1  0.13100535  0.99200061  0.74446254  1
  O  O271  1  0.63100994  0.49851540  0.23646944  1
  O  O272  1  0.63296590  0.50060365  0.75073980  1
  O  O273  1  0.62584577  0.99218247  0.24472670  1
  O  O274  1  0.62328512  0.97699145  0.74758056  1
  O  O275  1  0.36621551  -0.00327555  0.26226967  1
  O  O276  1  0.37022055  0.00575897  0.75598813  1
  O  O277  1  0.37003124  0.51125966  0.24947694  1
  O  O278  1  0.37814654  0.51805876  0.74807824  1
  O  O279  1  0.87087678  0.01085735  0.25647199  1
  O  O280  1  0.86837041  0.00450319  0.76058183  1
  O  O281  1  0.87525634  0.51039290  0.26043937  1
  O  O282  1  0.87902457  0.50757818  0.76382709  1
  O  O283  1  0.12228363  0.37472125  0.36824782  1
  O  O284  1  0.12580719  0.36516620  0.86889882  1
  O  O285  1  0.11865544  0.86333675  0.37909004  1
  O  O286  1  0.11501723  0.87588651  0.86608932  1
  O  O287  1  0.63351999  0.36496891  0.37783373  1
  O  O288  1  0.62116011  0.36918161  0.87021153  1
  O  O289  1  0.61547973  0.86529320  0.36869613  1
  O  O290  1  0.61128189  0.87477251  0.86416881  1
  O  O291  1  0.38749989  0.12535994  0.12053086  1
  O  O292  1  0.37654795  0.11978564  0.63836540  1
  O  O293  1  0.38397578  0.62533186  0.13490948  1
  O  O294  1  0.37981128  0.62692129  0.63303409  1
  O  O295  1  0.87402458  0.11992998  0.13703113  1
  O  O296  1  0.88773173  0.12616823  0.62049354  1
  O  O297  1  0.87351970  0.62231793  0.13986130  1
  O  O298  1  0.88257566  0.63058467  0.63357298  1
  O  O299  1  0.24841113  0.26054868  0.12427117  1
  O  O300  1  0.24587105  0.26192603  0.61534349  1
  O  O301  1  0.24887582  0.75816330  0.11407970  1
  O  O302  1  0.24524492  0.75535843  0.61642876  1
  O  O303  1  0.74686109  0.24714902  0.12313100  1
  O  O304  1  0.75139445  0.26327976  0.62381997  1
  O  O305  1  0.75168824  0.75200879  0.11417594  1
  O  O306  1  0.76136653  0.75849665  0.61302761  1
  O  O307  1  0.24836609  0.25109169  0.39286898  1
  O  O308  1  0.23868136  0.24156853  0.87518269  1
  O  O309  1  0.24529565  0.74047609  0.37847157  1
  O  O310  1  0.24459980  0.74792658  0.88778340  1
  O  O311  1  0.73700349  0.24186736  0.37659776  1
  O  O312  1  0.73604004  0.25323199  0.88050146  1
  O  O313  1  0.74793244  0.74626281  0.37761951  1
  O  O314  1  0.75151746  0.75054707  0.88407536  1
  O  O315  1  0.00880903  0.11761587  0.00100742  1
  O  O316  1  0.00634867  0.11945565  0.50525656  1
  O  O317  1  0.00947953  0.61775347  -0.00607002  1
  O  O318  1  0.00277650  0.63093040  0.51605452  1
  O  O319  1  0.50403854  0.11977080  0.01039187  1
  O  O320  1  0.50526307  0.11715152  0.49761758  1
  O  O321  1  0.49499184  0.62077414  0.01365171  1
  O  O322  1  0.49784766  0.61427452  0.51149831  1
  O  O323  1  0.50273855  0.39498134  0.51064604  1
  O  O324  1  0.49247594  0.37093458  0.99264251  1
  O  O325  1  0.49843320  0.88042175  0.48850682  1
  O  O326  1  0.49482467  0.88155143  0.99101730  1
  O  O327  1  1.00620331  0.36853184  0.48954772  1
  O  O328  1  0.98872270  0.38128903  0.99739823  1
  O  O329  1  0.99627066  0.87960433  0.48976436  1
  O  O330  1  1.00473355  0.88368171  0.98404697  1
  O  O331  1  0.50704522  0.50917289  0.39029050  1
  O  O332  1  0.50468373  0.48290950  0.88143720  1
  O  O333  1  0.48724893  0.99151173  0.37979312  1
  O  O334  1  0.48806919  0.99428584  0.87659105  1
  O  O335  1  0.99526463  0.49065581  0.37237264  1
  O  O336  1  0.99248453  0.49766340  0.88546521  1
  O  O337  1  0.99728267  0.99232641  0.37626016  1
  O  O338  1  0.99009801  0.99365986  0.87999513  1
  O  O339  1  0.00522380  -0.00131429  0.11740267  1
  O  O340  1  0.00409258  0.00488288  0.62037217  1
  O  O341  1  0.00575191  0.49864743  0.11194998  1
  O  O342  1  0.01170451  0.50707608  0.62810221  1
  O  O343  1  0.50129368  0.00664351  0.12175532  1
  O  O344  1  0.49217947  -0.00067500  0.60736703  1
  O  O345  1  0.51287946  0.50991913  0.12515403  1
  O  O346  1  0.51181507  0.51255916  0.62196332  1
  O  O347  1  0.24612367  0.37886402  0.24337623  1
  O  O348  1  0.24371595  0.36607299  0.73752196  1
  O  O349  1  0.25241238  0.87892452  0.23698427  1
  O  O350  1  0.24249309  0.88015222  0.74405466  1
  O  O351  1  0.76835800  0.36742884  0.24481382  1
  O  O352  1  0.73868967  0.37365140  0.74388022  1
  O  O353  1  0.73136938  0.88505274  0.25924537  1
  O  O354  1  0.74196049  0.87912482  0.73910269  1
  O  O355  1  0.24776343  0.11464814  0.24534218  1
  O  O356  1  0.25710053  0.12106361  0.75357220  1
  O  O357  1  0.25852584  0.61918993  0.25541911  1
  O  O358  1  0.25234107  0.62197823  0.76577869  1
  O  O359  1  0.75219108  0.12004110  0.25490537  1
  O  O360  1  0.70153889  0.11408075  0.76084116  1
  O  O361  1  0.76584447  0.62722547  0.26051200  1
  O  O362  1  0.75761034  0.62267538  0.74780746  1
  O  O363  1  0.37640020  0.10973005  0.37534281  1
  O  O364  1  0.37296666  0.11813222  0.86743859  1
  O  O365  1  0.37108892  0.62167517  0.36355371  1
  O  O366  1  0.36201726  0.62606188  0.86807958  1
  O  O367  1  0.86259287  0.12487983  0.36607869  1
  O  O368  1  0.87683173  0.11157893  0.87607605  1
  O  O369  1  0.87412508  0.61907105  0.36944630  1
  O  O370  1  0.88185168  0.61951074  0.86311237  1
  O  O371  1  0.13174172  0.38092346  0.12878141  1
  O  O372  1  0.13169478  0.37924356  0.63215896  1
  O  O373  1  0.13306787  0.88793152  0.11669417  1
  O  O374  1  0.13118084  0.87833892  0.63038253  1
  O  O375  1  0.62211544  0.38030276  0.12633647  1
  O  O376  1  0.63162481  0.38938092  0.63566167  1
  O  O377  1  0.61837327  0.88029552  0.13387698  1
  O  O378  1  0.63301063  0.86603666  0.63240123  1
  O  O379  1  0.11751134  0.25466177  0.25414993  1
  O  O380  1  0.11874607  0.25631018  0.75625156  1
  O  O381  1  0.12004591  0.74131685  0.25986111  1
  O  O382  1  0.12925264  0.76262873  0.75130566  1
  O  O383  1  0.61285884  0.24849591  0.26419956  1
  O  O384  1  0.61774339  0.26194525  0.75706028  1
  O  O385  1  0.62964894  0.75911628  0.25774172  1
  O  O386  1  0.63151624  0.76618933  0.75723331  1
  O  O387  1  0.38982266  0.24870338  0.25077997  1
  O  O388  1  0.38627014  0.24088205  0.75683104  1
  O  O389  1  0.36875816  0.73406511  0.24585769  1
  O  O390  1  0.36158835  0.73251193  0.74558993  1
  O  O391  1  0.87611420  0.24884196  0.24453744  1
  O  O392  1  0.88841048  0.25363701  0.75109402  1
  O  O393  1  0.88990870  0.73187308  0.25679398  1
  O  O394  1  0.86938435  0.74203682  0.73997153  1
  O  O395  1  0.39218811  0.50011529  0.50057531  1
  O  O396  1  0.38005014  0.48340169  1.00766547  1
  O  O397  1  0.37792945  0.99572079  0.48722897  1
  O  O398  1  0.37835186  0.99511094  0.99149373  1
  O  O399  1  0.87504834  0.50042649  0.49002372  1
  O  O400  1  0.87808564  0.49621651  0.99237238  1
  O  O401  1  0.88270890  0.99522197  0.49116670  1
  O  O402  1  0.88633350  1.00339546  0.99404166  1
  O  O403  1  0.11579857  0.00662897  0.00366183  1
  O  O404  1  0.12158911  0.00476395  0.50535936  1
  O  O405  1  0.11530892  0.50480775  0.00249656  1
  O  O406  1  0.12986833  0.49762440  0.51103839  1
  O  O407  1  0.61842152  0.00511748  0.00306538  1
  O  O408  1  0.61281619  0.00804225  0.48857368  1
  O  O409  1  0.62334420  0.49704160  0.01908781  1
  O  O410  1  0.61761156  0.50458526  0.51085974  1
  O  O411  1  0.36656799  0.37110254  0.12072791  1
  O  O412  1  0.36490350  0.37751862  0.62581971  1
  O  O413  1  0.36703714  0.87433039  0.11857505  1
  O  O414  1  0.36087585  0.87266665  0.62419517  1
  O  O415  1  0.87989542  0.37615222  0.11930110  1
  O  O416  1  0.86683578  0.37873314  0.62795442  1
  O  O417  1  0.85974941  0.86037095  0.16920858  1
  O  O418  1  0.87100752  0.86906451  0.61962487  1
  O  O419  1  0.11989213  0.12364399  0.38974507  1
  O  O420  1  0.12857086  0.12785324  0.88012528  1
  O  O421  1  0.13427742  0.63120663  0.37704304  1
  O  O422  1  0.13608569  0.62378128  0.88243658  1
  O  O423  1  0.63408283  0.12779037  0.37884037  1
  O  O424  1  0.60803439  0.13557031  0.89173165  1
  O  O425  1  0.63646957  0.63642383  0.36602919  1
  O  O426  1  0.63178512  0.61652854  0.85705614  1
