# generated using pymatgen
data_V85Zn86O256
_symmetry_space_group_name_H-M   'P 1'
_cell_length_a   16.92403817
_cell_length_b   16.93874415
_cell_length_c   16.93120450
_cell_angle_alpha   90.13479356
_cell_angle_beta   89.96257694
_cell_angle_gamma   89.94271288
_symmetry_Int_Tables_number   1
_chemical_formula_structural   V85Zn86O256
_chemical_formula_sum   'V85 Zn86 O256'
_cell_volume   4853.68455442
_cell_formula_units_Z   1
loop_
 _symmetry_equiv_pos_site_id
 _symmetry_equiv_pos_as_xyz
  1  'x, y, z'
loop_
 _atom_site_type_symbol
 _atom_site_label
 _atom_site_symmetry_multiplicity
 _atom_site_fract_x
 _atom_site_fract_y
 _atom_site_fract_z
 _atom_site_occupancy
  V  V0  1  0.49541236  0.62457105  0.12122819  1
  V  V1  1  0.88129294  0.11737814  0.75237092  1
  V  V2  1  0.25134463  0.25124881  0.49834961  1
  V  V3  1  0.88467306  0.62562522  0.24185263  1
  V  V4  1  0.74638039  0.37591890  0.12608326  1
  V  V5  1  0.75531410  0.62616460  0.37328009  1
  V  V6  1  0.12922936  0.38622671  0.75016712  1
  V  V7  1  0.63212056  -0.00721552  0.12619287  1
  V  V8  1  0.37647245  0.49922965  0.37042084  1
  V  V9  1  0.11118738  0.00543964  0.62435059  1
  V  V10  1  0.37335374  0.88761726  -0.00175032  1
  V  V11  1  0.50756147  0.48514240  0.48562747  1
  V  V12  1  0.00920708  0.74983418  0.26697666  1
  V  V13  1  0.00108307  0.11601859  0.12594964  1
  V  V14  1  0.37361738  0.87408869  0.50634109  1
  V  V15  1  0.37827125  0.12183617  0.75463012  1
  V  V16  1  0.87605597  0.25036369  0.12237273  1
  V  V17  1  0.00640849  0.74380246  0.74351848  1
  V  V18  1  -0.00636876  0.87944213  0.87333226  1
  V  V19  1  0.75449427  0.11959043  0.87624444  1
  V  V20  1  0.11694547  0.89227108  0.26213654  1
  V  V21  1  0.25124003  0.61977983  0.87528503  1
  V  V22  1  0.62574060  0.62302443  0.49890899  1
  V  V23  1  0.12423662  0.11613042  0.00230522  1
  V  V24  1  0.37249154  0.12207806  0.24963315  1
  V  V25  1  0.13256937  0.37516968  0.24128705  1
  V  V26  1  0.75154175  0.50025081  0.24851175  1
  V  V27  1  0.61875296  0.50116225  0.12023428  1
  V  V28  1  0.50050724  0.37647516  0.88622012  1
  V  V29  1  0.50006795  0.75096819  0.25245860  1
  V  V30  1  0.24681424  0.75135992  0.48139126  1
  V  V31  1  0.11428240  0.12591998  0.50605898  1
  V  V32  1  0.12669802  0.24956120  0.87528511  1
  V  V33  1  0.50376242  0.87408932  0.37252522  1
  V  V34  1  0.50129043  0.00001841  0.49747236  1
  V  V35  1  0.87974190  0.23999156  0.62329958  1
  V  V36  1  0.37657911  0.24902481  0.62527307  1
  V  V37  1  0.62425272  0.37140038  0.75226095  1
  V  V38  1  0.49749190  0.11790109  0.12306176  1
  V  V39  1  0.50527346  0.12318074  0.62436602  1
  V  V40  1  0.61910658  0.25578106  0.37448487  1
  V  V41  1  0.23597906  0.88952994  0.12954991  1
  V  V42  1  0.87514253  0.74517939  0.62581793  1
  V  V43  1  0.88779040  0.75408771  0.12339345  1
  V  V44  1  0.12681983  0.25291506  0.37466793  1
  V  V45  1  0.25343875  0.00000373  0.74877527  1
  V  V46  1  0.75779434  0.24197913  0.49133582  1
  V  V47  1  0.75445913  0.75306251  0.50036614  1
  V  V48  1  0.75338982  -0.00563945  0.75345167  1
  V  V49  1  0.61934338  0.87247719  0.74988185  1
  V  V50  1  0.25055842  0.50722553  0.24613301  1
  V  V51  1  0.00172744  0.37468757  0.37368970  1
  V  V52  1  0.00822252  0.49796469  0.51928306  1
  V  V53  1  0.86982178  0.88293588  -0.00043627  1
  V  V54  1  0.24629827  0.12360121  0.37159757  1
  V  V55  1  0.74866379  0.75224761  0.00816552  1
  V  V56  1  0.37956400  0.50513845  0.88318598  1
  V  V57  1  0.12092424  0.62685342  0.00915601  1
  V  V58  1  0.86633201  0.12390569  0.25401256  1
  V  V59  1  -0.00276633  0.50556462  0.00640375  1
  V  V60  1  0.74506703  0.62793543  0.87187486  1
  V  V61  1  0.61824392  0.11850154  -0.00104494  1
  V  V62  1  0.87986684  0.49821072  0.37665250  1
  V  V63  1  0.61980823  0.49790987  0.62250948  1
  V  V64  1  0.12626408  0.74860281  0.87207351  1
  V  V65  1  0.30436481  0.54641615  0.70060384  1
  V  V66  1  0.36950649  0.25358759  0.12576261  1
  V  V67  1  0.24849343  0.75198537  0.00099513  1
  V  V68  1  0.90161017  0.87612515  0.50054427  1
  V  V69  1  0.74718344  0.50086356  0.75027105  1
  V  V70  1  0.36939069  0.75332388  0.12799114  1
  V  V71  1  0.75173819  0.36915910  0.62523535  1
  V  V72  1  0.87682783  0.62310582  0.74753944  1
  V  V73  1  -0.00187877  0.37693653  0.87762594  1
  V  V74  1  0.74503259  0.25019972  -0.00060677  1
  V  V75  1  0.36584755  0.37903707  0.00520986  1
  V  V76  1  0.12437716  0.63070121  0.50252425  1
  V  V77  1  0.61180729  0.75018815  0.87710654  1
  V  V78  1  0.63348617  0.11834649  0.48966803  1
  V  V79  1  -0.00031243  0.24742350  0.74953806  1
  V  V80  1  0.24572808  0.37205657  0.62637228  1
  V  V81  1  0.37022444  -0.00041845  0.37157462  1
  V  V82  1  0.49154225  0.88896682  0.87604526  1
  V  V83  1  0.25565476  0.12325456  0.87708249  1
  V  V84  1  0.12656696  0.87569246  0.75007016  1
  Zn  Zn85  1  0.63910129  0.86753443  0.24254058  1
  Zn  Zn86  1  0.61734486  0.38316370  0.25697377  1
  Zn  Zn87  1  0.75217873  -0.00505452  0.26178369  1
  Zn  Zn88  1  0.43283684  0.69851231  0.67714467  1
  Zn  Zn89  1  0.62902602  0.75114382  0.37303927  1
  Zn  Zn90  1  0.00158760  0.25193436  0.24611181  1
  Zn  Zn91  1  0.49622335  0.25360257  0.25306916  1
  Zn  Zn92  1  0.25419609  0.87704450  0.62419872  1
  Zn  Zn93  1  0.75009825  0.87236957  0.62560921  1
  Zn  Zn94  1  0.87855505  0.37097926  0.50078585  1
  Zn  Zn95  1  0.37943494  0.37023436  0.49117885  1
  Zn  Zn96  1  0.87181917  0.37903930  -0.00128408  1
  Zn  Zn97  1  0.50240626  0.24800892  0.75318989  1
  Zn  Zn98  1  0.62300765  0.24749685  0.87478284  1
  Zn  Zn99  1  0.24600239  0.25366066  0.00539976  1
  Zn  Zn100  1  0.61883610  0.62330781  -0.00184252  1
  Zn  Zn101  1  0.62727721  -0.00496685  0.62281330  1
  Zn  Zn102  1  0.36701033  0.63727052  0.27088518  1
  Zn  Zn103  1  -0.00250469  -0.00108029  -0.00323856  1
  Zn  Zn104  1  0.12763354  0.49802642  0.12293101  1
  Zn  Zn105  1  0.87231589  0.50125442  0.87702437  1
  Zn  Zn106  1  0.87750251  -0.00304231  0.38780627  1
  Zn  Zn107  1  0.18689659  0.18460142  0.18833769  1
  Zn  Zn108  1  0.18825037  0.18862850  0.69025248  1
  Zn  Zn109  1  0.18682608  0.69001563  0.19252294  1
  Zn  Zn110  1  0.22385311  0.70129116  0.68006469  1
  Zn  Zn111  1  0.68557216  0.18555551  0.18609132  1
  Zn  Zn112  1  0.69081278  0.18434804  0.68597229  1
  Zn  Zn113  1  0.68785912  0.68643800  0.18720593  1
  Zn  Zn114  1  0.61960513  0.67590046  0.69720345  1
  Zn  Zn115  1  0.31419710  0.31747909  0.31076157  1
  Zn  Zn116  1  0.31396031  0.31315260  0.81305829  1
  Zn  Zn117  1  0.30683922  0.82162065  0.31067069  1
  Zn  Zn118  1  0.31929203  0.80541161  0.80570005  1
  Zn  Zn119  1  0.81153489  0.30981838  0.31136803  1
  Zn  Zn120  1  0.81236721  0.30872420  0.81384542  1
  Zn  Zn121  1  0.81968051  0.81804315  0.31559665  1
  Zn  Zn122  1  0.80964165  0.80812184  0.81483104  1
  Zn  Zn123  1  0.18699806  0.44692279  0.43402592  1
  Zn  Zn124  1  0.18756602  0.44100723  0.93652044  1
  Zn  Zn125  1  0.18421591  0.94256215  0.43915696  1
  Zn  Zn126  1  0.18966149  0.93788302  0.93418641  1
  Zn  Zn127  1  0.69712003  0.43183500  0.43738468  1
  Zn  Zn128  1  0.68576409  0.43981230  0.93923964  1
  Zn  Zn129  1  0.69525476  0.93774870  0.43034258  1
  Zn  Zn130  1  0.68494754  0.93674915  0.93881206  1
  Zn  Zn131  1  0.30936229  0.06412339  0.06297769  1
  Zn  Zn132  1  0.30974955  0.06264721  0.56154581  1
  Zn  Zn133  1  0.31250897  0.56494213  0.06516618  1
  Zn  Zn134  1  0.31243409  0.56459113  0.53284850  1
  Zn  Zn135  1  0.81109337  0.06297005  0.06472919  1
  Zn  Zn136  1  0.81371034  0.05649454  0.56718799  1
  Zn  Zn137  1  0.81025163  0.56586897  0.06130320  1
  Zn  Zn138  1  0.81338370  0.55900364  0.56331395  1
  Zn  Zn139  1  0.43842433  0.43604538  0.19130150  1
  Zn  Zn140  1  0.44556367  0.43128025  0.68328350  1
  Zn  Zn141  1  0.43756774  0.93779397  0.18568540  1
  Zn  Zn142  1  0.44040166  0.93848420  0.68986679  1
  Zn  Zn143  1  0.93900392  0.43545464  0.18630330  1
  Zn  Zn144  1  0.93316537  0.43037701  0.69342673  1
  Zn  Zn145  1  0.93627779  0.93624059  0.18830435  1
  Zn  Zn146  1  0.93681376  0.93288607  0.68580936  1
  Zn  Zn147  1  0.04970974  0.06243123  0.31772211  1
  Zn  Zn148  1  0.06501530  0.06113204  0.81377489  1
  Zn  Zn149  1  0.06750447  0.56375282  0.31850838  1
  Zn  Zn150  1  0.06185427  0.56323124  0.81632770  1
  Zn  Zn151  1  0.56180712  0.06367322  0.30850804  1
  Zn  Zn152  1  0.56548323  0.05956710  0.81294062  1
  Zn  Zn153  1  0.56142126  0.56554055  0.31019601  1
  Zn  Zn154  1  0.54968313  0.56570599  0.80736826  1
  Zn  Zn155  1  0.43927897  0.18534045  0.43840044  1
  Zn  Zn156  1  0.43772841  0.19173190  0.94001745  1
  Zn  Zn157  1  0.44818584  0.69343229  0.46810539  1
  Zn  Zn158  1  0.43227420  0.69090704  0.94048958  1
  Zn  Zn159  1  0.94607430  0.16597860  0.42986775  1
  Zn  Zn160  1  0.93643524  0.18690497  0.93822499  1
  Zn  Zn161  1  0.94356293  0.68087197  0.44196529  1
  Zn  Zn162  1  0.93655634  0.69074949  0.93352046  1
  Zn  Zn163  1  0.06176681  0.31080018  0.06024864  1
  Zn  Zn164  1  0.06190471  0.31108709  0.56264845  1
  Zn  Zn165  1  0.06022967  0.81437495  0.06153430  1
  Zn  Zn166  1  0.07887184  0.80388066  0.56867637  1
  Zn  Zn167  1  0.55744888  0.31072684  0.06891143  1
  Zn  Zn168  1  0.56707014  0.30634793  0.56158760  1
  Zn  Zn169  1  0.55605298  0.81303908  0.05881616  1
  Zn  Zn170  1  0.55954941  0.80707790  0.56446304  1
  O  O171  1  0.11490112  0.13383553  0.11409456  1
  O  O172  1  0.13518099  0.11375655  0.62077981  1
  O  O173  1  0.12983781  0.62577368  0.11158733  1
  O  O174  1  0.14833206  0.62200072  0.60091768  1
  O  O175  1  0.61685742  0.11811770  0.11817908  1
  O  O176  1  0.61798937  0.12382026  0.61618683  1
  O  O177  1  0.61490545  0.61954249  0.12463318  1
  O  O178  1  0.64199660  0.60871313  0.60982338  1
  O  O179  1  0.37770867  0.38896041  0.37443048  1
  O  O180  1  0.38121699  0.38203905  0.88213580  1
  O  O181  1  0.38357235  0.88504103  0.37650980  1
  O  O182  1  0.38443492  0.86722045  0.87980061  1
  O  O183  1  0.88417273  0.37769258  0.37452352  1
  O  O184  1  0.88408305  0.37566935  0.87647926  1
  O  O185  1  0.88429785  0.87259176  0.39672094  1
  O  O186  1  0.88395774  0.86397148  0.88428285  1
  O  O187  1  0.26225794  0.00897273  0.37925930  1
  O  O188  1  0.24437076  0.01254720  0.86175483  1
  O  O189  1  0.26589518  0.49777936  0.36543542  1
  O  O190  1  0.26009476  0.51164232  0.87812662  1
  O  O191  1  0.76384763  0.00500346  0.37693363  1
  O  O192  1  0.74446098  0.00681235  0.86460414  1
  O  O193  1  0.76011291  0.50460263  0.36948988  1
  O  O194  1  0.74813800  0.50897632  0.86954399  1
  O  O195  1  0.25035406  0.50235120  0.14067098  1
  O  O196  1  0.25977010  0.48836389  0.62672824  1
  O  O197  1  0.24853073  0.98762048  0.12506244  1
  O  O198  1  0.24713399  0.99942042  0.63706435  1
  O  O199  1  0.74447525  0.49580968  0.12945344  1
  O  O200  1  0.74426935  0.48787696  0.62967813  1
  O  O201  1  0.73379941  1.00121933  0.12415794  1
  O  O202  1  0.74608113  0.99440766  0.63985234  1
  O  O203  1  0.00833188  0.37327610  0.25722895  1
  O  O204  1  0.00608739  0.36892794  0.76202022  1
  O  O205  1  0.00979552  0.86362212  0.24459095  1
  O  O206  1  0.00532735  0.86556113  0.75521623  1
  O  O207  1  0.50769238  0.36452139  0.24013356  1
  O  O208  1  0.51189313  0.37253093  0.75788944  1
  O  O209  1  0.50028102  0.86493034  0.25499771  1
  O  O210  1  0.50416980  0.87478523  0.76206310  1
  O  O211  1  0.49057109  0.13114287  0.24274207  1
  O  O212  1  0.49611590  0.12437684  0.74394790  1
  O  O213  1  0.49480454  0.63921724  0.24391065  1
  O  O214  1  0.51700453  0.64293817  0.73535413  1
  O  O215  1  0.99002210  0.13380978  0.23917880  1
  O  O216  1  0.98752083  0.12939252  0.76136448  1
  O  O217  1  0.99765608  0.63556263  0.25610895  1
  O  O218  1  0.98994082  0.63208779  0.75768698  1
  O  O219  1  0.37110959  0.25953549  0.00749560  1
  O  O220  1  0.37098807  0.24988836  0.50750727  1
  O  O221  1  0.36607120  0.75980245  0.00979006  1
  O  O222  1  0.35699076  0.76392236  0.48502609  1
  O  O223  1  0.86262331  0.24951048  0.00738628  1
  O  O224  1  0.87215735  0.24135109  0.50678841  1
  O  O225  1  0.86942192  0.75462663  0.00700495  1
  O  O226  1  0.87625964  0.75347524  0.50755121  1
  O  O227  1  0.13505153  0.24765614  0.49494025  1
  O  O228  1  0.12601909  0.24409307  0.98821558  1
  O  O229  1  0.12159735  0.73581308  0.48588479  1
  O  O230  1  0.12848105  0.74482792  0.99309245  1
  O  O231  1  0.63392657  0.24091841  0.49084762  1
  O  O232  1  0.63275939  0.24007023  1.00213351  1
  O  O233  1  0.63757068  0.73777513  0.49626590  1
  O  O234  1  0.63130637  0.75004635  0.99464289  1
  O  O235  1  0.48725636  0.23583183  0.12357979  1
  O  O236  1  0.49498437  0.23880592  0.62599898  1
  O  O237  1  0.48967477  0.74968111  0.13367202  1
  O  O238  1  0.48373207  0.72822642  0.57885206  1
  O  O239  1  0.98922640  0.24371242  0.12083235  1
  O  O240  1  0.99051016  0.25732143  0.63720428  1
  O  O241  1  0.98998764  0.74715623  0.12614856  1
  O  O242  1  0.99510322  0.74937947  0.63722803  1
  O  O243  1  0.00796654  0.26114205  0.37534821  1
  O  O244  1  0.00622454  0.25687405  0.87202192  1
  O  O245  1  -0.00058589  0.74824262  0.36507542  1
  O  O246  1  0.00674556  0.75680898  0.86385948  1
  O  O247  1  0.51559962  0.24701659  0.37790967  1
  O  O248  1  0.50282909  0.26084746  0.87269686  1
  O  O249  1  0.50040200  0.75755352  0.37068031  1
  O  O250  1  0.50899183  0.75526864  0.88086125  1
  O  O251  1  0.24670857  0.13232149  0.49006188  1
  O  O252  1  0.24332843  0.12747179  0.99222188  1
  O  O253  1  0.24862921  0.64572332  0.48948836  1
  O  O254  1  0.24353513  0.63088500  0.99285419  1
  O  O255  1  0.74307470  0.12923700  0.50840391  1
  O  O256  1  0.74346766  0.12967394  0.99363804  1
  O  O257  1  0.75003985  0.62990493  0.49107828  1
  O  O258  1  0.74802618  0.63255141  0.98756383  1
  O  O259  1  0.26117732  0.37343304  -0.00518593  1
  O  O260  1  0.25246216  0.36983538  0.50896024  1
  O  O261  1  0.25113347  0.87108193  0.00855798  1
  O  O262  1  0.26073512  0.87841724  0.49533919  1
  O  O263  1  0.74916988  0.36589149  0.00460318  1
  O  O264  1  0.75793928  0.36225250  0.50737213  1
  O  O265  1  0.75743111  0.86389238  -0.00824302  1
  O  O266  1  0.74714561  0.85861444  0.50212665  1
  O  O267  1  0.13557278  0.49571412  0.24791260  1
  O  O268  1  0.12022948  0.48517430  0.75523040  1
  O  O269  1  0.10933802  0.99172409  0.24915261  1
  O  O270  1  0.13307310  0.99946728  0.74169947  1
  O  O271  1  0.63370066  0.50315716  0.24004803  1
  O  O272  1  0.62748782  0.49240194  0.74110170  1
  O  O273  1  0.62595373  1.00088297  0.23586037  1
  O  O274  1  0.63111471  0.98715615  0.74918489  1
  O  O275  1  0.37881994  0.01258070  0.25646405  1
  O  O276  1  0.36942362  0.01365347  0.74552780  1
  O  O277  1  0.36739083  0.50483277  0.25578587  1
  O  O278  1  0.37324310  0.49290197  0.75620228  1
  O  O279  1  0.88079519  0.01591686  0.25271238  1
  O  O280  1  0.86795370  0.00604933  0.74636173  1
  O  O281  1  0.87462255  0.50811395  0.25438826  1
  O  O282  1  0.86688395  0.50611870  0.75321106  1
  O  O283  1  0.12009936  0.37343143  0.36610777  1
  O  O284  1  0.12050243  0.36807179  0.87100704  1
  O  O285  1  0.12054781  0.88785228  0.36170383  1
  O  O286  1  0.12032887  0.86768777  0.86876352  1
  O  O287  1  0.62979410  0.35956257  0.37623652  1
  O  O288  1  0.61757678  0.37562970  0.86995328  1
  O  O289  1  0.61191247  0.87491160  0.37388602  1
  O  O290  1  0.61069599  0.87119153  0.87289937  1
  O  O291  1  0.37855187  0.12703033  0.13143325  1
  O  O292  1  0.38185657  0.13285111  0.62964767  1
  O  O293  1  0.37764317  0.63985797  0.12815429  1
  O  O294  1  0.35990867  0.60168856  0.63526612  1
  O  O295  1  0.88137868  0.13243601  0.12738017  1
  O  O296  1  0.87100463  0.13264738  0.63707762  1
  O  O297  1  0.87252677  0.63072061  0.13796641  1
  O  O298  1  0.86956715  0.62814617  0.63915900  1
  O  O299  1  0.26442322  0.24228221  0.12379823  1
  O  O300  1  0.25847906  0.25399893  0.62061762  1
  O  O301  1  0.25496636  0.75906029  0.12306736  1
  O  O302  1  0.22266867  0.77109319  0.59082896  1
  O  O303  1  0.75235960  0.25523578  0.11710201  1
  O  O304  1  0.75740399  0.25122061  0.61611786  1
  O  O305  1  0.75840255  0.74151627  0.11205883  1
  O  O306  1  0.76649226  0.74853961  0.61619064  1
  O  O307  1  0.24670811  0.24487294  0.37925728  1
  O  O308  1  0.24272468  0.24069336  0.87500041  1
  O  O309  1  0.23669773  0.76696708  0.38252836  1
  O  O310  1  0.24685961  0.73823637  0.87946676  1
  O  O311  1  0.74248228  0.25260620  0.38804106  1
  O  O312  1  0.74631303  0.24191059  0.88395323  1
  O  O313  1  0.75530687  0.74060309  0.38221182  1
  O  O314  1  0.73984070  0.74328335  0.88409611  1
  O  O315  1  0.00649580  0.12242807  0.00338538  1
  O  O316  1  0.01842346  0.14779577  0.51897890  1
  O  O317  1  0.00846416  0.61767087  -0.00995900  1
  O  O318  1  0.01094368  0.60944376  0.50402578  1
  O  O319  1  0.50929326  0.12787857  0.00545093  1
  O  O320  1  0.50832489  0.11878029  0.50659210  1
  O  O321  1  0.49916225  0.63449773  0.01669604  1
  O  O322  1  0.52330636  0.60427429  0.48554639  1
  O  O323  1  0.50344387  0.38185484  0.50272245  1
  O  O324  1  0.49245951  0.37177983  0.99040568  1
  O  O325  1  0.49364961  0.88166808  0.49027820  1
  O  O326  1  0.48768496  0.87310752  0.98668093  1
  O  O327  1  0.99765820  0.38159744  0.49415973  1
  O  O328  1  0.99931658  0.38100333  0.98979073  1
  O  O329  1  0.99953086  0.87001826  0.50968848  1
  O  O330  1  0.99148425  0.87550848  0.99059788  1
  O  O331  1  0.49637576  0.49474660  0.37537620  1
  O  O332  1  0.48834747  0.49366944  0.87194591  1
  O  O333  1  0.49156115  0.99533522  0.37640580  1
  O  O334  1  0.49759332  0.98770805  0.87393696  1
  O  O335  1  0.99676025  0.48752402  0.37983964  1
  O  O336  1  0.99787404  0.49157501  0.88443724  1
  O  O337  1  0.97488243  1.05431452  0.39816000  1
  O  O338  1  1.00355498  0.98360168  0.87330497  1
  O  O339  1  -0.00576974  0.01315446  0.11918441  1
  O  O340  1  0.01289625  0.00575409  0.63542963  1
  O  O341  1  0.00302141  0.49543422  0.11024371  1
  O  O342  1  -0.00787076  0.49202543  0.61669513  1
  O  O343  1  0.50607349  0.01221931  0.12796070  1
  O  O344  1  0.50223325  0.01079745  0.62007397  1
  O  O345  1  0.50611366  0.51305207  0.13283493  1
  O  O346  1  0.51540707  0.49382557  0.61431086  1
  O  O347  1  0.24224028  0.38903623  0.25332986  1
  O  O348  1  0.24234012  0.36979728  0.74172408  1
  O  O349  1  0.23058676  0.87600953  0.23882698  1
  O  O350  1  0.24478031  0.88572306  0.75102444  1
  O  O351  1  0.74548623  0.38192269  0.24349101  1
  O  O352  1  0.74055659  0.37814982  0.74881251  1
  O  O353  1  0.75123549  0.87914677  0.25394803  1
  O  O354  1  0.74410191  0.88057333  0.75181083  1
  O  O355  1  0.25459890  0.12633239  0.26359513  1
  O  O356  1  0.25900028  0.12138434  0.75703569  1
  O  O357  1  0.25018106  0.61369379  0.25260360  1
  O  O358  1  0.23989002  0.60886285  0.75422696  1
  O  O359  1  0.76420721  0.11839433  0.23534784  1
  O  O360  1  0.75660966  0.11709687  0.75802675  1
  O  O361  1  0.76087709  0.62197441  0.25661373  1
  O  O362  1  0.75109796  0.62084329  0.76130254  1
  O  O363  1  0.36955500  0.12039828  0.36881278  1
  O  O364  1  0.36723061  0.13113474  0.86804372  1
  O  O365  1  0.38603128  0.60593697  0.38253308  1
  O  O366  1  0.36816314  0.61719256  0.87875172  1
  O  O367  1  0.86310440  0.15411047  0.34935217  1
  O  O368  1  0.86222986  0.12784779  0.86926902  1
  O  O369  1  0.87088728  0.61982623  0.36801306  1
  O  O370  1  0.86453384  0.62780654  0.86355780  1
  O  O371  1  0.12115150  0.37395572  0.13736695  1
  O  O372  1  0.13780279  0.36478892  0.63518223  1
  O  O373  1  0.13303378  0.87584289  0.12650342  1
  O  O374  1  0.12429801  0.89174742  0.63350180  1
  O  O375  1  0.63127962  0.38260599  0.12368201  1
  O  O376  1  0.63140435  0.37622689  0.63255435  1
  O  O377  1  0.61457657  0.89020667  0.12306575  1
  O  O378  1  0.62328804  0.87159428  0.63491666  1
  O  O379  1  0.12681329  0.25827138  0.25715576  1
  O  O380  1  0.11988256  0.25305425  0.76115534  1
  O  O381  1  0.11188808  0.75677644  0.24780456  1
  O  O382  1  0.12204368  0.75359256  0.75098787  1
  O  O383  1  0.62983872  0.24359350  0.26850335  1
  O  O384  1  0.62619548  0.25783138  0.75157707  1
  O  O385  1  0.61605020  0.75072427  0.25221083  1
  O  O386  1  0.63570742  0.76592258  0.76413851  1
  O  O387  1  0.37309088  0.23932004  0.24493447  1
  O  O388  1  0.37757635  0.23878346  0.74305525  1
  O  O389  1  0.37728744  0.75352230  0.24529720  1
  O  O390  1  0.33487428  0.73807941  0.71973464  1
  O  O391  1  0.87241124  0.24740038  0.23243351  1
  O  O392  1  0.87829959  0.23950639  0.74487298  1
  O  O393  1  0.88890313  0.74562043  0.24417722  1
  O  O394  1  0.88147907  0.74291557  0.74335245  1
  O  O395  1  0.38888572  0.49311702  0.48879068  1
  O  O396  1  0.37296050  0.49394125  0.99385929  1
  O  O397  1  0.38165373  0.99701482  0.49118648  1
  O  O398  1  0.36708087  0.98712798  0.99996818  1
  O  O399  1  0.88593420  0.49837364  0.49370827  1
  O  O400  1  0.88151963  0.50104945  0.99700675  1
  O  O401  1  0.87650878  0.97702825  0.51422191  1
  O  O402  1  0.87183914  0.98667341  1.00140889  1
  O  O403  1  0.12329893  0.01305147  -0.00623294  1
  O  O404  1  0.12766009  0.00993796  0.51590771  1
  O  O405  1  0.11870500  0.50898104  0.00091647  1
  O  O406  1  0.10999313  0.48745285  0.51154305  1
  O  O407  1  0.62677330  0.00932373  0.01016350  1
  O  O408  1  0.62093102  0.00444413  0.50095894  1
  O  O409  1  0.62799349  0.50458836  0.01527633  1
  O  O410  1  0.62624433  0.49839826  0.50273934  1
  O  O411  1  0.37947360  0.36694841  0.11583834  1
  O  O412  1  0.37080742  0.36028478  0.62686174  1
  O  O413  1  0.36499729  0.87043280  0.12064139  1
  O  O414  1  0.37709498  0.88232641  0.60992526  1
  O  O415  1  0.86616962  0.36830163  0.12153259  1
  O  O416  1  0.86781315  0.35904956  0.62771851  1
  O  O417  1  0.87932470  0.86611808  0.11407426  1
  O  O418  1  0.87489883  0.86154056  0.61818741  1
  O  O419  1  0.13172430  0.13063201  0.38375182  1
  O  O420  1  0.13204603  0.13245749  0.87994872  1
  O  O421  1  0.13427742  0.59078610  0.40530924  1
  O  O422  1  0.13356999  0.62936897  0.88210072  1
  O  O423  1  0.62203533  0.13077941  0.38587627  1
  O  O424  1  0.63311310  0.12469859  0.88216303  1
  O  O425  1  0.64179387  0.62378752  0.37781252  1
  O  O426  1  0.62738711  0.63268372  0.87631829  1
