# generated using pymatgen
data_V85Zn86O256
_symmetry_space_group_name_H-M   'P 1'
_cell_length_a   17.01406236
_cell_length_b   16.98190496
_cell_length_c   16.99325091
_cell_angle_alpha   90.01070530
_cell_angle_beta   90.01712451
_cell_angle_gamma   90.08212605
_symmetry_Int_Tables_number   1
_chemical_formula_structural   V85Zn86O256
_chemical_formula_sum   'V85 Zn86 O256'
_cell_volume   4909.87485849
_cell_formula_units_Z   1
loop_
 _symmetry_equiv_pos_site_id
 _symmetry_equiv_pos_as_xyz
  1  'x, y, z'
loop_
 _atom_site_type_symbol
 _atom_site_label
 _atom_site_symmetry_multiplicity
 _atom_site_fract_x
 _atom_site_fract_y
 _atom_site_fract_z
 _atom_site_occupancy
  V  V0  1  0.73983632  0.61863426  0.38972873  1
  V  V1  1  0.49736241  0.75440772  0.25642096  1
  V  V2  1  0.24343850  0.74727060  0.50087541  1
  V  V3  1  0.24750159  0.24879705  0.49224387  1
  V  V4  1  0.11620691  0.74375775  0.37298508  1
  V  V5  1  0.50539176  0.62970205  0.61814937  1
  V  V6  1  0.24780760  0.01243053  0.25315866  1
  V  V7  1  0.62059073  0.37900067  0.25049102  1
  V  V8  1  -0.00256793  0.12671294  0.12603739  1
  V  V9  1  0.37164759  0.74725964  0.12745773  1
  V  V10  1  0.87573678  0.50007961  0.87005235  1
  V  V11  1  0.24727678  0.49118000  0.25263670  1
  V  V12  1  0.86273465  0.00171677  0.86933484  1
  V  V13  1  0.37224339  0.50112669  0.88213189  1
  V  V14  1  0.37468755  0.24986604  0.62715120  1
  V  V15  1  0.87955479  0.62846751  0.25277251  1
  V  V16  1  0.86421621  0.74912144  0.11951055  1
  V  V17  1  0.11628269  0.86937487  0.25004177  1
  V  V18  1  0.25134988  0.00078738  0.75110393  1
  V  V19  1  0.00062406  0.63159639  0.12732033  1
  V  V20  1  0.74825258  0.12086721  0.36645192  1
  V  V21  1  0.12153890  0.62501637  -0.00031081  1
  V  V22  1  0.12689248  0.48902737  0.12600819  1
  V  V23  1  0.00279429  0.88588775  0.39139281  1
  V  V24  1  0.24575138  0.62451584  0.37912427  1
  V  V25  1  -0.00198067  0.50129081  -0.00172933  1
  V  V26  1  0.48905198  0.87330460  0.37403362  1
  V  V27  1  0.50396624  0.25008763  0.75241820  1
  V  V28  1  0.87277748  0.12562247  0.75013964  1
  V  V29  1  0.75233200  0.37781721  0.12665987  1
  V  V30  1  0.87039687  0.37581798  -0.00009150  1
  V  V31  1  0.75218868  0.76429966  0.49529474  1
  V  V32  1  0.49206551  0.37774449  0.87718819  1
  V  V33  1  0.61935384  0.50273091  0.11883978  1
  V  V34  1  0.12106218  0.00364306  0.62465433  1
  V  V35  1  0.88002495  0.49618757  0.37558546  1
  V  V36  1  0.75094819  0.37486921  0.62755450  1
  V  V37  1  0.66448691  -0.04067647  0.12714710  1
  V  V38  1  0.00229892  0.75334660  0.74571448  1
  V  V39  1  0.38208084  0.00059340  0.87684049  1
  V  V40  1  0.37628246  0.62655103  0.74997399  1
  V  V41  1  0.37657664  0.75099647  0.62533918  1
  V  V42  1  0.12175123  0.75107361  0.87474571  1
  V  V43  1  0.36410644  0.01539407  0.37695747  1
  V  V44  1  0.37301333  0.62187672  0.25284610  1
  V  V45  1  0.37386256  0.87831511  0.00132286  1
  V  V46  1  0.62478881  0.37541833  0.75623539  1
  V  V47  1  0.00582810  0.50221380  0.49577480  1
  V  V48  1  0.86592905  0.64698917  0.76333154  1
  V  V49  1  0.12840836  0.12552579  0.48828852  1
  V  V50  1  0.00674230  0.12849253  0.63315319  1
  V  V51  1  -0.00613170  -0.00400079  -0.00192821  1
  V  V52  1  0.63089263  0.25617928  0.37183240  1
  V  V53  1  0.11702448  0.25417691  0.87120172  1
  V  V54  1  0.12415394  0.12513701  -0.00087289  1
  V  V55  1  0.62378953  0.12738897  0.50025509  1
  V  V56  1  0.25786666  0.26449040  0.00074970  1
  V  V57  1  0.24664186  0.62628150  0.87542213  1
  V  V58  1  0.12283457  -0.00214818  0.12409377  1
  V  V59  1  0.37017653  0.87650534  0.50207723  1
  V  V60  1  0.88615457  0.37098465  0.49761817  1
  V  V61  1  0.88976040  0.25314001  0.63128502  1
  V  V62  1  0.12613403  0.87758797  0.74977217  1
  V  V63  1  -0.00421795  0.87872084  0.87406542  1
  V  V64  1  0.25049365  0.12600409  0.87839248  1
  V  V65  1  0.75311190  0.25055289  0.50496509  1
  V  V66  1  0.75593855  0.88277172  0.63595252  1
  V  V67  1  0.24678075  0.74934118  0.00093510  1
  V  V68  1  0.37837889  0.37799779  0.50609141  1
  V  V69  1  0.86725241  0.11276548  0.24691676  1
  V  V70  1  0.62725236  0.50727454  0.62102331  1
  V  V71  1  0.49914138  0.86435859  0.87289809  1
  V  V72  1  0.00309396  0.62698278  0.62165672  1
  V  V73  1  0.75191492  0.50634752  0.75076815  1
  V  V74  1  0.87893504  0.75550334  0.61324663  1
  V  V75  1  0.50094600  0.37499955  0.37801945  1
  V  V76  1  0.12514956  0.50224861  0.62599476  1
  V  V77  1  0.24715974  0.87436138  0.12776077  1
  V  V78  1  0.65434192  0.79016687  0.35620732  1
  V  V79  1  0.73565889  0.13200784  0.87119860  1
  V  V80  1  0.87635273  0.25250444  0.12899682  1
  V  V81  1  0.49953740  0.00175411  0.49901609  1
  V  V82  1  0.62399752  0.65057464  -0.00147923  1
  V  V83  1  0.24616070  0.37665731  0.63037833  1
  V  V84  1  0.75169379  0.50331492  0.24917593  1
  Zn  Zn85  1  0.62899331  0.87627823  0.75437495  1
  Zn  Zn86  1  0.00192412  0.25343591  0.27873461  1
  Zn  Zn87  1  0.29614896  0.33312098  0.15534740  1
  Zn  Zn88  1  0.50045353  0.12497937  0.62611134  1
  Zn  Zn89  1  0.74693107  0.24001581  -0.00193217  1
  Zn  Zn90  1  0.49966280  0.50305785  -0.00272347  1
  Zn  Zn91  1  0.24411603  0.49868470  0.75256789  1
  Zn  Zn92  1  0.50712315  0.50446358  0.49917653  1
  Zn  Zn93  1  0.87006387  -0.01161271  0.38391351  1
  Zn  Zn94  1  0.63295054  0.00096950  0.62473658  1
  Zn  Zn95  1  0.52532380  0.04775197  0.05665025  1
  Zn  Zn96  1  0.51567389  0.74631737  0.75233241  1
  Zn  Zn97  1  0.73606006  0.63496170  0.88135574  1
  Zn  Zn98  1  0.43143535  0.17558950  0.18946877  1
  Zn  Zn99  1  0.37636045  0.50106171  0.37925638  1
  Zn  Zn100  1  0.50071843  0.63017318  0.12677741  1
  Zn  Zn101  1  0.82551123  0.89053131  0.03155642  1
  Zn  Zn102  1  -0.00529047  0.36921378  0.86760545  1
  Zn  Zn103  1  0.10621815  0.36460286  0.73614867  1
  Zn  Zn104  1  0.11380713  0.36832766  0.27166091  1
  Zn  Zn105  1  0.37785155  0.12550612  0.74956416  1
  Zn  Zn106  1  0.24973690  0.87506393  0.62685367  1
  Zn  Zn107  1  0.17891932  0.19241268  0.18915417  1
  Zn  Zn108  1  0.19182799  0.18929131  0.69080583  1
  Zn  Zn109  1  0.18542365  0.68320140  0.19048193  1
  Zn  Zn110  1  0.18749660  0.68661429  0.68764379  1
  Zn  Zn111  1  0.68643376  0.19320217  0.18233755  1
  Zn  Zn112  1  0.68831374  0.18663613  0.68986210  1
  Zn  Zn113  1  0.68426619  0.68758271  0.19140284  1
  Zn  Zn114  1  0.68683874  0.69810988  0.68498103  1
  Zn  Zn115  1  0.32361552  0.30540679  0.31851693  1
  Zn  Zn116  1  0.31039343  0.31327388  0.81233025  1
  Zn  Zn117  1  0.30658910  0.81432185  0.31221830  1
  Zn  Zn118  1  0.31381186  0.81132301  0.81167164  1
  Zn  Zn119  1  0.81904424  0.31083328  0.31338465  1
  Zn  Zn120  1  0.81179985  0.31174112  0.81097569  1
  Zn  Zn121  1  0.82684198  0.80663264  0.31492478  1
  Zn  Zn122  1  0.79377927  0.82244269  0.84238509  1
  Zn  Zn123  1  0.19016975  0.44093738  0.44515701  1
  Zn  Zn124  1  0.18482460  0.43836954  0.93621172  1
  Zn  Zn125  1  0.18480095  0.93807726  0.43745585  1
  Zn  Zn126  1  0.18672153  0.93839097  0.93754093  1
  Zn  Zn127  1  0.69344555  0.43770061  0.44126732  1
  Zn  Zn128  1  0.64160852  0.38191985  0.97381638  1
  Zn  Zn129  1  0.68582330  0.93968198  0.43080890  1
  Zn  Zn130  1  0.68077217  0.93786161  0.94259859  1
  Zn  Zn131  1  0.31567028  0.06709406  0.06489418  1
  Zn  Zn132  1  0.31077888  0.06618811  0.56439702  1
  Zn  Zn133  1  0.34357683  0.51484827  0.09533787  1
  Zn  Zn134  1  0.31280024  0.56375749  0.56311720  1
  Zn  Zn135  1  0.80749028  0.06387420  0.05680033  1
  Zn  Zn136  1  0.81920391  0.06346740  0.55755350  1
  Zn  Zn137  1  0.80675773  0.56922518  0.05945280  1
  Zn  Zn138  1  0.81942057  0.56439426  0.56581824  1
  Zn  Zn139  1  0.45318447  0.34710904  0.16085004  1
  Zn  Zn140  1  0.43864332  0.44362753  0.69089571  1
  Zn  Zn141  1  0.42639312  0.97301329  0.17862381  1
  Zn  Zn142  1  0.44062701  0.93868636  0.68790578  1
  Zn  Zn143  1  0.94390464  0.43803389  0.18920252  1
  Zn  Zn144  1  0.93860272  0.43972680  0.68649208  1
  Zn  Zn145  1  0.93387800  0.93560609  0.19017395  1
  Zn  Zn146  1  0.93606827  0.93992483  0.68587372  1
  Zn  Zn147  1  0.06124346  0.06474775  0.30704764  1
  Zn  Zn148  1  0.06082798  0.06600370  0.81141684  1
  Zn  Zn149  1  0.06391147  0.55830047  0.31139698  1
  Zn  Zn150  1  0.05606524  0.56179150  0.80951260  1
  Zn  Zn151  1  0.57458776  0.07643638  0.23202553  1
  Zn  Zn152  1  0.56274379  0.05596330  0.80528573  1
  Zn  Zn153  1  0.55997207  0.56184971  0.31196393  1
  Zn  Zn154  1  0.56317773  0.56656421  0.81344373  1
  Zn  Zn155  1  0.47305555  0.15885154  0.38208757  1
  Zn  Zn156  1  0.43613312  0.18852641  0.93693048  1
  Zn  Zn157  1  0.43354300  0.68858740  0.43952204  1
  Zn  Zn158  1  0.43695921  0.68547220  0.94382063  1
  Zn  Zn159  1  0.93659761  0.14934891  0.44307819  1
  Zn  Zn160  1  0.93302582  0.18568808  0.94020131  1
  Zn  Zn161  1  0.93903520  0.68459880  0.43587343  1
  Zn  Zn162  1  0.92376438  0.69450281  0.93221514  1
  Zn  Zn163  1  0.06131408  0.31062726  0.05753284  1
  Zn  Zn164  1  0.05957629  0.30404949  0.43750059  1
  Zn  Zn165  1  0.05624541  0.81179336  0.06248506  1
  Zn  Zn166  1  0.06843183  0.81450208  0.56135894  1
  Zn  Zn167  1  0.56679332  0.21154968  0.05762386  1
  Zn  Zn168  1  0.56352001  0.31466845  0.56702730  1
  Zn  Zn169  1  0.54640267  0.84287226  0.08382203  1
  Zn  Zn170  1  0.56977915  0.81062250  0.55347969  1
  O  O171  1  0.11313524  0.11756993  0.11810773  1
  O  O172  1  0.12167828  0.12027130  0.63192022  1
  O  O173  1  0.11614243  0.61907864  0.12013949  1
  O  O174  1  0.11063396  0.62175498  0.63050888  1
  O  O175  1  0.61330501  0.12595646  0.13262221  1
  O  O176  1  0.62335470  0.12597993  0.61132313  1
  O  O177  1  0.62452492  0.61800475  0.11725634  1
  O  O178  1  0.61689212  0.62061440  0.62891959  1
  O  O179  1  0.38670810  0.37551420  0.38683082  1
  O  O180  1  0.37901110  0.39031913  0.86415406  1
  O  O181  1  0.37348601  0.87725779  0.38629390  1
  O  O182  1  0.37493644  0.88079998  0.88194438  1
  O  O183  1  0.86860174  0.38328391  0.38770368  1
  O  O184  1  0.87164099  0.38571774  0.88093966  1
  O  O185  1  0.89876851  0.87481150  0.37175776  1
  O  O186  1  0.89252256  0.88815376  0.85657016  1
  O  O187  1  0.24909147  -0.00344091  0.36150209  1
  O  O188  1  0.25187464  0.00636652  0.86616847  1
  O  O189  1  0.24989726  0.50982113  0.37173679  1
  O  O190  1  0.25302732  0.50926145  0.87313780  1
  O  O191  1  0.75210713  0.01877470  0.38185645  1
  O  O192  1  0.76108777  0.01016036  0.87220361  1
  O  O193  1  0.75885335  0.50676582  0.37241149  1
  O  O194  1  0.76365047  0.51649956  0.85917963  1
  O  O195  1  0.23651867  0.51201478  0.14170593  1
  O  O196  1  0.24125078  0.49738250  0.62618553  1
  O  O197  1  0.24262527  0.99318752  0.13338598  1
  O  O198  1  0.24379565  1.00332892  0.63988583  1
  O  O199  1  0.74581782  0.50054757  0.13456993  1
  O  O200  1  0.74820698  0.49678545  0.63333319  1
  O  O201  1  0.76900928  0.97066803  0.11001579  1
  O  O202  1  0.75650674  0.98563596  0.61500589  1
  O  O203  1  -0.00095485  0.36679695  0.24997835  1
  O  O204  1  -0.00391638  0.37532632  0.75454284  1
  O  O205  1  0.01434430  0.87857890  0.25156302  1
  O  O206  1  0.00888834  0.87240183  0.75278821  1
  O  O207  1  0.51682209  0.38321043  0.26148470  1
  O  O208  1  0.50761976  0.37221798  0.75172704  1
  O  O209  1  0.48355480  0.85925572  0.26261404  1
  O  O210  1  0.48674460  0.86729906  0.76514855  1
  O  O211  1  0.48756740  0.12139513  0.27703757  1
  O  O212  1  0.49788358  0.13612450  0.74806046  1
  O  O213  1  0.48974963  0.63533157  0.25522773  1
  O  O214  1  0.49160504  0.62894959  0.74084115  1
  O  O215  1  0.98918426  0.12538871  0.23854120  1
  O  O216  1  0.99416780  0.12696539  0.74024020  1
  O  O217  1  0.99088255  0.61451955  0.23928854  1
  O  O218  1  0.99213009  0.63623462  0.74229033  1
  O  O219  1  0.35590277  0.24753261  -0.00534513  1
  O  O220  1  0.36450983  0.26388679  0.51601576  1
  O  O221  1  0.36477380  0.75372168  0.00855056  1
  O  O222  1  0.36373150  0.75761007  0.50604132  1
  O  O223  1  0.87033748  0.25937470  0.00754048  1
  O  O224  1  0.86667404  0.25653015  0.51294836  1
  O  O225  1  0.87464440  0.74781796  0.01784118  1
  O  O226  1  0.87050409  0.74460906  0.50747601  1
  O  O227  1  0.13998660  0.23951397  0.50260694  1
  O  O228  1  0.13167175  0.24305019  0.98895797  1
  O  O229  1  0.13826675  0.75312561  0.49273775  1
  O  O230  1  0.12593760  0.74515125  0.99353776  1
  O  O231  1  0.63370012  0.24887746  0.49713851  1
  O  O232  1  0.64224433  0.27663310  1.00675118  1
  O  O233  1  0.64094129  0.76279384  0.47015133  1
  O  O234  1  0.61432095  0.74597298  1.00878287  1
  O  O235  1  0.50276064  0.25257012  0.13998227  1
  O  O236  1  0.49135238  0.25160867  0.63392794  1
  O  O237  1  0.48892513  0.75265665  0.13862330  1
  O  O238  1  0.49751073  0.74564569  0.62268334  1
  O  O239  1  0.99131958  0.23417257  0.11079243  1
  O  O240  1  0.98979793  0.24382749  0.62520253  1
  O  O241  1  0.99491921  0.73504249  0.12269603  1
  O  O242  1  0.99782631  0.74608006  0.62226344  1
  O  O243  1  -0.01346080  0.23506314  0.39108111  1
  O  O244  1  0.01428782  0.24846518  0.88422960  1
  O  O245  1  0.01287036  0.75777257  0.38330052  1
  O  O246  1  0.00213820  0.76078867  0.86960799  1
  O  O247  1  0.51722351  0.26722624  0.38169594  1
  O  O248  1  0.48587084  0.26289997  0.85746078  1
  O  O249  1  0.49422814  0.75903320  0.37299122  1
  O  O250  1  0.48860990  0.76111828  0.87261429  1
  O  O251  1  0.24161211  0.14093246  0.50956390  1
  O  O252  1  0.24424320  0.12392934  0.99023887  1
  O  O253  1  0.25548599  0.63308485  0.48842194  1
  O  O254  1  0.23929618  0.63251931  0.98475528  1
  O  O255  1  0.74321190  0.13837277  0.49575873  1
  O  O256  1  0.75588459  0.12533721  0.97766692  1
  O  O257  1  0.75601934  0.62892997  0.49203193  1
  O  O258  1  0.73003907  0.62945086  0.99953559  1
  O  O259  1  0.24917023  0.36409683  -0.00554913  1
  O  O260  1  0.25678193  0.36816193  0.51260093  1
  O  O261  1  0.25169124  0.86754964  0.00491595  1
  O  O262  1  0.25638670  0.86812641  0.50150960  1
  O  O263  1  0.76491607  0.38641941  0.00883850  1
  O  O264  1  0.75771546  0.36643371  0.50787809  1
  O  O265  1  0.76104490  0.86109299  -0.05476761  1
  O  O266  1  0.75846267  0.86619446  0.49451238  1
  O  O267  1  0.13004249  0.49438771  0.24253405  1
  O  O268  1  0.12268476  0.50003024  0.73746005  1
  O  O269  1  0.13194091  0.99386478  0.24333213  1
  O  O270  1  0.13233764  0.99714243  0.74610062  1
  O  O271  1  0.63376744  0.49943119  0.24427742  1
  O  O272  1  0.63489919  0.49987640  0.74249607  1
  O  O273  1  0.64712741  0.99258354  0.22208198  1
  O  O274  1  0.61052006  0.98562004  0.73396847  1
  O  O275  1  0.35425192  -0.00923282  0.26352679  1
  O  O276  1  0.36590021  0.00143417  0.75708645  1
  O  O277  1  0.36292036  0.51530918  0.25866876  1
  O  O278  1  0.37002130  0.51540782  0.75553482  1
  O  O279  1  0.87601451  0.01043783  0.25755406  1
  O  O280  1  0.88192547  0.01524931  0.75586333  1
  O  O281  1  0.86857536  0.50823750  0.25311827  1
  O  O282  1  0.86841158  0.50947323  0.75302658  1
  O  O283  1  0.12123972  0.37989299  0.38573797  1
  O  O284  1  0.12277025  0.36081098  0.87536560  1
  O  O285  1  0.11754905  0.86773751  0.36952993  1
  O  O286  1  0.11459793  0.87300027  0.86983941  1
  O  O287  1  0.62413585  0.37519131  0.37211252  1
  O  O288  1  0.61442816  0.38582104  0.85901012  1
  O  O289  1  0.59505476  0.88445301  0.38199083  1
  O  O290  1  0.59865877  0.88477731  0.87776240  1
  O  O291  1  0.40833849  0.07976223  0.12475113  1
  O  O292  1  0.37753523  0.13693373  0.62689204  1
  O  O293  1  0.37888245  0.62449330  0.13709070  1
  O  O294  1  0.38109722  0.63023471  0.63219185  1
  O  O295  1  0.87629451  0.13100207  0.12848572  1
  O  O296  1  0.88337832  0.13223701  0.63290932  1
  O  O297  1  0.88123309  0.62946933  0.13132690  1
  O  O298  1  0.88533295  0.63513638  0.63367729  1
  O  O299  1  0.23868668  0.24796741  0.10505157  1
  O  O300  1  0.25616121  0.25961293  0.62370864  1
  O  O301  1  0.25215355  0.75332389  0.12157955  1
  O  O302  1  0.25418143  0.74945131  0.61627880  1
  O  O303  1  0.76198696  0.26084970  0.12498574  1
  O  O304  1  0.75579869  0.25553475  0.62023772  1
  O  O305  1  0.76631048  0.74071301  0.13337905  1
  O  O306  1  0.76070784  0.75961976  0.61280834  1
  O  O307  1  0.25648335  0.25408981  0.39461074  1
  O  O308  1  0.24211511  0.24312556  0.88251653  1
  O  O309  1  0.24064643  0.74419911  0.38191635  1
  O  O310  1  0.24110225  0.74525142  0.87826447  1
  O  O311  1  0.74559691  0.25119474  0.38630522  1
  O  O312  1  0.75186966  0.23589453  0.87267796  1
  O  O313  1  0.75622938  0.72950756  0.38125109  1
  O  O314  1  0.81635733  0.70988264  0.85047537  1
  O  O315  1  0.00126014  0.11217679  0.00431891  1
  O  O316  1  0.02664355  0.12946944  0.52028147  1
  O  O317  1  0.00276795  0.61853413  0.00482411  1
  O  O318  1  -0.00630795  0.61482818  0.51019961  1
  O  O319  1  0.51426536  0.13441543  -0.01026682  1
  O  O320  1  0.51008150  0.11867174  0.49128348  1
  O  O321  1  0.51168419  0.62244071  0.00562868  1
  O  O322  1  0.49270409  0.62264712  0.51386484  1
  O  O323  1  0.49355719  0.37857893  0.49799344  1
  O  O324  1  0.50558559  0.38294972  0.97718503  1
  O  O325  1  0.48561087  0.87874513  0.49858024  1
  O  O326  1  0.47883643  0.86681459  0.98841481  1
  O  O327  1  0.98872635  0.38349838  0.50530413  1
  O  O328  1  0.98575757  0.38272999  0.99888279  1
  O  O329  1  1.00922319  0.88166966  0.49028836  1
  O  O330  1  1.00397188  0.88678646  0.99034806  1
  O  O331  1  0.50029667  0.48978636  0.38101147  1
  O  O332  1  0.48813956  0.49686580  0.86866053  1
  O  O333  1  0.47839503  0.98979796  0.39066804  1
  O  O334  1  0.48396684  0.99232721  0.87073857  1
  O  O335  1  0.99520547  0.50761402  0.38888570  1
  O  O336  1  1.00134347  0.49180638  0.88791429  1
  O  O337  1  1.00761341  0.98626895  0.37233571  1
  O  O338  1  0.99623929  0.99700537  0.88169874  1
  O  O339  1  -0.00083354  0.00662885  0.11740319  1
  O  O340  1  0.01530038  0.00807454  0.63100082  1
  O  O341  1  0.00444767  0.50817838  0.11322473  1
  O  O342  1  0.00410946  0.50914866  0.61736101  1
  O  O343  1  0.52085074  -0.04526544  0.12288306  1
  O  O344  1  0.49279367  0.00415148  0.60783742  1
  O  O345  1  0.51812459  0.50471769  0.12683725  1
  O  O346  1  0.51125842  0.51008974  0.62590704  1
  O  O347  1  0.24944208  0.38701005  0.25660688  1
  O  O348  1  0.24654121  0.37793620  0.73900218  1
  O  O349  1  0.23687345  0.87893638  0.24350730  1
  O  O350  1  0.24402168  0.88395474  0.75115370  1
  O  O351  1  0.74830594  0.38934348  0.24993491  1
  O  O352  1  0.74452277  0.38539354  0.74772280  1
  O  O353  1  0.72604586  0.85952361  0.32334580  1
  O  O354  1  0.75540663  0.87371975  0.73761164  1
  O  O355  1  0.24483239  0.11049479  0.24048399  1
  O  O356  1  0.25216245  0.11927551  0.76337262  1
  O  O357  1  0.25383119  0.62132482  0.26291341  1
  O  O358  1  0.25450316  0.62551760  0.76103553  1
  O  O359  1  0.75431505  0.13066129  0.25574865  1
  O  O360  1  0.75947952  0.12611326  0.75907818  1
  O  O361  1  0.75536793  0.61568782  0.26121465  1
  O  O362  1  0.76077154  0.62106701  0.73716007  1
  O  O363  1  0.36445705  0.11359893  0.38857882  1
  O  O364  1  0.36518129  0.11632188  0.87354852  1
  O  O365  1  0.36510001  0.62548702  0.37039751  1
  O  O366  1  0.36550452  0.62458116  0.86830107  1
  O  O367  1  0.85797991  0.14146895  0.35430038  1
  O  O368  1  0.87629549  0.11821866  0.86567976  1
  O  O369  1  0.87049767  0.61681741  0.36810685  1
  O  O370  1  0.90731267  0.60262038  0.86316804  1
  O  O371  1  0.12084374  0.38875736  0.11700995  1
  O  O372  1  0.13592314  0.38682997  0.62508510  1
  O  O373  1  0.12719376  0.87801330  0.12987943  1
  O  O374  1  0.12961946  0.88562976  0.63056919  1
  O  O375  1  0.63637262  0.39143273  0.13845457  1
  O  O376  1  0.63189208  0.38455748  0.63642165  1
  O  O377  1  0.65199560  0.85994719  0.12694384  1
  O  O378  1  0.64908036  0.87291452  0.61424662  1
  O  O379  1  0.11376165  0.25445607  0.24920110  1
  O  O380  1  0.13075655  0.25014577  0.76762512  1
  O  O381  1  0.12902539  0.75706996  0.26121746  1
  O  O382  1  0.12092613  0.75708785  0.75520181  1
  O  O383  1  0.64017967  0.26719314  0.26452096  1
  O  O384  1  0.61545392  0.26221452  0.74258542  1
  O  O385  1  0.61371743  0.74333801  0.26602193  1
  O  O386  1  0.62799210  0.76253475  0.75253372  1
  O  O387  1  0.36546800  0.26645010  0.22522097  1
  O  O388  1  0.37812038  0.25149659  0.73918099  1
  O  O389  1  0.37425627  0.74047486  0.24711335  1
  O  O390  1  0.37178053  0.73866916  0.74200304  1
  O  O391  1  0.87763963  0.24598188  0.23567071  1
  O  O392  1  0.87033825  0.23992569  0.74181273  1
  O  O393  1  0.87747195  0.73420972  0.24394799  1
  O  O394  1  0.88685749  0.75118759  0.72890158  1
  O  O395  1  0.37487467  0.48768730  0.50131836  1
  O  O396  1  0.37856911  0.51453305  0.98409720  1
  O  O397  1  0.37109997  0.99270805  0.49683407  1
  O  O398  1  0.35923777  0.98718377  0.98689408  1
  O  O399  1  0.88290558  0.49158889  0.49793697  1
  O  O400  1  0.88074395  0.49954925  0.99175238  1
  O  O401  1  0.89297249  1.04864169  0.47738872  1
  O  O402  1  0.88138002  0.99476716  0.98821510  1
  O  O403  1  0.11746185  0.00551275  0.00518384  1
  O  O404  1  0.14193832  0.01637064  0.51295959  1
  O  O405  1  0.11805585  0.50636706  0.00489695  1
  O  O406  1  0.11609031  0.50224579  0.51475705  1
  O  O407  1  0.63447923  -0.00695539  0.02816886  1
  O  O408  1  0.61589426  0.00947736  0.50019897  1
  O  O409  1  0.62574252  0.49245157  0.01520550  1
  O  O410  1  0.62907641  0.49489998  0.51782410  1
  O  O411  1  0.37198471  0.40865481  0.12152811  1
  O  O412  1  0.36971106  0.37445180  0.62302703  1
  O  O413  1  0.36212071  0.87179171  0.11645423  1
  O  O414  1  0.37087803  0.86988410  0.61856938  1
  O  O415  1  0.87307377  0.36966671  0.11905108  1
  O  O416  1  0.86915892  0.36950576  0.61954223  1
  O  O417  1  0.88196015  0.85463671  0.12878503  1
  O  O418  1  0.86730138  0.86975260  0.62242119  1
  O  O419  1  0.12226535  0.11806889  0.39043478  1
  O  O420  1  0.13102660  0.13253784  0.87947471  1
  O  O421  1  0.13187702  0.63327822  0.36987578  1
  O  O422  1  0.12808010  0.62990460  0.87641085  1
  O  O423  1  0.63416326  0.14169977  0.38501873  1
  O  O424  1  0.63838246  0.11977208  0.86453693  1
  O  O425  1  0.64157198  0.61337218  0.37828730  1
  O  O426  1  0.62149811  0.62915829  0.89162402  1
