# generated using pymatgen
data_V85Zn86O256
_symmetry_space_group_name_H-M   'P 1'
_cell_length_a   16.95450589
_cell_length_b   16.94327577
_cell_length_c   16.95192890
_cell_angle_alpha   90.01525685
_cell_angle_beta   90.00358899
_cell_angle_gamma   89.92809451
_symmetry_Int_Tables_number   1
_chemical_formula_structural   V85Zn86O256
_chemical_formula_sum   'V85 Zn86 O256'
_cell_volume   4869.68961302
_cell_formula_units_Z   1
loop_
 _symmetry_equiv_pos_site_id
 _symmetry_equiv_pos_as_xyz
  1  'x, y, z'
loop_
 _atom_site_type_symbol
 _atom_site_label
 _atom_site_symmetry_multiplicity
 _atom_site_fract_x
 _atom_site_fract_y
 _atom_site_fract_z
 _atom_site_occupancy
  V  V0  1  0.74232863  0.37236794  0.62617365  1
  V  V1  1  0.75038952  0.24436034  -0.00213197  1
  V  V2  1  0.87257312  0.12624275  0.74225817  1
  V  V3  1  0.87156952  0.62657038  0.74238843  1
  V  V4  1  0.49421531  0.37553090  0.87898968  1
  V  V5  1  0.36753570  0.75428475  0.11945213  1
  V  V6  1  0.37068425  0.62031987  0.24777795  1
  V  V7  1  0.63833652  0.87820105  0.24543094  1
  V  V8  1  0.36874162  0.50265295  0.87831225  1
  V  V9  1  0.75842086  0.24426784  0.50342409  1
  V  V10  1  0.49893256  0.12255394  0.12705699  1
  V  V11  1  0.24664887  0.75434128  0.50238245  1
  V  V12  1  0.24734290  0.37314834  0.62378319  1
  V  V13  1  0.37285340  0.12456391  0.25020810  1
  V  V14  1  0.00023606  0.49824475  0.49810285  1
  V  V15  1  0.49908893  0.75272469  0.24846066  1
  V  V16  1  -0.00480833  0.25137709  0.74420732  1
  V  V17  1  0.24716355  0.50515955  0.75147076  1
  V  V18  1  -0.00609059  0.87135738  0.36734903  1
  V  V19  1  0.62660929  0.25722492  0.86994368  1
  V  V20  1  0.37457938  0.12202887  0.75270511  1
  V  V21  1  0.12409503  0.62982816  0.49680766  1
  V  V22  1  0.87476162  0.00001712  0.87393586  1
  V  V23  1  0.50146733  0.25043516  0.25094867  1
  V  V24  1  0.25136046  0.12012466  0.87643416  1
  V  V25  1  0.12546352  0.38009368  0.23762649  1
  V  V26  1  0.12780097  -0.00942698  0.61966502  1
  V  V27  1  0.50268649  0.25615543  0.74734970  1
  V  V28  1  0.00240302  0.50356674  0.00266912  1
  V  V29  1  0.00087200  0.63150562  0.12577894  1
  V  V30  1  0.62493785  0.50073134  0.12601706  1
  V  V31  1  0.37085858  0.87568009  0.50391253  1
  V  V32  1  0.87832454  0.48908685  0.37514031  1
  V  V33  1  0.24547121  0.62739767  0.37190009  1
  V  V34  1  0.37756572  0.62309579  0.74810341  1
  V  V35  1  0.12514506  0.24938370  0.87325168  1
  V  V36  1  0.63640097  -0.00236074  0.12421665  1
  V  V37  1  0.25341226  0.25883567  -0.00108918  1
  V  V38  1  0.24769089  0.12935549  0.37639105  1
  V  V39  1  0.50090463  -0.00169883  0.50003333  1
  V  V40  1  -0.00063504  0.37544615  0.87434924  1
  V  V41  1  0.36937393  0.24787951  0.61868682  1
  V  V42  1  0.50057353  0.12467579  0.62396327  1
  V  V43  1  0.37196221  0.49927861  0.37363726  1
  V  V44  1  0.86859758  0.87565713  0.00283765  1
  V  V45  1  0.88304402  0.62820257  0.25392125  1
  V  V46  1  0.86909844  0.75230110  0.12752593  1
  V  V47  1  0.49653101  0.49904438  -0.00103476  1
  V  V48  1  0.50031634  0.88145434  0.37383874  1
  V  V49  1  0.13615019  0.63218307  -0.00557902  1
  V  V50  1  0.87596450  0.37624865  0.00330518  1
  V  V51  1  -0.00115576  0.63027160  0.62336944  1
  V  V52  1  0.62517572  -0.01238433  0.62819361  1
  V  V53  1  0.00243424  0.87504133  0.87607958  1
  V  V54  1  0.74572492  -0.00799500  0.75054194  1
  V  V55  1  0.37643784  0.74500550  0.62372332  1
  V  V56  1  0.63056058  0.12123387  0.49676496  1
  V  V57  1  0.00171984  0.23890844  0.24758790  1
  V  V58  1  0.62447725  0.62828077  -0.00132657  1
  V  V59  1  0.13741667  0.74995147  0.87500411  1
  V  V60  1  -0.00031507  0.00656262  0.00875334  1
  V  V61  1  0.61663198  0.62006745  0.50439336  1
  V  V62  1  0.50080036  0.62790665  0.12448004  1
  V  V63  1  0.37085201  0.37209474  0.49731115  1
  V  V64  1  0.75130968  0.62333035  0.37584911  1
  V  V65  1  0.12950357  0.12385234  0.49903136  1
  V  V66  1  0.37521988  0.25706666  0.12005079  1
  V  V67  1  0.12766298  0.86192672  0.25658783  1
  V  V68  1  0.36793477  0.87629096  -0.00447356  1
  V  V69  1  0.49240373  0.00137976  -0.00403262  1
  V  V70  1  0.75106470  0.37655462  0.12334298  1
  V  V71  1  0.00201852  0.12158737  0.62156897  1
  V  V72  1  0.50272787  0.87981284  0.87015021  1
  V  V73  1  0.88082119  0.87529011  0.51192395  1
  V  V74  1  -0.00237098  0.75179030  0.74857384  1
  V  V75  1  0.62930735  0.37717228  0.25262254  1
  V  V76  1  0.88075275  0.23618609  0.12684110  1
  V  V77  1  0.50370200  0.75105311  0.74824960  1
  V  V78  1  0.87777672  0.37199625  0.50630021  1
  V  V79  1  0.25136166  -0.00516431  0.74626649  1
  V  V80  1  0.63223545  0.24750928  0.37708934  1
  V  V81  1  0.74248459  0.49612257  0.74995542  1
  V  V82  1  0.62783556  0.75006329  0.37636053  1
  V  V83  1  0.75139902  0.62641223  0.87609294  1
  V  V84  1  0.12216638  0.26278774  0.37989918  1
  Zn  Zn85  1  0.75865903  0.74444669  0.51612874  1
  Zn  Zn86  1  0.86600715  0.00754598  0.36727373  1
  Zn  Zn87  1  0.62575394  0.75507498  0.87105863  1
  Zn  Zn88  1  0.74675954  0.75553387  0.00193595  1
  Zn  Zn89  1  0.24314083  0.87753880  0.12143141  1
  Zn  Zn90  1  0.61522056  0.49870413  0.63294833  1
  Zn  Zn91  1  0.49314348  0.50159716  0.50853172  1
  Zn  Zn92  1  0.13790068  0.50979789  0.12788478  1
  Zn  Zn93  1  0.12085623  0.12768568  0.00520598  1
  Zn  Zn94  1  0.87541902  0.50157743  0.87473765  1
  Zn  Zn95  1  0.12465492  0.00718547  0.13346596  1
  Zn  Zn96  1  0.37163763  0.00023402  0.37443474  1
  Zn  Zn97  1  0.12262645  0.37785769  0.74845723  1
  Zn  Zn98  1  0.62211038  0.12583808  -0.00321688  1
  Zn  Zn99  1  0.75372122  0.86248402  0.63268870  1
  Zn  Zn100  1  0.50114321  0.37614606  0.37703985  1
  Zn  Zn101  1  0.12402166  0.50001677  0.62546196  1
  Zn  Zn102  1  0.74651730  0.12645278  0.86869801  1
  Zn  Zn103  1  0.13049322  0.87128610  0.74477299  1
  Zn  Zn104  1  0.24435378  -0.00019968  0.24830006  1
  Zn  Zn105  1  0.75402011  0.49953861  0.24971485  1
  Zn  Zn106  1  0.25985143  0.38871298  0.12374454  1
  Zn  Zn107  1  0.18599284  0.18771511  0.18518428  1
  Zn  Zn108  1  0.18641413  0.18667670  0.68806331  1
  Zn  Zn109  1  0.18919686  0.68760199  0.18423167  1
  Zn  Zn110  1  0.18789692  0.68725738  0.68451383  1
  Zn  Zn111  1  0.68247610  0.19359167  0.17771495  1
  Zn  Zn112  1  0.68661983  0.18532609  0.68335703  1
  Zn  Zn113  1  0.69057807  0.68739276  0.19051967  1
  Zn  Zn114  1  0.68494927  0.68509538  0.68688443  1
  Zn  Zn115  1  0.30602732  0.31085662  0.30928581  1
  Zn  Zn116  1  0.31317066  0.31447837  0.80950662  1
  Zn  Zn117  1  0.31016929  0.81040248  0.31438969  1
  Zn  Zn118  1  0.31919215  0.81540983  0.81346136  1
  Zn  Zn119  1  0.81894451  0.19123481  0.31495639  1
  Zn  Zn120  1  0.81493342  0.31452813  0.81053716  1
  Zn  Zn121  1  0.81452689  0.81175137  0.31466339  1
  Zn  Zn122  1  0.81446335  0.80985163  0.81294978  1
  Zn  Zn123  1  0.19066354  0.44202308  0.43826422  1
  Zn  Zn124  1  0.18524360  0.43937895  0.93746106  1
  Zn  Zn125  1  0.18401785  0.94024159  0.43078378  1
  Zn  Zn126  1  0.18536596  0.93926904  0.93441743  1
  Zn  Zn127  1  0.69198282  0.43635860  0.43755024  1
  Zn  Zn128  1  0.68511869  0.43783327  0.93523830  1
  Zn  Zn129  1  0.69816376  0.93097239  0.44402753  1
  Zn  Zn130  1  0.68458514  0.94062612  0.93785204  1
  Zn  Zn131  1  0.30673231  0.06431218  0.06395970  1
  Zn  Zn132  1  0.30940687  0.06207886  0.56048991  1
  Zn  Zn133  1  0.31296792  0.56622579  0.05974299  1
  Zn  Zn134  1  0.31159487  0.56147929  0.56333919  1
  Zn  Zn135  1  0.81661052  0.05772690  0.18606731  1
  Zn  Zn136  1  0.81496639  0.05481601  0.55913914  1
  Zn  Zn137  1  0.81362572  0.56372102  0.06340031  1
  Zn  Zn138  1  0.80904153  0.56138224  0.56332634  1
  Zn  Zn139  1  0.44057682  0.43851294  0.18942772  1
  Zn  Zn140  1  0.43686508  0.43683157  0.68693696  1
  Zn  Zn141  1  0.43804770  0.93971978  0.18606522  1
  Zn  Zn142  1  0.43534679  0.93573048  0.68570211  1
  Zn  Zn143  1  0.94503454  0.43490043  0.18999659  1
  Zn  Zn144  1  0.93231009  0.44119430  0.68459086  1
  Zn  Zn145  1  0.94337622  0.92960025  0.19079987  1
  Zn  Zn146  1  0.94147464  0.94116115  0.68822163  1
  Zn  Zn147  1  0.05773337  0.05242240  0.31580659  1
  Zn  Zn148  1  0.06499764  0.06206191  0.80993627  1
  Zn  Zn149  1  0.06290003  0.56135609  0.31340471  1
  Zn  Zn150  1  0.06227825  0.56347098  0.81417501  1
  Zn  Zn151  1  0.68205840  0.06062848  0.31190406  1
  Zn  Zn152  1  0.56307396  0.06634822  0.81322704  1
  Zn  Zn153  1  0.55836490  0.56133342  0.31619556  1
  Zn  Zn154  1  0.55957953  0.56565575  0.81270856  1
  Zn  Zn155  1  0.44108886  0.18773177  0.43575711  1
  Zn  Zn156  1  0.43554123  0.18758551  0.93702638  1
  Zn  Zn157  1  0.43647081  0.68950172  0.43407730  1
  Zn  Zn158  1  0.43437074  0.68896480  0.93333957  1
  Zn  Zn159  1  0.94558622  0.18596735  0.43780247  1
  Zn  Zn160  1  0.93342353  0.18656664  0.93253109  1
  Zn  Zn161  1  0.93884151  0.69520834  0.43572311  1
  Zn  Zn162  1  0.93805843  0.69053708  0.93653832  1
  Zn  Zn163  1  0.06259469  0.30913571  0.06338807  1
  Zn  Zn164  1  0.06277939  0.31131497  0.56221402  1
  Zn  Zn165  1  0.06139987  0.81428647  0.06581216  1
  Zn  Zn166  1  0.05716284  0.81182611  0.55578409  1
  Zn  Zn167  1  0.56154838  0.31368793  0.06020793  1
  Zn  Zn168  1  0.56052342  0.31471795  0.56026031  1
  Zn  Zn169  1  0.55976854  0.81677868  0.06019297  1
  Zn  Zn170  1  0.56083710  0.80670936  0.56132940  1
  O  O171  1  0.12918632  0.12155903  0.11713283  1
  O  O172  1  0.12119812  0.12064843  0.61843464  1
  O  O173  1  0.11785072  0.62933047  0.11319739  1
  O  O174  1  0.11658152  0.62180545  0.61658726  1
  O  O175  1  0.61494688  0.11674097  0.12020302  1
  O  O176  1  0.61706139  0.11855403  0.61444277  1
  O  O177  1  0.62106222  0.62042291  0.12029592  1
  O  O178  1  0.62808146  0.62077753  0.60656253  1
  O  O179  1  0.36959523  0.38038592  0.37970203  1
  O  O180  1  0.38413402  0.38653270  0.86979153  1
  O  O181  1  0.38386900  0.87222171  0.38446974  1
  O  O182  1  0.38827442  0.87272963  0.88479545  1
  O  O183  1  0.87240018  0.38924736  0.38947366  1
  O  O184  1  0.88112643  0.37588051  0.88759764  1
  O  O185  1  0.88506757  0.87417418  0.37507388  1
  O  O186  1  0.88326898  0.87848891  0.88025051  1
  O  O187  1  0.25279785  0.01546392  0.37191337  1
  O  O188  1  0.24431254  0.01447362  0.86600372  1
  O  O189  1  0.26163841  0.51287150  0.37780675  1
  O  O190  1  0.25848472  0.49423726  0.86644146  1
  O  O191  1  0.74753858  -0.00947758  0.36687589  1
  O  O192  1  0.75431033  0.00431446  0.86857538  1
  O  O193  1  0.76018911  0.50732609  0.37343116  1
  O  O194  1  0.75104389  0.50964463  0.86996720  1
  O  O195  1  0.25095262  0.50159625  0.12350121  1
  O  O196  1  0.24897861  0.49057968  0.63241123  1
  O  O197  1  0.24808455  0.99480578  0.12916848  1
  O  O198  1  0.24009233  1.00689726  0.63408043  1
  O  O199  1  0.74319157  0.49540980  0.12639332  1
  O  O200  1  0.74406607  0.49341059  0.63308585  1
  O  O201  1  0.73411874  1.00681972  0.11695821  1
  O  O202  1  0.74045200  0.99568458  0.63354430  1
  O  O203  1  0.01705436  0.36359479  0.24523118  1
  O  O204  1  -0.00365028  0.36882569  0.75288835  1
  O  O205  1  0.01129706  0.86692955  0.25932176  1
  O  O206  1  0.00203178  0.86616875  0.75579746  1
  O  O207  1  0.51208865  0.36912375  0.25181688  1
  O  O208  1  0.49294208  0.36127146  0.75820567  1
  O  O209  1  0.50377053  0.86795906  0.25631861  1
  O  O210  1  0.49041201  0.86623228  0.75863406  1
  O  O211  1  0.49261556  0.13394464  0.23572731  1
  O  O212  1  0.49166455  0.13411233  0.74559589  1
  O  O213  1  0.49375471  0.63452676  0.24647138  1
  O  O214  1  0.48515593  0.63321121  0.75442613  1
  O  O215  1  1.01156706  0.14049220  0.25357241  1
  O  O216  1  0.99420200  0.13196857  0.74406223  1
  O  O217  1  0.99418041  0.62056887  0.24053183  1
  O  O218  1  0.99264348  0.62837316  0.74303157  1
  O  O219  1  0.36753533  0.24803636  0.00834365  1
  O  O220  1  0.37793326  0.25419507  0.51093932  1
  O  O221  1  0.38371976  0.76095151  0.00890600  1
  O  O222  1  0.37056159  0.75391522  0.50625545  1
  O  O223  1  0.87110480  0.25776287  0.00399141  1
  O  O224  1  0.86838146  0.25974065  0.49683398  1
  O  O225  1  0.87305967  0.75804403  0.00620572  1
  O  O226  1  0.87214520  0.76687405  0.49419660  1
  O  O227  1  0.12166763  0.24669929  0.48512113  1
  O  O228  1  0.12926387  0.24944160  0.98679216  1
  O  O229  1  0.13328145  0.73884922  0.50659285  1
  O  O230  1  0.11779650  0.74010293  0.99110011  1
  O  O231  1  0.63011134  0.24241876  0.49426333  1
  O  O232  1  0.63403656  0.25291198  0.99196730  1
  O  O233  1  0.62473500  0.73783838  0.49086075  1
  O  O234  1  0.62570316  0.73891922  1.00213130  1
  O  O235  1  0.49543551  0.24358518  0.12720824  1
  O  O236  1  0.49397056  0.24638469  0.63130982  1
  O  O237  1  0.49561500  0.74702546  0.13332571  1
  O  O238  1  0.48604264  0.75421121  0.63225155  1
  O  O239  1  0.99378868  0.25068668  0.13534191  1
  O  O240  1  1.00763232  0.24112164  0.63844526  1
  O  O241  1  0.98821601  0.73647916  0.11792529  1
  O  O242  1  1.00401783  0.73809265  0.63245306  1
  O  O243  1  0.01527749  0.25126532  0.36451155  1
  O  O244  1  0.00579718  0.25436140  0.86614527  1
  O  O245  1  0.00814472  0.77014574  0.38683751  1
  O  O246  1  0.00599147  0.75982664  0.86813141  1
  O  O247  1  0.51350212  0.25155050  0.36946534  1
  O  O248  1  0.50346524  0.25759773  0.86944427  1
  O  O249  1  0.50869139  0.75617307  0.36719928  1
  O  O250  1  0.49976986  0.75825378  0.86531550  1
  O  O251  1  0.23936051  0.12762887  0.49340512  1
  O  O252  1  0.25174926  0.13659076  0.98838619  1
  O  O253  1  0.24137309  0.62953570  0.49507896  1
  O  O254  1  0.23456028  0.62913244  0.99805560  1
  O  O255  1  0.74200067  0.13337212  0.51213667  1
  O  O256  1  0.74890488  0.14285863  0.99300160  1
  O  O257  1  0.74352392  0.62593407  0.48861294  1
  O  O258  1  0.74272390  0.62428312  0.99179519  1
  O  O259  1  0.24647024  0.36230437  -0.00176225  1
  O  O260  1  0.26076535  0.37902828  0.50913050  1
  O  O261  1  0.26416819  0.88199542  -0.00374168  1
  O  O262  1  0.25754670  0.86537944  0.48976321  1
  O  O263  1  0.75810825  0.37110411  0.00245779  1
  O  O264  1  0.75704594  0.36714199  0.50599838  1
  O  O265  1  0.76439298  0.87545325  -0.00731811  1
  O  O266  1  0.75884869  0.86425583  0.51060086  1
  O  O267  1  0.11797114  0.48437521  0.24741070  1
  O  O268  1  0.13255054  0.49948177  0.74877446  1
  O  O269  1  0.12513490  0.98663092  0.24995228  1
  O  O270  1  0.13492129  0.99877711  0.74043342  1
  O  O271  1  0.62396916  0.49348704  0.24629747  1
  O  O272  1  0.63828041  0.50744131  0.75186085  1
  O  O273  1  0.62271650  0.99245319  0.23373820  1
  O  O274  1  0.63379685  1.00898423  0.74059872  1
  O  O275  1  0.37790705  0.01523078  0.25212770  1
  O  O276  1  0.36853027  0.01470955  0.74008342  1
  O  O277  1  0.38093311  0.51347439  0.25518973  1
  O  O278  1  0.36833879  0.50674518  0.75535398  1
  O  O279  1  0.88268549  -0.00071225  0.25067916  1
  O  O280  1  0.86807664  0.00599304  0.75545591  1
  O  O281  1  0.87892342  0.50691176  0.25867478  1
  O  O282  1  0.86461493  0.50936567  0.75317617  1
  O  O283  1  0.13253371  0.36508951  0.37153380  1
  O  O284  1  0.11671631  0.36804377  0.87180450  1
  O  O285  1  0.11928481  0.87475260  0.36353586  1
  O  O286  1  0.11808626  0.86779339  0.87061548  1
  O  O287  1  0.62602369  0.36805292  0.36867908  1
  O  O288  1  0.61429156  0.36531337  0.87561510  1
  O  O289  1  0.61803163  0.86588700  0.36863181  1
  O  O290  1  0.60943944  0.87191365  0.88190819  1
  O  O291  1  0.37935004  0.13507289  0.13125843  1
  O  O292  1  0.37992257  0.13200624  0.62745853  1
  O  O293  1  0.38191771  0.63422908  0.13057773  1
  O  O294  1  0.37173219  0.63340147  0.63254244  1
  O  O295  1  0.86988097  0.13848103  0.11882014  1
  O  O296  1  0.88551747  0.11607205  0.63398369  1
  O  O297  1  0.88216550  0.62708085  0.13412856  1
  O  O298  1  0.88098985  0.62034576  0.63563727  1
  O  O299  1  0.25946787  0.25323833  0.11457773  1
  O  O300  1  0.25838723  0.25947354  0.63216813  1
  O  O301  1  0.26474617  0.75456144  0.12548647  1
  O  O302  1  0.25976775  0.74756090  0.61256170  1
  O  O303  1  0.75688070  0.25955188  0.11496828  1
  O  O304  1  0.74626212  0.25744004  0.61369254  1
  O  O305  1  0.76469318  0.74034062  0.12039019  1
  O  O306  1  0.75356266  0.74859576  0.63065914  1
  O  O307  1  0.23461585  0.23943038  0.36971073  1
  O  O308  1  0.24332964  0.24505495  0.87608267  1
  O  O309  1  0.25886308  0.73538692  0.38913374  1
  O  O310  1  0.23640878  0.75448085  0.86522013  1
  O  O311  1  0.73878776  0.24919757  0.38738442  1
  O  O312  1  0.74171930  0.25478694  0.87849744  1
  O  O313  1  0.73729134  0.74239826  0.37344931  1
  O  O314  1  0.74603302  0.73859190  0.87562995  1
  O  O315  1  -0.00260963  0.10886442  -0.01039760  1
  O  O316  1  0.01476888  0.13297729  0.51318051  1
  O  O317  1  0.00232299  0.61846878  0.00537662  1
  O  O318  1  0.00506199  0.62327326  0.50603788  1
  O  O319  1  0.49796794  0.11972744  0.00857805  1
  O  O320  1  0.50689318  0.11722626  0.50395556  1
  O  O321  1  0.50742092  0.62179059  0.00371158  1
  O  O322  1  0.51351462  0.62442008  0.49170424  1
  O  O323  1  0.48384834  0.37377076  0.49623263  1
  O  O324  1  0.50217582  0.38272773  0.98815642  1
  O  O325  1  0.49427883  0.87747250  0.49264188  1
  O  O326  1  0.49230964  0.88460247  0.99355298  1
  O  O327  1  0.99173921  0.38577801  0.50936592  1
  O  O328  1  0.99461488  0.38224391  0.99751175  1
  O  O329  1  0.98654951  0.87595910  0.49527868  1
  O  O330  1  0.99313256  0.88064274  0.99137010  1
  O  O331  1  0.48462201  0.49693779  0.37816767  1
  O  O332  1  0.49414126  0.49257852  0.87781916  1
  O  O333  1  0.49780576  0.98535677  0.38038537  1
  O  O334  1  0.50406267  0.99575884  0.88381895  1
  O  O335  1  0.99238231  0.50758148  0.39016336  1
  O  O336  1  0.99868295  0.49453701  0.88594374  1
  O  O337  1  0.99913783  0.97854268  0.37876275  1
  O  O338  1  0.99547735  0.98794442  0.87083052  1
  O  O339  1  -0.00097363  -0.00293426  0.10935704  1
  O  O340  1  0.01337128  0.01374996  0.63290511  1
  O  O341  1  0.00326522  0.50944544  0.11389025  1
  O  O342  1  -0.00026940  0.51185845  0.61599518  1
  O  O343  1  0.50414944  0.00895096  0.11797261  1
  O  O344  1  0.50593206  0.00505916  0.62103574  1
  O  O345  1  0.50444723  0.50745693  0.11893247  1
  O  O346  1  0.50352542  0.49467327  0.62172722  1
  O  O347  1  0.23152052  0.36763707  0.24393685  1
  O  O348  1  0.25007442  0.38579412  0.74124863  1
  O  O349  1  0.24104296  0.87613457  0.25257956  1
  O  O350  1  0.25362083  0.89127347  0.75436611  1
  O  O351  1  0.73558575  0.37783553  0.24037890  1
  O  O352  1  0.75657694  0.38385310  0.74022636  1
  O  O353  1  0.73602741  0.86225537  0.24637536  1
  O  O354  1  0.75448092  0.88767333  0.75210587  1
  O  O355  1  0.25849513  0.12731038  0.25738157  1
  O  O356  1  0.25695078  0.12016014  0.75579062  1
  O  O357  1  0.25999634  0.63281287  0.25819897  1
  O  O358  1  0.25802173  0.61256048  0.74377207  1
  O  O359  1  0.74690944  0.13140982  0.24596553  1
  O  O360  1  0.75830423  0.11779857  0.74687191  1
  O  O361  1  0.75753507  0.62131704  0.26219525  1
  O  O362  1  0.75614805  0.61935678  0.75703214  1
  O  O363  1  0.36740305  0.12887400  0.36796080  1
  O  O364  1  0.36607605  0.13216574  0.86249945  1
  O  O365  1  0.37031837  0.61924812  0.36676215  1
  O  O366  1  0.37595415  0.61278899  0.86601613  1
  O  O367  1  0.87324239  0.12332785  0.38452123  1
  O  O368  1  0.87264428  0.11780044  0.86070665  1
  O  O369  1  0.87025532  0.62120866  0.37051220  1
  O  O370  1  0.86752242  0.62464876  0.86634874  1
  O  O371  1  0.12837060  0.37826235  0.12978578  1
  O  O372  1  0.13484475  0.37621540  0.62619339  1
  O  O373  1  0.12417723  0.87627480  0.13716121  1
  O  O374  1  0.11909685  0.88686938  0.62380618  1
  O  O375  1  0.62778008  0.38177156  0.13014161  1
  O  O376  1  0.63808381  0.37810830  0.61694190  1
  O  O377  1  0.61931422  0.88869434  0.13028561  1
  O  O378  1  0.62153361  0.88548622  0.62203092  1
  O  O379  1  0.11899672  0.25868105  0.25605845  1
  O  O380  1  0.11791839  0.25171181  0.76015902  1
  O  O381  1  0.13139178  0.76221732  0.24771845  1
  O  O382  1  0.11518397  0.74830049  0.75519853  1
  O  O383  1  0.62177197  0.25716827  0.25690697  1
  O  O384  1  0.61438963  0.24492583  0.75582330  1
  O  O385  1  0.61583678  0.75397450  0.25409298  1
  O  O386  1  0.60675239  0.74066089  0.75006630  1
  O  O387  1  0.38053692  0.24192190  0.24524016  1
  O  O388  1  0.38005461  0.24169567  0.73910517  1
  O  O389  1  0.38377798  0.74388500  0.24481478  1
  O  O390  1  0.37709077  0.74238739  0.74229412  1
  O  O391  1  0.89172135  0.25142121  0.24261679  1
  O  O392  1  0.88394146  0.24020329  0.75334606  1
  O  O393  1  0.87240283  0.73605577  0.24400182  1
  O  O394  1  0.88941040  0.74073763  0.75582226  1
  O  O395  1  0.37348225  0.49214573  0.49157965  1
  O  O396  1  0.38438424  0.50884684  0.98931604  1
  O  O397  1  0.38068504  0.99232842  0.49843126  1
  O  O398  1  0.38623189  0.99475848  1.00533054  1
  O  O399  1  0.88148048  0.49703138  0.49578859  1
  O  O400  1  0.88302949  0.49353304  0.99924783  1
  O  O401  1  0.86509816  0.97922024  0.49186402  1
  O  O402  1  0.88853497  0.99113459  0.98731337  1
  O  O403  1  0.10700953  -0.00128331  -0.00513672  1
  O  O404  1  0.13207036  0.00998322  0.50872871  1
  O  O405  1  0.11847065  0.51433902  -0.00124550  1
  O  O406  1  0.11752043  0.50972072  0.50097221  1
  O  O407  1  0.61416938  0.00195412  0.00990621  1
  O  O408  1  0.62130681  0.00472409  0.50742960  1
  O  O409  1  0.61829769  0.51081187  0.00347777  1
  O  O410  1  0.62302761  0.51356448  0.49179641  1
  O  O411  1  0.37779809  0.36130957  0.13265534  1
  O  O412  1  0.36682160  0.36673383  0.61857268  1
  O  O413  1  0.37754784  0.86855283  0.11620527  1
  O  O414  1  0.37628913  0.86798868  0.60989036  1
  O  O415  1  0.87312128  0.37211367  0.11536020  1
  O  O416  1  0.86242684  0.38202076  0.61239482  1
  O  O417  1  0.88303786  0.86292545  0.11567764  1
  O  O418  1  0.87817253  0.87987943  0.61604354  1
  O  O419  1  0.12907271  0.13053767  0.38246865  1
  O  O420  1  0.13248153  0.13340185  0.87614663  1
  O  O421  1  0.13421101  0.62060610  0.38256609  1
  O  O422  1  0.11778368  0.63461846  0.88699615  1
  O  O423  1  0.62487027  0.13102512  0.38912436  1
  O  O424  1  0.62498637  0.14109467  0.87793534  1
  O  O425  1  0.63205346  0.63035359  0.37814611  1
  O  O426  1  0.63132505  0.62762496  0.88384642  1
