# generated using pymatgen
data_V85Zn86O256
_symmetry_space_group_name_H-M   'P 1'
_cell_length_a   16.95589555
_cell_length_b   16.95642377
_cell_length_c   16.96959951
_cell_angle_alpha   90.08129171
_cell_angle_beta   90.01368248
_cell_angle_gamma   90.00121711
_symmetry_Int_Tables_number   1
_chemical_formula_structural   V85Zn86O256
_chemical_formula_sum   'V85 Zn86 O256'
_cell_volume   4878.94741667
_cell_formula_units_Z   1
loop_
 _symmetry_equiv_pos_site_id
 _symmetry_equiv_pos_as_xyz
  1  'x, y, z'
loop_
 _atom_site_type_symbol
 _atom_site_label
 _atom_site_symmetry_multiplicity
 _atom_site_fract_x
 _atom_site_fract_y
 _atom_site_fract_z
 _atom_site_occupancy
  V  V0  1  0.24885280  0.01007736  0.75338880  1
  V  V1  1  0.13735620  0.12659932  -0.00082540  1
  V  V2  1  0.37521037  0.88291066  0.50380991  1
  V  V3  1  0.12175202  0.50216121  0.62432139  1
  V  V4  1  0.11928066  0.36921751  0.74837277  1
  V  V5  1  0.37977197  0.13099322  0.25586106  1
  V  V6  1  0.76203299  0.86389028  0.61533230  1
  V  V7  1  0.13405701  0.87246632  0.74471623  1
  V  V8  1  0.00665666  -0.00097983  0.00311541  1
  V  V9  1  0.00386355  0.37496100  0.37658418  1
  V  V10  1  0.13166138  0.12143835  0.49896492  1
  V  V11  1  0.87629985  0.12070238  0.25164544  1
  V  V12  1  0.24364732  0.87942879  0.13109343  1
  V  V13  1  -0.00348936  0.87983888  0.38977002  1
  V  V14  1  0.13113610  -0.00235596  0.61736167  1
  V  V15  1  0.61680776  0.11699314  0.50287655  1
  V  V16  1  0.27044671  0.62527361  0.37008760  1
  V  V17  1  0.61349238  0.87027647  0.24731742  1
  V  V18  1  0.25704346  0.24591739  0.50539743  1
  V  V19  1  0.62512271  0.00465209  0.12502698  1
  V  V20  1  0.38397454  0.00224503  0.37632959  1
  V  V21  1  0.87384791  0.25075639  0.12901206  1
  V  V22  1  0.74684543  0.37016899  0.63033472  1
  V  V23  1  0.61859795  0.49047093  0.62836744  1
  V  V24  1  0.38724257  0.74232074  0.13825064  1
  V  V25  1  0.49894841  0.62879409  0.62894872  1
  V  V26  1  0.87229684  0.75182673  0.12381624  1
  V  V27  1  0.74957236  0.75368316  -0.00317435  1
  V  V28  1  0.62567602  0.25435567  0.86191312  1
  V  V29  1  0.36749513  0.75368901  0.62341041  1
  V  V30  1  0.14042951  0.24784051  0.37576561  1
  V  V31  1  0.48929783  0.11770231  0.62801594  1
  V  V32  1  0.49503753  0.87625858  0.86893855  1
  V  V33  1  0.24866450  0.62636072  0.87518455  1
  V  V34  1  0.13039613  0.62578529  0.49555861  1
  V  V35  1  0.76169557  -0.00016116  0.75451041  1
  V  V36  1  0.87311634  0.88449487  -0.00571471  1
  V  V37  1  0.61675659  0.52069973  0.14888368  1
  V  V38  1  0.49874409  0.00348957  -0.00218602  1
  V  V39  1  0.24915158  0.50101390  0.74951967  1
  V  V40  1  0.37368873  0.87682541  0.00261336  1
  V  V41  1  -0.00191010  0.37404828  0.87381951  1
  V  V42  1  0.37529350  0.50104578  0.87491124  1
  V  V43  1  0.00158392  0.62284090  0.12268229  1
  V  V44  1  0.12856403  0.38335719  0.24994609  1
  V  V45  1  0.75000569  0.87668493  0.12718000  1
  V  V46  1  0.87554146  0.37414464  0.50155610  1
  V  V47  1  0.26830613  0.50172513  0.24963621  1
  V  V48  1  0.74923289  0.62738300  0.87544185  1
  V  V49  1  0.24917845  0.74969519  0.00513950  1
  V  V50  1  0.00375021  0.75641891  0.24557335  1
  V  V51  1  0.86833871  0.62413396  0.24703184  1
  V  V52  1  0.74319059  0.49652359  0.75254924  1
  V  V53  1  0.50221629  0.13875421  0.12790958  1
  V  V54  1  0.01039063  0.12024471  0.12878957  1
  V  V55  1  0.49536761  0.49815647  0.48935802  1
  V  V56  1  0.74699823  0.24904054  0.50332525  1
  V  V57  1  0.00522567  0.24976770  0.25116532  1
  V  V58  1  0.61062374  0.25587673  0.37406094  1
  V  V59  1  0.50291929  0.50485860  0.00130429  1
  V  V60  1  0.37552985  0.37662840  0.48934501  1
  V  V61  1  0.49270435  0.25956429  0.74070965  1
  V  V62  1  -0.05522567  0.67822147  0.57920859  1
  V  V63  1  -0.05861479  0.19007651  0.79847770  1
  V  V64  1  0.00179734  0.49893919  0.50308058  1
  V  V65  1  -0.00319731  0.74678557  0.75228358  1
  V  V66  1  0.14199877  0.24439684  0.87518669  1
  V  V67  1  0.62566228  0.12903149  -0.00589198  1
  V  V68  1  0.36683681  0.25061704  0.12173059  1
  V  V69  1  0.74761611  0.12448711  0.37531163  1
  V  V70  1  0.87951206  0.62343876  0.75207517  1
  V  V71  1  0.24552966  0.00928868  0.25525987  1
  V  V72  1  0.88914610  0.24737260  0.62420979  1
  V  V73  1  0.62263549  0.87761937  0.74623587  1
  V  V74  1  0.36999967  0.37138945  -0.00313805  1
  V  V75  1  0.25787486  0.37124385  0.62585088  1
  V  V76  1  -0.04715016  0.06752183  0.56539358  1
  V  V77  1  0.37743146  0.63360585  0.75091628  1
  V  V78  1  0.75413626  0.48646864  0.25670366  1
  V  V79  1  0.61828486  0.75188388  0.86874406  1
  V  V80  1  0.12528819  0.74980045  0.87514530  1
  V  V81  1  0.63025538  0.63044254  0.50198483  1
  V  V82  1  -0.00302930  0.88128437  0.87242512  1
  V  V83  1  0.74695846  0.24976454  0.00004252  1
  V  V84  1  0.87362339  0.37924108  0.00444248  1
  Zn  Zn85  1  0.25194365  0.75486800  0.49712822  1
  Zn  Zn86  1  0.12839514  0.75254918  0.37266456  1
  Zn  Zn87  1  0.75166847  0.62972442  0.37953047  1
  Zn  Zn88  1  0.61182429  0.63311567  -0.00156157  1
  Zn  Zn89  1  0.00193358  0.49829106  0.00138224  1
  Zn  Zn90  1  0.24871852  0.37674477  0.12104776  1
  Zn  Zn91  1  0.75052813  -0.00090316  0.25380418  1
  Zn  Zn92  1  0.87577987  0.50092158  0.37821061  1
  Zn  Zn93  1  0.12533181  0.62100604  0.00104682  1
  Zn  Zn94  1  0.60521907  0.36627047  0.24480570  1
  Zn  Zn95  1  0.12154124  0.88440840  0.25078886  1
  Zn  Zn96  1  0.36678173  0.13509062  0.75553666  1
  Zn  Zn97  1  0.73919781  0.37390825  0.12598630  1
  Zn  Zn98  1  0.12717775  0.50037310  0.12285764  1
  Zn  Zn99  1  0.36397463  0.00995548  0.88041394  1
  Zn  Zn100  1  0.62855444  0.75287027  0.37672986  1
  Zn  Zn101  1  0.87608539  -0.00405029  0.38820745  1
  Zn  Zn102  1  0.62081492  -0.00466926  0.62512151  1
  Zn  Zn103  1  0.76227184  0.12145384  0.86994951  1
  Zn  Zn104  1  0.50025885  0.86998906  0.37902729  1
  Zn  Zn105  1  0.50383291  0.37794706  0.87047019  1
  Zn  Zn106  1  0.87313861  0.49937453  0.87801779  1
  Zn  Zn107  1  0.19069313  0.18835957  0.19004613  1
  Zn  Zn108  1  0.17560324  0.18598997  0.68299419  1
  Zn  Zn109  1  0.19051439  0.68691388  0.18821948  1
  Zn  Zn110  1  0.18616457  0.68589303  0.68454105  1
  Zn  Zn111  1  0.68751288  0.18987925  0.19093634  1
  Zn  Zn112  1  0.68876386  0.18102884  0.68648633  1
  Zn  Zn113  1  0.67233934  0.67666568  0.19168218  1
  Zn  Zn114  1  0.68521422  0.68737434  0.68805958  1
  Zn  Zn115  1  0.43073791  0.31297151  0.31217440  1
  Zn  Zn116  1  0.31391746  0.31563658  0.81116311  1
  Zn  Zn117  1  0.31536410  0.81528260  0.31404722  1
  Zn  Zn118  1  0.31277828  0.81416588  0.81382677  1
  Zn  Zn119  1  0.81421932  0.30607714  0.31840100  1
  Zn  Zn120  1  0.80647435  0.31538269  0.81588945  1
  Zn  Zn121  1  0.80994096  0.81108188  0.31699010  1
  Zn  Zn122  1  0.81174412  0.81353163  0.80679735  1
  Zn  Zn123  1  0.19529658  0.43906909  0.43289845  1
  Zn  Zn124  1  0.18623550  0.43740424  0.93789226  1
  Zn  Zn125  1  0.19239520  0.93529998  0.43225080  1
  Zn  Zn126  1  0.18497768  0.93656879  0.93684826  1
  Zn  Zn127  1  0.68665889  0.43984569  0.43992850  1
  Zn  Zn128  1  0.68644029  0.43614321  0.93824117  1
  Zn  Zn129  1  0.68790324  0.93722374  0.43697672  1
  Zn  Zn130  1  0.68630649  0.94099425  0.93250948  1
  Zn  Zn131  1  0.31374080  0.06095221  0.07016389  1
  Zn  Zn132  1  0.31071386  0.05900112  0.56542117  1
  Zn  Zn133  1  0.31512626  0.56413686  0.06502487  1
  Zn  Zn134  1  0.31262297  0.56205248  0.56133286  1
  Zn  Zn135  1  0.81444709  0.06347639  0.06161901  1
  Zn  Zn136  1  0.78991160  0.05734793  0.56780007  1
  Zn  Zn137  1  0.79886531  0.56257670  0.06836681  1
  Zn  Zn138  1  0.80635607  0.55363457  0.56422212  1
  Zn  Zn139  1  0.43977230  0.43923348  0.17876864  1
  Zn  Zn140  1  0.43532237  0.44005086  0.68651081  1
  Zn  Zn141  1  0.43295267  0.94311243  0.18339484  1
  Zn  Zn142  1  0.43298714  0.93662706  0.68782111  1
  Zn  Zn143  1  0.93897025  0.43808897  0.18783406  1
  Zn  Zn144  1  0.93618586  0.43826541  0.68843901  1
  Zn  Zn145  1  0.93691194  0.93971123  0.18638871  1
  Zn  Zn146  1  0.93659375  0.92819152  0.68688395  1
  Zn  Zn147  1  0.06275491  0.06145291  0.32124072  1
  Zn  Zn148  1  0.06977342  0.05755195  0.81566101  1
  Zn  Zn149  1  0.05887290  0.56433406  0.31272473  1
  Zn  Zn150  1  0.06188359  0.55925593  0.81598296  1
  Zn  Zn151  1  0.56184713  0.06187477  0.31077159  1
  Zn  Zn152  1  0.55909441  0.06330687  0.80989687  1
  Zn  Zn153  1  0.56688713  0.55759766  0.31518716  1
  Zn  Zn154  1  0.56100063  0.56392795  0.81366639  1
  Zn  Zn155  1  0.43183205  0.18324015  0.44547219  1
  Zn  Zn156  1  0.43644655  0.18894632  0.93275662  1
  Zn  Zn157  1  0.44753983  0.69561521  0.43812855  1
  Zn  Zn158  1  0.43426900  0.69128549  0.94001528  1
  Zn  Zn159  1  0.93711760  0.19338440  0.43072349  1
  Zn  Zn160  1  0.94385421  0.19253136  0.95871298  1
  Zn  Zn161  1  0.93641916  0.69379629  0.41780654  1
  Zn  Zn162  1  0.93512014  0.69056400  0.93806333  1
  Zn  Zn163  1  0.06499115  0.31053632  0.06251202  1
  Zn  Zn164  1  0.06733161  0.31088771  0.56190657  1
  Zn  Zn165  1  0.06394468  0.81295175  0.06402083  1
  Zn  Zn166  1  0.07124074  0.81394155  0.55965679  1
  Zn  Zn167  1  0.56024082  0.32189679  0.06110281  1
  Zn  Zn168  1  0.55910662  0.31092043  0.55939408  1
  Zn  Zn169  1  0.56136653  0.81526933  0.05926230  1
  Zn  Zn170  1  0.55294007  0.81138451  0.56365302  1
  O  O171  1  0.11510262  0.13497119  0.11884455  1
  O  O172  1  0.11942963  0.11496804  0.61049840  1
  O  O173  1  0.11413553  0.62643370  0.12308745  1
  O  O174  1  0.13242280  0.61384525  0.61019506  1
  O  O175  1  0.62127743  0.12310077  0.11820571  1
  O  O176  1  0.61628956  0.12202974  0.61736296  1
  O  O177  1  0.66152191  0.60755494  0.09773385  1
  O  O178  1  0.61750684  0.61524823  0.62170747  1
  O  O179  1  0.36858728  0.37072241  0.39055224  1
  O  O180  1  0.37777163  0.38288109  0.87936564  1
  O  O181  1  0.37880642  0.88365196  0.38258901  1
  O  O182  1  0.38007361  0.87950066  0.88292779  1
  O  O183  1  0.88147250  0.37129760  0.39005403  1
  O  O184  1  0.88161899  0.37396503  0.88330086  1
  O  O185  1  0.88995533  0.87733479  0.37015849  1
  O  O186  1  0.88424116  0.86811263  0.88322685  1
  O  O187  1  0.26288142  -0.00288902  0.35946105  1
  O  O188  1  0.24387422  -0.00375967  0.85785860  1
  O  O189  1  0.24978009  0.51309021  0.36184284  1
  O  O190  1  0.25494473  0.50582265  0.86893630  1
  O  O191  1  0.75550253  0.01182424  0.37619407  1
  O  O192  1  0.75091545  0.00232824  0.86192353  1
  O  O193  1  0.75568231  0.50257537  0.37074903  1
  O  O194  1  0.74879739  0.50776538  0.86901690  1
  O  O195  1  0.24729368  0.50396567  0.13852195  1
  O  O196  1  0.24027615  0.49298351  0.62910867  1
  O  O197  1  0.25822852  0.99158539  0.14321926  1
  O  O198  1  0.23766156  0.99948901  0.63580595  1
  O  O199  1  0.74286153  0.49237192  0.14200962  1
  O  O200  1  0.73944924  0.49172593  0.63439008  1
  O  O201  1  0.74212626  0.99462317  0.12274801  1
  O  O202  1  0.74084014  0.98546461  0.63839991  1
  O  O203  1  0.00787489  0.36943745  0.25599095  1
  O  O204  1  0.01057434  0.37894736  0.75729042  1
  O  O205  1  0.00295793  0.86782569  0.24510451  1
  O  O206  1  0.00598966  0.86673570  0.75702272  1
  O  O207  1  0.49448914  0.38078372  0.25436033  1
  O  O208  1  0.49981768  0.36374918  0.74738138  1
  O  O209  1  0.51317682  0.88392573  0.24276292  1
  O  O210  1  0.50323661  0.88027951  0.76232104  1
  O  O211  1  0.49308929  0.12038651  0.23840527  1
  O  O212  1  0.50058392  0.13637116  0.73898574  1
  O  O213  1  0.57508993  0.60200395  0.21282516  1
  O  O214  1  0.48836553  0.61968611  0.74293126  1
  O  O215  1  0.99707453  0.12741948  0.24617059  1
  O  O216  1  1.00037696  0.12636143  0.75065528  1
  O  O217  1  0.99160303  0.63208969  0.23951016  1
  O  O218  1  0.98966909  0.62876050  0.75551770  1
  O  O219  1  0.38342484  0.25991444  0.00792854  1
  O  O220  1  0.36355505  0.25706089  0.50302202  1
  O  O221  1  0.36376588  0.76203155  0.00187897  1
  O  O222  1  0.37347425  0.75719787  0.50809549  1
  O  O223  1  0.86715595  0.25998144  0.00780090  1
  O  O224  1  0.87031266  0.25466628  0.50753445  1
  O  O225  1  0.87011668  0.76397825  0.00472849  1
  O  O226  1  0.88899605  0.72987408  0.51676259  1
  O  O227  1  0.13329315  0.24324878  0.49548665  1
  O  O228  1  0.11837715  0.24231148  0.98380451  1
  O  O229  1  0.13279410  0.74058996  0.49788727  1
  O  O230  1  0.13677905  0.75083432  0.99631741  1
  O  O231  1  0.62661650  0.24019909  0.49159080  1
  O  O232  1  0.62710089  0.24451871  0.99321122  1
  O  O233  1  0.61955932  0.73125684  0.51043411  1
  O  O234  1  0.63204352  0.75294653  0.98845979  1
  O  O235  1  0.49680693  0.24178948  0.12094379  1
  O  O236  1  0.50734997  0.24272698  0.63810829  1
  O  O237  1  0.48579555  0.75530072  0.11690846  1
  O  O238  1  0.48718106  0.73463428  0.62398416  1
  O  O239  1  0.99510395  0.24204845  0.13240634  1
  O  O240  1  0.98886139  0.25415405  0.62495904  1
  O  O241  1  0.99207280  0.74548916  0.12782543  1
  O  O242  1  1.00485339  0.74461789  0.63235543  1
  O  O243  1  0.01080782  0.25699577  0.36881143  1
  O  O244  1  -0.00322449  0.25323778  0.86576897  1
  O  O245  1  0.00353238  0.76319981  0.36214525  1
  O  O246  1  0.00577371  0.75720283  0.86966965  1
  O  O247  1  0.50732632  0.24692319  0.37969610  1
  O  O248  1  0.51057426  0.25268364  0.85969960  1
  O  O249  1  0.51542734  0.75645741  0.37599666  1
  O  O250  1  0.50692326  0.76208507  0.88249512  1
  O  O251  1  0.24462878  0.13469489  0.50666099  1
  O  O252  1  0.23600691  0.11655499  1.00818163  1
  O  O253  1  0.24590448  0.62117715  0.48442391  1
  O  O254  1  0.25068997  0.63488612  0.99405147  1
  O  O255  1  0.73868957  0.13041502  0.49551338  1
  O  O256  1  0.74368462  0.12989751  0.99448286  1
  O  O257  1  0.73363432  0.61699151  0.50503536  1
  O  O258  1  0.76193206  0.63313256  0.98191721  1
  O  O259  1  0.26491110  0.38222091  0.00125245  1
  O  O260  1  0.25489201  0.37089553  0.50769849  1
  O  O261  1  0.25534113  0.87200980  0.00637257  1
  O  O262  1  0.26682471  0.87127601  0.49302775  1
  O  O263  1  0.75673709  0.36834417  0.00131512  1
  O  O264  1  0.75793505  0.37045623  0.50811489  1
  O  O265  1  0.75636824  0.87656409  0.00480799  1
  O  O266  1  0.74161574  0.87790666  0.51699029  1
  O  O267  1  0.12087584  0.48986814  0.24936267  1
  O  O268  1  0.12910445  0.49288564  0.74419599  1
  O  O269  1  0.14143472  1.00605388  0.25582582  1
  O  O270  1  0.13195641  0.99228335  0.74272858  1
  O  O271  1  0.64020896  0.48020940  0.25793004  1
  O  O272  1  0.63468342  0.50555369  0.74392804  1
  O  O273  1  0.62919004  0.99763553  0.23630967  1
  O  O274  1  0.63032924  0.99016458  0.75193475  1
  O  O275  1  0.37027384  0.01064468  0.25550393  1
  O  O276  1  0.35418621  -0.00363023  0.74858961  1
  O  O277  1  0.36610257  0.50344707  0.24461419  1
  O  O278  1  0.36749917  0.50954502  0.75441135  1
  O  O279  1  0.87282595  0.01346232  0.24850206  1
  O  O280  1  0.86080419  -0.00788740  0.74741815  1
  O  O281  1  0.87088697  0.50717759  0.25154627  1
  O  O282  1  0.86462829  0.50695881  0.75194185  1
  O  O283  1  0.12411019  0.36892315  0.36865501  1
  O  O284  1  0.11730219  0.36279898  0.87061017  1
  O  O285  1  0.11275534  0.87347692  0.37159174  1
  O  O286  1  0.11677452  0.86796771  0.86689405  1
  O  O287  1  0.62957527  0.35567987  0.38281891  1
  O  O288  1  0.62434006  0.35770691  0.87853178  1
  O  O289  1  0.62533953  0.88426007  0.35556900  1
  O  O290  1  0.61674020  0.87049808  0.86741168  1
  O  O291  1  0.38468790  0.13261727  0.12891103  1
  O  O292  1  0.38608994  0.12225984  0.63171786  1
  O  O293  1  0.37190398  0.64378893  0.12263431  1
  O  O294  1  0.37957885  0.62818640  0.63226093  1
  O  O295  1  0.88438093  0.13078199  0.13134874  1
  O  O296  1  0.88386953  0.12663729  0.61690322  1
  O  O297  1  0.87703888  0.62954657  0.13171315  1
  O  O298  1  0.87834828  0.61756995  0.63258763  1
  O  O299  1  0.26389588  0.25140993  0.12634018  1
  O  O300  1  0.23945463  0.26008928  0.61746234  1
  O  O301  1  0.25607006  0.75792657  0.11924882  1
  O  O302  1  0.26356105  0.74237803  0.62187366  1
  O  O303  1  0.75509393  0.25229682  0.12020855  1
  O  O304  1  0.75800857  0.25148419  0.62164328  1
  O  O305  1  0.75299472  0.76046935  0.11670428  1
  O  O306  1  0.74541191  0.76555403  0.63363347  1
  O  O307  1  0.23989992  0.25225283  0.38770458  1
  O  O308  1  0.23998005  0.25290604  0.87437486  1
  O  O309  1  0.24849292  0.73542281  0.37125701  1
  O  O310  1  0.24456422  0.74752462  0.88349423  1
  O  O311  1  0.74613930  0.23774802  0.38466956  1
  O  O312  1  0.73958114  0.24339923  0.87754636  1
  O  O313  1  0.74139992  0.74341920  0.37077306  1
  O  O314  1  0.74320360  0.74585989  0.87685783  1
  O  O315  1  0.00836977  0.11656853  0.01027014  1
  O  O316  1  0.00598491  0.12574170  0.49906441  1
  O  O317  1  -0.00349946  0.62598959  0.01194811  1
  O  O318  1  0.00391906  0.62356513  0.50706143  1
  O  O319  1  0.50990091  0.12293003  0.00613001  1
  O  O320  1  0.50309036  0.13244913  0.51956190  1
  O  O321  1  0.49675552  0.61094016  -0.00716069  1
  O  O322  1  0.50531276  0.61316731  0.50978534  1
  O  O323  1  0.49073131  0.38805646  0.50767983  1
  O  O324  1  0.48909524  0.38763317  0.99488315  1
  O  O325  1  0.48350584  0.87544429  0.49968474  1
  O  O326  1  0.49136587  0.88322215  0.99253805  1
  O  O327  1  0.99521388  0.37718607  0.49644162  1
  O  O328  1  0.99113047  0.37098227  0.99180583  1
  O  O329  1  0.99936070  0.86858702  0.48795114  1
  O  O330  1  0.99559855  0.88136922  0.99496758  1
  O  O331  1  0.50171141  0.50290776  0.39095323  1
  O  O332  1  0.49240245  0.49778778  0.87972704  1
  O  O333  1  0.48776080  0.99619260  0.37017189  1
  O  O334  1  0.49999996  0.99251643  0.88251325  1
  O  O335  1  0.99747067  0.49278803  0.38410111  1
  O  O336  1  0.99610662  0.48619791  0.87889384  1
  O  O337  1  0.99589525  0.98519039  0.37362772  1
  O  O338  1  1.00348882  0.98724340  0.88104860  1
  O  O339  1  -0.00029222  0.00922119  0.11714551  1
  O  O340  1  0.00592930  0.00080717  0.62448933  1
  O  O341  1  0.00134295  0.51024371  0.12309633  1
  O  O342  1  0.01351034  0.49372152  0.62004331  1
  O  O343  1  0.50813837  0.00985816  0.11683188  1
  O  O344  1  0.50178194  0.01438891  0.63404916  1
  O  O345  1  0.50788990  0.50319901  0.10936124  1
  O  O346  1  0.50533285  0.50809356  0.62304103  1
  O  O347  1  0.24287418  0.39524748  0.24820495  1
  O  O348  1  0.24038395  0.37931336  0.74388626  1
  O  O349  1  0.24739347  0.88517782  0.24596361  1
  O  O350  1  0.23671471  0.87736483  0.75193516  1
  O  O351  1  0.76193037  0.38078252  0.25116453  1
  O  O352  1  0.75303317  0.38565329  0.74453787  1
  O  O353  1  0.74698908  0.87991813  0.23633119  1
  O  O354  1  0.74067184  0.88243373  0.74691378  1
  O  O355  1  0.26089489  0.11510713  0.24510250  1
  O  O356  1  0.24550486  0.11327935  0.74409728  1
  O  O357  1  0.24581173  0.61484143  0.26173043  1
  O  O358  1  0.25473510  0.62060781  0.75575754  1
  O  O359  1  0.75823770  0.12540272  0.25859969  1
  O  O360  1  0.74851571  0.10640941  0.74991291  1
  O  O361  1  0.75742838  0.61331003  0.24981426  1
  O  O362  1  0.75766451  0.62061703  0.75816670  1
  O  O363  1  0.38078308  0.11897705  0.36619564  1
  O  O364  1  0.37980792  0.12072105  0.86734598  1
  O  O365  1  0.36804211  0.62849892  0.37824594  1
  O  O366  1  0.36912733  0.62328892  0.86766415  1
  O  O367  1  0.86807858  0.12333457  0.36862430  1
  O  O368  1  0.88529463  0.13949922  0.86801942  1
  O  O369  1  0.87475647  0.62146870  0.35965961  1
  O  O370  1  0.86941483  0.62298550  0.86660584  1
  O  O371  1  0.12864065  0.37333945  0.13522578  1
  O  O372  1  0.13121942  0.38031959  0.63295619  1
  O  O373  1  0.13955881  0.87348522  0.12674507  1
  O  O374  1  0.11838162  0.88495710  0.63342683  1
  O  O375  1  0.62228690  0.39019460  0.12886576  1
  O  O376  1  0.62849260  0.38428589  0.62068622  1
  O  O377  1  0.63063408  0.88536905  0.12751071  1
  O  O378  1  0.61670376  0.87277902  0.63909249  1
  O  O379  1  0.12563618  0.25813595  0.25861702  1
  O  O380  1  0.12648405  0.25633999  0.76239659  1
  O  O381  1  0.11211403  0.74990336  0.24846357  1
  O  O382  1  0.11647987  0.75404073  0.75161828  1
  O  O383  1  0.62898211  0.25123089  0.26893576  1
  O  O384  1  0.62104471  0.24501903  0.75904398  1
  O  O385  1  0.62770837  0.77023985  0.23987517  1
  O  O386  1  0.62638373  0.75693123  0.76304456  1
  O  O387  1  0.37655769  0.23702349  0.24157127  1
  O  O388  1  0.38877409  0.25291045  0.74935637  1
  O  O389  1  0.37631120  0.75645390  0.23704203  1
  O  O390  1  0.36947625  0.73967359  0.74495179  1
  O  O391  1  0.88325370  0.23847578  0.24977057  1
  O  O392  1  0.87405082  0.24769564  0.74264295  1
  O  O393  1  0.88241881  0.74356703  0.24218941  1
  O  O394  1  0.88800280  0.74178637  0.75253352  1
  O  O395  1  0.38766634  0.49402033  0.50508086  1
  O  O396  1  0.38335095  0.49665291  0.99529442  1
  O  O397  1  0.36962932  0.99365723  0.49212621  1
  O  O398  1  0.37691517  0.99058309  1.00089578  1
  O  O399  1  0.88223301  0.49032715  0.50352308  1
  O  O400  1  0.87179655  0.48769312  1.00224881  1
  O  O401  1  0.88507257  1.01402815  0.51000450  1
  O  O402  1  0.88619901  0.99109350  1.00224709  1
  O  O403  1  0.11358688  0.00801243  -0.00582785  1
  O  O404  1  0.13449197  0.00665026  0.50513047  1
  O  O405  1  0.12077841  0.50221485  0.00348621  1
  O  O406  1  0.12160004  0.50408504  0.50501571  1
  O  O407  1  0.62255257  0.00979334  0.00668560  1
  O  O408  1  0.62500649  0.01368449  0.49995052  1
  O  O409  1  0.60797201  0.50017242  -0.00785869  1
  O  O410  1  0.61375363  0.50356978  0.50993348  1
  O  O411  1  0.37349400  0.36646270  0.11550655  1
  O  O412  1  0.36071833  0.38003891  0.62052933  1
  O  O413  1  0.36579658  0.87044659  0.11743332  1
  O  O414  1  0.37743223  0.86681912  0.61692527  1
  O  O415  1  0.87664270  0.36738136  0.11865309  1
  O  O416  1  0.87119387  0.36655227  0.61825667  1
  O  O417  1  0.86662555  0.87392686  0.11685641  1
  O  O418  1  0.86237840  0.87125163  0.62379194  1
  O  O419  1  0.12114622  0.13409276  0.38856577  1
  O  O420  1  0.12265651  0.13761159  0.88152335  1
  O  O421  1  0.12124117  0.62653460  0.38752031  1
  O  O422  1  0.12993146  0.63196141  0.87690035  1
  O  O423  1  0.62913969  0.13170524  0.37977445  1
  O  O424  1  0.62234405  0.13493054  0.88386569  1
  O  O425  1  0.62556370  0.61993718  0.39549192  1
  O  O426  1  0.63147594  0.63454911  0.87632478  1
