# generated using pymatgen
data_V85Zn86O256
_symmetry_space_group_name_H-M   'P 1'
_cell_length_a   16.92983577
_cell_length_b   16.92347617
_cell_length_c   16.93109162
_cell_angle_alpha   89.99681041
_cell_angle_beta   90.03590935
_cell_angle_gamma   90.08720009
_symmetry_Int_Tables_number   1
_chemical_formula_structural   V85Zn86O256
_chemical_formula_sum   'V85 Zn86 O256'
_cell_volume   4850.94879586
_cell_formula_units_Z   1
loop_
 _symmetry_equiv_pos_site_id
 _symmetry_equiv_pos_as_xyz
  1  'x, y, z'
loop_
 _atom_site_type_symbol
 _atom_site_label
 _atom_site_symmetry_multiplicity
 _atom_site_fract_x
 _atom_site_fract_y
 _atom_site_fract_z
 _atom_site_occupancy
  V  V0  1  0.87603369  0.00232701  0.37443526  1
  V  V1  1  0.87626398  0.74595491  0.63052485  1
  V  V2  1  0.25015320  0.62505239  0.37638159  1
  V  V3  1  0.74845978  0.87389123  0.62291183  1
  V  V4  1  0.62100495  -0.00085607  0.62803902  1
  V  V5  1  0.50281100  0.37812204  0.87867625  1
  V  V6  1  0.89046812  0.62978609  0.25234582  1
  V  V7  1  0.74865028  -0.00085878  0.24687185  1
  V  V8  1  0.00513712  0.25165910  0.75246485  1
  V  V9  1  0.49423853  0.37113369  0.37356594  1
  V  V10  1  0.49982268  0.87076751  0.37321459  1
  V  V11  1  0.62900919  0.63023201  -0.00341372  1
  V  V12  1  0.87984015  0.50292693  0.37377348  1
  V  V13  1  0.62177255  0.75134707  0.36915924  1
  V  V14  1  0.37437098  -0.00296408  0.37745296  1
  V  V15  1  0.74939994  0.62205767  0.36553516  1
  V  V16  1  0.87582836  0.38316294  0.50585545  1
  V  V17  1  0.87671645  0.87667180  0.50219773  1
  V  V18  1  0.24337940  -0.00081883  0.75138682  1
  V  V19  1  0.00168801  0.37047751  0.37060109  1
  V  V20  1  0.87899576  0.37946220  -0.00237637  1
  V  V21  1  0.87860029  0.12676943  0.25178555  1
  V  V22  1  0.62149616  0.11886926  0.00328524  1
  V  V23  1  0.49776385  0.63223548  0.62552150  1
  V  V24  1  0.88230496  0.75380745  0.13309198  1
  V  V25  1  0.49692294  0.63834043  0.12771911  1
  V  V26  1  0.11791565  0.50422528  0.11056437  1
  V  V27  1  0.00718818  0.75076203  0.74504748  1
  V  V28  1  0.50241597  0.25076371  0.25109163  1
  V  V29  1  0.37642748  0.63660082  0.24691157  1
  V  V30  1  0.36844760  0.37064177  0.51531366  1
  V  V31  1  0.75083313  -0.00130501  0.75038306  1
  V  V32  1  0.49703266  0.50025676  0.49901735  1
  V  V33  1  0.74912903  0.63277538  0.86535745  1
  V  V34  1  0.00761929  0.13355808  0.12571322  1
  V  V35  1  0.36754671  0.50045753  0.87390913  1
  V  V36  1  0.88008517  0.50565070  0.87067693  1
  V  V37  1  0.75105311  0.12612933  0.87766496  1
  V  V38  1  0.63071216  0.37856261  0.25614912  1
  V  V39  1  0.49595095  0.24987094  0.75083665  1
  V  V40  1  0.87629712  0.87565096  0.00004003  1
  V  V41  1  -0.00033309  0.86689409  0.37130949  1
  V  V42  1  0.24720217  0.49844673  0.24728391  1
  V  V43  1  0.25009467  -0.00300578  0.25057555  1
  V  V44  1  0.62624419  0.25099138  0.87645915  1
  V  V45  1  0.75309728  0.49257075  0.74794762  1
  V  V46  1  0.37368067  0.86456058  0.50862091  1
  V  V47  1  0.01072563  0.00379186  0.49827808  1
  V  V48  1  0.62534992  0.62564764  0.49699221  1
  V  V49  1  0.14118596  0.49293967  0.62986498  1
  V  V50  1  0.23680763  0.12405984  0.88359009  1
  V  V51  1  0.00533756  0.00696274  -0.00085436  1
  V  V52  1  0.01058098  0.87838174  0.86792496  1
  V  V53  1  0.37584567  0.25087711  0.11955536  1
  V  V54  1  0.37609813  0.12348777  0.25102930  1
  V  V55  1  0.25605322  0.86640008  0.12466940  1
  V  V56  1  -0.00454687  0.61308941  0.62571915  1
  V  V57  1  0.62906429  0.49593714  0.62390995  1
  V  V58  1  0.12526153  0.74125597  0.87733978  1
  V  V59  1  0.00714773  0.37432688  0.87637030  1
  V  V60  1  0.62031535  0.87056666  0.24651205  1
  V  V61  1  0.86831463  0.24985732  0.61932928  1
  V  V62  1  0.11980175  0.61963333  0.50121944  1
  V  V63  1  0.75248793  0.39164726  0.12570583  1
  V  V64  1  0.50688824  0.87679926  0.88065121  1
  V  V65  1  0.87753029  0.25389796  0.13090635  1
  V  V66  1  0.37662091  0.87357900  -0.00046363  1
  V  V67  1  0.36631911  0.62490656  0.74711233  1
  V  V68  1  0.87545399  0.12752244  0.74886622  1
  V  V69  1  0.24530582  0.86667248  0.63340682  1
  V  V70  1  0.87806799  0.00188855  0.87483383  1
  V  V71  1  0.24933960  0.74023456  0.00103275  1
  V  V72  1  0.01130599  0.12834384  0.62011823  1
  V  V73  1  0.24045475  0.12417522  0.37777228  1
  V  V74  1  0.49617881  -0.00131385  0.50252852  1
  V  V75  1  0.23304966  0.24488258  0.00192327  1
  V  V76  1  0.74952998  0.25041210  0.00580248  1
  V  V77  1  0.37248318  0.12514270  0.75774213  1
  V  V78  1  0.12188158  0.86460680  0.24826948  1
  V  V79  1  0.12830454  0.00175672  0.12124177  1
  V  V80  1  0.50206057  0.11713377  0.12199888  1
  V  V81  1  0.62282685  0.50340148  0.12774134  1
  V  V82  1  0.49166309  0.12458756  0.62714743  1
  V  V83  1  0.24461030  0.24635850  0.50697629  1
  V  V84  1  0.50359004  0.74779909  0.75768491  1
  Zn  Zn85  1  0.74924930  0.74985786  0.49924143  1
  Zn  Zn86  1  0.62823390  0.37107562  0.74541320  1
  Zn  Zn87  1  0.70721731  0.31442176  0.56041334  1
  Zn  Zn88  1  0.24927412  0.37508897  0.12610527  1
  Zn  Zn89  1  0.13837305  0.38253879  0.75553357  1
  Zn  Zn90  1  0.12131482  0.37043299  0.24607392  1
  Zn  Zn91  1  0.24179201  0.61562218  0.87521955  1
  Zn  Zn92  1  0.62812257  0.86573852  0.75527275  1
  Zn  Zn93  1  0.12135623  0.74421075  0.37484117  1
  Zn  Zn94  1  0.12109945  0.24575851  0.37275740  1
  Zn  Zn95  1  0.00762141  0.63019303  0.10325474  1
  Zn  Zn96  1  0.12739575  0.00091943  0.62462006  1
  Zn  Zn97  1  0.37460317  0.37661173  0.00227215  1
  Zn  Zn98  1  0.37643655  -0.00057501  0.88205950  1
  Zn  Zn99  1  0.49863124  0.50367869  0.00006522  1
  Zn  Zn100  1  0.62314139  -0.00347618  0.12182205  1
  Zn  Zn101  1  0.74778417  0.16068788  0.39563371  1
  Zn  Zn102  1  0.37305989  0.49885972  0.37208778  1
  Zn  Zn103  1  0.74805012  0.87296120  0.12121228  1
  Zn  Zn104  1  0.61808119  0.14902001  0.49568469  1
  Zn  Zn105  1  0.25116710  0.74448675  0.50643443  1
  Zn  Zn106  1  0.75040700  0.75363554  -0.00544545  1
  Zn  Zn107  1  0.18712989  0.19037615  0.19314557  1
  Zn  Zn108  1  0.21307697  0.22454487  0.71174939  1
  Zn  Zn109  1  0.18567282  0.68322545  0.18619379  1
  Zn  Zn110  1  0.18208220  0.68622181  0.68845101  1
  Zn  Zn111  1  0.70627757  0.20887560  0.22141541  1
  Zn  Zn112  1  0.68230620  0.18237563  0.68911634  1
  Zn  Zn113  1  0.69466111  0.69040982  0.18335346  1
  Zn  Zn114  1  0.68550789  0.68470363  0.68682147  1
  Zn  Zn115  1  0.31000066  0.30968940  0.31180359  1
  Zn  Zn116  1  0.31365137  0.31291450  0.82245854  1
  Zn  Zn117  1  0.31019372  0.80984625  0.31529488  1
  Zn  Zn118  1  0.31642303  0.80766372  0.81399860  1
  Zn  Zn119  1  0.81617625  0.32029819  0.31226230  1
  Zn  Zn120  1  0.81541167  0.31321261  0.81148222  1
  Zn  Zn121  1  0.80745287  0.81352718  0.31264879  1
  Zn  Zn122  1  0.81965726  0.81414142  0.80992150  1
  Zn  Zn123  1  0.18751032  0.43979849  0.44197891  1
  Zn  Zn124  1  0.19108154  0.43239415  0.94185959  1
  Zn  Zn125  1  0.18901408  0.93209165  0.43922095  1
  Zn  Zn126  1  0.18994564  0.93466738  0.93853513  1
  Zn  Zn127  1  0.68929935  0.44150313  0.43169484  1
  Zn  Zn128  1  0.68993314  0.44269569  0.93889585  1
  Zn  Zn129  1  0.68831104  1.00933945  0.43924270  1
  Zn  Zn130  1  0.68776156  0.93802730  0.93671793  1
  Zn  Zn131  1  0.31456040  0.06066021  0.06231861  1
  Zn  Zn132  1  0.31020217  0.06246751  0.56522464  1
  Zn  Zn133  1  0.31419644  0.56070293  0.06340650  1
  Zn  Zn134  1  0.31329294  0.55990486  0.56225480  1
  Zn  Zn135  1  0.81380919  0.06311047  0.06610550  1
  Zn  Zn136  1  0.81657335  0.06365810  0.56412628  1
  Zn  Zn137  1  0.84430831  0.58301063  0.04230766  1
  Zn  Zn138  1  0.81022018  0.56281360  0.55877438  1
  Zn  Zn139  1  0.43531470  0.44233862  0.18719500  1
  Zn  Zn140  1  0.43935949  0.44222937  0.69102520  1
  Zn  Zn141  1  0.43656614  0.93307301  0.18701501  1
  Zn  Zn142  1  0.43124957  0.93484504  0.69435016  1
  Zn  Zn143  1  0.93748640  0.44614534  0.19086527  1
  Zn  Zn144  1  0.93712555  0.43407899  0.69073547  1
  Zn  Zn145  1  0.94050715  0.93958081  0.18643350  1
  Zn  Zn146  1  0.94074690  0.93928294  0.68656860  1
  Zn  Zn147  1  0.06177073  0.05732823  0.30743261  1
  Zn  Zn148  1  0.06452092  0.06784264  0.80815801  1
  Zn  Zn149  1  0.06335036  0.55603749  0.31326748  1
  Zn  Zn150  1  0.05888712  0.56269111  0.80621226  1
  Zn  Zn151  1  0.56301277  0.06179163  0.31161040  1
  Zn  Zn152  1  0.56269495  0.05896509  0.81521959  1
  Zn  Zn153  1  0.55993076  0.56073512  0.30957028  1
  Zn  Zn154  1  0.56423010  0.56076493  0.81108946  1
  Zn  Zn155  1  0.43281479  0.18864771  0.43778528  1
  Zn  Zn156  1  0.43685813  0.18557900  0.93720900  1
  Zn  Zn157  1  0.43701611  0.68677804  0.43417252  1
  Zn  Zn158  1  0.43590791  0.68899384  0.93833834  1
  Zn  Zn159  1  0.93600926  0.19161685  0.44020604  1
  Zn  Zn160  1  0.94045457  0.19162268  0.94059840  1
  Zn  Zn161  1  0.93686819  0.68771286  0.44362559  1
  Zn  Zn162  1  0.93656276  0.69092250  0.93105362  1
  Zn  Zn163  1  0.06198932  0.32015856  0.06531062  1
  Zn  Zn164  1  0.06004977  0.31503668  0.55805329  1
  Zn  Zn165  1  0.06380868  0.81432035  0.05860574  1
  Zn  Zn166  1  0.06666044  0.81025390  0.56012304  1
  Zn  Zn167  1  0.56415443  0.31103072  0.06519353  1
  Zn  Zn168  1  0.54427558  0.31315285  0.56625463  1
  Zn  Zn169  1  0.56379931  0.81035768  0.05947291  1
  Zn  Zn170  1  0.56340631  0.81146679  0.56147113  1
  O  O171  1  0.11725263  0.11508158  0.13320934  1
  O  O172  1  0.11061661  0.12415593  0.62677744  1
  O  O173  1  0.12083577  0.61174525  0.12646623  1
  O  O174  1  0.11811807  0.61517401  0.62095707  1
  O  O175  1  0.61580861  0.12522843  0.11780934  1
  O  O176  1  0.61063616  0.11448938  0.62588811  1
  O  O177  1  0.61884445  0.62034532  0.12284833  1
  O  O178  1  0.61750749  0.61741550  0.61709929  1
  O  O179  1  0.38558223  0.37655595  0.37524526  1
  O  O180  1  0.38468752  0.38275215  0.87763218  1
  O  O181  1  0.37841476  0.87829301  0.38216155  1
  O  O182  1  0.38419697  0.87571298  0.88233066  1
  O  O183  1  0.88245392  0.38342405  0.37969243  1
  O  O184  1  0.88217513  0.38062284  0.88088692  1
  O  O185  1  0.88143316  0.87852611  0.38287164  1
  O  O186  1  0.88622553  0.88292422  0.88053948  1
  O  O187  1  0.25596234  0.00318561  0.37276414  1
  O  O188  1  0.25100322  0.00537129  0.87052770  1
  O  O189  1  0.24953572  0.50991241  0.36844615  1
  O  O190  1  0.26199803  0.49728269  0.87638718  1
  O  O191  1  0.76385641  -0.01061883  0.35787213  1
  O  O192  1  0.75688995  0.00583249  0.86936186  1
  O  O193  1  0.76347278  0.51125416  0.37672679  1
  O  O194  1  0.75656541  0.50634550  0.86558565  1
  O  O195  1  0.24200296  0.50031091  0.13127892  1
  O  O196  1  0.24028690  0.49756458  0.62657152  1
  O  O197  1  0.24363712  0.99205365  0.12926348  1
  O  O198  1  0.24802083  0.99270886  0.63348543  1
  O  O199  1  0.74532434  0.49279639  0.11745610  1
  O  O200  1  0.73969953  0.50796834  0.63277112  1
  O  O201  1  0.75092614  0.99457160  0.13466809  1
  O  O202  1  0.74263363  0.99325153  0.63161773  1
  O  O203  1  -0.00258440  0.38019539  0.26658369  1
  O  O204  1  0.00230249  0.36650196  0.75793206  1
  O  O205  1  0.00962540  0.88241223  0.25943480  1
  O  O206  1  -0.00270148  0.86934054  0.75830345  1
  O  O207  1  0.50289612  0.37119526  0.25629996  1
  O  O208  1  0.50081910  0.36634418  0.75991724  1
  O  O209  1  0.51170673  0.87947239  0.25578587  1
  O  O210  1  0.49796043  0.86493540  0.76074946  1
  O  O211  1  0.49696567  0.13287046  0.24480715  1
  O  O212  1  0.49378728  0.12870764  0.74902877  1
  O  O213  1  0.49215720  0.62046962  0.23691898  1
  O  O214  1  0.49530852  0.62894471  0.74400404  1
  O  O215  1  0.98834180  0.11771845  0.23948371  1
  O  O216  1  0.99086499  0.12902297  0.74228685  1
  O  O217  1  0.99172218  0.62777856  0.25412446  1
  O  O218  1  1.00013312  0.63799522  0.73824877  1
  O  O219  1  0.37532588  0.24889136  0.01282292  1
  O  O220  1  0.36801977  0.26413822  0.49727535  1
  O  O221  1  0.36340222  0.76141260  -0.00518118  1
  O  O222  1  0.37292360  0.76088747  0.49682236  1
  O  O223  1  0.86940128  0.25865171  0.01046113  1
  O  O224  1  0.87048093  0.26004349  0.50865068  1
  O  O225  1  0.87559434  0.76737845  0.00109580  1
  O  O226  1  0.87379083  0.76299175  0.50937981  1
  O  O227  1  0.13998012  0.25664897  0.49295471  1
  O  O228  1  0.13472658  0.24783689  1.00785927  1
  O  O229  1  0.12990531  0.73512042  0.49955360  1
  O  O230  1  0.13324538  0.75406307  0.98896839  1
  O  O231  1  0.62421738  0.25945523  0.50863983  1
  O  O232  1  0.63145591  0.24131982  0.99670269  1
  O  O233  1  0.62622345  0.74228606  0.49203544  1
  O  O234  1  0.63203305  0.73526979  1.00431740  1
  O  O235  1  0.49261225  0.24182975  0.13012520  1
  O  O236  1  0.49850826  0.24023084  0.64275715  1
  O  O237  1  0.50318571  0.73681091  0.12640065  1
  O  O238  1  0.50183823  0.73662331  0.62922073  1
  O  O239  1  0.99481600  0.23988297  0.11789704  1
  O  O240  1  0.99004981  0.24508779  0.62745792  1
  O  O241  1  0.98811140  0.74933813  0.11687364  1
  O  O242  1  0.99571557  0.74691173  0.62997694  1
  O  O243  1  -0.00035211  0.26557322  0.37863223  1
  O  O244  1  -0.00796491  0.26069985  0.86580887  1
  O  O245  1  0.00085888  0.76367052  0.38158129  1
  O  O246  1  0.00456162  0.75808872  0.86669709  1
  O  O247  1  0.49557153  0.25703950  0.36390395  1
  O  O248  1  0.50519311  0.25535598  0.86872639  1
  O  O249  1  0.51279934  0.75357646  0.37744514  1
  O  O250  1  0.49801255  0.76089662  0.86918572  1
  O  O251  1  0.26004051  0.13465534  0.48887170  1
  O  O252  1  0.25264707  0.13385993  0.99763046  1
  O  O253  1  0.24626561  0.62458821  0.49303384  1
  O  O254  1  0.25679321  0.63687181  0.99621820  1
  O  O255  1  0.74025080  0.10618594  0.49464045  1
  O  O256  1  0.74607488  0.13174326  0.99777273  1
  O  O257  1  0.74289800  0.62784277  0.48795670  1
  O  O258  1  0.74740826  0.62703454  0.98484840  1
  O  O259  1  0.25375501  0.35696249  0.00335998  1
  O  O260  1  0.26135794  0.36385136  0.49487838  1
  O  O261  1  0.25508171  0.86571539  0.00778637  1
  O  O262  1  0.25706418  0.87169292  0.51177154  1
  O  O263  1  0.75391094  0.36748373  0.00730897  1
  O  O264  1  0.76772136  0.37943575  0.49019488  1
  O  O265  1  0.76098860  0.87558025  -0.00184634  1
  O  O266  1  0.75928732  0.87690954  0.51498805  1
  O  O267  1  0.13667912  0.49757981  0.24555424  1
  O  O268  1  0.12519359  0.49972944  0.73562207  1
  O  O269  1  0.13132368  0.98918546  0.24010862  1
  O  O270  1  0.13918386  1.00307699  0.74869235  1
  O  O271  1  0.62243205  0.49332661  0.23692632  1
  O  O272  1  0.63035607  0.49611996  0.73957066  1
  O  O273  1  0.63416150  0.99270253  0.24640417  1
  O  O274  1  0.63004456  0.99578611  0.74168706  1
  O  O275  1  0.36856844  0.00106058  0.25680593  1
  O  O276  1  0.36378562  0.01033512  0.75471550  1
  O  O277  1  0.36302259  0.50995887  0.24908399  1
  O  O278  1  0.38120342  0.51397736  0.75877220  1
  O  O279  1  0.87194915  0.00600124  0.25386227  1
  O  O280  1  0.87154995  0.00685549  0.75507401  1
  O  O281  1  0.87573658  0.51544864  0.26014742  1
  O  O282  1  0.86516589  0.49634817  0.75713665  1
  O  O283  1  0.10721913  0.38307928  0.37979163  1
  O  O284  1  0.11086562  0.38372870  0.87512417  1
  O  O285  1  0.11823547  0.87335048  0.36677550  1
  O  O286  1  0.11385409  0.86810271  0.87869927  1
  O  O287  1  0.61404905  0.38469307  0.36151150  1
  O  O288  1  0.61974968  0.36977705  0.87499538  1
  O  O289  1  0.61710855  0.86566165  0.36626191  1
  O  O290  1  0.61268409  0.87598881  0.87455145  1
  O  O291  1  0.38184503  0.12956937  0.13148093  1
  O  O292  1  0.38591124  0.11766436  0.63692441  1
  O  O293  1  0.38991122  0.62208887  0.12939800  1
  O  O294  1  0.38260348  0.61737229  0.63776085  1
  O  O295  1  0.88408921  0.13499108  0.12850474  1
  O  O296  1  0.88102094  0.13271933  0.63027019  1
  O  O297  1  0.87241455  0.63654578  0.14207759  1
  O  O298  1  0.88182212  0.63633435  0.61547256  1
  O  O299  1  0.25797978  0.24601273  0.11596654  1
  O  O300  1  0.25145142  0.23278516  0.60431560  1
  O  O301  1  0.24169234  0.75717120  0.11589938  1
  O  O302  1  0.24801024  0.76272821  0.62874857  1
  O  O303  1  0.76016416  0.26062768  0.12362731  1
  O  O304  1  0.76250888  0.24712596  0.63554110  1
  O  O305  1  0.76636019  0.75424648  0.11808681  1
  O  O306  1  0.75786908  0.75569137  0.62561298  1
  O  O307  1  0.25257327  0.23773337  0.38244215  1
  O  O308  1  0.25497186  0.23862574  0.89589103  1
  O  O309  1  0.24562323  0.73567659  0.37710429  1
  O  O310  1  0.23984204  0.74979547  0.88076923  1
  O  O311  1  0.73508843  0.24709113  0.33035957  1
  O  O312  1  0.74721352  0.24469076  0.88237899  1
  O  O313  1  0.73785748  0.74602411  0.37881834  1
  O  O314  1  0.75610831  0.73688607  0.86947619  1
  O  O315  1  -0.00345923  0.11398309  0.00756450  1
  O  O316  1  -0.00778758  0.11565070  0.50706560  1
  O  O317  1  -0.04679546  0.61183907  0.00564130  1
  O  O318  1  0.00843892  0.62932845  0.51174406  1
  O  O319  1  0.50906444  0.12951580  0.00865194  1
  O  O320  1  0.49641842  0.11960899  0.51074074  1
  O  O321  1  0.50818222  0.62633160  0.00982645  1
  O  O322  1  0.50213592  0.61961995  0.50646080  1
  O  O323  1  0.48579039  0.37903638  0.49197267  1
  O  O324  1  0.50150013  0.37377554  0.98827235  1
  O  O325  1  0.49069197  0.87790654  0.49709329  1
  O  O326  1  0.49383754  0.86836673  0.98903163  1
  O  O327  1  0.98332720  0.37333722  0.48931249  1
  O  O328  1  0.98909727  0.37007777  0.99143109  1
  O  O329  1  0.99488539  0.88203891  0.49542986  1
  O  O330  1  0.99582816  0.88857795  0.99263252  1
  O  O331  1  0.49715499  0.49239006  0.38212344  1
  O  O332  1  0.49477112  0.49196888  0.87635020  1
  O  O333  1  0.49236524  0.99126044  0.38180305  1
  O  O334  1  0.49695142  0.98194339  0.87062979  1
  O  O335  1  0.98728859  0.49342619  0.37674594  1
  O  O336  1  0.98609844  0.49357092  0.86597489  1
  O  O337  1  0.99462638  0.99262616  0.38122943  1
  O  O338  1  0.99982477  0.99708648  0.87933328  1
  O  O339  1  0.00790591  0.00870092  0.11710252  1
  O  O340  1  0.00164775  0.00794166  0.61602490  1
  O  O341  1  0.01451698  0.50161450  0.12690417  1
  O  O342  1  -0.00227631  0.51172488  0.63030068  1
  O  O343  1  0.49957838  0.01356123  0.13059283  1
  O  O344  1  0.50362225  0.00350526  0.62700942  1
  O  O345  1  0.50948419  0.50645669  0.12095331  1
  O  O346  1  0.50879984  0.50809185  0.61942389  1
  O  O347  1  0.25155496  0.38574568  0.24887097  1
  O  O348  1  0.23783284  0.33212184  0.74605296  1
  O  O349  1  0.24450413  0.87754331  0.24339841  1
  O  O350  1  0.25914548  0.88210659  0.73997326  1
  O  O351  1  0.74045595  0.37888088  0.23904229  1
  O  O352  1  0.74699246  0.38705389  0.75376761  1
  O  O353  1  0.73854945  0.88074677  0.24616317  1
  O  O354  1  0.75149815  0.87956219  0.74100273  1
  O  O355  1  0.25804479  0.11621430  0.25677474  1
  O  O356  1  0.25655605  0.12397936  0.76163290  1
  O  O357  1  0.25565338  0.61957372  0.25586286  1
  O  O358  1  0.26353399  0.63094701  0.75193838  1
  O  O359  1  0.76773385  0.11266328  0.23965645  1
  O  O360  1  0.75546064  0.11887065  0.75693892  1
  O  O361  1  0.75782669  0.63282214  0.26301900  1
  O  O362  1  0.74197215  0.61465506  0.76020565  1
  O  O363  1  0.37091708  0.11570048  0.36846955  1
  O  O364  1  0.36858120  0.11847150  0.87281077  1
  O  O365  1  0.36813854  0.62203205  0.36704962  1
  O  O366  1  0.37481212  0.61689489  0.86535308  1
  O  O367  1  0.87279906  0.12313515  0.36689058  1
  O  O368  1  0.87149562  0.12078900  0.87119312  1
  O  O369  1  0.87058855  0.62315364  0.37252279  1
  O  O370  1  0.86004652  0.61645360  0.87052494  1
  O  O371  1  0.12801722  0.38855746  0.12748533  1
  O  O372  1  0.11649060  0.39224239  0.62289776  1
  O  O373  1  0.13175129  0.88075499  0.13066507  1
  O  O374  1  0.14141252  0.87847688  0.62107630  1
  O  O375  1  0.63164217  0.38433700  0.12983087  1
  O  O376  1  0.62399012  0.38513392  0.62342292  1
  O  O377  1  0.62475369  0.87656681  0.13055351  1
  O  O378  1  0.63325253  0.87760828  0.63052754  1
  O  O379  1  0.13077700  0.25763763  0.25963481  1
  O  O380  1  0.10495115  0.24166047  0.74759171  1
  O  O381  1  0.12737774  0.76128212  0.25122260  1
  O  O382  1  0.11464927  0.75190791  0.75703224  1
  O  O383  1  0.60701208  0.26575250  0.23499079  1
  O  O384  1  0.61671840  0.24972490  0.75861231  1
  O  O385  1  0.63067718  0.75833918  0.25593662  1
  O  O386  1  0.60966251  0.74782111  0.74626150  1
  O  O387  1  0.38280536  0.24493214  0.23982414  1
  O  O388  1  0.38366346  0.23458285  0.76118808  1
  O  O389  1  0.37070965  0.73648890  0.25137436  1
  O  O390  1  0.38675902  0.73339935  0.75417367  1
  O  O391  1  0.87820098  0.24479604  0.23688963  1
  O  O392  1  0.88250813  0.24591119  0.74234023  1
  O  O393  1  0.87434721  0.74726618  0.24419688  1
  O  O394  1  0.88692763  0.75542409  0.73665793  1
  O  O395  1  0.37704876  0.48693436  0.49685691  1
  O  O396  1  0.37898951  0.49792561  0.99067376  1
  O  O397  1  0.37853730  0.99015241  0.49634617  1
  O  O398  1  0.36927212  0.98082701  1.00111548  1
  O  O399  1  0.87469884  0.49013755  0.49463236  1
  O  O400  1  0.86006304  0.48286070  0.98540194  1
  O  O401  1  0.88303476  0.98971374  0.49625449  1
  O  O402  1  0.88351966  0.99424359  0.99598184  1
  O  O403  1  0.11980146  -0.00537658  0.01246991  1
  O  O404  1  0.11359632  -0.00254109  0.49942305  1
  O  O405  1  0.12980191  0.50052308  0.01170784  1
  O  O406  1  0.12915412  0.51119665  0.51299596  1
  O  O407  1  0.63098965  0.01440970  0.00185630  1
  O  O408  1  0.61114751  -0.01310230  0.51954439  1
  O  O409  1  0.62535338  0.51090260  0.01079404  1
  O  O410  1  0.61945809  0.50513942  0.50455141  1
  O  O411  1  0.37422441  0.36543516  0.12363821  1
  O  O412  1  0.38089154  0.37686947  0.61367068  1
  O  O413  1  0.36311714  0.87422716  0.12076886  1
  O  O414  1  0.36269298  0.87934851  0.61784896  1
  O  O415  1  0.87184365  0.37393373  0.11993408  1
  O  O416  1  0.87801345  0.36892267  0.61298763  1
  O  O417  1  0.87745640  0.87253956  0.11676761  1
  O  O418  1  0.87072619  0.87084136  0.61940902  1
  O  O419  1  0.13726467  0.11961944  0.37015712  1
  O  O420  1  0.13708002  0.12274284  0.87729124  1
  O  O421  1  0.13003879  0.62238553  0.38345307  1
  O  O422  1  0.12339948  0.63574347  0.87035788  1
  O  O423  1  0.63284362  0.10331989  0.38821601  1
  O  O424  1  0.62990476  0.12990252  0.88244476  1
  O  O425  1  0.63027423  0.62873645  0.37552689  1
  O  O426  1  0.63817318  0.61699403  0.88277045  1
