# generated using pymatgen
data_V85Zn86O256
_symmetry_space_group_name_H-M   'P 1'
_cell_length_a   16.91082324
_cell_length_b   16.91509978
_cell_length_c   16.90136505
_cell_angle_alpha   89.98650486
_cell_angle_beta   90.01132244
_cell_angle_gamma   89.93483882
_symmetry_Int_Tables_number   1
_chemical_formula_structural   V85Zn86O256
_chemical_formula_sum   'V85 Zn86 O256'
_cell_volume   4834.60275018
_cell_formula_units_Z   1
loop_
 _symmetry_equiv_pos_site_id
 _symmetry_equiv_pos_as_xyz
  1  'x, y, z'
loop_
 _atom_site_type_symbol
 _atom_site_label
 _atom_site_symmetry_multiplicity
 _atom_site_fract_x
 _atom_site_fract_y
 _atom_site_fract_z
 _atom_site_occupancy
  V  V0  1  0.12505717  0.38155355  0.74534613  1
  V  V1  1  0.88060926  0.00423787  0.88128198  1
  V  V2  1  0.88311588  0.87964474  0.00268579  1
  V  V3  1  0.87372368  0.62329018  0.24952749  1
  V  V4  1  0.37357981  0.37525311  -0.01238965  1
  V  V5  1  0.24575374  0.76170036  0.49533763  1
  V  V6  1  0.74208738  0.62966620  0.87472349  1
  V  V7  1  0.37327236  -0.00531118  0.38184258  1
  V  V8  1  0.12924582  -0.00044003  0.63279766  1
  V  V9  1  0.37918407  0.12150619  0.24631609  1
  V  V10  1  0.75037082  0.49629293  0.24022050  1
  V  V11  1  0.24674225  0.87570677  0.12482025  1
  V  V12  1  0.62898705  0.61983371  0.50495873  1
  V  V13  1  0.50500317  0.49727899  0.50331713  1
  V  V14  1  0.24637800  0.24667247  -0.00091587  1
  V  V15  1  0.00337927  0.11451597  0.12495316  1
  V  V16  1  0.87342917  -0.00767578  0.37698835  1
  V  V17  1  0.87216123  0.49459513  0.38419555  1
  V  V18  1  0.74287195  0.75514887  -0.00324231  1
  V  V19  1  0.74199189  0.13646478  0.87959685  1
  V  V20  1  0.75038844  0.88745955  0.13056841  1
  V  V21  1  -0.00238698  0.25712731  0.75451987  1
  V  V22  1  0.74860268  0.38457330  0.61941955  1
  V  V23  1  0.86284071  0.37517926  -0.00050247  1
  V  V24  1  0.24848094  0.37366521  0.12320101  1
  V  V25  1  0.62089992  0.37013973  0.74102578  1
  V  V26  1  0.49652754  -0.00076491  0.00726933  1
  V  V27  1  0.38056976  0.25630240  0.63187793  1
  V  V28  1  0.50003028  0.24625007  0.24668011  1
  V  V29  1  0.75383432  0.75594203  0.49867321  1
  V  V30  1  0.24269056  -0.00014876  0.24604911  1
  V  V31  1  0.87683615  0.25660734  0.13262237  1
  V  V32  1  0.38570523  0.11846523  0.74849598  1
  V  V33  1  -0.00229314  0.49151103  -0.00161473  1
  V  V34  1  0.87389848  0.75155493  0.12478837  1
  V  V35  1  0.24901463  0.50067167  0.24853564  1
  V  V36  1  0.50400906  0.00951396  0.50022147  1
  V  V37  1  0.61656264  0.13287007  0.00836120  1
  V  V38  1  0.74772762  0.12010845  0.37230964  1
  V  V39  1  0.87308637  0.12929938  0.75238182  1
  V  V40  1  0.12191967  0.24815662  0.37139729  1
  V  V41  1  0.62606108  0.88172417  0.25412866  1
  V  V42  1  0.62753676  0.37274109  0.23914876  1
  V  V43  1  0.49941943  0.37478582  0.37088868  1
  V  V44  1  0.12022843  0.11061445  0.00081139  1
  V  V45  1  0.24912592  0.11740530  0.86455484  1
  V  V46  1  0.87477836  0.62623565  0.74962359  1
  V  V47  1  0.75872047  0.88032560  0.62322994  1
  V  V48  1  0.37822106  0.24651605  0.12275530  1
  V  V49  1  0.87478076  0.25738626  0.61897350  1
  V  V50  1  0.11878056  0.37141459  0.24803878  1
  V  V51  1  0.61793564  0.51135532  0.12170477  1
  V  V52  1  0.37566217  0.50179417  0.37523412  1
  V  V53  1  0.62379806  0.24641777  0.37888940  1
  V  V54  1  0.49433395  0.50694746  -0.00693808  1
  V  V55  1  0.49808917  0.87118004  0.38965662  1
  V  V56  1  0.12032772  0.25392783  0.87709907  1
  V  V57  1  0.26227793  0.88002816  0.63279439  1
  V  V58  1  0.23642310  0.62803227  0.38229600  1
  V  V59  1  0.51059322  0.36144323  0.87336069  1
  V  V60  1  0.00200905  0.75470594  0.75090849  1
  V  V61  1  0.62945892  0.01009777  0.61858715  1
  V  V62  1  0.00002853  0.12683823  0.62434607  1
  V  V63  1  -0.00592190  0.36890587  0.37755683  1
  V  V64  1  0.74755343  0.00187720  0.75470546  1
  V  V65  1  0.75159478  0.25099245  0.49767416  1
  V  V66  1  0.25057651  0.74705448  0.00120300  1
  V  V67  1  0.12709754  0.75015423  0.87463819  1
  V  V68  1  0.37967427  0.62459409  0.24397082  1
  V  V69  1  0.25365381  0.61540922  0.87393202  1
  V  V70  1  0.87854831  0.12130750  0.25065629  1
  V  V71  1  0.74986204  0.62389954  0.37454711  1
  V  V72  1  0.00097507  0.62402645  0.12267617  1
  V  V73  1  0.01408342  0.49927632  0.50262617  1
  V  V74  1  0.50207917  0.74960730  0.24470627  1
  V  V75  1  0.00456063  0.74734282  0.25795120  1
  V  V76  1  0.37671565  0.62008626  0.75030572  1
  V  V77  1  0.50012932  0.62493316  0.62406406  1
  V  V78  1  0.87550069  0.49693975  0.87242949  1
  V  V79  1  0.88037951  0.75337053  0.61901345  1
  V  V80  1  0.12436085  0.12499695  0.50065500  1
  V  V81  1  0.12494994  0.87176093  0.25734433  1
  V  V82  1  0.24893926  0.12427171  0.37483919  1
  V  V83  1  0.01425367  0.62241721  0.62192566  1
  V  V84  1  -0.00347696  -0.01055845  0.50240742  1
  Zn  Zn85  1  0.61126781  0.63739351  -0.00646547  1
  Zn  Zn86  1  0.12395239  0.49715891  0.12197351  1
  Zn  Zn87  1  0.62052340  0.00731627  0.13294104  1
  Zn  Zn88  1  0.62316665  0.74957502  0.37860839  1
  Zn  Zn89  1  0.50917458  0.86859692  0.87799247  1
  Zn  Zn90  1  0.25217527  0.25100804  0.50212175  1
  Zn  Zn91  1  0.74370759  0.25539782  0.00542216  1
  Zn  Zn92  1  0.37656662  0.75057111  0.61917486  1
  Zn  Zn93  1  0.24425898  0.38124723  0.61634910  1
  Zn  Zn94  1  0.37362314  0.37317533  0.49987142  1
  Zn  Zn95  1  0.62769019  0.86758173  0.75852011  1
  Zn  Zn96  1  0.00469149  0.88107643  0.88090889  1
  Zn  Zn97  1  0.50695178  0.74841226  0.76322785  1
  Zn  Zn98  1  0.37479269  0.87435547  -0.00136030  1
  Zn  Zn99  1  0.74416543  0.50179583  0.74652952  1
  Zn  Zn100  1  0.12335399  0.62117805  -0.00138273  1
  Zn  Zn101  1  0.51001115  0.13230817  0.62670199  1
  Zn  Zn102  1  0.37693201  0.74761802  0.12461270  1
  Zn  Zn103  1  0.37487612  -0.00893949  0.86984965  1
  Zn  Zn104  1  0.13230572  0.87969680  0.75369546  1
  Zn  Zn105  1  0.00046365  0.86713537  0.38272542  1
  Zn  Zn106  1  0.25376210  0.49941155  0.74444115  1
  Zn  Zn107  1  0.18551760  0.18626662  0.18697290  1
  Zn  Zn108  1  0.19126197  0.19334869  0.68703815  1
  Zn  Zn109  1  0.18683056  0.68589305  0.18953236  1
  Zn  Zn110  1  0.19297633  0.69184817  0.68648419  1
  Zn  Zn111  1  0.69384603  0.18712695  0.18815850  1
  Zn  Zn112  1  0.68748688  0.19325863  0.69007278  1
  Zn  Zn113  1  0.68621514  0.69211175  0.18593572  1
  Zn  Zn114  1  0.68914985  0.68468997  0.68524605  1
  Zn  Zn115  1  0.30935210  0.31199385  0.31230986  1
  Zn  Zn116  1  0.30974604  0.30693157  0.81014580  1
  Zn  Zn117  1  0.31419667  0.81034408  0.31489310  1
  Zn  Zn118  1  0.32371068  0.80679717  0.81079069  1
  Zn  Zn119  1  0.81142073  0.31122708  0.30809226  1
  Zn  Zn120  1  0.80822083  0.31705740  0.81120444  1
  Zn  Zn121  1  0.81321808  0.81228097  0.31142583  1
  Zn  Zn122  1  0.81385572  0.81554095  0.81407314  1
  Zn  Zn123  1  0.19005998  0.43523145  0.43514880  1
  Zn  Zn124  1  0.18287983  0.43472395  0.93409342  1
  Zn  Zn125  1  0.18415020  0.93825421  0.43933288  1
  Zn  Zn126  1  0.19038295  0.93597985  0.93702889  1
  Zn  Zn127  1  0.68685349  0.43321101  0.43251611  1
  Zn  Zn128  1  0.68427498  0.44285383  0.93446608  1
  Zn  Zn129  1  0.68661849  0.93688737  0.43929070  1
  Zn  Zn130  1  0.68726574  0.94431999  0.94253413  1
  Zn  Zn131  1  0.30902163  0.06193192  0.06210763  1
  Zn  Zn132  1  0.31456319  0.06459703  0.56435585  1
  Zn  Zn133  1  0.31311303  0.56081033  0.06105054  1
  Zn  Zn134  1  0.31035124  0.55819040  0.56373122  1
  Zn  Zn135  1  0.81188750  0.06693621  0.06242717  1
  Zn  Zn136  1  0.81373611  0.06948867  0.55866089  1
  Zn  Zn137  1  0.80947212  0.56524576  0.05964082  1
  Zn  Zn138  1  0.81978868  0.56614903  0.56223218  1
  Zn  Zn139  1  0.43724018  0.43607369  0.18169547  1
  Zn  Zn140  1  0.43916564  0.44035519  0.69020535  1
  Zn  Zn141  1  0.43559522  0.93430199  0.18848286  1
  Zn  Zn142  1  0.44431977  0.93804589  0.68952682  1
  Zn  Zn143  1  0.93760286  0.43638080  0.18842037  1
  Zn  Zn144  1  0.93782583  0.43741046  0.68561742  1
  Zn  Zn145  1  0.93890396  0.93834509  0.19153625  1
  Zn  Zn146  1  0.93754437  0.93924819  0.69074338  1
  Zn  Zn147  1  0.05803120  0.06049076  0.31093307  1
  Zn  Zn148  1  0.06095668  0.06826593  0.81238759  1
  Zn  Zn149  1  0.06063130  0.55659688  0.31154675  1
  Zn  Zn150  1  0.05935246  0.56632235  0.81453111  1
  Zn  Zn151  1  0.56030957  0.06238790  0.31479644  1
  Zn  Zn152  1  0.56427084  0.05541746  0.82033294  1
  Zn  Zn153  1  0.56384651  0.56416172  0.31395076  1
  Zn  Zn154  1  0.56170447  0.55498424  0.81054187  1
  Zn  Zn155  1  0.43461563  0.18746368  0.43872413  1
  Zn  Zn156  1  0.43697381  0.18348279  0.93581660  1
  Zn  Zn157  1  0.43312750  0.68708573  0.43896573  1
  Zn  Zn158  1  0.43391036  0.69313904  0.93201156  1
  Zn  Zn159  1  0.93641534  0.18507876  0.43823907  1
  Zn  Zn160  1  0.93656055  0.18977239  0.94225083  1
  Zn  Zn161  1  0.93886899  0.68088562  0.43899694  1
  Zn  Zn162  1  0.93391472  0.68789393  0.93734477  1
  Zn  Zn163  1  0.05495607  0.30772956  0.06257095  1
  Zn  Zn164  1  0.06100049  0.31401440  0.55950719  1
  Zn  Zn165  1  0.06649776  0.81225402  0.06803859  1
  Zn  Zn166  1  0.07360943  0.81047050  0.56352634  1
  Zn  Zn167  1  0.55975852  0.31543843  0.06220538  1
  Zn  Zn168  1  0.56108962  0.31167425  0.56090839  1
  Zn  Zn169  1  0.56326723  0.81849327  0.06568954  1
  Zn  Zn170  1  0.58161046  0.80155216  0.59315265  1
  O  O171  1  0.11163868  0.13058775  0.11785623  1
  O  O172  1  0.12234814  0.12112780  0.62015754  1
  O  O173  1  0.11154674  0.62222617  0.12392385  1
  O  O174  1  0.11289696  0.62841297  0.63247861  1
  O  O175  1  0.63037422  0.12452239  0.11375879  1
  O  O176  1  0.62956112  0.11598297  0.62779814  1
  O  O177  1  0.62593861  0.61440337  0.12212664  1
  O  O178  1  0.62130245  0.61894517  0.61102076  1
  O  O179  1  0.37997805  0.38611888  0.37021994  1
  O  O180  1  0.38024430  0.36827184  0.88355753  1
  O  O181  1  0.38376818  0.88477986  0.37065529  1
  O  O182  1  0.37869751  0.87523831  0.88073885  1
  O  O183  1  0.88456330  0.38081246  0.36604892  1
  O  O184  1  0.87074727  0.38500767  0.88360966  1
  O  O185  1  0.87781622  0.88852692  0.36959491  1
  O  O186  1  0.87701098  0.88482996  0.88539798  1
  O  O187  1  0.25631668  0.00363680  0.37027248  1
  O  O188  1  0.25378003  0.01327942  0.87964114  1
  O  O189  1  0.25678978  0.50787784  0.36899310  1
  O  O190  1  0.24172230  0.51258159  0.87126309  1
  O  O191  1  0.75903320  0.00934271  0.38441206  1
  O  O192  1  0.76023344  0.01067501  0.86926089  1
  O  O193  1  0.75589817  0.50254514  0.36542350  1
  O  O194  1  0.76080826  0.51011783  0.87565330  1
  O  O195  1  0.24653532  0.49194291  0.12948398  1
  O  O196  1  0.25030598  0.49395405  0.63072535  1
  O  O197  1  0.25305239  0.99151790  0.13598386  1
  O  O198  1  0.24382725  0.98753452  0.61678596  1
  O  O199  1  0.74295161  0.50461029  0.13513211  1
  O  O200  1  0.75804012  0.48746610  0.62066811  1
  O  O201  1  0.74998921  0.99010010  0.12553744  1
  O  O202  1  0.75213340  0.99860317  0.62943118  1
  O  O203  1  0.01168755  0.38034258  0.25937101  1
  O  O204  1  0.00644705  0.36379334  0.74688371  1
  O  O205  1  0.00744799  0.86467290  0.24979811  1
  O  O206  1  0.00174746  0.86348379  0.75164885  1
  O  O207  1  0.50551941  0.36808003  0.25264106  1
  O  O208  1  0.50886935  0.37888731  0.76220606  1
  O  O209  1  0.50618755  0.86816403  0.25983800  1
  O  O210  1  0.50650364  0.87170508  0.75296286  1
  O  O211  1  0.48727437  0.12932918  0.25297693  1
  O  O212  1  0.48941766  0.12172428  0.75122112  1
  O  O213  1  0.49242910  0.63513721  0.25750652  1
  O  O214  1  0.49872346  0.62244107  0.73925805  1
  O  O215  1  0.99479779  0.12529305  0.23786514  1
  O  O216  1  0.99398349  0.13673034  0.74271470  1
  O  O217  1  0.99509362  0.62799613  0.24375268  1
  O  O218  1  0.99490282  0.63611492  0.74422870  1
  O  O219  1  0.36912841  0.25328337  0.00606709  1
  O  O220  1  0.37373567  0.24927711  0.51325085  1
  O  O221  1  0.36083884  0.74781738  0.00489623  1
  O  O222  1  0.35342578  0.74086151  0.50140614  1
  O  O223  1  0.87298493  0.26054702  0.00854280  1
  O  O224  1  0.86737813  0.24855061  0.50811611  1
  O  O225  1  0.86722111  0.75878624  0.00606559  1
  O  O226  1  0.87122703  0.74395296  0.51137590  1
  O  O227  1  0.12465672  0.24359810  0.48904668  1
  O  O228  1  0.12639866  0.24545983  0.99262405  1
  O  O229  1  0.14508514  0.74421799  0.50286409  1
  O  O230  1  0.13317824  0.74727601  0.99395445  1
  O  O231  1  0.62959816  0.25331464  0.48473009  1
  O  O232  1  0.62467822  0.23856338  1.00614949  1
  O  O233  1  0.63874681  0.74132409  0.50282664  1
  O  O234  1  0.63878004  0.75090043  1.00994084  1
  O  O235  1  0.48564604  0.25483347  0.12987948  1
  O  O236  1  0.48754349  0.24731496  0.62152097  1
  O  O237  1  0.49800143  0.75556352  0.13984835  1
  O  O238  1  0.49308769  0.72992766  0.60545817  1
  O  O239  1  0.98329294  0.23908854  0.12219225  1
  O  O240  1  0.99176950  0.24698370  0.62886723  1
  O  O241  1  0.99422597  0.74190752  0.13300387  1
  O  O242  1  0.99707544  0.74595376  0.62881630  1
  O  O243  1  0.00529790  0.26008122  0.38041279  1
  O  O244  1  0.00651804  0.24242685  0.86545181  1
  O  O245  1  -0.00848456  0.74862623  0.36293263  1
  O  O246  1  0.00705070  0.75040241  0.86782973  1
  O  O247  1  0.50588106  0.25260839  0.36828976  1
  O  O248  1  0.49896377  0.26330233  0.87898471  1
  O  O249  1  0.49915806  0.75727468  0.37080340  1
  O  O250  1  0.51063551  0.75009359  0.87840410  1
  O  O251  1  0.24087659  0.12436881  0.49320565  1
  O  O252  1  0.23964793  0.13044809  0.99568278  1
  O  O253  1  0.25118342  0.62423609  0.48437782  1
  O  O254  1  0.24704900  0.62907721  0.99287104  1
  O  O255  1  0.75369148  0.13977559  0.48674000  1
  O  O256  1  0.73838186  0.12620866  0.99460017  1
  O  O257  1  0.74663939  0.63065157  0.49627284  1
  O  O258  1  0.74973955  0.63719351  0.99157793  1
  O  O259  1  0.25571897  0.36888934  0.00092538  1
  O  O260  1  0.25533541  0.36996696  0.49811933  1
  O  O261  1  0.24871367  0.86651809  0.00897237  1
  O  O262  1  0.24782390  0.86722247  0.50497736  1
  O  O263  1  0.75846371  0.37733344  -0.00059105  1
  O  O264  1  0.74409654  0.36299099  0.50480623  1
  O  O265  1  0.75936048  0.87198559  0.00962837  1
  O  O266  1  0.75193792  0.86368756  0.50504211  1
  O  O267  1  0.13064329  0.48948259  0.24699874  1
  O  O268  1  0.11601270  0.48242650  0.75857562  1
  O  O269  1  0.13633323  0.99375593  0.25474996  1
  O  O270  1  0.12002795  1.00193037  0.73685055  1
  O  O271  1  0.62911261  0.49459753  0.24261770  1
  O  O272  1  0.62997713  0.47992331  0.75647915  1
  O  O273  1  0.61968058  0.98705082  0.25132095  1
  O  O274  1  0.63974247  1.00536529  0.74326172  1
  O  O275  1  0.36778727  0.00622546  0.25824039  1
  O  O276  1  0.37532952  0.01494362  0.74828703  1
  O  O277  1  0.37125669  0.50402016  0.25404291  1
  O  O278  1  0.37627866  0.51358696  0.75154886  1
  O  O279  1  0.88017699  0.01232409  0.26028424  1
  O  O280  1  0.86546454  0.00881056  0.75483540  1
  O  O281  1  0.86699667  0.50363841  0.25476638  1
  O  O282  1  0.87369671  0.50528887  0.75702908  1
  O  O283  1  0.11798332  0.36670759  0.36836992  1
  O  O284  1  0.12355846  0.36034349  0.86698903  1
  O  O285  1  0.12165584  0.87733577  0.36293307  1
  O  O286  1  0.12391232  0.86540519  0.87319216  1
  O  O287  1  0.61858452  0.36681609  0.36151653  1
  O  O288  1  0.61530754  0.37239962  0.87161153  1
  O  O289  1  0.61823127  0.87140614  0.37072928  1
  O  O290  1  0.62708546  0.88705130  0.87024272  1
  O  O291  1  0.36603139  0.13392157  0.13564934  1
  O  O292  1  0.37679366  0.13212989  0.63651077  1
  O  O293  1  0.36977704  0.62453287  0.13984579  1
  O  O294  1  0.38391799  0.62306914  0.63015957  1
  O  O295  1  0.88275097  0.12932399  0.13187121  1
  O  O296  1  0.87801846  0.13741463  0.63191358  1
  O  O297  1  0.88327067  0.62876872  0.12931433  1
  O  O298  1  0.88365069  0.63454396  0.63168818  1
  O  O299  1  0.25692942  0.25444517  0.12016304  1
  O  O300  1  0.26372858  0.25603509  0.62297008  1
  O  O301  1  0.24848910  0.75379755  0.11741091  1
  O  O302  1  0.25202420  0.76503822  0.61613856  1
  O  O303  1  0.77043296  0.24298673  0.12204079  1
  O  O304  1  0.75579915  0.25624228  0.61565510  1
  O  O305  1  0.75758784  0.75805201  0.11903707  1
  O  O306  1  0.76207912  0.75850248  0.61842129  1
  O  O307  1  0.24127694  0.24108439  0.37535107  1
  O  O308  1  0.24102034  0.24019147  0.88052099  1
  O  O309  1  0.25099806  0.73934661  0.38233709  1
  O  O310  1  0.24309105  0.74355844  0.88157527  1
  O  O311  1  0.74363505  0.24644931  0.37902445  1
  O  O312  1  0.75605766  0.23923196  0.88021896  1
  O  O313  1  0.75311676  0.74353810  0.38414701  1
  O  O314  1  0.75639359  0.74396246  0.88439077  1
  O  O315  1  0.00668967  0.12759272  0.01219629  1
  O  O316  1  0.00678883  0.11815939  0.50646888  1
  O  O317  1  -0.00297955  0.61671292  0.00800851  1
  O  O318  1  -0.00166163  0.61052745  0.50696838  1
  O  O319  1  0.51026000  0.12034132  0.00043860  1
  O  O320  1  0.49956149  0.11332441  0.50016850  1
  O  O321  1  0.49462935  0.61076793  -0.00400581  1
  O  O322  1  0.50936713  0.61554235  0.49911703  1
  O  O323  1  0.49898728  0.38157636  0.48986515  1
  O  O324  1  0.49350677  0.37914543  0.98943557  1
  O  O325  1  0.50669815  0.88377396  0.49062551  1
  O  O326  1  0.49716566  0.88730002  1.00328104  1
  O  O327  1  1.00076510  0.38695717  0.49143966  1
  O  O328  1  0.98789446  0.38698713  1.00491287  1
  O  O329  1  1.00660928  0.88506740  0.50227198  1
  O  O330  1  0.98729432  0.86911024  1.00342060  1
  O  O331  1  0.49335951  0.49541299  0.37881675  1
  O  O332  1  0.50228262  0.48827281  0.88915127  1
  O  O333  1  0.49278561  0.99388943  0.38150188  1
  O  O334  1  0.49489275  1.00079482  0.89300052  1
  O  O335  1  0.99267820  0.49301147  0.38317875  1
  O  O336  1  0.98489220  0.50895721  0.88439746  1
  O  O337  1  0.99281016  0.99764176  0.38528363  1
  O  O338  1  0.98543730  1.00029010  0.86701236  1
  O  O339  1  -0.00402172  0.01482675  0.12588841  1
  O  O340  1  0.00502208  0.00618204  0.62045389  1
  O  O341  1  -0.00151878  0.50730584  0.11782519  1
  O  O342  1  -0.00477247  0.50550741  0.61081411  1
  O  O343  1  0.49889740  -0.00139480  0.11462870  1
  O  O344  1  0.51201999  0.00316325  0.61644745  1
  O  O345  1  0.50733382  0.49291021  0.10914616  1
  O  O346  1  0.49707197  0.50660633  0.61040057  1
  O  O347  1  0.23925498  0.37949933  0.24554083  1
  O  O348  1  0.23385147  0.37539064  0.75416038  1
  O  O349  1  0.24447134  0.87959158  0.24774131  1
  O  O350  1  0.25226290  0.87073217  0.73612015  1
  O  O351  1  0.74018418  0.38452364  0.25323483  1
  O  O352  1  0.74154497  0.37720164  0.73789769  1
  O  O353  1  0.74015158  0.86855419  0.24239069  1
  O  O354  1  0.75361159  0.88594610  0.74191694  1
  O  O355  1  0.25419126  0.11652872  0.25431088  1
  O  O356  1  0.25837908  0.12989512  0.75801784  1
  O  O357  1  0.25665538  0.62052874  0.25898212  1
  O  O358  1  0.25733863  0.62594470  0.75713804  1
  O  O359  1  0.76155803  0.12844780  0.26329158  1
  O  O360  1  0.75411480  0.12264940  0.75945449  1
  O  O361  1  0.75290230  0.61896985  0.25492141  1
  O  O362  1  0.75588271  0.62377849  0.75458767  1
  O  O363  1  0.36836654  0.11893788  0.36595439  1
  O  O364  1  0.36758390  0.12776862  0.86149753  1
  O  O365  1  0.36970584  0.61372464  0.36576544  1
  O  O366  1  0.36300575  0.62840521  0.86688481  1
  O  O367  1  0.87159115  0.11890937  0.36749611  1
  O  O368  1  0.86881110  0.12103407  0.87318034  1
  O  O369  1  0.86938923  0.61449832  0.36869690  1
  O  O370  1  0.86609405  0.62112033  0.86776988  1
  O  O371  1  0.12762294  0.37034290  0.13221412  1
  O  O372  1  0.12422183  0.36600416  0.64139202  1
  O  O373  1  0.13708471  0.87181801  0.13836737  1
  O  O374  1  0.13601514  0.88437916  0.62909902  1
  O  O375  1  0.62212554  0.38359542  0.13455469  1
  O  O376  1  0.63110291  0.37195587  0.63210210  1
  O  O377  1  0.63416807  0.87908579  0.13548142  1
  O  O378  1  0.64579693  0.89376703  0.62251494  1
  O  O379  1  0.12778838  0.25559447  0.26239257  1
  O  O380  1  0.11639173  0.25505758  0.75702856  1
  O  O381  1  0.11486364  0.75598267  0.24786069  1
  O  O382  1  0.11888896  0.75277021  0.75771143  1
  O  O383  1  0.62171151  0.25596150  0.25274195  1
  O  O384  1  0.62974820  0.26894526  0.75330038  1
  O  O385  1  0.61787088  0.75789561  0.25444081  1
  O  O386  1  0.61290070  0.76201678  0.70814802  1
  O  O387  1  0.37702497  0.24220910  0.24337401  1
  O  O388  1  0.37419254  0.24105760  0.73843050  1
  O  O389  1  0.38278302  0.74092979  0.25130865  1
  O  O390  1  0.38298570  0.73544883  0.74094247  1
  O  O391  1  0.87517368  0.24145597  0.24031182  1
  O  O392  1  0.88033109  0.24865810  0.74486341  1
  O  O393  1  0.88061084  0.74252220  0.24347269  1
  O  O394  1  0.88224161  0.74828823  0.74031296  1
  O  O395  1  0.38505108  0.49915447  0.48879108  1
  O  O396  1  0.38563681  0.48901336  1.00457407  1
  O  O397  1  0.38209210  1.00545165  0.48817663  1
  O  O398  1  0.38585314  1.00330795  1.00084684  1
  O  O399  1  0.87948122  0.50088753  0.48661513  1
  O  O400  1  0.87728848  0.49375602  0.99558320  1
  O  O401  1  0.88645430  1.00740913  0.49227275  1
  O  O402  1  0.87025361  0.99361910  0.99238394  1
  O  O403  1  0.12372860  0.01123294  -0.00503604  1
  O  O404  1  0.11669533  0.00627326  0.50942612  1
  O  O405  1  0.11268001  0.49941885  0.00010176  1
  O  O406  1  0.11241231  0.49865737  0.49345923  1
  O  O407  1  0.61401092  0.01148224  0.00843269  1
  O  O408  1  0.61821950  0.00164200  0.50608260  1
  O  O409  1  0.61336216  0.50311821  0.00571589  1
  O  O410  1  0.61681334  0.50606478  0.48948983  1
  O  O411  1  0.36737694  0.36636568  0.11523696  1
  O  O412  1  0.37817225  0.36441297  0.62682034  1
  O  O413  1  0.36011536  0.86950373  0.12649386  1
  O  O414  1  0.36471883  0.87808486  0.62408681  1
  O  O415  1  0.87828978  0.36359281  0.12099341  1
  O  O416  1  0.86600582  0.36399749  0.62935126  1
  O  O417  1  0.86966328  0.87253728  0.12269628  1
  O  O418  1  0.86779582  0.86991421  0.62666512  1
  O  O419  1  0.12622396  0.13055490  0.37851816  1
  O  O420  1  0.13041843  0.13211128  0.88001759  1
  O  O421  1  0.13844448  0.62060145  0.36842617  1
  O  O422  1  0.13081089  0.63634135  0.87555182  1
  O  O423  1  0.63444440  0.13467109  0.36577752  1
  O  O424  1  0.63269510  0.12068343  0.89049998  1
  O  O425  1  0.63323915  0.62764431  0.38479588  1
  O  O426  1  0.63840132  0.61893967  0.87498852  1
