# generated using pymatgen
data_V85Zn86O256
_symmetry_space_group_name_H-M   'P 1'
_cell_length_a   16.96513056
_cell_length_b   16.95328749
_cell_length_c   16.94975950
_cell_angle_alpha   89.98575211
_cell_angle_beta   90.08258421
_cell_angle_gamma   89.92530148
_symmetry_Int_Tables_number   1
_chemical_formula_structural   V85Zn86O256
_chemical_formula_sum   'V85 Zn86 O256'
_cell_volume   4874.99123744
_cell_formula_units_Z   1
loop_
 _symmetry_equiv_pos_site_id
 _symmetry_equiv_pos_as_xyz
  1  'x, y, z'
loop_
 _atom_site_type_symbol
 _atom_site_label
 _atom_site_symmetry_multiplicity
 _atom_site_fract_x
 _atom_site_fract_y
 _atom_site_fract_z
 _atom_site_occupancy
  V  V0  1  0.25294007  0.49628177  0.24718788  1
  V  V1  1  0.38049904  0.37568900  0.49753346  1
  V  V2  1  0.12003993  0.13212693  -0.00796980  1
  V  V3  1  0.87293263  0.12822583  0.75590222  1
  V  V4  1  0.75233435  0.75227298  0.00874680  1
  V  V5  1  0.37725941  0.24710916  0.63106040  1
  V  V6  1  0.38035805  -0.00648786  0.37419662  1
  V  V7  1  0.61540635  0.00649973  0.12571262  1
  V  V8  1  0.13053950  0.25190348  0.37868967  1
  V  V9  1  0.61146056  0.12208967  -0.00728555  1
  V  V10  1  0.87757898  0.49982916  0.37427079  1
  V  V11  1  0.87302918  0.49880013  0.87104894  1
  V  V12  1  0.74214041  0.37780554  0.61674503  1
  V  V13  1  0.62120758  0.12666270  0.49866445  1
  V  V14  1  -0.00300447  0.00206637  -0.00031769  1
  V  V15  1  0.25312560  0.38709220  0.63036404  1
  V  V16  1  0.38067244  0.12759818  0.23633699  1
  V  V17  1  0.62326144  0.75202285  0.87749293  1
  V  V18  1  -0.00554589  0.50771585  0.00406137  1
  V  V19  1  0.86939259  0.00150157  0.87787851  1
  V  V20  1  0.25445764  0.63023485  0.37200899  1
  V  V21  1  0.25534214  0.24999602  0.50126897  1
  V  V22  1  0.75380308  0.00298376  0.26217773  1
  V  V23  1  0.74901458  0.50250498  0.24984189  1
  V  V24  1  0.62809840  0.61861456  0.51723582  1
  V  V25  1  0.37672850  0.87993572  -0.00129149  1
  V  V26  1  0.87473671  0.63347350  0.74475792  1
  V  V27  1  0.62599267  0.62776843  -0.00085341  1
  V  V28  1  0.87437161  0.87571556  0.49602465  1
  V  V29  1  -0.00000001  0.36500244  0.86856214  1
  V  V30  1  0.62526938  0.87521806  0.75125849  1
  V  V31  1  0.25445200  0.86445599  0.61772659  1
  V  V32  1  0.12821920  0.50108484  0.12268395  1
  V  V33  1  0.49924966  0.87902824  0.87793778  1
  V  V34  1  0.37756310  0.00748589  0.87272038  1
  V  V35  1  0.74462390  0.23717265  -0.01250013  1
  V  V36  1  0.87136877  0.37348104  0.00063126  1
  V  V37  1  0.00129908  0.12675720  0.63365597  1
  V  V38  1  -0.00246759  -0.00174678  0.49688559  1
  V  V39  1  0.49394335  0.37264885  0.87712658  1
  V  V40  1  0.25450068  0.12449227  0.37612562  1
  V  V41  1  0.61203777  0.87094627  0.25511226  1
  V  V42  1  0.49549741  0.74050690  0.74470690  1
  V  V43  1  0.62221331  0.24439019  0.37314222  1
  V  V44  1  0.00109603  0.25087443  0.25005592  1
  V  V45  1  0.25080385  0.25114470  0.00986556  1
  V  V46  1  0.86960088  0.25183710  0.63189284  1
  V  V47  1  0.13125635  0.62444006  0.49998363  1
  V  V48  1  0.75599542  0.74830367  0.50482770  1
  V  V49  1  0.12280909  0.00290113  0.12527796  1
  V  V50  1  -0.00268359  0.63093032  0.62072745  1
  V  V51  1  0.36264611  0.60703645  0.75102446  1
  V  V52  1  0.75057123  0.62542290  0.87509480  1
  V  V53  1  0.79597233  0.18881658  0.44162906  1
  V  V54  1  0.00486834  0.37638937  0.38166624  1
  V  V55  1  0.12674696  0.75202624  0.37897869  1
  V  V56  1  0.12176435  0.87638546  0.25170043  1
  V  V57  1  0.50705818  0.49903266  0.51183167  1
  V  V58  1  0.37144837  0.74628132  0.12127816  1
  V  V59  1  0.74822557  0.37284847  0.12306545  1
  V  V60  1  0.24632445  0.13255009  0.86902928  1
  V  V61  1  0.49668566  0.12216336  0.62837833  1
  V  V62  1  0.23184651  0.75423568  -0.01695058  1
  V  V63  1  0.49418993  0.62862310  0.12242808  1
  V  V64  1  0.87428780  0.63206609  0.24283004  1
  V  V65  1  0.50165785  -0.01150142  0.49847977  1
  V  V66  1  0.75030695  0.62853683  0.37633311  1
  V  V67  1  0.50211903  0.37809000  0.36875889  1
  V  V68  1  0.37991819  0.50595451  0.36744287  1
  V  V69  1  0.50161811  0.49681596  -0.00715016  1
  V  V70  1  0.50849196  0.24573563  0.75518956  1
  V  V71  1  0.87366094  0.87289896  0.00792899  1
  V  V72  1  0.75682942  0.87120143  0.62990682  1
  V  V73  1  0.24754099  0.87399334  0.12268443  1
  V  V74  1  -0.00451546  0.75342662  0.24684530  1
  V  V75  1  0.62398594  0.37618779  0.24896424  1
  V  V76  1  0.12531888  -0.00384419  0.62787537  1
  V  V77  1  0.74767288  0.00625492  0.75303022  1
  V  V78  1  0.24879646  0.00218325  0.24922547  1
  V  V79  1  0.00379836  0.86861393  0.87333675  1
  V  V80  1  -0.00125246  0.12723903  0.12715182  1
  V  V81  1  0.86967224  0.24521085  0.12746601  1
  V  V82  1  0.62570941  0.38077567  0.75496704  1
  V  V83  1  0.62531813  0.50258055  0.12579053  1
  V  V84  1  0.25540699  0.00239651  0.74731667  1
  Zn  Zn85  1  0.74557242  0.50328767  0.74252482  1
  Zn  Zn86  1  0.87078048  0.12260590  0.26639853  1
  Zn  Zn87  1  0.13434533  0.86409036  0.75717945  1
  Zn  Zn88  1  0.62523373  -0.00051214  0.62471838  1
  Zn  Zn89  1  0.74870665  0.87662699  0.13091736  1
  Zn  Zn90  1  0.00214645  0.50081223  0.49883310  1
  Zn  Zn91  1  0.50403813  0.24257452  0.23966517  1
  Zn  Zn92  1  0.33409806  0.41143435  -0.00874873  1
  Zn  Zn93  1  0.87212044  0.37410166  0.50018126  1
  Zn  Zn94  1  0.13225022  0.37299753  0.24741107  1
  Zn  Zn95  1  0.00361074  0.74826627  0.74846340  1
  Zn  Zn96  1  -0.00504354  0.87973704  0.37434379  1
  Zn  Zn97  1  0.25216023  0.60371975  0.88096884  1
  Zn  Zn98  1  0.37979076  0.27346514  0.11623183  1
  Zn  Zn99  1  0.12855413  0.36594422  0.75778335  1
  Zn  Zn100  1  0.12332035  0.50088386  0.62744974  1
  Zn  Zn101  1  0.43068018  0.68435438  0.28578433  1
  Zn  Zn102  1  0.00138847  0.63135770  0.12231459  1
  Zn  Zn103  1  0.13044554  0.12225962  0.50451490  1
  Zn  Zn104  1  0.61484716  0.75195529  0.37478644  1
  Zn  Zn105  1  0.37684501  0.73940249  0.61976384  1
  Zn  Zn106  1  0.37648170  0.86387887  0.49310356  1
  Zn  Zn107  1  0.18736734  0.18782598  0.18729464  1
  Zn  Zn108  1  0.18788659  0.18964355  0.69211548  1
  Zn  Zn109  1  0.18735452  0.68429491  0.18719549  1
  Zn  Zn110  1  0.18371279  0.68514260  0.69526079  1
  Zn  Zn111  1  0.68664567  0.18174810  0.18828318  1
  Zn  Zn112  1  0.68641889  0.18979365  0.68504395  1
  Zn  Zn113  1  0.68475088  0.69031781  0.18725680  1
  Zn  Zn114  1  0.68976600  0.69198352  0.69157806  1
  Zn  Zn115  1  0.31688868  0.31319108  0.30963504  1
  Zn  Zn116  1  0.31892203  0.31334098  0.81236723  1
  Zn  Zn117  1  0.30725475  0.81550777  0.30990602  1
  Zn  Zn118  1  0.31502439  0.81472468  0.80829167  1
  Zn  Zn119  1  0.81565651  0.31799354  0.30724445  1
  Zn  Zn120  1  0.80997483  0.31425720  0.81051655  1
  Zn  Zn121  1  0.80691277  0.81567553  0.31448315  1
  Zn  Zn122  1  0.81429486  0.81335202  0.81911932  1
  Zn  Zn123  1  0.19231296  0.43993811  0.43986563  1
  Zn  Zn124  1  0.16356723  0.47097786  0.91612049  1
  Zn  Zn125  1  0.18717073  0.93792170  0.43981332  1
  Zn  Zn126  1  0.18771993  0.94271097  0.93770791  1
  Zn  Zn127  1  0.68847547  0.43809645  0.43724715  1
  Zn  Zn128  1  0.68466179  0.43388030  0.93499678  1
  Zn  Zn129  1  0.68453593  0.93458433  0.43607527  1
  Zn  Zn130  1  0.68595629  0.94200790  0.94109830  1
  Zn  Zn131  1  0.30871690  0.06225462  0.05650087  1
  Zn  Zn132  1  0.31698057  0.05869755  0.56202528  1
  Zn  Zn133  1  0.30051420  0.56306429  0.04777380  1
  Zn  Zn134  1  0.32118595  0.56928223  0.55838385  1
  Zn  Zn135  1  0.80569671  0.05954534  0.07061663  1
  Zn  Zn136  1  0.81617689  0.05483871  0.57087525  1
  Zn  Zn137  1  0.81242573  0.56377617  0.06249256  1
  Zn  Zn138  1  0.81674153  0.55950329  0.56319855  1
  Zn  Zn139  1  0.43267391  0.43684462  0.17591459  1
  Zn  Zn140  1  0.43624622  0.43368792  0.69082203  1
  Zn  Zn141  1  0.43657300  0.93785992  0.18610875  1
  Zn  Zn142  1  0.43665833  0.93548328  0.68943379  1
  Zn  Zn143  1  0.93935840  0.43588102  0.18909883  1
  Zn  Zn144  1  0.93838899  0.44313358  0.68618314  1
  Zn  Zn145  1  0.93331097  0.94110438  0.19045973  1
  Zn  Zn146  1  0.93547987  0.93731300  0.68766566  1
  Zn  Zn147  1  0.06369646  0.06619835  0.31566005  1
  Zn  Zn148  1  0.06188578  0.05682866  0.81130883  1
  Zn  Zn149  1  0.06583564  0.56525724  0.30831948  1
  Zn  Zn150  1  0.06538171  0.55671020  0.79978516  1
  Zn  Zn151  1  0.56243964  0.05834756  0.31191748  1
  Zn  Zn152  1  0.56279695  0.06293983  0.81488946  1
  Zn  Zn153  1  0.56088268  0.57611203  0.31828977  1
  Zn  Zn154  1  0.56334616  0.56130308  0.81043950  1
  Zn  Zn155  1  0.43973333  0.18540580  0.43551814  1
  Zn  Zn156  1  0.43436514  0.18901245  0.93539851  1
  Zn  Zn157  1  0.44887765  0.68676069  0.45106966  1
  Zn  Zn158  1  0.43160396  0.68812589  0.93402095  1
  Zn  Zn159  1  0.95900883  0.19376492  0.45067682  1
  Zn  Zn160  1  0.93099980  0.18769329  0.93862772  1
  Zn  Zn161  1  0.93951127  0.69015844  0.43519409  1
  Zn  Zn162  1  0.93416193  0.68842483  0.93654751  1
  Zn  Zn163  1  0.06400690  0.32071406  0.05951136  1
  Zn  Zn164  1  0.08062087  0.29283507  0.59552373  1
  Zn  Zn165  1  0.05846926  0.81516576  0.06476060  1
  Zn  Zn166  1  0.06527220  0.80999553  0.56464636  1
  Zn  Zn167  1  0.56185816  0.30781720  0.06221965  1
  Zn  Zn168  1  0.56473842  0.30994447  0.56095740  1
  Zn  Zn169  1  0.56068639  0.81676759  0.06664988  1
  Zn  Zn170  1  0.57084978  0.80892521  0.56525285  1
  O  O171  1  0.11677867  0.12055418  0.12005517  1
  O  O172  1  0.11642703  0.11470323  0.62687016  1
  O  O173  1  0.11673650  0.60881113  0.13429852  1
  O  O174  1  0.12128561  0.62278657  0.61459004  1
  O  O175  1  0.62620403  0.11268088  0.11847809  1
  O  O176  1  0.61586841  0.12415800  0.61584795  1
  O  O177  1  0.61913614  0.62236964  0.11763228  1
  O  O178  1  0.63885831  0.62132419  0.61550250  1
  O  O179  1  0.38633185  0.38149481  0.37733804  1
  O  O180  1  0.38897773  0.37289680  0.88291333  1
  O  O181  1  0.36806051  0.88900194  0.37389102  1
  O  O182  1  0.38109119  0.88332513  0.87942176  1
  O  O183  1  0.88215529  0.38323967  0.37547220  1
  O  O184  1  0.87312383  0.38213974  0.88240588  1
  O  O185  1  0.87435969  0.87299099  0.39152041  1
  O  O186  1  0.88257506  0.88334680  0.88564525  1
  O  O187  1  0.25490816  0.00818107  0.37090310  1
  O  O188  1  0.25544330  0.00634449  0.86582321  1
  O  O189  1  0.26167878  0.50655410  0.36910966  1
  O  O190  1  0.26786404  0.49978829  0.94898967  1
  O  O191  1  0.74248567  -0.00063064  0.36145631  1
  O  O192  1  0.76189815  -0.00666899  0.86804622  1
  O  O193  1  0.75945032  0.50390339  0.36864139  1
  O  O194  1  0.75900022  0.50525100  0.87640812  1
  O  O195  1  0.23696169  0.50856010  0.13187222  1
  O  O196  1  0.26148093  0.48713775  0.61848118  1
  O  O197  1  0.24233220  0.99506154  0.12848995  1
  O  O198  1  0.24409737  0.99747922  0.63030063  1
  O  O199  1  0.74438431  0.49573832  0.13007847  1
  O  O200  1  0.75743614  0.48134982  0.62557181  1
  O  O201  1  0.73876207  0.99630683  0.13702019  1
  O  O202  1  0.74692182  0.99155605  0.63706799  1
  O  O203  1  -0.00280549  0.36217009  0.26135796  1
  O  O204  1  -0.01700330  0.37495801  0.76846392  1
  O  O205  1  0.00291090  0.87215713  0.25352869  1
  O  O206  1  -0.00685347  0.87514349  0.76575821  1
  O  O207  1  0.50533204  0.38092408  0.25871384  1
  O  O208  1  0.50627884  0.36833118  0.75801429  1
  O  O209  1  0.51257960  0.87750775  0.24907910  1
  O  O210  1  0.50431106  0.86776570  0.76002516  1
  O  O211  1  0.48325058  0.12355052  0.25455303  1
  O  O212  1  0.50802086  0.13223613  0.74044646  1
  O  O213  1  0.49878551  0.61109840  0.22518941  1
  O  O214  1  0.49586911  0.63778643  0.75692764  1
  O  O215  1  0.99484763  0.13611154  0.25067026  1
  O  O216  1  0.99041590  0.11691938  0.74027548  1
  O  O217  1  0.98941654  0.63518725  0.25298704  1
  O  O218  1  0.99089655  0.62426048  0.74116524  1
  O  O219  1  0.35552344  0.23956260  0.00096739  1
  O  O220  1  0.37669155  0.25493076  0.50763600  1
  O  O221  1  0.36806383  0.76503589  0.00380776  1
  O  O222  1  0.38377073  0.75217287  0.50754650  1
  O  O223  1  0.86254908  0.25226052  0.00891222  1
  O  O224  1  0.86217097  0.24551874  0.50146193  1
  O  O225  1  0.86439117  0.76053599  -0.00527457  1
  O  O226  1  0.86247975  0.75489395  0.49732620  1
  O  O227  1  0.13533668  0.24427093  0.49700213  1
  O  O228  1  0.12725767  0.23583028  1.00797716  1
  O  O229  1  0.12157790  0.74167323  0.48654597  1
  O  O230  1  0.13313628  0.76174492  0.99867096  1
  O  O231  1  0.62245850  0.23583403  0.49140834  1
  O  O232  1  0.63683794  0.23462370  1.00627379  1
  O  O233  1  0.63398361  0.73595216  0.49856295  1
  O  O234  1  0.63054154  0.74735837  0.99582480  1
  O  O235  1  0.49168237  0.25661860  0.12908819  1
  O  O236  1  0.49582343  0.24265056  0.62913414  1
  O  O237  1  0.48789785  0.74055703  0.11566085  1
  O  O238  1  0.50519479  0.75429481  0.64308565  1
  O  O239  1  0.99328430  0.24806855  0.13294761  1
  O  O240  1  0.97955078  0.23604276  0.60925241  1
  O  O241  1  1.00260898  0.75033413  0.14095393  1
  O  O242  1  1.00038542  0.73598352  0.62371243  1
  O  O243  1  0.00926110  0.25587356  0.37014594  1
  O  O244  1  -0.00794635  0.26666770  0.88429523  1
  O  O245  1  0.00863141  0.75459225  0.36496405  1
  O  O246  1  -0.00343041  0.76670279  0.87973686  1
  O  O247  1  0.50694046  0.25884126  0.36840131  1
  O  O248  1  0.49688021  0.25605672  0.86553434  1
  O  O249  1  0.51470299  0.69696070  0.35997255  1
  O  O250  1  0.50432291  0.75790242  0.86775519  1
  O  O251  1  0.25426055  0.12971561  0.49204418  1
  O  O252  1  0.23799227  0.13000075  0.98990564  1
  O  O253  1  0.24437514  0.62059285  0.48492285  1
  O  O254  1  0.25176485  0.65418009  0.99500912  1
  O  O255  1  0.74429675  0.12176901  0.50186944  1
  O  O256  1  0.74856078  0.13521857  1.00344865  1
  O  O257  1  0.74860053  0.62969579  0.49711874  1
  O  O258  1  0.74658026  0.63387111  0.99561054  1
  O  O259  1  0.23384409  0.34582897  -0.01444438  1
  O  O260  1  0.26552330  0.36840427  0.49970391  1
  O  O261  1  0.25451648  0.87173358  0.00451462  1
  O  O262  1  0.25310585  0.87993586  0.51469075  1
  O  O263  1  0.75101533  0.36336183  0.00607776  1
  O  O264  1  0.75054097  0.37433887  0.51200351  1
  O  O265  1  0.75664854  0.86890872  0.00039016  1
  O  O266  1  0.75347132  0.86881547  0.50776204  1
  O  O267  1  0.13380942  0.49647870  0.24444172  1
  O  O268  1  0.11506037  0.47687502  0.73688449  1
  O  O269  1  0.12849248  0.99805211  0.24606041  1
  O  O270  1  0.13088434  0.99296591  0.73941770  1
  O  O271  1  0.63116419  0.49834647  0.24596686  1
  O  O272  1  0.62597691  0.48683352  0.74895430  1
  O  O273  1  0.62978017  0.99410052  0.24386022  1
  O  O274  1  0.63372081  0.99393500  0.75108675  1
  O  O275  1  0.36953638  0.00773185  0.25549280  1
  O  O276  1  0.36588844  -0.00206511  0.75830722  1
  O  O277  1  0.37149837  0.49700322  0.26039187  1
  O  O278  1  0.38030692  0.50881849  0.75489558  1
  O  O279  1  0.86136010  0.00398205  0.25260440  1
  O  O280  1  0.86677372  0.00591358  0.75746476  1
  O  O281  1  0.87024552  0.50694299  0.25832516  1
  O  O282  1  0.87023922  0.51006953  0.75851823  1
  O  O283  1  0.12053873  0.37013089  0.37407204  1
  O  O284  1  0.10456918  0.37883791  0.87526826  1
  O  O285  1  0.12465584  0.86877481  0.37021942  1
  O  O286  1  0.10600016  0.88975072  0.87456298  1
  O  O287  1  0.62109490  0.36601520  0.37055958  1
  O  O288  1  0.61667147  0.37286027  0.86451273  1
  O  O289  1  0.62279570  0.87109648  0.36205262  1
  O  O290  1  0.61757292  0.87376710  0.87225996  1
  O  O291  1  0.36917979  0.11819448  0.13719058  1
  O  O292  1  0.38875084  0.13153249  0.61963242  1
  O  O293  1  0.37975600  0.63582816  0.11144506  1
  O  O294  1  0.37525241  0.62449796  0.64279945  1
  O  O295  1  0.88022007  0.13559791  0.12478369  1
  O  O296  1  0.87851660  0.12865471  0.63696523  1
  O  O297  1  0.87360164  0.62368844  0.14035027  1
  O  O298  1  0.88069344  0.62267037  0.63400197  1
  O  O299  1  0.25139945  0.24746758  0.11369884  1
  O  O300  1  0.26292505  0.25193008  0.61713062  1
  O  O301  1  0.25205430  0.75827201  0.11868267  1
  O  O302  1  0.25119964  0.76339061  0.63045050  1
  O  O303  1  0.75631840  0.25296968  0.12331122  1
  O  O304  1  0.76027675  0.25997127  0.62699552  1
  O  O305  1  0.74641761  0.75383565  0.11240676  1
  O  O306  1  0.74726835  0.75919766  0.61809606  1
  O  O307  1  0.25156959  0.24392481  0.38082102  1
  O  O308  1  0.25460206  0.23481128  0.87055304  1
  O  O309  1  0.24029241  0.74230216  0.36729546  1
  O  O310  1  0.24535145  0.76397366  0.88274745  1
  O  O311  1  0.74414285  0.25168971  0.37673199  1
  O  O312  1  0.75340917  0.24969322  0.88980219  1
  O  O313  1  0.74585542  0.74202793  0.38439959  1
  O  O314  1  0.74226872  0.74619922  0.88432182  1
  O  O315  1  0.00314358  0.12124073  0.00373513  1
  O  O316  1  0.00405405  0.11341620  0.51500074  1
  O  O317  1  -0.01274693  0.61260922  0.00359939  1
  O  O318  1  0.00839263  0.62548615  0.50263583  1
  O  O319  1  0.51254926  0.12914548  -0.00364584  1
  O  O320  1  0.50668425  0.11686302  0.50619438  1
  O  O321  1  0.50931211  0.62054771  0.00148032  1
  O  O322  1  0.52031515  0.61372121  0.50821847  1
  O  O323  1  0.50134437  0.37855521  0.48660034  1
  O  O324  1  0.51560399  0.38778942  0.99047424  1
  O  O325  1  0.50551636  0.88584869  0.50612011  1
  O  O326  1  0.49221053  0.87166449  0.98682755  1
  O  O327  1  0.99590882  0.37353425  0.48577539  1
  O  O328  1  0.98770065  0.38384752  0.99495036  1
  O  O329  1  0.99144456  0.88009298  0.50306373  1
  O  O330  1  0.99234041  0.88258384  0.99341437  1
  O  O331  1  0.49711602  0.49573786  0.37988024  1
  O  O332  1  0.50984660  0.49213014  0.88602933  1
  O  O333  1  0.49083605  1.00478208  0.38498876  1
  O  O334  1  0.48906168  0.99161797  0.86795118  1
  O  O335  1  0.99479991  0.49290809  0.37139088  1
  O  O336  1  0.98288715  0.49389211  0.88507838  1
  O  O337  1  1.00760885  1.00056999  0.39228059  1
  O  O338  1  0.98674109  0.99459397  0.88061250  1
  O  O339  1  0.00177331  0.00843027  0.12015541  1
  O  O340  1  0.00735747  0.00310178  0.62126318  1
  O  O341  1  0.00045937  0.50407038  0.12056718  1
  O  O342  1  -0.00221315  0.51242454  0.61626000  1
  O  O343  1  0.51588423  -0.00177593  0.12845345  1
  O  O344  1  0.50153933  0.00622388  0.61980978  1
  O  O345  1  0.51162991  0.50416899  0.11204988  1
  O  O346  1  0.49879762  0.48403761  0.60978690  1
  O  O347  1  0.25129136  0.39081103  0.25617407  1
  O  O348  1  0.25326092  0.36873475  0.73342921  1
  O  O349  1  0.24114465  0.88449705  0.24225535  1
  O  O350  1  0.25059201  0.88658261  0.73988758  1
  O  O351  1  0.74396840  0.38202171  0.24305075  1
  O  O352  1  0.74109673  0.37567091  0.74079505  1
  O  O353  1  0.74305914  0.88633711  0.25001444  1
  O  O354  1  0.74860301  0.88048502  0.74665515  1
  O  O355  1  0.25760472  0.12046243  0.25668151  1
  O  O356  1  0.24396438  0.11304013  0.75471354  1
  O  O357  1  0.24626854  0.61374773  0.26286862  1
  O  O358  1  0.25965391  0.61820696  0.75125665  1
  O  O359  1  0.75194255  0.11033334  0.25029093  1
  O  O360  1  0.75535285  0.11406322  0.74521245  1
  O  O361  1  0.75496240  0.62422397  0.25760478  1
  O  O362  1  0.75563242  0.62355511  0.75689443  1
  O  O363  1  0.36682349  0.11755700  0.36853446  1
  O  O364  1  0.36501571  0.11263750  0.87977996  1
  O  O365  1  0.37036000  0.62043939  0.37213353  1
  O  O366  1  0.36743114  0.63226277  0.85756325  1
  O  O367  1  0.86697216  0.14000835  0.38789948  1
  O  O368  1  0.87842511  0.11732592  0.86417944  1
  O  O369  1  0.86714385  0.61897253  0.36930452  1
  O  O370  1  0.86825321  0.61784804  0.86979132  1
  O  O371  1  0.11516038  0.39294334  0.13351217  1
  O  O372  1  0.15170656  0.38404510  0.59964065  1
  O  O373  1  0.12675708  0.88419157  0.13160185  1
  O  O374  1  0.13697307  0.88065592  0.62492711  1
  O  O375  1  0.63069341  0.38195221  0.13038112  1
  O  O376  1  0.63827263  0.36784345  0.62933273  1
  O  O377  1  0.62581805  0.88499850  0.13377880  1
  O  O378  1  0.63755283  0.87719742  0.63349077  1
  O  O379  1  0.11853524  0.25152732  0.25726885  1
  O  O380  1  0.11075859  0.26712145  0.70648950  1
  O  O381  1  0.11833305  0.75641967  0.25805892  1
  O  O382  1  0.11691377  0.75385637  0.75057840  1
  O  O383  1  0.62495223  0.25506213  0.25715445  1
  O  O384  1  0.61388958  0.25950505  0.74374055  1
  O  O385  1  0.62933080  0.76706910  0.24972501  1
  O  O386  1  0.61661232  0.75538681  0.75809613  1
  O  O387  1  0.37246937  0.23564764  0.24531084  1
  O  O388  1  0.38926454  0.25432808  0.73665841  1
  O  O389  1  0.36749344  0.75709464  0.23005657  1
  O  O390  1  0.38842071  0.75061335  0.74542970  1
  O  O391  1  0.88061483  0.24527953  0.24416796  1
  O  O392  1  0.86960930  0.23949126  0.74473116  1
  O  O393  1  0.88137378  0.74363626  0.25894501  1
  O  O394  1  0.87830114  0.73687093  0.75928120  1
  O  O395  1  0.38712653  0.49735245  0.48723102  1
  O  O396  1  0.40322211  0.51251892  1.00265126  1
  O  O397  1  0.38523055  0.99609807  0.49118011  1
  O  O398  1  0.36742492  0.98809605  0.99021499  1
  O  O399  1  0.87739102  0.49886905  0.48415383  1
  O  O400  1  0.87535286  0.49278186  0.99625882  1
  O  O401  1  0.88547530  0.99067008  0.50662201  1
  O  O402  1  0.87552691  0.99729067  0.99432848  1
  O  O403  1  0.11788136  0.01119031  0.00579649  1
  O  O404  1  0.11975935  0.00049591  0.51281145  1
  O  O405  1  0.10717006  0.49339771  0.01815093  1
  O  O406  1  0.12351025  0.51427377  0.49683333  1
  O  O407  1  0.62979630  0.01050239  0.01408633  1
  O  O408  1  0.61918980  0.00981634  0.49909574  1
  O  O409  1  0.62398146  0.50918313  0.00547740  1
  O  O410  1  0.62251847  0.50970064  0.49916149  1
  O  O411  1  0.36867292  0.38629866  0.10076882  1
  O  O412  1  0.36997141  0.36656638  0.61843919  1
  O  O413  1  0.36900110  0.87327084  0.11558286  1
  O  O414  1  0.36131657  0.87690126  0.62367347  1
  O  O415  1  0.86951808  0.36350263  0.12250857  1
  O  O416  1  0.86832974  0.36641156  0.62225613  1
  O  O417  1  0.87343189  0.88120849  0.11144784  1
  O  O418  1  0.86314600  0.87822374  0.61783439  1
  O  O419  1  0.14002809  0.13117741  0.37707149  1
  O  O420  1  0.13081887  0.11832565  0.88160834  1
  O  O421  1  0.13184987  0.63297701  0.37926216  1
  O  O422  1  0.14112725  0.57886551  0.87703343  1
  O  O423  1  0.61914453  0.13668568  0.37942494  1
  O  O424  1  0.62829419  0.11394495  0.89376626  1
  O  O425  1  0.64574390  0.61690621  0.38602980  1
  O  O426  1  0.63230235  0.63032733  0.87962939  1
