# generated using pymatgen
data_V85Zn86O256
_symmetry_space_group_name_H-M   'P 1'
_cell_length_a   16.94665735
_cell_length_b   16.95608326
_cell_length_c   16.96416024
_cell_angle_alpha   90.05814298
_cell_angle_beta   90.03821708
_cell_angle_gamma   90.03663713
_symmetry_Int_Tables_number   1
_chemical_formula_structural   V85Zn86O256
_chemical_formula_sum   'V85 Zn86 O256'
_cell_volume   4874.62875253
_cell_formula_units_Z   1
loop_
 _symmetry_equiv_pos_site_id
 _symmetry_equiv_pos_as_xyz
  1  'x, y, z'
loop_
 _atom_site_type_symbol
 _atom_site_label
 _atom_site_symmetry_multiplicity
 _atom_site_fract_x
 _atom_site_fract_y
 _atom_site_fract_z
 _atom_site_occupancy
  V  V0  1  0.75607740  0.87250684  0.12112489  1
  V  V1  1  0.36140311  0.87743433  0.00424680  1
  V  V2  1  0.49539342  0.62608043  0.62154003  1
  V  V3  1  0.74526436  0.87939031  0.62627205  1
  V  V4  1  0.49730524  0.49994201  0.49911260  1
  V  V5  1  0.86321347  0.00594251  0.37400118  1
  V  V6  1  0.87647815  0.87889692  0.50285260  1
  V  V7  1  0.37066752  0.37019227  0.49676173  1
  V  V8  1  0.11064457  0.51117210  0.11344282  1
  V  V9  1  0.62911309  0.37778775  0.75135078  1
  V  V10  1  0.49720277  0.86821607  0.87944707  1
  V  V11  1  0.88779206  0.37731384  0.50257501  1
  V  V12  1  0.25398582  0.12737497  0.37645399  1
  V  V13  1  0.25119430  0.62773174  0.37523675  1
  V  V14  1  0.49975094  0.24919362  0.24299189  1
  V  V15  1  0.50454817  -0.00237489  0.50471099  1
  V  V16  1  0.24150671  0.89332366  0.63890984  1
  V  V17  1  0.25079768  -0.00447859  0.24466070  1
  V  V18  1  0.50295360  0.37377280  0.37539787  1
  V  V19  1  0.49535415  0.75073095  0.75219927  1
  V  V20  1  0.50304282  0.75116469  0.24737784  1
  V  V21  1  0.75103355  0.37635582  0.13006607  1
  V  V22  1  0.00506262  0.88357369  0.85564358  1
  V  V23  1  0.36582884  0.74893573  0.62753700  1
  V  V24  1  0.88571384  0.50908664  0.37807340  1
  V  V25  1  0.37343008  0.24699287  0.61702571  1
  V  V26  1  0.62767075  0.62520881  0.49900608  1
  V  V27  1  0.24017665  0.48720287  0.75155726  1
  V  V28  1  0.13039650  0.24983933  0.37592426  1
  V  V29  1  0.37101291  0.87520634  0.49999839  1
  V  V30  1  0.12611580  0.87319250  0.24264310  1
  V  V31  1  0.62606270  0.12359374  0.00011556  1
  V  V32  1  0.62857486  0.50318298  0.62543791  1
  V  V33  1  0.50234957  0.24740314  0.74606680  1
  V  V34  1  0.75468830  0.51020176  0.25313079  1
  V  V35  1  0.11768470  -0.00150845  0.12276348  1
  V  V36  1  -0.00148931  0.24550229  0.25353359  1
  V  V37  1  0.75359089  0.12097897  0.87762227  1
  V  V38  1  0.36147326  0.00510965  0.87185388  1
  V  V39  1  0.37883641  0.62596572  0.24819327  1
  V  V40  1  0.63250382  0.88023528  0.24886446  1
  V  V41  1  0.48927257  0.37057618  0.87349133  1
  V  V42  1  0.63317750  0.11886364  0.49868227  1
  V  V43  1  0.62086572  0.87847047  0.74991514  1
  V  V44  1  0.50147516  0.87674470  0.37499881  1
  V  V45  1  -0.00049521  0.88029729  0.37406172  1
  V  V46  1  0.87342423  0.24590993  0.62746157  1
  V  V47  1  0.00183765  0.25748673  0.75594622  1
  V  V48  1  0.12298124  0.11860723  -0.00466763  1
  V  V49  1  0.13031908  0.24990533  0.88020766  1
  V  V50  1  0.00996085  0.00641065  0.50225749  1
  V  V51  1  0.24907088  0.50084291  0.24469458  1
  V  V52  1  0.11931364  0.74377773  0.86652418  1
  V  V53  1  0.74699456  -0.00191673  0.75587610  1
  V  V54  1  0.50322450  0.62857909  0.11325020  1
  V  V55  1  0.36679849  0.61756257  0.74794462  1
  V  V56  1  0.75300641  0.24943837  0.00131937  1
  V  V57  1  0.86107630  0.12276587  0.25572124  1
  V  V58  1  0.87075366  0.12214350  0.75313043  1
  V  V59  1  0.49912043  -0.00020131  -0.00124000  1
  V  V60  1  0.92504650  0.69716793  0.07933174  1
  V  V61  1  0.36425757  0.75757421  0.12639118  1
  V  V62  1  0.62633819  0.50573434  0.12150172  1
  V  V63  1  0.75177233  0.24839467  0.49919511  1
  V  V64  1  0.70533958  0.56127809  0.80707980  1
  V  V65  1  0.87722381  0.24975554  0.12621665  1
  V  V66  1  0.37711563  0.36770432  0.01630491  1
  V  V67  1  0.12264985  0.37501823  0.24523068  1
  V  V68  1  -0.01477016  0.74141975  0.25163994  1
  V  V69  1  0.62673089  0.24885591  0.87450323  1
  V  V70  1  0.03169260  0.11377792  0.64548990  1
  V  V71  1  0.37396331  0.12776256  0.24011374  1
  V  V72  1  0.88446852  0.75200334  0.63066053  1
  V  V73  1  0.75179264  0.38020802  0.62732666  1
  V  V74  1  0.50710128  0.12038579  0.62475094  1
  V  V75  1  0.62709841  0.74969806  0.37440533  1
  V  V76  1  0.00424759  0.38092544  0.88506229  1
  V  V77  1  0.74315310  0.74245406  -0.00436692  1
  V  V78  1  0.24416569  0.36805507  0.62542717  1
  V  V79  1  0.87417493  0.50100830  0.87675450  1
  V  V80  1  0.63115408  0.24494712  0.37488453  1
  V  V81  1  0.88260139  0.62456539  0.75118134  1
  V  V82  1  0.88528763  0.89163391  -0.00469927  1
  V  V83  1  0.62919994  0.00119263  0.12730019  1
  V  V84  1  0.12469166  0.75133572  0.37488428  1
  Zn  Zn85  1  0.49705585  0.12912179  0.12124260  1
  Zn  Zn86  1  0.75111942  0.75177691  0.50172072  1
  Zn  Zn87  1  0.24965223  0.36868711  0.12753485  1
  Zn  Zn88  1  0.62682486  0.37596942  0.25183849  1
  Zn  Zn89  1  0.23494035  0.61628733  0.88216624  1
  Zn  Zn90  1  0.23768864  0.74037037  0.00217658  1
  Zn  Zn91  1  0.37653827  0.00043540  0.37168606  1
  Zn  Zn92  1  0.24330827  0.75370114  0.50370092  1
  Zn  Zn93  1  0.00315694  0.37579506  0.37995176  1
  Zn  Zn94  1  0.75416045  0.62809818  0.37342186  1
  Zn  Zn95  1  0.36691924  0.11401573  0.74499965  1
  Zn  Zn96  1  0.11139758  0.61295422  0.49604233  1
  Zn  Zn97  1  0.13498879  0.12522804  0.49851315  1
  Zn  Zn98  1  0.11527356  0.49379187  0.61695214  1
  Zn  Zn99  1  0.62505173  0.73710565  0.87629668  1
  Zn  Zn100  1  0.37690590  0.49922409  0.37225674  1
  Zn  Zn101  1  0.25630276  0.24076551  0.01071705  1
  Zn  Zn102  1  0.37094428  0.49408389  0.87693819  1
  Zn  Zn103  1  0.00094368  0.61345858  0.61776487  1
  Zn  Zn104  1  0.87793529  0.38410392  0.00530329  1
  Zn  Zn105  1  0.50288957  0.49978020  -0.00258606  1
  Zn  Zn106  1  -0.00529563  0.11710762  0.12101360  1
  Zn  Zn107  1  0.18745986  0.18496059  0.18339250  1
  Zn  Zn108  1  0.18480454  0.15853804  0.69936953  1
  Zn  Zn109  1  0.18321458  0.68625138  0.18881486  1
  Zn  Zn110  1  0.18118535  0.68222500  0.68868073  1
  Zn  Zn111  1  0.68628005  0.18763008  0.18821330  1
  Zn  Zn112  1  0.68734310  0.18673868  0.68494308  1
  Zn  Zn113  1  0.69174805  0.68948254  0.18306491  1
  Zn  Zn114  1  0.68560389  0.69959377  0.68257824  1
  Zn  Zn115  1  0.31429246  0.31105209  0.30606294  1
  Zn  Zn116  1  0.29660042  0.27919095  0.79351675  1
  Zn  Zn117  1  0.31205911  0.81444229  0.31145221  1
  Zn  Zn118  1  0.30250894  0.81155901  0.81488089  1
  Zn  Zn119  1  0.81468500  0.31703144  0.31498630  1
  Zn  Zn120  1  0.81440539  0.31483990  0.81434417  1
  Zn  Zn121  1  0.81011659  0.81855423  0.31541316  1
  Zn  Zn122  1  0.81667890  0.81183272  0.81729440  1
  Zn  Zn123  1  0.19005257  0.43429825  0.43155805  1
  Zn  Zn124  1  0.18993740  0.43179220  0.94078177  1
  Zn  Zn125  1  0.18939143  0.93867460  0.43334207  1
  Zn  Zn126  1  0.17950902  0.93327400  0.93546742  1
  Zn  Zn127  1  0.69202824  0.43703125  0.43923623  1
  Zn  Zn128  1  0.68474413  0.43119909  0.94440192  1
  Zn  Zn129  1  0.68795776  0.93810790  0.43869887  1
  Zn  Zn130  1  0.68763757  0.93156025  0.93789599  1
  Zn  Zn131  1  0.30504335  0.06124784  0.06240822  1
  Zn  Zn132  1  0.31757435  0.06151025  0.55932245  1
  Zn  Zn133  1  0.31359995  0.55582271  0.06104904  1
  Zn  Zn134  1  0.28126204  0.54411709  0.54665101  1
  Zn  Zn135  1  0.81264583  0.06092755  0.06666772  1
  Zn  Zn136  1  0.81348016  0.05907843  0.56713165  1
  Zn  Zn137  1  0.81053965  0.56225865  0.06003914  1
  Zn  Zn138  1  0.81734611  0.56298694  0.56172092  1
  Zn  Zn139  1  0.44348252  0.44131676  0.19043058  1
  Zn  Zn140  1  0.43567767  0.43498994  0.68564052  1
  Zn  Zn141  1  0.44053080  0.93927318  0.18608653  1
  Zn  Zn142  1  0.43188822  0.93597992  0.68746598  1
  Zn  Zn143  1  0.93870568  0.43976047  0.19247055  1
  Zn  Zn144  1  0.93536460  0.44148542  0.69378171  1
  Zn  Zn145  1  0.93541078  0.93487521  0.19051182  1
  Zn  Zn146  1  0.93420157  0.94457015  0.68714694  1
  Zn  Zn147  1  0.06078469  0.06325677  0.31176555  1
  Zn  Zn148  1  0.06200218  0.06154680  0.81459567  1
  Zn  Zn149  1  0.06356572  0.56380906  0.30937447  1
  Zn  Zn150  1  0.06206635  0.56071680  0.80855747  1
  Zn  Zn151  1  0.56307044  0.06350543  0.31352115  1
  Zn  Zn152  1  0.56030272  0.05949467  0.81431791  1
  Zn  Zn153  1  0.56531193  0.56176816  0.30875871  1
  Zn  Zn154  1  0.54026655  0.56238544  0.81175496  1
  Zn  Zn155  1  0.44123384  0.18448000  0.43211677  1
  Zn  Zn156  1  0.43692313  0.18664727  0.93692051  1
  Zn  Zn157  1  0.43663103  0.69061526  0.43721317  1
  Zn  Zn158  1  0.40240959  0.67502679  0.94809942  1
  Zn  Zn159  1  0.94094358  0.18548882  0.44031340  1
  Zn  Zn160  1  0.94021876  0.18386294  0.94026541  1
  Zn  Zn161  1  0.93927532  0.69243549  0.44111232  1
  Zn  Zn162  1  0.93693575  0.69523040  0.91829610  1
  Zn  Zn163  1  0.06379129  0.31093402  0.06372489  1
  Zn  Zn164  1  0.06687748  0.29249015  0.56962258  1
  Zn  Zn165  1  0.06720751  0.81183144  0.05778112  1
  Zn  Zn166  1  0.06490219  0.81397517  0.56375542  1
  Zn  Zn167  1  0.56619221  0.31495685  0.06233919  1
  Zn  Zn168  1  0.56445194  0.31214070  0.56097520  1
  Zn  Zn169  1  0.56238367  0.81206066  0.06101196  1
  Zn  Zn170  1  0.56060633  0.81148449  0.56507392  1
  O  O171  1  0.11880624  0.11495797  0.11872847  1
  O  O172  1  0.11975644  0.16819380  0.60583940  1
  O  O173  1  0.12721612  0.61012880  0.12776193  1
  O  O174  1  0.12300883  0.62042442  0.61686787  1
  O  O175  1  0.62466853  0.11667971  0.11935447  1
  O  O176  1  0.61413599  0.12678341  0.61616796  1
  O  O177  1  0.61540816  0.61912023  0.13039359  1
  O  O178  1  0.61875307  0.62481813  0.61635981  1
  O  O179  1  0.38731352  0.37185964  0.37916888  1
  O  O180  1  0.38716283  0.36757977  0.87230626  1
  O  O181  1  0.38356119  0.87396988  0.38267592  1
  O  O182  1  0.38192843  0.88229882  0.88320120  1
  O  O183  1  0.87912000  0.38166910  0.38694484  1
  O  O184  1  0.88202938  0.38336514  0.87820355  1
  O  O185  1  0.87944481  0.88350149  0.38411954  1
  O  O186  1  0.88952369  0.86961385  0.88737801  1
  O  O187  1  0.25190895  0.00753197  0.36192511  1
  O  O188  1  0.26321732  -0.00472529  0.87913879  1
  O  O189  1  0.25482615  0.50941244  0.36021156  1
  O  O190  1  0.25133246  0.49468496  0.86421058  1
  O  O191  1  0.76373810  -0.00231078  0.37847742  1
  O  O192  1  0.74397124  0.00361307  0.86395716  1
  O  O193  1  0.75681679  0.50053057  0.36747424  1
  O  O194  1  0.75213395  0.49424591  0.87301642  1
  O  O195  1  0.24781971  0.49697853  0.13609797  1
  O  O196  1  0.25667211  0.48243153  0.63952602  1
  O  O197  1  0.23794563  1.00265441  0.13851050  1
  O  O198  1  0.25576015  0.99315276  0.62504504  1
  O  O199  1  0.74725110  0.49448564  0.13215309  1
  O  O200  1  0.74277834  0.49064604  0.61818081  1
  O  O201  1  0.73616533  0.98981239  0.11902258  1
  O  O202  1  0.75258597  0.98773850  0.63896784  1
  O  O203  1  0.00663930  0.36346243  0.25317914  1
  O  O204  1  -0.01125922  0.36097710  0.76247866  1
  O  O205  1  0.00665235  0.86822765  0.25670541  1
  O  O206  1  -0.00653230  0.87833068  0.75666675  1
  O  O207  1  0.50257982  0.36788091  0.25907309  1
  O  O208  1  0.50993975  0.36909067  0.75450517  1
  O  O209  1  0.51141912  0.87051690  0.25390586  1
  O  O210  1  0.50322957  0.87090616  0.75621231  1
  O  O211  1  0.49322886  0.13174944  0.24854148  1
  O  O212  1  0.50083685  0.13020528  0.74114925  1
  O  O213  1  0.49467187  0.63178850  0.24417327  1
  O  O214  1  0.49229207  0.63221610  0.73690597  1
  O  O215  1  0.99414362  0.13679155  0.24764153  1
  O  O216  1  0.98389187  0.13550646  0.75219289  1
  O  O217  1  0.99992895  0.64286666  0.25581692  1
  O  O218  1  0.98482551  0.62250644  0.74465307  1
  O  O219  1  0.37638281  0.26303017  -0.00413634  1
  O  O220  1  0.39051761  0.25734030  0.50596714  1
  O  O221  1  0.38007500  0.76573412  0.01276989  1
  O  O222  1  0.37741982  0.76120902  0.50873148  1
  O  O223  1  0.86939151  0.24874712  0.01176018  1
  O  O224  1  0.86982975  0.25433588  0.50676354  1
  O  O225  1  0.86777283  0.75499657  0.00751375  1
  O  O226  1  0.87188636  0.76630282  0.50454901  1
  O  O227  1  0.12501752  0.25514261  0.47709409  1
  O  O228  1  0.12262149  0.23926557  0.99582918  1
  O  O229  1  0.12533212  0.75340702  0.48322185  1
  O  O230  1  0.12621459  0.75461440  0.98390138  1
  O  O231  1  0.63031803  0.24154505  0.49374417  1
  O  O232  1  0.63247800  0.24361124  0.99626848  1
  O  O233  1  0.62392344  0.74340671  0.49238880  1
  O  O234  1  0.63670322  0.75546658  0.99460704  1
  O  O235  1  0.51072270  0.24872410  0.13944897  1
  O  O236  1  0.50053726  0.24103664  0.62845670  1
  O  O237  1  0.49550743  0.74496650  0.13033547  1
  O  O238  1  0.48680026  0.74715267  0.63095621  1
  O  O239  1  0.98738006  0.25148509  0.13279479  1
  O  O240  1  0.99129053  0.24093339  0.64244677  1
  O  O241  1  0.99524532  0.75418302  0.13725201  1
  O  O242  1  0.98592023  0.75439292  0.62212203  1
  O  O243  1  0.00740670  0.25087247  0.36738232  1
  O  O244  1  0.00100414  0.26054066  0.87184685  1
  O  O245  1  0.00449030  0.75894127  0.36651858  1
  O  O246  1  0.01076325  0.76422936  0.87157471  1
  O  O247  1  0.51191770  0.25541491  0.36781570  1
  O  O248  1  0.50705394  0.25119150  0.86488337  1
  O  O249  1  0.51096624  0.75616421  0.36992785  1
  O  O250  1  0.49792085  0.75724681  0.87005285  1
  O  O251  1  0.25495820  0.11899966  0.48136586  1
  O  O252  1  0.23143537  0.12579402  1.00380236  1
  O  O253  1  0.26641300  0.63663885  0.47930408  1
  O  O254  1  0.28936201  0.63372703  0.98410215  1
  O  O255  1  0.73884202  0.12749676  0.50817146  1
  O  O256  1  0.74565781  0.12875652  0.99634607  1
  O  O257  1  0.73752043  0.62812304  0.49957859  1
  O  O258  1  0.74940231  0.64362896  1.00542338  1
  O  O259  1  0.26868852  0.37520209  0.00585060  1
  O  O260  1  0.26665906  0.37332227  0.50268387  1
  O  O261  1  0.26020083  0.87393379  -0.00123851  1
  O  O262  1  0.26125651  0.87529220  0.50043681  1
  O  O263  1  0.75332797  0.36788668  0.01443969  1
  O  O264  1  0.75601514  0.36795156  0.51086477  1
  O  O265  1  0.76107239  0.86964104  0.00440152  1
  O  O266  1  0.75679845  0.87854919  0.51040876  1
  O  O267  1  0.13146956  0.49301410  0.24507630  1
  O  O268  1  0.13828825  0.49580751  0.74680355  1
  O  O269  1  0.13043218  0.99245324  0.24633926  1
  O  O270  1  0.10835344  1.06748790  0.71116888  1
  O  O271  1  0.63449522  0.49696971  0.24083587  1
  O  O272  1  0.63170166  0.50117106  0.74780488  1
  O  O273  1  0.61887599  0.99214939  0.24048332  1
  O  O274  1  0.62835213  0.98665133  0.75275624  1
  O  O275  1  0.36876650  0.00403960  0.25031488  1
  O  O276  1  0.38056420  -0.00010588  0.76694468  1
  O  O277  1  0.37010983  0.50977478  0.24965048  1
  O  O278  1  0.36819939  0.50341072  0.74959591  1
  O  O279  1  0.88061998  0.01066691  0.26148159  1
  O  O280  1  0.86378465  0.01414807  0.74957502  1
  O  O281  1  0.86776483  0.49353370  0.26740926  1
  O  O282  1  0.86590698  0.51283509  0.75974563  1
  O  O283  1  0.12470275  0.37060589  0.36199215  1
  O  O284  1  0.10942926  0.36969411  0.88056270  1
  O  O285  1  0.11985655  0.86980446  0.36545311  1
  O  O286  1  0.11122970  0.86962201  0.87185835  1
  O  O287  1  0.61598088  0.36827659  0.37760048  1
  O  O288  1  0.61920415  0.36659653  0.87008731  1
  O  O289  1  0.62294552  0.86998060  0.36789743  1
  O  O290  1  0.61036928  0.87444936  0.86930588  1
  O  O291  1  0.37764220  0.11713600  0.13594417  1
  O  O292  1  0.38859472  0.13052465  0.62324467  1
  O  O293  1  0.38278697  0.63227241  0.13544077  1
  O  O294  1  0.37553628  0.63203509  0.63209074  1
  O  O295  1  0.87527426  0.13186098  0.13422272  1
  O  O296  1  0.86817049  0.13364769  0.63704523  1
  O  O297  1  0.86857454  0.63276916  0.13077558  1
  O  O298  1  0.87259452  0.63429482  0.63376727  1
  O  O299  1  0.24865881  0.25525616  0.12475941  1
  O  O300  1  0.27066848  0.25452474  0.62163312  1
  O  O301  1  0.26146308  0.74489687  0.12467934  1
  O  O302  1  0.25886264  0.75275897  0.62355675  1
  O  O303  1  0.75890456  0.25731338  0.12514847  1
  O  O304  1  0.75386546  0.25673042  0.61836928  1
  O  O305  1  0.74324194  0.76458060  0.11346993  1
  O  O306  1  0.75943371  0.76500554  0.62282225  1
  O  O307  1  0.24322533  0.23953542  0.36255733  1
  O  O308  1  0.23065247  0.26677610  0.88847479  1
  O  O309  1  0.24066390  0.74499764  0.37076233  1
  O  O310  1  0.23742992  0.74618171  0.87936443  1
  O  O311  1  0.73841685  0.25816071  0.38212059  1
  O  O312  1  0.74442490  0.24552507  0.88133422  1
  O  O313  1  0.73872062  0.75051041  0.37831454  1
  O  O314  1  0.74703355  0.75586106  0.89065787  1
  O  O315  1  0.01377667  0.12546094  0.00515032  1
  O  O316  1  0.00419376  0.11873405  0.51200411  1
  O  O317  1  -0.02219475  0.64353793  0.01499935  1
  O  O318  1  -0.00072140  0.62499064  0.50266908  1
  O  O319  1  0.50700811  0.11750348  0.00109880  1
  O  O320  1  0.50898317  0.11612111  0.50450726  1
  O  O321  1  0.49104853  0.62393621  0.01113244  1
  O  O322  1  0.50697360  0.62113622  0.50230423  1
  O  O323  1  0.49596808  0.38056247  0.49296720  1
  O  O324  1  0.49323887  0.37083543  0.99197951  1
  O  O325  1  0.49529734  0.88102533  0.49756916  1
  O  O326  1  0.49402353  0.88190150  0.99398315  1
  O  O327  1  0.98915282  0.36298927  0.50447233  1
  O  O328  1  0.99489463  0.37094064  0.98800901  1
  O  O329  1  0.99328932  0.88456752  0.49689122  1
  O  O330  1  0.98516661  0.87617077  1.00504665  1
  O  O331  1  0.50030984  0.49078322  0.37792325  1
  O  O332  1  0.49837593  0.48409682  0.87817227  1
  O  O333  1  0.50058287  0.99348165  0.38564361  1
  O  O334  1  0.49614455  0.99188856  0.88718694  1
  O  O335  1  0.98924482  0.49671371  0.37052567  1
  O  O336  1  0.99195196  0.48651375  0.86682003  1
  O  O337  1  0.99350331  0.99747002  0.38379287  1
  O  O338  1  1.00451491  0.98423812  0.87191496  1
  O  O339  1  0.01369220  -0.00086542  0.13493313  1
  O  O340  1  -0.00684521  0.01418919  0.61703057  1
  O  O341  1  0.01101614  0.49834714  0.12766629  1
  O  O342  1  0.00227800  0.49598414  0.62704490  1
  O  O343  1  0.51028343  -0.00017016  0.11291798  1
  O  O344  1  0.49473960  0.00516261  0.61380496  1
  O  O345  1  0.50975333  0.51055001  0.12634000  1
  O  O346  1  0.50716645  0.50613455  0.61961166  1
  O  O347  1  0.24357605  0.38485022  0.25010239  1
  O  O348  1  0.25680033  0.37788031  0.74051897  1
  O  O349  1  0.23980165  0.88342688  0.25494658  1
  O  O350  1  0.25481328  0.87954405  0.73732405  1
  O  O351  1  0.75001337  0.38234700  0.24139361  1
  O  O352  1  0.74392489  0.36781809  0.73679905  1
  O  O353  1  0.73931170  0.87179052  0.24049516  1
  O  O354  1  0.74331141  0.88023677  0.74918263  1
  O  O355  1  0.25762271  0.11746957  0.25563794  1
  O  O356  1  0.27131302  0.16904441  0.76290093  1
  O  O357  1  0.25854332  0.62176521  0.25593408  1
  O  O358  1  0.25443215  0.60729668  0.75241194  1
  O  O359  1  0.76172634  0.12878679  0.25029251  1
  O  O360  1  0.74976734  0.11735666  0.75583875  1
  O  O361  1  0.74608667  0.61378065  0.25233377  1
  O  O362  1  0.75398068  0.62529655  0.74249054  1
  O  O363  1  0.37108587  0.12262280  0.36281774  1
  O  O364  1  0.38024933  0.10688639  0.87763321  1
  O  O365  1  0.37379071  0.62860513  0.36059526  1
  O  O366  1  0.38673103  0.61516791  0.85308625  1
  O  O367  1  0.87866915  0.11824673  0.36874711  1
  O  O368  1  0.86334538  0.13243429  0.86804558  1
  O  O369  1  0.87173344  0.61196915  0.38210656  1
  O  O370  1  0.87218695  0.62033864  0.86018469  1
  O  O371  1  0.12357271  0.38151733  0.13627937  1
  O  O372  1  0.14210257  0.36742857  0.61611153  1
  O  O373  1  0.12222349  0.87912030  0.13631707  1
  O  O374  1  0.14412777  0.87403576  0.61880761  1
  O  O375  1  0.63466014  0.38204828  0.12925045  1
  O  O376  1  0.63049072  0.38295107  0.63022465  1
  O  O377  1  0.62977608  0.88176548  0.13123028  1
  O  O378  1  0.63269195  0.86844042  0.63585132  1
  O  O379  1  0.11649965  0.25573275  0.25400068  1
  O  O380  1  0.10564015  0.24268476  0.76361788  1
  O  O381  1  0.11820908  0.75640061  0.25720609  1
  O  O382  1  0.13254610  0.74996153  0.76629557  1
  O  O383  1  0.62064514  0.25125633  0.25949064  1
  O  O384  1  0.61768187  0.25454222  0.75193111  1
  O  O385  1  0.62302504  0.75698605  0.25671479  1
  O  O386  1  0.61699700  0.76085179  0.75498688  1
  O  O387  1  0.38776840  0.24014198  0.25349829  1
  O  O388  1  0.39684423  0.25840943  0.73486564  1
  O  O389  1  0.38179043  0.74722423  0.24356824  1
  O  O390  1  0.37455246  0.74294485  0.74390735  1
  O  O391  1  0.87998910  0.24524173  0.24706458  1
  O  O392  1  0.87769840  0.24226133  0.74751924  1
  O  O393  1  0.88613477  0.75518269  0.25715491  1
  O  O394  1  0.86751495  0.73656562  0.74407905  1
  O  O395  1  0.37980009  0.49050634  0.49492463  1
  O  O396  1  0.38286619  0.48143841  0.99709887  1
  O  O397  1  0.38512569  0.98972898  0.49530081  1
  O  O398  1  0.38072828  0.99515373  0.99629469  1
  O  O399  1  0.86842613  0.48967082  0.48718404  1
  O  O400  1  0.86706465  0.50218731  0.98221387  1
  O  O401  1  0.88161126  0.99391157  0.49639262  1
  O  O402  1  0.87212334  0.99039591  0.99720172  1
  O  O403  1  0.12827046  0.00754030  0.00860590  1
  O  O404  1  0.11359703  0.00347250  0.49407072  1
  O  O405  1  0.12985964  0.49464474  0.01577105  1
  O  O406  1  0.16648408  0.51026531  0.50928493  1
  O  O407  1  0.61815779  0.00273122  0.00478305  1
  O  O408  1  0.61811027  0.00713516  0.49764243  1
  O  O409  1  0.62318696  0.49626316  0.01627145  1
  O  O410  1  0.61893899  0.50847342  0.50320891  1
  O  O411  1  0.38278338  0.37450721  0.11746361  1
  O  O412  1  0.37589715  0.36610593  0.61341167  1
  O  O413  1  0.37895673  0.86841929  0.11845361  1
  O  O414  1  0.36606515  0.86857515  0.61801609  1
  O  O415  1  0.86878650  0.36920266  0.12626562  1
  O  O416  1  0.86722333  0.36868379  0.62194404  1
  O  O417  1  0.86487414  0.88346248  0.11503110  1
  O  O418  1  0.86848045  0.87271975  0.62038542  1
  O  O419  1  0.13478700  0.13260865  0.37224769  1
  O  O420  1  0.11899596  0.13273549  0.88783175  1
  O  O421  1  0.13486099  0.63235754  0.37433948  1
  O  O422  1  0.11897518  0.63533780  0.87347428  1
  O  O423  1  0.62212761  0.13350446  0.38512878  1
  O  O424  1  0.63191571  0.12944334  0.87978800  1
  O  O425  1  0.62518054  0.63313361  0.38162668  1
  O  O426  1  0.63288225  0.61769864  0.85851720  1
