# generated using pymatgen
data_V85Zn86O256
_symmetry_space_group_name_H-M   'P 1'
_cell_length_a   16.92537059
_cell_length_b   16.92655218
_cell_length_c   16.92756576
_cell_angle_alpha   89.95811377
_cell_angle_beta   90.02123188
_cell_angle_gamma   89.98970320
_symmetry_Int_Tables_number   1
_chemical_formula_structural   V85Zn86O256
_chemical_formula_sum   'V85 Zn86 O256'
_cell_volume   4849.54560532
_cell_formula_units_Z   1
loop_
 _symmetry_equiv_pos_site_id
 _symmetry_equiv_pos_as_xyz
  1  'x, y, z'
loop_
 _atom_site_type_symbol
 _atom_site_label
 _atom_site_symmetry_multiplicity
 _atom_site_fract_x
 _atom_site_fract_y
 _atom_site_fract_z
 _atom_site_occupancy
  V  V0  1  0.50184463  -0.00854995  0.50202948  1
  V  V1  1  0.50627858  0.11454271  0.12635629  1
  V  V2  1  0.87371471  0.87038470  0.49487735  1
  V  V3  1  -0.00163367  0.61972995  0.61611947  1
  V  V4  1  0.87660544  0.24329308  0.62617350  1
  V  V5  1  0.13212593  0.89298591  0.24744084  1
  V  V6  1  0.00537585  -0.01096894  -0.00652531  1
  V  V7  1  0.87740067  0.00165493  0.36995589  1
  V  V8  1  0.38186301  0.25056715  0.12493038  1
  V  V9  1  0.12580171  0.50257678  0.12450278  1
  V  V10  1  0.36766696  0.74955393  0.62468678  1
  V  V11  1  0.49641523  0.74838981  0.75089781  1
  V  V12  1  0.12038987  0.12191197  0.51188397  1
  V  V13  1  0.50373977  0.24673532  0.24892269  1
  V  V14  1  0.86771332  0.62310923  0.24702820  1
  V  V15  1  0.87456323  0.12798756  0.23468933  1
  V  V16  1  -0.00476453  0.25291924  0.24265445  1
  V  V17  1  0.37519759  0.24399356  0.62598154  1
  V  V18  1  0.87456864  0.11189658  0.75203850  1
  V  V19  1  0.62725976  0.11357621  0.00090311  1
  V  V20  1  0.87598247  0.76605218  0.12582754  1
  V  V21  1  0.25406916  0.89265442  0.12258005  1
  V  V22  1  0.50169376  0.37475318  0.37215746  1
  V  V23  1  0.74598819  0.37672782  0.62208245  1
  V  V24  1  0.49655821  0.74065370  0.25130414  1
  V  V25  1  0.75229596  0.12520749  0.37333406  1
  V  V26  1  0.50519254  0.49932277  0.00684680  1
  V  V27  1  0.37896476  0.37405666  -0.00059711  1
  V  V28  1  0.02121971  0.12230899  0.11577163  1
  V  V29  1  0.12203783  0.75426664  0.87287863  1
  V  V30  1  0.13202149  0.62894876  0.49971657  1
  V  V31  1  0.74954372  0.87095475  0.62271703  1
  V  V32  1  0.50186480  0.24730135  0.75025120  1
  V  V33  1  0.12340284  0.62778530  -0.00009153  1
  V  V34  1  0.25194993  0.37652907  0.12523098  1
  V  V35  1  0.62625712  0.62242952  0.00786443  1
  V  V36  1  0.25628769  0.50572280  0.25049483  1
  V  V37  1  0.12733544  0.75102968  0.37283371  1
  V  V38  1  0.12150194  0.88120258  0.74801638  1
  V  V39  1  0.24804759  0.49889167  0.74913870  1
  V  V40  1  0.62474847  0.37929301  0.74958621  1
  V  V41  1  0.12176920  0.49792865  0.61862213  1
  V  V42  1  0.24894716  0.37323221  0.62559724  1
  V  V43  1  0.00115597  0.38166322  0.38160209  1
  V  V44  1  0.63642003  0.75737399  0.37095344  1
  V  V45  1  0.87732626  0.50178144  0.37830520  1
  V  V46  1  0.25147911  -0.00170546  0.75690291  1
  V  V47  1  0.24244805  0.88053135  0.62055276  1
  V  V48  1  0.86926673  0.37407103  0.01713421  1
  V  V49  1  0.74986830  0.75292394  -0.00053469  1
  V  V50  1  0.87494020  0.62358521  0.74909889  1
  V  V51  1  0.74638860  0.50175195  0.74765103  1
  V  V52  1  0.63179892  0.24731419  0.87744076  1
  V  V53  1  0.37570548  0.49940892  0.87576210  1
  V  V54  1  -0.00564058  0.37609945  0.87522295  1
  V  V55  1  -0.00299193  0.62812800  0.12340676  1
  V  V56  1  0.25671719  0.63192995  0.37590035  1
  V  V57  1  0.12474677  0.24800282  0.37496315  1
  V  V58  1  0.36985716  0.00010559  0.37015471  1
  V  V59  1  0.37633481  0.37288190  0.49965938  1
  V  V60  1  0.62813590  0.25514018  0.37431394  1
  V  V61  1  0.12365949  0.24380130  0.87825369  1
  V  V62  1  0.24977383  0.62435216  0.87693569  1
  V  V63  1  0.68165580  0.44134734  0.19016368  1
  V  V64  1  0.73821807  -0.00326350  0.24570470  1
  V  V65  1  0.37248371  0.86881792  0.49972146  1
  V  V66  1  0.62620241  0.87666031  0.75436889  1
  V  V67  1  0.50405234  0.87380989  0.36627213  1
  V  V68  1  0.12558298  0.37723264  0.25049343  1
  V  V69  1  0.75511433  0.10702357  0.87276052  1
  V  V70  1  0.37531706  0.11938816  0.76113157  1
  V  V71  1  0.37815583  0.50246828  0.37383073  1
  V  V72  1  0.00124978  0.00333294  0.51020612  1
  V  V73  1  0.75271387  0.25022976  0.49970119  1
  V  V74  1  0.63279181  -0.00301080  0.62658449  1
  V  V75  1  0.48246436  0.87738010  0.87645475  1
  V  V76  1  0.72924818  0.87916455  0.12507898  1
  V  V77  1  0.48434561  -0.00568704  -0.00326242  1
  V  V78  1  0.24839162  0.24488432  0.49987623  1
  V  V79  1  0.87114288  0.74524443  0.61649826  1
  V  V80  1  0.24598052  0.24554319  0.00052365  1
  V  V81  1  -0.00110158  0.24428684  0.74827423  1
  V  V82  1  0.36963076  0.74319932  0.12363748  1
  V  V83  1  0.75205459  0.62451952  0.38217392  1
  V  V84  1  0.62644819  0.12295994  0.50221592  1
  Zn  Zn85  1  0.24126260  0.11434567  0.36974333  1
  Zn  Zn86  1  0.87903801  0.37857471  0.50256244  1
  Zn  Zn87  1  0.25619822  0.76268811  -0.00319486  1
  Zn  Zn88  1  0.62057290  0.74977065  0.87895631  1
  Zn  Zn89  1  -0.00270237  0.50206118  -0.00215735  1
  Zn  Zn90  1  0.87459044  0.50281586  0.87808905  1
  Zn  Zn91  1  0.50398719  0.61671462  0.62248393  1
  Zn  Zn92  1  0.37654316  0.62292915  0.74778644  1
  Zn  Zn93  1  0.00287603  0.87571827  0.37155693  1
  Zn  Zn94  1  0.50091295  0.11979313  0.62702289  1
  Zn  Zn95  1  0.74667070  0.62540667  0.87552524  1
  Zn  Zn96  1  0.00426824  0.75470780  0.24769457  1
  Zn  Zn97  1  0.76342930  0.24274514  0.01257935  1
  Zn  Zn98  1  0.62613151  0.62505096  0.50201805  1
  Zn  Zn99  1  -0.02655369  0.89184317  0.86673114  1
  Zn  Zn100  1  -0.00061461  0.75140530  0.74631283  1
  Zn  Zn101  1  0.24817741  0.11623385  0.88318226  1
  Zn  Zn102  1  0.51960519  0.49546701  0.50941074  1
  Zn  Zn103  1  0.12203018  0.37430033  0.75045361  1
  Zn  Zn104  1  0.37072899  0.11778156  0.24573166  1
  Zn  Zn105  1  0.49926083  0.62136664  0.13239788  1
  Zn  Zn106  1  0.50333036  0.37305875  0.87668155  1
  Zn  Zn107  1  0.19343325  0.18841856  0.19203248  1
  Zn  Zn108  1  0.18681229  0.18461846  0.69188009  1
  Zn  Zn109  1  0.19090976  0.68943083  0.18963017  1
  Zn  Zn110  1  0.18877832  0.68979074  0.68822805  1
  Zn  Zn111  1  0.68935265  0.18419342  0.18847262  1
  Zn  Zn112  1  0.69125746  0.18536947  0.69071686  1
  Zn  Zn113  1  0.68462694  0.68869346  0.18968078  1
  Zn  Zn114  1  0.68596681  0.68978550  0.68623959  1
  Zn  Zn115  1  0.31335222  0.30865345  0.31072982  1
  Zn  Zn116  1  0.31132196  0.31092480  0.81276415  1
  Zn  Zn117  1  0.31401215  0.81460755  0.30698764  1
  Zn  Zn118  1  0.30736283  0.81117468  0.80983838  1
  Zn  Zn119  1  0.81210551  0.31943266  0.30399367  1
  Zn  Zn120  1  0.81192759  0.30898900  0.81469026  1
  Zn  Zn121  1  0.81445256  0.81458634  0.30438268  1
  Zn  Zn122  1  0.80674625  0.81186775  0.80717606  1
  Zn  Zn123  1  0.18989773  0.43861203  0.43866343  1
  Zn  Zn124  1  0.18436636  0.43409568  0.93739809  1
  Zn  Zn125  1  0.18568463  0.93552271  0.43945220  1
  Zn  Zn126  1  0.17701004  0.94319222  0.94210017  1
  Zn  Zn127  1  0.69161641  0.44168082  0.43121574  1
  Zn  Zn128  1  0.69042915  0.43808838  0.93794390  1
  Zn  Zn129  1  0.68999515  0.93395738  0.43600201  1
  Zn  Zn130  1  0.68376243  0.93292500  0.94004446  1
  Zn  Zn131  1  0.31595118  0.06612212  0.06361596  1
  Zn  Zn132  1  0.30936124  0.05869631  0.56267562  1
  Zn  Zn133  1  0.31453653  0.56588978  0.06148116  1
  Zn  Zn134  1  0.31973263  0.56084583  0.56038727  1
  Zn  Zn135  1  0.81611086  0.05319581  0.05783311  1
  Zn  Zn136  1  0.81475000  0.06042926  0.56295559  1
  Zn  Zn137  1  0.81013633  0.55892554  0.06435660  1
  Zn  Zn138  1  0.80723955  0.55749903  0.55776198  1
  Zn  Zn139  1  0.44747879  0.43385734  0.18959590  1
  Zn  Zn140  1  0.43811030  0.43461201  0.68938924  1
  Zn  Zn141  1  0.43756030  0.93167534  0.18413329  1
  Zn  Zn142  1  0.43668517  0.93510938  0.68751369  1
  Zn  Zn143  1  0.93740403  0.44323979  0.19046351  1
  Zn  Zn144  1  0.93593457  0.43494633  0.68725777  1
  Zn  Zn145  1  0.94505967  0.94424145  0.18588409  1
  Zn  Zn146  1  0.93752717  0.93387953  0.68375117  1
  Zn  Zn147  1  0.05797210  0.06704299  0.31313430  1
  Zn  Zn148  1  0.06315215  0.06261504  0.81221455  1
  Zn  Zn149  1  0.06247161  0.56527699  0.30995634  1
  Zn  Zn150  1  0.06072838  0.56283896  0.80844102  1
  Zn  Zn151  1  0.56028660  0.06450743  0.31676417  1
  Zn  Zn152  1  0.56252245  0.05848745  0.81454098  1
  Zn  Zn153  1  0.56510526  0.56518584  0.31965835  1
  Zn  Zn154  1  0.56261235  0.56446201  0.81806035  1
  Zn  Zn155  1  0.44086701  0.18271262  0.44044230  1
  Zn  Zn156  1  0.44291286  0.18753930  0.93926883  1
  Zn  Zn157  1  0.44186762  0.68685479  0.44031013  1
  Zn  Zn158  1  0.43736099  0.68780999  0.94119254  1
  Zn  Zn159  1  0.93855478  0.18791573  0.43472481  1
  Zn  Zn160  1  0.93478122  0.18812090  0.93915232  1
  Zn  Zn161  1  0.94420074  0.68714318  0.43461603  1
  Zn  Zn162  1  0.91827874  0.72010111  0.92035889  1
  Zn  Zn163  1  0.05922310  0.31387863  0.06103215  1
  Zn  Zn164  1  0.06063156  0.30957089  0.56348176  1
  Zn  Zn165  1  0.06896009  0.81549747  0.06458735  1
  Zn  Zn166  1  0.06087347  0.81074539  0.55885773  1
  Zn  Zn167  1  0.60541036  0.29615911  0.08412299  1
  Zn  Zn168  1  0.56308948  0.31225208  0.56246615  1
  Zn  Zn169  1  0.55703258  0.81019615  0.06238485  1
  Zn  Zn170  1  0.57187053  0.78646629  0.57111381  1
  O  O171  1  0.11915243  0.13135490  0.12668572  1
  O  O172  1  0.12563978  0.12989153  0.61135260  1
  O  O173  1  0.12124162  0.62414626  0.11809624  1
  O  O174  1  0.12099719  0.62141973  0.61814644  1
  O  O175  1  0.61310336  0.12013448  0.11695551  1
  O  O176  1  0.62679469  0.11365132  0.62221212  1
  O  O177  1  0.61947042  0.63067995  0.11362613  1
  O  O178  1  0.60794809  0.67228998  0.60939853  1
  O  O179  1  0.38301713  0.37658334  0.37968393  1
  O  O180  1  0.37558220  0.38107865  0.88213109  1
  O  O181  1  0.38108897  0.88175851  0.38146790  1
  O  O182  1  0.38283911  0.87201995  0.87162774  1
  O  O183  1  0.88348884  0.38426551  0.37222433  1
  O  O184  1  0.88623443  0.37627196  0.87321195  1
  O  O185  1  0.87545383  0.88224993  0.37928159  1
  O  O186  1  0.88723633  0.82580308  0.87992718  1
  O  O187  1  0.26670540  -0.00321970  0.38151552  1
  O  O188  1  0.24473358  -0.00099273  0.86261131  1
  O  O189  1  0.25594565  0.50687531  0.36809025  1
  O  O190  1  0.25424916  0.50430115  0.87106342  1
  O  O191  1  0.76076981  0.00286493  0.36855465  1
  O  O192  1  0.74982140  0.00818404  0.87824668  1
  O  O193  1  0.76324537  0.51261842  0.37146295  1
  O  O194  1  0.75324031  0.50149595  0.85969827  1
  O  O195  1  0.24883717  0.49733006  0.13242888  1
  O  O196  1  0.24654497  0.49421357  0.62978740  1
  O  O197  1  0.25837927  0.99185177  0.12817036  1
  O  O198  1  0.25143842  0.98784854  0.63513180  1
  O  O199  1  0.74646740  0.49777951  0.13438241  1
  O  O200  1  0.75362706  0.49015125  0.63623920  1
  O  O201  1  0.75120244  0.98701921  0.12916888  1
  O  O202  1  0.73904547  0.99139446  0.62102917  1
  O  O203  1  0.00497151  0.36912440  0.25673419  1
  O  O204  1  -0.00081586  0.36361317  0.75645547  1
  O  O205  1  0.01736668  0.87653603  0.24946772  1
  O  O206  1  0.00657834  0.87184864  0.75082569  1
  O  O207  1  0.49940156  0.36340357  0.26438024  1
  O  O208  1  0.50902424  0.36697461  0.75252327  1
  O  O209  1  0.49650912  0.86823259  0.26218956  1
  O  O210  1  0.50348806  0.86880210  0.75821793  1
  O  O211  1  0.49601334  0.12701240  0.24284671  1
  O  O212  1  0.49316906  0.12726404  0.74773066  1
  O  O213  1  0.49958927  0.63610180  0.25288946  1
  O  O214  1  0.49961548  0.63746528  0.74907909  1
  O  O215  1  0.99403429  0.13266382  0.23965862  1
  O  O216  1  0.99113429  0.13655240  0.75628885  1
  O  O217  1  0.99680563  0.62919525  0.23639587  1
  O  O218  1  0.99214542  0.62483069  0.73475979  1
  O  O219  1  0.37281323  0.25797998  0.00453333  1
  O  O220  1  0.37085288  0.25096819  0.50668331  1
  O  O221  1  0.37435562  0.75027789  0.01668562  1
  O  O222  1  0.37798011  0.76223008  0.50662300  1
  O  O223  1  0.87632301  0.26771956  -0.00115465  1
  O  O224  1  0.87042340  0.24946576  0.50767576  1
  O  O225  1  0.85650880  0.73814898  0.01684393  1
  O  O226  1  0.88267608  0.76271988  0.50051619  1
  O  O227  1  0.12610152  0.24217003  0.49352916  1
  O  O228  1  0.13580836  0.26002189  0.99201221  1
  O  O229  1  0.12479907  0.74250808  0.48691779  1
  O  O230  1  0.12983102  0.74017401  0.99359556  1
  O  O231  1  0.63158256  0.24294930  0.49515650  1
  O  O232  1  0.61276002  0.23091460  0.98589518  1
  O  O233  1  0.62156775  0.75237746  0.47295177  1
  O  O234  1  0.63299244  0.74399320  1.00258065  1
  O  O235  1  0.50447606  0.24162817  0.13439635  1
  O  O236  1  0.49231486  0.24625231  0.63071652  1
  O  O237  1  0.48826045  0.75119895  0.13320345  1
  O  O238  1  0.48001005  0.76328840  0.63842777  1
  O  O239  1  1.00599468  0.24458560  0.13791811  1
  O  O240  1  0.98818216  0.25451972  0.63413363  1
  O  O241  1  0.99275753  0.74565621  0.12301834  1
  O  O242  1  0.98899079  0.74146680  0.62322083  1
  O  O243  1  0.00943631  0.25611582  0.36667639  1
  O  O244  1  0.00544123  0.25550960  0.86966132  1
  O  O245  1  0.01208139  0.75440021  0.37050134  1
  O  O246  1  0.02010715  0.73329562  0.86673738  1
  O  O247  1  0.50645722  0.25283020  0.37163437  1
  O  O248  1  0.51028814  0.24873519  0.86589489  1
  O  O249  1  0.50300845  0.75722447  0.36730967  1
  O  O250  1  0.49773839  0.75763134  0.86837510  1
  O  O251  1  0.24080854  0.12765078  0.49504754  1
  O  O252  1  0.25747273  0.14106012  0.99936340  1
  O  O253  1  0.24019147  0.62055157  0.49118736  1
  O  O254  1  0.24370351  0.62535569  0.98884073  1
  O  O255  1  0.74700398  0.12897072  0.49313992  1
  O  O256  1  0.74529177  0.12253421  0.99106435  1
  O  O257  1  0.75557262  0.63152909  0.48539751  1
  O  O258  1  0.74193668  0.63038382  1.00069678  1
  O  O259  1  0.26067047  0.36991699  0.00458200  1
  O  O260  1  0.25517039  0.36565412  0.50597796  1
  O  O261  1  0.23900234  0.87765199  0.01816551  1
  O  O262  1  0.25796517  0.87968579  0.50896334  1
  O  O263  1  0.76704595  0.37512695  -0.00480949  1
  O  O264  1  0.75329640  0.36818587  0.50702772  1
  O  O265  1  0.74475641  0.86857008  0.01468974  1
  O  O266  1  0.76086115  0.87971103  0.51081052  1
  O  O267  1  0.13427935  0.49579175  0.24499587  1
  O  O268  1  0.13098413  0.49926642  0.73693910  1
  O  O269  1  0.12754199  0.99128576  0.25889186  1
  O  O270  1  0.13017162  0.98840932  0.75046684  1
  O  O271  1  0.62874542  0.50178540  0.25269055  1
  O  O272  1  0.62895581  0.48772412  0.75475300  1
  O  O273  1  0.63960643  1.00635437  0.25785776  1
  O  O274  1  0.61717869  0.98613243  0.73973526  1
  O  O275  1  0.38382904  -0.00301638  0.26772489  1
  O  O276  1  0.36723758  0.00896822  0.74472570  1
  O  O277  1  0.36905420  0.49148958  0.26305355  1
  O  O278  1  0.36806352  0.49852048  0.76305070  1
  O  O279  1  0.87073212  0.00864631  0.25469169  1
  O  O280  1  0.88146741  0.01217868  0.74478957  1
  O  O281  1  0.88273506  0.51395848  0.26133739  1
  O  O282  1  0.86747098  0.51069143  0.74696309  1
  O  O283  1  0.11911915  0.37147417  0.37123839  1
  O  O284  1  0.11243256  0.36762608  0.87352061  1
  O  O285  1  0.12942010  0.86809572  0.36457835  1
  O  O286  1  0.12665801  0.86604660  0.86602184  1
  O  O287  1  0.61851027  0.36129711  0.38220024  1
  O  O288  1  0.62598556  0.36500634  0.86819662  1
  O  O289  1  0.61940081  0.86807781  0.37258295  1
  O  O290  1  0.61685246  0.87359069  0.86639322  1
  O  O291  1  0.38942246  0.13321607  0.12433678  1
  O  O292  1  0.37453575  0.13351452  0.62951530  1
  O  O293  1  0.37514009  0.63830562  0.12699228  1
  O  O294  1  0.37178162  0.63758119  0.62724866  1
  O  O295  1  0.87306438  0.12659649  0.13369017  1
  O  O296  1  0.86505991  0.13582901  0.63492331  1
  O  O297  1  0.88173604  0.62902475  0.13132796  1
  O  O298  1  0.88097495  0.62761559  0.62147865  1
  O  O299  1  0.25729527  0.25890086  0.11820744  1
  O  O300  1  0.25599730  0.25205105  0.62053982  1
  O  O301  1  0.26048071  0.75261134  0.12389343  1
  O  O302  1  0.26036070  0.76247215  0.63124124  1
  O  O303  1  0.71211804  0.25775254  0.11094322  1
  O  O304  1  0.75593392  0.25545358  0.62056833  1
  O  O305  1  0.75389356  0.76419271  0.12508397  1
  O  O306  1  0.76382933  0.75527209  0.62210925  1
  O  O307  1  0.23625309  0.25497155  0.38202093  1
  O  O308  1  0.24100794  0.25303509  0.88371125  1
  O  O309  1  0.24858314  0.73759501  0.36879140  1
  O  O310  1  0.24171918  0.74142134  0.87682124  1
  O  O311  1  0.74426497  0.24700571  0.37849087  1
  O  O312  1  0.74027038  0.24275022  0.88017496  1
  O  O313  1  0.74134309  0.74944701  0.36624227  1
  O  O314  1  0.74297592  0.74863247  0.88715662  1
  O  O315  1  0.00245839  0.13746446  0.01639693  1
  O  O316  1  0.00360230  0.11208746  0.49530720  1
  O  O317  1  0.00829684  0.62515864  0.01128874  1
  O  O318  1  0.01319903  0.62629145  0.50911826  1
  O  O319  1  0.50407084  0.11221546  0.00480458  1
  O  O320  1  0.50845731  0.11204886  0.50456299  1
  O  O321  1  0.50621302  0.61647542  0.00209079  1
  O  O322  1  0.50299738  0.61600817  0.50001803  1
  O  O323  1  0.49471593  0.37338029  0.48984148  1
  O  O324  1  0.48663599  0.38186489  0.99732497  1
  O  O325  1  0.49371429  0.87899736  0.49085339  1
  O  O326  1  0.50293243  0.88683494  0.99261046  1
  O  O327  1  0.99829153  0.36826909  0.48534525  1
  O  O328  1  0.99020150  0.37845689  0.99267518  1
  O  O329  1  0.99374621  0.88658274  0.49530272  1
  O  O330  1  1.00837228  0.88444441  0.99659399  1
  O  O331  1  0.49330637  0.48967683  0.37530218  1
  O  O332  1  0.48969382  0.49765855  0.88321405  1
  O  O333  1  0.49632214  0.99211661  0.38507374  1
  O  O334  1  0.49976977  0.99269500  0.88640255  1
  O  O335  1  0.99671213  0.49130208  0.37033540  1
  O  O336  1  0.99854367  0.49135344  0.87443598  1
  O  O337  1  0.98677722  0.99985732  0.37815602  1
  O  O338  1  1.00274544  0.99943489  0.88510326  1
  O  O339  1  0.00487597  0.01774446  0.12112929  1
  O  O340  1  -0.00415177  -0.00008049  0.60870281  1
  O  O341  1  0.00908973  0.50970964  0.12426133  1
  O  O342  1  0.00895555  0.50577391  0.62691828  1
  O  O343  1  0.49386389  0.00264719  0.11225765  1
  O  O344  1  0.51026690  -0.00557872  0.61519252  1
  O  O345  1  0.48368133  0.50555687  0.10991522  1
  O  O346  1  0.48250512  0.50418280  0.61797243  1
  O  O347  1  0.24600753  0.38379422  0.24597330  1
  O  O348  1  0.24656357  0.38039556  0.74352712  1
  O  O349  1  0.23974633  0.87486335  0.24123694  1
  O  O350  1  0.24311632  0.88166017  0.74283808  1
  O  O351  1  0.73350989  0.37258887  0.24723645  1
  O  O352  1  0.74362291  0.37973950  0.74435730  1
  O  O353  1  0.75256832  0.88377239  0.23509821  1
  O  O354  1  0.74056727  0.87006311  0.73596406  1
  O  O355  1  0.26062029  0.13563208  0.26071495  1
  O  O356  1  0.25746520  0.11561421  0.75131349  1
  O  O357  1  0.24720958  0.61201985  0.25872047  1
  O  O358  1  0.24986827  0.61792353  0.76116946  1
  O  O359  1  0.75746574  0.11905033  0.25425993  1
  O  O360  1  0.75704728  0.12441833  0.76448730  1
  O  O361  1  0.76408671  0.63488038  0.25732642  1
  O  O362  1  0.75312770  0.61769529  0.74637230  1
  O  O363  1  0.37902214  0.10600609  0.38019048  1
  O  O364  1  0.37154323  0.13250143  0.86343881  1
  O  O365  1  0.36723097  0.61540632  0.38079180  1
  O  O366  1  0.36703001  0.61708563  0.87530820  1
  O  O367  1  0.87016106  0.11866097  0.36684084  1
  O  O368  1  0.86151044  0.12960221  0.86922795  1
  O  O369  1  0.87378388  0.62230616  0.36812865  1
  O  O370  1  0.87153035  0.62625876  0.86156075  1
  O  O371  1  0.13113236  0.38244003  0.12946594  1
  O  O372  1  0.12967686  0.38193049  0.62400722  1
  O  O373  1  0.13811809  0.87231431  0.14011437  1
  O  O374  1  0.13229885  0.86753670  0.63122503  1
  O  O375  1  0.60807239  0.39778391  0.13098333  1
  O  O376  1  0.63763489  0.36679785  0.63410129  1
  O  O377  1  0.63104380  0.87488706  0.12727540  1
  O  O378  1  0.63261572  0.87555269  0.62764111  1
  O  O379  1  0.11929845  0.25825780  0.25831136  1
  O  O380  1  0.11598158  0.25191461  0.75565368  1
  O  O381  1  0.12612894  0.75192754  0.26182613  1
  O  O382  1  0.12634369  0.76118554  0.75524488  1
  O  O383  1  0.61236094  0.23774385  0.26315887  1
  O  O384  1  0.62303853  0.25687536  0.75669526  1
  O  O385  1  0.61320967  0.74961160  0.26087332  1
  O  O386  1  0.61459792  0.76201242  0.75249423  1
  O  O387  1  0.38923192  0.25020120  0.24402760  1
  O  O388  1  0.37954125  0.24302501  0.74299267  1
  O  O389  1  0.38326516  0.75386048  0.23819206  1
  O  O390  1  0.37886944  0.74730473  0.74438901  1
  O  O391  1  0.88505922  0.24126323  0.25767220  1
  O  O392  1  0.87987861  0.24251471  0.74395524  1
  O  O393  1  0.88158550  0.74318779  0.24102329  1
  O  O394  1  0.87382676  0.73526376  0.73455563  1
  O  O395  1  0.36798370  0.48718738  0.48494577  1
  O  O396  1  0.37566469  0.49410574  0.99011305  1
  O  O397  1  0.38375598  0.98959052  0.49623277  1
  O  O398  1  0.38558314  1.00274420  0.99548577  1
  O  O399  1  0.87548598  0.49793212  0.48530232  1
  O  O400  1  0.87741496  0.48986430  0.99768195  1
  O  O401  1  0.88291032  0.99374913  0.49270653  1
  O  O402  1  0.90382803  1.00944792  1.00503018  1
  O  O403  1  0.10740076  0.01114041  0.00092020  1
  O  O404  1  0.10927658  0.00603029  0.49213107  1
  O  O405  1  0.12555168  0.51173754  0.00525389  1
  O  O406  1  0.13059348  0.50763184  0.51196421  1
  O  O407  1  0.61531555  0.01041190  -0.00591160  1
  O  O408  1  0.61988548  0.00077619  0.50506243  1
  O  O409  1  0.61431938  0.50614618  -0.00729344  1
  O  O410  1  0.63325428  0.50907527  0.49734774  1
  O  O411  1  0.37286578  0.36992943  0.11858556  1
  O  O412  1  0.36893406  0.36026072  0.62226915  1
  O  O413  1  0.35848764  0.86651781  0.12994227  1
  O  O414  1  0.36580697  0.87204047  0.61698119  1
  O  O415  1  0.87961015  0.37745701  0.11631197  1
  O  O416  1  0.86342791  0.36507623  0.62504892  1
  O  O417  1  0.87670277  0.86725239  0.13024250  1
  O  O418  1  0.86979248  0.86616129  0.61703483  1
  O  O419  1  0.12262565  0.13451440  0.38232096  1
  O  O420  1  0.12909553  0.14009818  0.86981406  1
  O  O421  1  0.13190849  0.63002903  0.38137343  1
  O  O422  1  0.13269842  0.62571956  0.88101594  1
  O  O423  1  0.63105751  0.13316191  0.38327894  1
  O  O424  1  0.63737371  0.12659802  0.87646565  1
  O  O425  1  0.63815276  0.63811606  0.37254408  1
  O  O426  1  0.62583381  0.62930307  0.88878083  1
