# generated using pymatgen
data_V85Zn86O256
_symmetry_space_group_name_H-M   'P 1'
_cell_length_a   16.96708769
_cell_length_b   16.94997728
_cell_length_c   16.97047953
_cell_angle_alpha   89.98608396
_cell_angle_beta   90.03903612
_cell_angle_gamma   90.01521503
_symmetry_Int_Tables_number   1
_chemical_formula_structural   V85Zn86O256
_chemical_formula_sum   'V85 Zn86 O256'
_cell_volume   4880.56847174
_cell_formula_units_Z   1
loop_
 _symmetry_equiv_pos_site_id
 _symmetry_equiv_pos_as_xyz
  1  'x, y, z'
loop_
 _atom_site_type_symbol
 _atom_site_label
 _atom_site_symmetry_multiplicity
 _atom_site_fract_x
 _atom_site_fract_y
 _atom_site_fract_z
 _atom_site_occupancy
  V  V0  1  0.12734199  0.75634027  0.38116901  1
  V  V1  1  0.60709912  0.24915787  0.88351564  1
  V  V2  1  0.25185842  0.25019368  0.00151318  1
  V  V3  1  0.62455812  0.87541536  0.74843646  1
  V  V4  1  0.12562719  0.87551354  0.74906983  1
  V  V5  1  0.00192028  0.62917340  0.12893525  1
  V  V6  1  0.11894999  0.11918434  0.49688521  1
  V  V7  1  0.12493219  0.37280938  0.24896217  1
  V  V8  1  0.49423723  0.74893141  0.74598273  1
  V  V9  1  0.86649227  0.36095659  0.50607048  1
  V  V10  1  0.37641760  0.25009696  0.62761503  1
  V  V11  1  0.24839780  0.87141619  0.61806265  1
  V  V12  1  0.86673787  0.12510068  0.24964466  1
  V  V13  1  0.12181248  0.49945624  0.62674932  1
  V  V14  1  0.37371741  0.12443056  0.24392289  1
  V  V15  1  0.88019136  0.13935760  0.74909187  1
  V  V16  1  -0.00255681  0.50004169  0.50154778  1
  V  V17  1  0.68079592  0.18435120  0.55040767  1
  V  V18  1  0.38203582  0.12731718  0.74986535  1
  V  V19  1  0.37336481  0.86662153  0.49631041  1
  V  V20  1  0.67593938  0.06810982  0.05652079  1
  V  V21  1  -0.00163768  0.49546020  -0.00227060  1
  V  V22  1  -0.00725937  0.62915733  0.62434223  1
  V  V23  1  0.63225635  0.24495854  0.37088542  1
  V  V24  1  0.12039762  0.24984161  0.86817033  1
  V  V25  1  0.50412249  0.61512181  0.12583758  1
  V  V26  1  0.38314270  0.38319362  -0.00901882  1
  V  V27  1  0.75486702  0.62544854  0.87661686  1
  V  V28  1  0.88087714  0.88164416  0.50103351  1
  V  V29  1  0.12417164  0.75042752  0.87811556  1
  V  V30  1  0.49505426  0.24858130  0.24689392  1
  V  V31  1  0.25811374  0.37139900  0.12335095  1
  V  V32  1  0.63925078  0.88214577  0.23363101  1
  V  V33  1  0.62533631  0.63314915  0.49846838  1
  V  V34  1  0.12422708  0.62566116  -0.00054244  1
  V  V35  1  -0.00207402  0.37652078  0.86906093  1
  V  V36  1  0.87858362  0.62540666  0.25596759  1
  V  V37  1  0.24944718  0.24527902  0.49687355  1
  V  V38  1  0.25458290  0.50022521  0.74736472  1
  V  V39  1  0.37394705  0.49991268  0.37484791  1
  V  V40  1  0.62650977  0.74897353  0.87628473  1
  V  V41  1  0.00760266  0.12100794  0.12131756  1
  V  V42  1  0.87345955  0.62409637  0.75187746  1
  V  V43  1  0.62778767  -0.00357049  0.61619483  1
  V  V44  1  0.49246070  0.62756205  0.62438501  1
  V  V45  1  0.87186935  0.25923775  0.11291663  1
  V  V46  1  0.00250414  0.88425841  0.37552146  1
  V  V47  1  -0.00242887  0.14235069  0.62686639  1
  V  V48  1  0.49738488  0.12151658  0.11802838  1
  V  V49  1  0.38033217  -0.00136626  0.87596400  1
  V  V50  1  0.75954723  0.86882086  0.62766494  1
  V  V51  1  0.87274344  0.49766385  0.37755562  1
  V  V52  1  0.00282791  0.88236675  0.88467123  1
  V  V53  1  0.75415412  0.49325188  0.74994702  1
  V  V54  1  0.25006801  0.12595165  0.87260740  1
  V  V55  1  0.25034117  0.50094581  0.25091005  1
  V  V56  1  -0.00139595  0.37276271  0.37499525  1
  V  V57  1  0.74746940  0.13349542  0.87714049  1
  V  V58  1  0.25351714  0.74814079  -0.00096329  1
  V  V59  1  0.12583574  0.49844609  0.12418165  1
  V  V60  1  0.62556194  0.37755685  0.24074216  1
  V  V61  1  0.37739134  0.75352151  0.12307405  1
  V  V62  1  0.23784145  -0.00607613  0.24483913  1
  V  V63  1  0.49631434  0.12501547  0.61578833  1
  V  V64  1  0.37565288  0.62740853  0.25012700  1
  V  V65  1  0.87044354  0.87684157  0.00547639  1
  V  V66  1  0.37291676  0.37321191  0.49687922  1
  V  V67  1  0.37659798  -0.00279590  0.37109812  1
  V  V68  1  0.11420534  -0.00143280  0.62263087  1
  V  V69  1  -0.00693954  0.75189518  0.74918428  1
  V  V70  1  0.24910831  0.63115387  0.38189083  1
  V  V71  1  0.00731915  0.75619519  0.25064463  1
  V  V72  1  0.51158682  0.75010952  0.25212529  1
  V  V73  1  0.50124741  0.50101295  0.49672047  1
  V  V74  1  0.51396235  0.87190258  0.37416803  1
  V  V75  1  0.76079789  0.74657353  0.50478223  1
  V  V76  1  0.25213499  0.62334155  0.86684020  1
  V  V77  1  0.23353527  0.87451858  0.12468994  1
  V  V78  1  0.74737561  0.49881113  0.24259547  1
  V  V79  1  0.82911131  0.44901635  0.93854480  1
  V  V80  1  0.60723625  0.37082752  0.75122336  1
  V  V81  1  0.62102583  0.61540326  0.00518799  1
  V  V82  1  0.62645835  0.49970608  0.62411528  1
  V  V83  1  0.74610326  0.62737302  0.37562481  1
  V  V84  1  0.87884455  0.00448729  0.87345835  1
  Zn  Zn85  1  0.50164718  0.37299652  0.37315397  1
  Zn  Zn86  1  0.12418974  0.24712358  0.37352668  1
  Zn  Zn87  1  0.87028572  -0.00014819  0.36976152  1
  Zn  Zn88  1  0.24666099  0.12133999  0.37162150  1
  Zn  Zn89  1  0.75134600  0.00149876  0.74989987  1
  Zn  Zn90  1  0.37767116  0.87383855  0.00005200  1
  Zn  Zn91  1  0.74848159  0.36367961  0.62483127  1
  Zn  Zn92  1  0.87387574  0.76356327  0.13505214  1
  Zn  Zn93  1  0.39219744  0.49546104  0.86325418  1
  Zn  Zn94  1  0.12003087  0.36826860  0.74455193  1
  Zn  Zn95  1  0.74195969  0.11665651  0.37333844  1
  Zn  Zn96  1  0.36539969  0.74656699  0.62423992  1
  Zn  Zn97  1  0.49910143  0.87212872  0.87793019  1
  Zn  Zn98  1  0.12341338  0.11455197  -0.00155217  1
  Zn  Zn99  1  0.75100954  0.37789259  0.10963765  1
  Zn  Zn100  1  0.12679952  0.62798556  0.50248221  1
  Zn  Zn101  1  0.24548346  0.37302438  0.62453504  1
  Zn  Zn102  1  0.25272626  -0.00035198  0.74508077  1
  Zn  Zn103  1  0.74474463  0.75711397  0.01128008  1
  Zn  Zn104  1  0.50282782  0.00102823  0.49419783  1
  Zn  Zn105  1  0.50291349  -0.00551667  0.00647817  1
  Zn  Zn106  1  -0.00220235  0.25135147  0.24521583  1
  Zn  Zn107  1  0.18949656  0.18820098  0.18698450  1
  Zn  Zn108  1  0.18932943  0.18509625  0.68643935  1
  Zn  Zn109  1  0.18689348  0.69077419  0.19113819  1
  Zn  Zn110  1  0.18138377  0.68835175  0.68715638  1
  Zn  Zn111  1  0.69102872  0.19736738  0.18545751  1
  Zn  Zn112  1  0.68067921  0.18506848  0.71458443  1
  Zn  Zn113  1  0.69030328  0.69221724  0.18780994  1
  Zn  Zn114  1  0.68512742  0.68655427  0.68715843  1
  Zn  Zn115  1  0.31208606  0.30954730  0.31299388  1
  Zn  Zn116  1  0.31099252  0.31478823  0.81082802  1
  Zn  Zn117  1  0.31387808  0.81380273  0.30935227  1
  Zn  Zn118  1  0.31194838  0.81342447  0.80928826  1
  Zn  Zn119  1  0.81272377  0.30917650  0.30805068  1
  Zn  Zn120  1  0.80701234  0.31091310  0.81254962  1
  Zn  Zn121  1  0.81353344  0.81047196  0.31767469  1
  Zn  Zn122  1  0.81375285  0.81295784  0.81594855  1
  Zn  Zn123  1  0.18625120  0.43801296  0.43919060  1
  Zn  Zn124  1  0.18617341  0.43672622  0.93486448  1
  Zn  Zn125  1  0.18861748  0.93856838  0.43579632  1
  Zn  Zn126  1  0.19721194  0.93716693  0.93539915  1
  Zn  Zn127  1  0.68636654  0.43486440  0.43347863  1
  Zn  Zn128  1  0.66081894  0.43606440  0.93462532  1
  Zn  Zn129  1  0.69403616  0.93691291  0.43563820  1
  Zn  Zn130  1  0.69249091  0.93711196  0.93014689  1
  Zn  Zn131  1  0.31099960  0.06005814  0.06160180  1
  Zn  Zn132  1  0.30924089  0.05604586  0.55849433  1
  Zn  Zn133  1  0.31428376  0.56342440  0.06149298  1
  Zn  Zn134  1  0.31114391  0.56137402  0.56170617  1
  Zn  Zn135  1  0.83764853  0.06466130  0.05933608  1
  Zn  Zn136  1  0.82019894  0.05695268  0.56751720  1
  Zn  Zn137  1  0.80339907  0.59122132  0.07682499  1
  Zn  Zn138  1  0.81380804  0.55749216  0.56517042  1
  Zn  Zn139  1  0.43629902  0.43496582  0.18745624  1
  Zn  Zn140  1  0.43276991  0.44084071  0.67936120  1
  Zn  Zn141  1  0.44106931  0.93641019  0.18819328  1
  Zn  Zn142  1  0.43794316  0.93868089  0.68572597  1
  Zn  Zn143  1  0.93630586  0.43952441  0.18630686  1
  Zn  Zn144  1  0.93349873  0.43506913  0.68633643  1
  Zn  Zn145  1  0.93683904  0.94151201  0.19310697  1
  Zn  Zn146  1  0.93742170  0.93967710  0.69242614  1
  Zn  Zn147  1  0.05744038  0.06522923  0.30754249  1
  Zn  Zn148  1  0.06444151  0.06330936  0.80876257  1
  Zn  Zn149  1  0.06546911  0.56130544  0.31548491  1
  Zn  Zn150  1  0.06245528  0.56063139  0.81160829  1
  Zn  Zn151  1  0.56493958  0.05913675  0.30511535  1
  Zn  Zn152  1  0.56099077  0.06356841  0.80930564  1
  Zn  Zn153  1  0.56408366  0.56165046  0.31259660  1
  Zn  Zn154  1  0.56702485  0.56282191  0.80747473  1
  Zn  Zn155  1  0.43852608  0.18562407  0.43170436  1
  Zn  Zn156  1  0.43094930  0.19137843  0.94136111  1
  Zn  Zn157  1  0.43834661  0.68972934  0.43541138  1
  Zn  Zn158  1  0.45483841  0.65411287  0.91836997  1
  Zn  Zn159  1  0.93915758  0.18580244  0.43593130  1
  Zn  Zn160  1  0.93983681  0.18977851  0.93911265  1
  Zn  Zn161  1  0.93899499  0.69138980  0.43738877  1
  Zn  Zn162  1  0.93836473  0.69012524  0.94064947  1
  Zn  Zn163  1  0.06309326  0.30875077  0.05808160  1
  Zn  Zn164  1  0.06314084  0.31280447  0.55707444  1
  Zn  Zn165  1  0.06343027  0.94325338  0.06174648  1
  Zn  Zn166  1  0.06147733  0.81024337  0.56086389  1
  Zn  Zn167  1  0.55854044  0.31015099  0.06582063  1
  Zn  Zn168  1  0.55556280  0.31750808  0.56527459  1
  Zn  Zn169  1  0.55980096  0.81045211  0.06129123  1
  Zn  Zn170  1  0.56442242  0.81315107  0.55927435  1
  O  O171  1  0.11074875  0.13336270  0.12302453  1
  O  O172  1  0.11491060  0.11900263  0.62089900  1
  O  O173  1  0.11755170  0.62046119  0.12269522  1
  O  O174  1  0.11157480  0.61871772  0.62297294  1
  O  O175  1  0.61947346  0.12885929  0.12168827  1
  O  O176  1  0.62247191  0.12365286  0.62050305  1
  O  O177  1  0.62011806  0.62885735  0.11372995  1
  O  O178  1  0.61921370  0.61836657  0.61534180  1
  O  O179  1  0.37530363  0.38076922  0.38067971  1
  O  O180  1  0.37213231  0.38019021  0.88470744  1
  O  O181  1  0.38250464  0.87971325  0.37827232  1
  O  O182  1  0.37657001  0.88526181  0.87244436  1
  O  O183  1  0.88015389  0.37813813  0.38134720  1
  O  O184  1  0.87839868  0.37688828  0.87787624  1
  O  O185  1  0.88368895  0.87355488  0.38487190  1
  O  O186  1  0.88342694  0.88388396  0.87839154  1
  O  O187  1  0.25751960  -0.00162594  0.36127629  1
  O  O188  1  0.26207739  0.01182058  0.87063247  1
  O  O189  1  0.25370722  0.50698632  0.36962497  1
  O  O190  1  0.24249519  0.50819851  0.86225482  1
  O  O191  1  0.75722960  0.00554824  0.37935901  1
  O  O192  1  0.75798549  0.01334017  0.87155595  1
  O  O193  1  0.75568376  0.50903050  0.37165034  1
  O  O194  1  0.75350676  0.50289560  0.87183028  1
  O  O195  1  0.24405376  0.49500633  0.13135783  1
  O  O196  1  0.24018248  0.50030185  0.62959901  1
  O  O197  1  0.25594941  0.98929808  0.13664821  1
  O  O198  1  0.23948531  0.98883292  0.62449988  1
  O  O199  1  0.75586697  0.50179502  0.14041510  1
  O  O200  1  0.74196640  0.49816187  0.63412248  1
  O  O201  1  0.74113414  1.01619114  0.10927858  1
  O  O202  1  0.74438842  0.99036654  0.62806712  1
  O  O203  1  0.00842657  0.37684837  0.25708783  1
  O  O204  1  -0.00113078  0.38302415  0.76478591  1
  O  O205  1  -0.00649698  0.86556515  0.25921343  1
  O  O206  1  0.00471340  0.86739928  0.75763116  1
  O  O207  1  0.50588794  0.36730710  0.24946472  1
  O  O208  1  0.50961187  0.38836239  0.74717359  1
  O  O209  1  0.50935880  0.86678677  0.25563613  1
  O  O210  1  0.51166044  0.86846378  0.74835625  1
  O  O211  1  0.49273765  0.12934389  0.24277783  1
  O  O212  1  0.48799458  0.12191660  0.73528740  1
  O  O213  1  0.49793166  0.63243285  0.24624292  1
  O  O214  1  0.51190827  0.63629652  0.73240217  1
  O  O215  1  0.99433798  0.13094239  0.23761015  1
  O  O216  1  0.99529706  0.12342681  0.73613094  1
  O  O217  1  1.00054174  0.62954699  0.24698338  1
  O  O218  1  0.99384305  0.63098386  0.74575622  1
  O  O219  1  0.35901438  0.26512433  -0.00699698  1
  O  O220  1  0.36803670  0.25277987  0.50219475  1
  O  O221  1  0.36794377  0.74558080  0.01060203  1
  O  O222  1  0.37749461  0.76289073  0.50098602  1
  O  O223  1  0.87606858  0.24895304  0.01408130  1
  O  O224  1  0.87652549  0.26314158  0.49613593  1
  O  O225  1  0.87699559  0.76891805  -0.00239165  1
  O  O226  1  0.86527812  0.75550266  0.50108867  1
  O  O227  1  0.13273898  0.23885728  0.49935366  1
  O  O228  1  0.13643625  0.24826616  0.98694343  1
  O  O229  1  0.12232088  0.74560559  0.48595454  1
  O  O230  1  0.13213837  0.74362604  0.98560902  1
  O  O231  1  0.62209107  0.24804020  0.49248689  1
  O  O232  1  0.61965073  0.25936505  0.98245311  1
  O  O233  1  0.63622391  0.73791900  0.50397865  1
  O  O234  1  0.62832773  0.74495988  0.98989305  1
  O  O235  1  0.50347651  0.24067267  0.13993303  1
  O  O236  1  0.48543851  0.24190183  0.61823410  1
  O  O237  1  0.49266269  0.74371667  0.13512413  1
  O  O238  1  0.50104735  0.74409573  0.62872110  1
  O  O239  1  0.99213157  0.24584676  0.12440167  1
  O  O240  1  1.00466672  0.24057115  0.62725151  1
  O  O241  1  0.99518754  0.73891200  0.13723244  1
  O  O242  1  1.00575905  0.74110296  0.63694794  1
  O  O243  1  0.00252759  0.26350986  0.37258239  1
  O  O244  1  0.00904570  0.26150299  0.88238827  1
  O  O245  1  0.00839357  0.75646030  0.36863820  1
  O  O246  1  0.00711988  0.75759616  0.87077470  1
  O  O247  1  0.50772548  0.25004765  0.36346085  1
  O  O248  1  0.50836755  0.24127348  0.87339210  1
  O  O249  1  0.49504595  0.75912739  0.36343813  1
  O  O250  1  0.51222169  0.74522999  0.86358830  1
  O  O251  1  0.24196695  0.12960386  0.49667393  1
  O  O252  1  0.25230603  0.13351468  0.99113545  1
  O  O253  1  0.24950323  0.62239079  0.48563315  1
  O  O254  1  0.24126181  0.62876050  0.99373890  1
  O  O255  1  0.75045582  0.12808785  0.50290504  1
  O  O256  1  0.74325573  0.12045394  0.99484958  1
  O  O257  1  0.74605173  0.62844533  0.49796769  1
  O  O258  1  0.73664692  0.62328665  0.98996285  1
  O  O259  1  0.25112537  0.37011281  0.00690561  1
  O  O260  1  0.25456041  0.36525981  0.50071489  1
  O  O261  1  0.25640032  0.86514384  0.00794242  1
  O  O262  1  0.25948791  0.87880011  0.50566102  1
  O  O263  1  0.75372559  0.39863064  -0.00638556  1
  O  O264  1  0.76232973  0.37710433  0.50170098  1
  O  O265  1  0.76611552  0.87328413  -0.00708991  1
  O  O266  1  0.75726063  0.86408632  0.50825033  1
  O  O267  1  0.13044992  0.48958860  0.24632492  1
  O  O268  1  0.12748184  0.49911100  0.73632945  1
  O  O269  1  0.13996550  1.00350735  0.25176000  1
  O  O270  1  0.12840761  0.99301898  0.74051091  1
  O  O271  1  0.63433974  0.48921480  0.25770330  1
  O  O272  1  0.63486870  0.49081695  0.74779253  1
  O  O273  1  0.62611629  0.98115975  0.24923342  1
  O  O274  1  0.62606912  0.99146099  0.73925469  1
  O  O275  1  0.37006936  0.00304548  0.25811834  1
  O  O276  1  0.37428223  0.00875814  0.75491643  1
  O  O277  1  0.36965266  0.50594511  0.25601769  1
  O  O278  1  0.35966067  0.49864823  0.74718741  1
  O  O279  1  0.87580709  0.02005473  0.24751278  1
  O  O280  1  0.87377420  0.00775996  0.76082154  1
  O  O281  1  0.86867964  0.50348761  0.26012515  1
  O  O282  1  0.86087138  0.50510494  0.74670112  1
  O  O283  1  0.11685744  0.37607665  0.36759196  1
  O  O284  1  0.11550000  0.36772418  0.87173160  1
  O  O285  1  0.11665886  0.86838116  0.38005851  1
  O  O286  1  0.12005337  0.86891829  0.87034450  1
  O  O287  1  0.62256715  0.36224499  0.36776408  1
  O  O288  1  0.62011170  0.36330312  0.86111492  1
  O  O289  1  0.61540390  0.87403920  0.37533004  1
  O  O290  1  0.62475935  0.86722905  0.86507301  1
  O  O291  1  0.37958440  0.12032057  0.13739270  1
  O  O292  1  0.37923134  0.12776840  0.62840127  1
  O  O293  1  0.38028788  0.63338231  0.13088339  1
  O  O294  1  0.38749981  0.62877871  0.61571626  1
  O  O295  1  0.88522310  0.13660817  0.13237285  1
  O  O296  1  0.89032488  0.12147460  0.63245139  1
  O  O297  1  0.89504733  0.61392119  0.14036141  1
  O  O298  1  0.88596380  0.62079734  0.63287011  1
  O  O299  1  0.24466198  0.25980573  0.11495001  1
  O  O300  1  0.25859469  0.24724397  0.61286096  1
  O  O301  1  0.25572951  0.75562855  0.12251871  1
  O  O302  1  0.24717088  0.76439451  0.62935701  1
  O  O303  1  0.76553905  0.25802224  0.12409046  1
  O  O304  1  0.73039626  0.24141731  0.61816763  1
  O  O305  1  0.77224785  0.71479980  0.11496280  1
  O  O306  1  0.74681226  0.75723575  0.61871726  1
  O  O307  1  0.24759552  0.24523621  0.38566735  1
  O  O308  1  0.24584963  0.24018994  0.87815585  1
  O  O309  1  0.24064988  0.74276787  0.36523783  1
  O  O310  1  0.24121230  0.74558864  0.87517918  1
  O  O311  1  0.73569934  0.24483260  0.37155431  1
  O  O312  1  0.74050232  0.23828542  0.87196227  1
  O  O313  1  0.75511740  0.73415140  0.38665610  1
  O  O314  1  0.73983430  0.74245980  0.87346955  1
  O  O315  1  0.00039764  0.12667535  0.01570544  1
  O  O316  1  0.00608270  0.12931467  0.51332983  1
  O  O317  1  0.00484276  0.61971071  0.00877283  1
  O  O318  1  -0.00182364  0.61958370  0.50843453  1
  O  O319  1  0.49066671  0.12692198  0.01539765  1
  O  O320  1  0.49364100  0.12022714  0.51069083  1
  O  O321  1  0.51490768  0.63913322  0.01458510  1
  O  O322  1  0.50891311  0.62352599  0.50295619  1
  O  O323  1  0.49104702  0.38260119  0.49649163  1
  O  O324  1  0.48077088  0.37270536  1.00762754  1
  O  O325  1  0.49408475  0.87644031  0.49087676  1
  O  O326  1  0.49545048  0.87601969  0.99540842  1
  O  O327  1  0.99112859  0.37975182  0.49294699  1
  O  O328  1  1.00363714  0.38949958  0.99322581  1
  O  O329  1  0.99065585  0.86561632  0.49043203  1
  O  O330  1  0.99348737  0.87851068  0.98799625  1
  O  O331  1  0.49170128  0.49942761  0.38012682  1
  O  O332  1  0.48897324  0.54687116  0.88244572  1
  O  O333  1  0.49369951  0.99062439  0.37262704  1
  O  O334  1  0.48925510  1.00173718  0.87485293  1
  O  O335  1  0.99498769  0.49044775  0.38034704  1
  O  O336  1  1.00175700  0.49428343  0.88544639  1
  O  O337  1  0.99623833  0.98727440  0.36845417  1
  O  O338  1  0.99347046  0.99241838  0.86647130  1
  O  O339  1  -0.00095639  0.01422240  0.12725345  1
  O  O340  1  0.01189534  0.00061892  0.62696168  1
  O  O341  1  0.00850619  0.50403481  0.11851916  1
  O  O342  1  0.00388559  0.50612959  0.62158872  1
  O  O343  1  0.49820427  0.01162404  0.12472916  1
  O  O344  1  0.50922618  0.00724085  0.62198256  1
  O  O345  1  0.49501231  0.51609212  0.13243448  1
  O  O346  1  0.50449498  0.50940543  0.61687810  1
  O  O347  1  0.24537251  0.37868929  0.24300046  1
  O  O348  1  0.24318525  0.38478701  0.74567404  1
  O  O349  1  0.25186729  0.88614349  0.24150746  1
  O  O350  1  0.24141322  0.87737383  0.74203657  1
  O  O351  1  0.74245094  0.38429511  0.25236387  1
  O  O352  1  0.74159173  0.38005856  0.74578840  1
  O  O353  1  0.73704199  0.86181112  0.25208237  1
  O  O354  1  0.74190206  0.87367552  0.74393696  1
  O  O355  1  0.25616110  0.11430823  0.24826595  1
  O  O356  1  0.26116425  0.12317564  0.75559076  1
  O  O357  1  0.25477770  0.61938318  0.25789598  1
  O  O358  1  0.23894672  0.61526051  0.75530700  1
  O  O359  1  0.76397371  0.13228417  0.24866081  1
  O  O360  1  0.76201171  0.12180908  0.75850488  1
  O  O361  1  0.75354686  0.61901736  0.26076521  1
  O  O362  1  0.75102395  0.61698951  0.75792576  1
  O  O363  1  0.37382149  0.11415203  0.36376875  1
  O  O364  1  0.37005117  0.12231712  0.86629373  1
  O  O365  1  0.36818706  0.62190681  0.36962536  1
  O  O366  1  0.35236568  0.62971501  0.87354209  1
  O  O367  1  0.87860261  0.12769876  0.35912824  1
  O  O368  1  0.87132379  0.12197952  0.87164727  1
  O  O369  1  0.87017645  0.61781870  0.37348407  1
  O  O370  1  0.86189911  0.63133413  0.87216028  1
  O  O371  1  0.13190498  0.37932761  0.13131607  1
  O  O372  1  0.12357927  0.38321672  0.62521039  1
  O  O373  1  0.13443310  0.87026420  0.12079421  1
  O  O374  1  0.12856898  0.88056520  0.62600055  1
  O  O375  1  0.63068710  0.36942832  0.13659378  1
  O  O376  1  0.62467866  0.38016852  0.63481477  1
  O  O377  1  0.62809230  0.86734604  0.13449926  1
  O  O378  1  0.63391414  0.87979195  0.62998663  1
  O  O379  1  0.12568435  0.26293823  0.25201133  1
  O  O380  1  0.13130396  0.24954897  0.76303588  1
  O  O381  1  0.11333741  0.74613302  0.26097212  1
  O  O382  1  0.11409336  0.75425544  0.76040494  1
  O  O383  1  0.61922092  0.25723311  0.25693369  1
  O  O384  1  0.61559674  0.26598933  0.75504484  1
  O  O385  1  0.61532376  0.75391314  0.24887827  1
  O  O386  1  0.61942223  0.75768627  0.75410899  1
  O  O387  1  0.38255869  0.23856119  0.25593488  1
  O  O388  1  0.36826958  0.24292100  0.73746831  1
  O  O389  1  0.38283293  0.74349877  0.24365220  1
  O  O390  1  0.39054259  0.75612935  0.74522028  1
  O  O391  1  0.87849469  0.24245685  0.24099931  1
  O  O392  1  0.87402723  0.23882157  0.75359576  1
  O  O393  1  0.88685967  0.74186797  0.25452292  1
  O  O394  1  0.88697150  0.74436545  0.75667199  1
  O  O395  1  0.37928382  0.49377266  0.49453505  1
  O  O396  1  0.36568865  0.48601837  0.99501922  1
  O  O397  1  0.37547584  0.99195129  0.48478226  1
  O  O398  1  0.37623422  0.99769962  0.98894572  1
  O  O399  1  0.88057807  0.49244963  0.49433056  1
  O  O400  1  0.88168601  0.51212625  1.00325515  1
  O  O401  1  0.87672584  0.98444776  0.50004607  1
  O  O402  1  0.87752628  0.98936949  0.98475795  1
  O  O403  1  0.13228060  0.00156834  -0.00256093  1
  O  O404  1  0.12907916  0.01236990  0.50628555  1
  O  O405  1  0.11769960  0.50642097  0.00453108  1
  O  O406  1  0.11769613  0.50196972  0.51060453  1
  O  O407  1  0.62269812  0.00367165  -0.00503836  1
  O  O408  1  0.62351207  -0.00685086  0.51294739  1
  O  O409  1  0.61676094  0.51648348  -0.00067563  1
  O  O410  1  0.61995270  0.50578360  0.50359658  1
  O  O411  1  0.36178829  0.37999120  0.11716262  1
  O  O412  1  0.37136431  0.36584943  0.61570077  1
  O  O413  1  0.37196122  0.86130001  0.12810646  1
  O  O414  1  0.36680315  0.87675608  0.61461734  1
  O  O415  1  0.87466938  0.36435366  0.12683545  1
  O  O416  1  0.87076173  0.37420931  0.61115354  1
  O  O417  1  0.88163576  0.88019750  0.10916896  1
  O  O418  1  0.86552814  0.87804579  0.62241115  1
  O  O419  1  0.12251498  0.12604967  0.38284664  1
  O  O420  1  0.13353696  0.13030165  0.87429823  1
  O  O421  1  0.13356362  0.63145625  0.37719838  1
  O  O422  1  0.12841297  0.63288157  0.87827265  1
  O  O423  1  0.62236906  0.13835220  0.36867716  1
  O  O424  1  0.63159517  0.13975761  0.86046083  1
  O  O425  1  0.63450077  0.61932379  0.38607152  1
  O  O426  1  0.63618501  0.63155897  0.88169890  1
