# generated using pymatgen
data_V85Zn86O256
_symmetry_space_group_name_H-M   'P 1'
_cell_length_a   16.90792036
_cell_length_b   16.90378952
_cell_length_c   16.91257682
_cell_angle_alpha   90.00810595
_cell_angle_beta   90.03021394
_cell_angle_gamma   90.01335099
_symmetry_Int_Tables_number   1
_chemical_formula_structural   V85Zn86O256
_chemical_formula_sum   'V85 Zn86 O256'
_cell_volume   4833.74767092
_cell_formula_units_Z   1
loop_
 _symmetry_equiv_pos_site_id
 _symmetry_equiv_pos_as_xyz
  1  'x, y, z'
loop_
 _atom_site_type_symbol
 _atom_site_label
 _atom_site_symmetry_multiplicity
 _atom_site_fract_x
 _atom_site_fract_y
 _atom_site_fract_z
 _atom_site_occupancy
  V  V0  1  0.37158448  0.86601294  -0.00231361  1
  V  V1  1  0.62528668  0.00339344  0.61746501  1
  V  V2  1  0.38729021  0.62549838  0.75137070  1
  V  V3  1  0.25128331  -0.00463451  0.24456599  1
  V  V4  1  -0.00058403  0.87429352  0.87596298  1
  V  V5  1  0.13303168  0.37735524  0.24158102  1
  V  V6  1  0.87745167  0.37366089  0.00705758  1
  V  V7  1  0.63229278  0.00061640  0.13057129  1
  V  V8  1  0.74861010  0.74796042  0.49889773  1
  V  V9  1  0.74312261  0.37965425  0.62525266  1
  V  V10  1  0.00668290  0.63117215  0.11750660  1
  V  V11  1  0.49110565  0.37737016  0.87495093  1
  V  V12  1  0.24839026  0.74858337  0.51430247  1
  V  V13  1  0.62080545  0.24766977  0.37644713  1
  V  V14  1  0.87193335  0.00079919  0.36929035  1
  V  V15  1  0.75756121  0.49904431  0.25050518  1
  V  V16  1  0.87469846  0.25070624  0.62306434  1
  V  V17  1  0.61059159  0.86744823  0.75497544  1
  V  V18  1  0.50427815  0.62261559  0.13133716  1
  V  V19  1  0.25103749  0.50613681  0.75388010  1
  V  V20  1  0.62521568  0.75116217  0.88908981  1
  V  V21  1  0.12469457  0.74867355  0.37536218  1
  V  V22  1  0.87773072  0.38823810  0.49641527  1
  V  V23  1  -0.00068681  -0.00067205  0.49746405  1
  V  V24  1  0.12844175  -0.00451620  0.62264024  1
  V  V25  1  0.37493138  0.37217754  0.01610502  1
  V  V26  1  -0.00070947  0.24933601  0.74948764  1
  V  V27  1  -0.00288129  0.39089731  0.37634588  1
  V  V28  1  0.12506952  0.37719860  0.74991027  1
  V  V29  1  0.87084206  0.50449074  0.87876919  1
  V  V30  1  0.49761589  0.12905063  0.12350637  1
  V  V31  1  0.74849281  0.24611514  0.49931552  1
  V  V32  1  0.75025119  0.61482643  0.37717071  1
  V  V33  1  0.25682427  0.25048681  0.01322628  1
  V  V34  1  0.49882322  0.38109583  0.37567830  1
  V  V35  1  0.00344523  0.74339904  0.74664581  1
  V  V36  1  0.50272812  0.12822429  0.61568613  1
  V  V37  1  0.49965145  0.50226691  0.51640457  1
  V  V38  1  0.49777466  0.50370346  -0.00252880  1
  V  V39  1  0.37639050  -0.00255668  0.37326543  1
  V  V40  1  0.62479916  0.87357173  0.25345493  1
  V  V41  1  0.74440360  0.12191884  0.37321980  1
  V  V42  1  -0.00042924  0.12413414  0.62408740  1
  V  V43  1  0.13110356  0.87114023  0.74498937  1
  V  V44  1  0.37069471  0.87560307  0.50549583  1
  V  V45  1  -0.00006456  0.37583794  0.87686053  1
  V  V46  1  0.74954536  0.87386769  0.62578358  1
  V  V47  1  0.11009133  0.50361462  0.62426820  1
  V  V48  1  0.25796867  0.50946699  0.24557818  1
  V  V49  1  0.39216807  0.74984511  0.63060588  1
  V  V50  1  0.87954166  0.74439079  0.62287312  1
  V  V51  1  0.12450812  0.12480443  0.49813438  1
  V  V52  1  0.74875774  0.37674352  0.12467495  1
  V  V53  1  0.62455611  0.38110226  0.24612981  1
  V  V54  1  0.37299587  0.13449416  0.24482266  1
  V  V55  1  -0.00268319  0.87129254  0.36847389  1
  V  V56  1  0.75414602  0.24866410  0.00534405  1
  V  V57  1  0.88570819  0.63069252  0.25590674  1
  V  V58  1  0.12303698  0.86997596  0.24767717  1
  V  V59  1  0.24836884  0.12565130  0.37331755  1
  V  V60  1  -0.00636050  0.25330681  0.24685885  1
  V  V61  1  0.38206290  -0.00785209  0.87292404  1
  V  V62  1  0.12584259  0.12318416  0.00088875  1
  V  V63  1  0.74340407  0.50323207  0.75074375  1
  V  V64  1  0.25070451  0.37778772  0.62325298  1
  V  V65  1  0.75017426  0.12527052  0.87449682  1
  V  V66  1  0.37842643  0.12789623  0.74844762  1
  V  V67  1  0.62258544  0.61917861  0.51530411  1
  V  V68  1  0.86813271  0.86937734  -0.00073166  1
  V  V69  1  0.86782205  0.12625935  0.24408413  1
  V  V70  1  0.50252971  -0.00594261  -0.00169371  1
  V  V71  1  0.12237882  0.25310646  0.37574025  1
  V  V72  1  0.25238357  0.62624402  0.88412016  1
  V  V73  1  0.13109884  0.74662366  0.88917851  1
  V  V74  1  0.74641889  0.86495865  0.12450721  1
  V  V75  1  0.12702426  0.24950006  0.87491990  1
  V  V76  1  0.63956691  0.61879851  0.00119305  1
  V  V77  1  0.74980423  -0.00229616  0.74988423  1
  V  V78  1  0.36999615  0.74346843  0.13039713  1
  V  V79  1  0.87204778  0.62633722  0.75378212  1
  V  V80  1  -0.00457076  0.12658259  0.12357133  1
  V  V81  1  0.25115040  -0.00252925  0.74455620  1
  V  V82  1  0.11250985  0.62122585  0.50434431  1
  V  V83  1  0.25221718  0.12460920  0.87422994  1
  V  V84  1  0.62485079  0.25434790  0.87308466  1
  Zn  Zn85  1  0.87426285  -0.00180888  0.87491038  1
  Zn  Zn86  1  0.87488800  0.12321784  0.74916402  1
  Zn  Zn87  1  -0.00175569  -0.00149215  0.00071765  1
  Zn  Zn88  1  0.49912617  0.87085104  0.37572039  1
  Zn  Zn89  1  0.87419922  0.74867343  0.12590872  1
  Zn  Zn90  1  0.00669448  0.50543920  -0.00106511  1
  Zn  Zn91  1  0.50268489  0.00146816  0.49661458  1
  Zn  Zn92  1  0.49639520  0.74498169  0.25663012  1
  Zn  Zn93  1  0.61958762  0.38360810  0.74756058  1
  Zn  Zn94  1  0.50174545  0.25284865  0.74809341  1
  Zn  Zn95  1  0.24510522  0.86620691  0.11681592  1
  Zn  Zn96  1  0.37690372  0.25327984  0.62130800  1
  Zn  Zn97  1  0.25511579  0.62600531  0.37794227  1
  Zn  Zn98  1  0.62507551  0.12317192  0.00054817  1
  Zn  Zn99  1  0.37933294  0.51162715  0.37282198  1
  Zn  Zn100  1  0.87401634  0.87372358  0.49794644  1
  Zn  Zn101  1  0.25059623  0.25423605  0.49988874  1
  Zn  Zn102  1  0.62086247  0.74644396  0.37617441  1
  Zn  Zn103  1  0.49563796  0.25567358  0.24426017  1
  Zn  Zn104  1  0.37318831  0.37752194  0.49926716  1
  Zn  Zn105  1  0.13070773  0.50254437  0.11474107  1
  Zn  Zn106  1  0.12319853  -0.00387281  0.12309348  1
  Zn  Zn107  1  0.18332415  0.18680336  0.18824913  1
  Zn  Zn108  1  0.18800161  0.18746881  0.68601174  1
  Zn  Zn109  1  0.18825452  0.68876840  0.18649851  1
  Zn  Zn110  1  0.18812516  0.68418142  0.68797037  1
  Zn  Zn111  1  0.68451525  0.19165109  0.18812528  1
  Zn  Zn112  1  0.68605795  0.18802754  0.68853193  1
  Zn  Zn113  1  0.68490183  0.68609355  0.18927913  1
  Zn  Zn114  1  0.68968967  0.68969288  0.69234779  1
  Zn  Zn115  1  0.31171496  0.31716006  0.31414829  1
  Zn  Zn116  1  0.31156265  0.31287963  0.81410394  1
  Zn  Zn117  1  0.31026658  0.80876542  0.31468873  1
  Zn  Zn118  1  0.31386246  0.80979796  0.81097008  1
  Zn  Zn119  1  0.81391323  0.31242500  0.31448883  1
  Zn  Zn120  1  0.81280698  0.31523739  0.81289278  1
  Zn  Zn121  1  0.80544639  0.81121848  0.31043728  1
  Zn  Zn122  1  0.80746553  0.80898293  0.81466719  1
  Zn  Zn123  1  0.18623305  0.44250214  0.43446699  1
  Zn  Zn124  1  0.19363940  0.43886063  0.93982935  1
  Zn  Zn125  1  0.19073423  0.93445814  0.43593350  1
  Zn  Zn126  1  0.18973118  0.93714897  0.93375969  1
  Zn  Zn127  1  0.68530797  0.43719298  0.43926170  1
  Zn  Zn128  1  0.68592173  0.43991427  0.93752497  1
  Zn  Zn129  1  0.68909969  0.93677137  0.43604173  1
  Zn  Zn130  1  0.68569099  0.93484304  0.93723499  1
  Zn  Zn131  1  0.31405492  0.05895172  0.06161045  1
  Zn  Zn132  1  0.31229370  0.06475329  0.56138705  1
  Zn  Zn133  1  0.31691048  0.55809916  0.06536825  1
  Zn  Zn134  1  0.31171663  0.56560394  0.56449508  1
  Zn  Zn135  1  0.81276535  0.05616057  0.06033312  1
  Zn  Zn136  1  0.81226828  0.06326515  0.55895340  1
  Zn  Zn137  1  0.81937639  0.55851610  0.07052995  1
  Zn  Zn138  1  0.81362683  0.56413363  0.56775076  1
  Zn  Zn139  1  0.44025373  0.44206063  0.18550686  1
  Zn  Zn140  1  0.43380432  0.43992522  0.69194659  1
  Zn  Zn141  1  0.43984802  0.93483090  0.18387403  1
  Zn  Zn142  1  0.43722353  0.93889011  0.68201653  1
  Zn  Zn143  1  0.94000891  0.44349026  0.18696320  1
  Zn  Zn144  1  0.93109583  0.43622858  0.68910356  1
  Zn  Zn145  1  0.93435148  0.93979191  0.18628900  1
  Zn  Zn146  1  0.93786039  0.93265209  0.68762742  1
  Zn  Zn147  1  0.06066506  0.06083610  0.30843137  1
  Zn  Zn148  1  0.06277299  0.06052683  0.81131059  1
  Zn  Zn149  1  0.06916883  0.56358652  0.31065023  1
  Zn  Zn150  1  0.06268055  0.56418260  0.81667568  1
  Zn  Zn151  1  0.55996837  0.06192434  0.30852677  1
  Zn  Zn152  1  0.56412463  0.06191356  0.80911769  1
  Zn  Zn153  1  0.56788189  0.56107085  0.31715129  1
  Zn  Zn154  1  0.56397003  0.56814042  0.82227825  1
  Zn  Zn155  1  0.43377106  0.19073209  0.43656127  1
  Zn  Zn156  1  0.43872723  0.18645622  0.93788197  1
  Zn  Zn157  1  0.43751038  0.68627925  0.43947642  1
  Zn  Zn158  1  0.44480318  0.69070325  0.93307823  1
  Zn  Zn159  1  0.93561450  0.19111764  0.43533773  1
  Zn  Zn160  1  0.93521828  0.18788185  0.93694701  1
  Zn  Zn161  1  0.93684443  0.68651930  0.43377194  1
  Zn  Zn162  1  0.93571459  0.69099977  0.93673114  1
  Zn  Zn163  1  0.06315304  0.30981359  0.06199176  1
  Zn  Zn164  1  0.06193331  0.31664706  0.56089381  1
  Zn  Zn165  1  0.05588605  0.80985813  0.06481690  1
  Zn  Zn166  1  0.06031294  0.81256248  0.56008305  1
  Zn  Zn167  1  0.56559277  0.31264532  0.06046860  1
  Zn  Zn168  1  0.56262004  0.31270939  0.56008695  1
  Zn  Zn169  1  0.55823011  0.81007236  0.06436112  1
  Zn  Zn170  1  0.56308795  0.81588478  0.55965874  1
  O  O171  1  0.11691088  0.12213696  0.11685384  1
  O  O172  1  0.11867846  0.11776060  0.61888966  1
  O  O173  1  0.10968619  0.62582732  0.13185336  1
  O  O174  1  0.12483922  0.61866640  0.61427567  1
  O  O175  1  0.62016345  0.11670778  0.12549591  1
  O  O176  1  0.61614710  0.11629507  0.63111547  1
  O  O177  1  0.61314923  0.63209067  0.11288664  1
  O  O178  1  0.63336238  0.62438609  0.61348941  1
  O  O179  1  0.38912764  0.37793446  0.37552021  1
  O  O180  1  0.38808421  0.36915217  0.88109489  1
  O  O181  1  0.37417051  0.88242953  0.38126637  1
  O  O182  1  0.37277967  0.88425762  0.87877033  1
  O  O183  1  0.88475855  0.37073899  0.38358698  1
  O  O184  1  0.87990438  0.38062425  0.88515877  1
  O  O185  1  0.87917780  0.88195022  0.37116285  1
  O  O186  1  0.88199770  0.87206109  0.87927465  1
  O  O187  1  0.25790353  0.00300267  0.36411540  1
  O  O188  1  0.25846284  0.00606017  0.86547544  1
  O  O189  1  0.25205684  0.49956877  0.36111300  1
  O  O190  1  0.24541438  0.50767312  0.86070027  1
  O  O191  1  0.75640500  0.01362484  0.38045872  1
  O  O192  1  0.74799111  0.00735716  0.86710582  1
  O  O193  1  0.74937608  0.50738620  0.37050430  1
  O  O194  1  0.76403335  0.49275651  0.86833412  1
  O  O195  1  0.24765011  0.50262296  0.13913490  1
  O  O196  1  0.24159563  0.49341462  0.63419436  1
  O  O197  1  0.24750242  0.99779726  0.13601872  1
  O  O198  1  0.24136018  1.00505994  0.63269767  1
  O  O199  1  0.75282858  0.48572293  0.13401036  1
  O  O200  1  0.75642329  0.49072283  0.63653736  1
  O  O201  1  0.73639898  0.99261487  0.12109759  1
  O  O202  1  0.74469033  0.99754590  0.62997483  1
  O  O203  1  0.00485653  0.36936556  0.25523467  1
  O  O204  1  0.00352810  0.36932972  0.75703515  1
  O  O205  1  0.00660717  0.88109683  0.26031880  1
  O  O206  1  0.00791090  0.86524661  0.75667230  1
  O  O207  1  0.50816623  0.37681935  0.25470947  1
  O  O208  1  0.50124345  0.37501869  0.75891508  1
  O  O209  1  0.51185783  0.87324201  0.25006652  1
  O  O210  1  0.51312756  0.88362749  0.74950617  1
  O  O211  1  0.48928463  0.12707777  0.24206297  1
  O  O212  1  0.49273270  0.12608020  0.74100412  1
  O  O213  1  0.51019311  0.62081476  0.23491993  1
  O  O214  1  0.48622287  0.61724356  0.75278281  1
  O  O215  1  0.99217258  0.13226307  0.24361853  1
  O  O216  1  0.99813948  0.12983562  0.74345243  1
  O  O217  1  0.98864103  0.62159628  0.24851547  1
  O  O218  1  0.99220574  0.63730235  0.75512593  1
  O  O219  1  0.36995569  0.25933736  -0.00303512  1
  O  O220  1  0.36868728  0.25685337  0.50230323  1
  O  O221  1  0.38514003  0.75935189  0.00712561  1
  O  O222  1  0.36880689  0.75439075  0.51380505  1
  O  O223  1  0.86202288  0.25803920  -0.00526784  1
  O  O224  1  0.86690078  0.25640716  0.50483584  1
  O  O225  1  0.87658240  0.76380910  0.00270797  1
  O  O226  1  0.86877964  0.74859034  0.50668867  1
  O  O227  1  0.12456453  0.24466872  0.49089192  1
  O  O228  1  0.13217110  0.24003611  0.99543335  1
  O  O229  1  0.12985427  0.74274837  0.49751808  1
  O  O230  1  0.12465358  0.75543459  0.98732862  1
  O  O231  1  0.63328445  0.25533277  0.48549762  1
  O  O232  1  0.63673541  0.24842857  0.98932457  1
  O  O233  1  0.63197874  0.73871882  0.50196914  1
  O  O234  1  0.62507380  0.74264941  0.99584872  1
  O  O235  1  0.50919737  0.23386072  0.12486713  1
  O  O236  1  0.50048236  0.24373104  0.62790165  1
  O  O237  1  0.49180622  0.73808019  0.12810040  1
  O  O238  1  0.49030856  0.74924093  0.62271552  1
  O  O239  1  1.00316426  0.23727234  0.13328808  1
  O  O240  1  0.99544476  0.24543279  0.62886083  1
  O  O241  1  0.99493702  0.73676055  0.12867236  1
  O  O242  1  0.99171957  0.75649678  0.63435018  1
  O  O243  1  0.00935732  0.25281151  0.36590564  1
  O  O244  1  0.00580818  0.25419744  0.86958978  1
  O  O245  1  0.01183742  0.75907694  0.37936855  1
  O  O246  1  0.01059006  0.75739340  0.86905313  1
  O  O247  1  0.50698434  0.25693838  0.37227976  1
  O  O248  1  0.50932955  0.25574042  0.87485435  1
  O  O249  1  0.50305760  0.75265979  0.37417748  1
  O  O250  1  0.52399914  0.74373093  0.86872257  1
  O  O251  1  0.24171461  0.12704148  0.49133017  1
  O  O252  1  0.24520974  0.12853695  0.99478169  1
  O  O253  1  0.23975067  0.63387655  0.50141527  1
  O  O254  1  0.26157464  0.61563276  0.98300193  1
  O  O255  1  0.75379601  0.13818732  0.49031218  1
  O  O256  1  0.74993598  0.13199690  0.99381280  1
  O  O257  1  0.74374401  0.62672866  0.49608326  1
  O  O258  1  0.73809607  0.61733926  1.01187646  1
  O  O259  1  0.26734177  0.36591001  -0.00439161  1
  O  O260  1  0.24837347  0.37866824  0.50949805  1
  O  O261  1  0.26554038  0.88326212  0.00109348  1
  O  O262  1  0.26190202  0.86668739  0.49713532  1
  O  O263  1  0.75460779  0.37032246  0.00696933  1
  O  O264  1  0.75537379  0.36692401  0.50450579  1
  O  O265  1  0.75612696  0.87898378  0.00917786  1
  O  O266  1  0.75109336  0.86437441  0.50550311  1
  O  O267  1  0.13269554  0.48810402  0.24779832  1
  O  O268  1  0.12954057  0.49797041  0.74377454  1
  O  O269  1  0.13298450  0.98855073  0.25095441  1
  O  O270  1  0.13003148  0.99131353  0.74415724  1
  O  O271  1  0.63879353  0.48784759  0.25639119  1
  O  O272  1  0.63950277  0.50380924  0.76021833  1
  O  O273  1  0.62027344  0.99173308  0.23989298  1
  O  O274  1  0.63439082  0.99168897  0.74342974  1
  O  O275  1  0.36858384  0.00351778  0.25478474  1
  O  O276  1  0.37189553  0.00650118  0.75421305  1
  O  O277  1  0.36087585  0.49406547  0.25017070  1
  O  O278  1  0.36542773  0.51688117  0.74412617  1
  O  O279  1  0.87761049  0.01081426  0.26140607  1
  O  O280  1  0.86220647  -0.00146233  0.75008584  1
  O  O281  1  0.86446746  0.50994288  0.24929039  1
  O  O282  1  0.86952762  0.50814144  0.75757111  1
  O  O283  1  0.11728627  0.36907693  0.36713997  1
  O  O284  1  0.12107391  0.36838912  0.86818164  1
  O  O285  1  0.11717953  0.86959175  0.36959889  1
  O  O286  1  0.12035508  0.86561760  0.86788738  1
  O  O287  1  0.61591962  0.36984764  0.36982695  1
  O  O288  1  0.61502573  0.36887867  0.87629496  1
  O  O289  1  0.62390463  0.87419335  0.36711180  1
  O  O290  1  0.62561957  0.86699148  0.86438534  1
  O  O291  1  0.38362213  0.11764787  0.13358878  1
  O  O292  1  0.38229083  0.12620686  0.63260245  1
  O  O293  1  0.38726785  0.63618987  0.11919382  1
  O  O294  1  0.37033074  0.63970007  0.63671949  1
  O  O295  1  0.87945101  0.11962206  0.13367809  1
  O  O296  1  0.88146106  0.13221282  0.62424869  1
  O  O297  1  0.88286670  0.62627068  0.13898201  1
  O  O298  1  0.87550029  0.63691493  0.63374921  1
  O  O299  1  0.24705489  0.24424624  0.11240230  1
  O  O300  1  0.24664557  0.26592975  0.62530616  1
  O  O301  1  0.26482413  0.74633674  0.12228369  1
  O  O302  1  0.25012312  0.75189628  0.61661739  1
  O  O303  1  0.74676663  0.26061040  0.11634252  1
  O  O304  1  0.75437092  0.25327138  0.61714633  1
  O  O305  1  0.75022964  0.76133177  0.12748924  1
  O  O306  1  0.75722833  0.75208513  0.61547971  1
  O  O307  1  0.23606790  0.24731563  0.37301732  1
  O  O308  1  0.24453714  0.24246465  0.88118090  1
  O  O309  1  0.23702524  0.75236984  0.38655915  1
  O  O310  1  0.23743090  0.74476766  0.87181388  1
  O  O311  1  0.74424333  0.24297893  0.38064856  1
  O  O312  1  0.74542523  0.24466032  0.88032808  1
  O  O313  1  0.75063476  0.74032113  0.38832395  1
  O  O314  1  0.72526403  0.74745198  0.86138937  1
  O  O315  1  0.00600884  0.12559074  0.00576337  1
  O  O316  1  0.00489420  0.11999321  0.50239167  1
  O  O317  1  -0.00604127  0.62648026  0.01381411  1
  O  O318  1  0.01351177  0.62999003  0.49888721  1
  O  O319  1  0.50085639  0.11464028  0.00634806  1
  O  O320  1  0.49431787  0.12310090  0.51166234  1
  O  O321  1  0.50537919  0.61752677  0.00565755  1
  O  O322  1  0.51319499  0.61451815  0.50219441  1
  O  O323  1  0.50236704  0.38807382  0.49397912  1
  O  O324  1  0.49347504  0.37939701  0.99719175  1
  O  O325  1  0.48619370  0.87944517  0.49872391  1
  O  O326  1  0.49091486  0.88742991  1.00538091  1
  O  O327  1  0.99033154  0.37016722  0.48884157  1
  O  O328  1  0.99116290  0.36873173  0.99361332  1
  O  O329  1  0.99711881  0.88114972  0.48637733  1
  O  O330  1  0.99405490  0.87649531  0.99160152  1
  O  O331  1  0.50055369  0.49423087  0.38336216  1
  O  O332  1  0.50295656  0.49265290  0.88821002  1
  O  O333  1  0.48633751  1.00113354  0.37610143  1
  O  O334  1  0.49237199  1.00595190  0.88265110  1
  O  O335  1  1.00411937  0.48990363  0.37134576  1
  O  O336  1  0.98929731  0.49336885  0.87475698  1
  O  O337  1  0.99208741  0.99491164  0.37824493  1
  O  O338  1  0.99908590  0.98500968  0.87201996  1
  O  O339  1  0.00244520  0.01272748  0.12436835  1
  O  O340  1  0.00461602  0.00362480  0.61842292  1
  O  O341  1  0.00208923  0.51551355  0.12383244  1
  O  O342  1  0.01068068  0.49484314  0.63100564  1
  O  O343  1  0.50789728  0.00832737  0.11782794  1
  O  O344  1  0.50848183  0.00880374  0.62275726  1
  O  O345  1  0.49704754  0.51404251  0.11545128  1
  O  O346  1  0.50352410  0.49360412  0.61483105  1
  O  O347  1  0.23663893  0.37965082  0.25199495  1
  O  O348  1  0.24486281  0.38391401  0.74634872  1
  O  O349  1  0.24236444  0.88051041  0.24734981  1
  O  O350  1  0.23781838  0.87961813  0.75396307  1
  O  O351  1  0.74811901  0.37865664  0.24469986  1
  O  O352  1  0.75052811  0.38417364  0.74199098  1
  O  O353  1  0.73682910  0.87455623  0.24163460  1
  O  O354  1  0.74380586  0.88224380  0.74395719  1
  O  O355  1  0.25366769  0.11732768  0.25329462  1
  O  O356  1  0.25777087  0.11934852  0.75341881  1
  O  O357  1  0.24259041  0.61199671  0.25424725  1
  O  O358  1  0.25531480  0.62025290  0.75646983  1
  O  O359  1  0.76034111  0.13401125  0.25718264  1
  O  O360  1  0.75077500  0.11708584  0.75682625  1
  O  O361  1  0.75384272  0.61660952  0.25701987  1
  O  O362  1  0.76324825  0.61887423  0.74610246  1
  O  O363  1  0.36757218  0.11798856  0.36695785  1
  O  O364  1  0.37255553  0.11564166  0.86734996  1
  O  O365  1  0.36884422  0.62507045  0.37816437  1
  O  O366  1  0.36759194  0.63960635  0.85833707  1
  O  O367  1  0.86801195  0.12020732  0.36714529  1
  O  O368  1  0.86260629  0.12279987  0.87240665  1
  O  O369  1  0.86789453  0.62540661  0.36452239  1
  O  O370  1  0.87859451  0.61758784  0.86785718  1
  O  O371  1  0.11949801  0.37307070  0.14014543  1
  O  O372  1  0.12903947  0.38300013  0.63097859  1
  O  O373  1  0.12520413  0.87474105  0.13237577  1
  O  O374  1  0.11871937  0.88307993  0.63310504  1
  O  O375  1  0.63355403  0.37131207  0.13457432  1
  O  O376  1  0.63924091  0.36938901  0.62724211  1
  O  O377  1  0.62923027  0.88005786  0.12939570  1
  O  O378  1  0.62958649  0.88263129  0.63274089  1
  O  O379  1  0.11716764  0.25956423  0.25494085  1
  O  O380  1  0.11947254  0.25532316  0.75441672  1
  O  O381  1  0.13088501  0.76147054  0.25938222  1
  O  O382  1  0.11911400  0.75552725  0.75211462  1
  O  O383  1  0.62492723  0.26262685  0.26108737  1
  O  O384  1  0.62699112  0.25497798  0.76326797  1
  O  O385  1  0.62243399  0.75798532  0.25399894  1
  O  O386  1  0.62240569  0.76610017  0.74317252  1
  O  O387  1  0.37341653  0.23811426  0.25398901  1
  O  O388  1  0.37509088  0.23710728  0.74961918  1
  O  O389  1  0.37650741  0.75514997  0.23431907  1
  O  O390  1  0.37392444  0.74411469  0.73760076  1
  O  O391  1  0.88667679  0.24293710  0.25435923  1
  O  O392  1  0.88046147  0.24959579  0.74167331  1
  O  O393  1  0.86867372  0.73367616  0.25029311  1
  O  O394  1  0.88086628  0.74406173  0.74574370  1
  O  O395  1  0.38922192  0.50102992  0.50289058  1
  O  O396  1  0.38313652  0.48309576  1.00364718  1
  O  O397  1  0.37163116  0.99260798  0.49181232  1
  O  O398  1  0.38223010  0.99406250  0.99062417  1
  O  O399  1  0.87144194  0.48762311  0.50480326  1
  O  O400  1  0.87892676  0.49219488  0.99388080  1
  O  O401  1  0.87979799  0.99883497  0.48730982  1
  O  O402  1  0.87833078  0.98725134  0.99465440  1
  O  O403  1  0.12380638  0.01157294  -0.00180175  1
  O  O404  1  0.12089916  0.00342041  0.50238260  1
  O  O405  1  0.11899539  0.48922007  0.00257401  1
  O  O406  1  0.12658488  0.51347335  0.50747156  1
  O  O407  1  0.61732599  0.00079516  0.00605115  1
  O  O408  1  0.62528614  -0.00408033  0.51317684  1
  O  O409  1  0.61862130  0.51205911  -0.00084649  1
  O  O410  1  0.61704826  0.51043677  0.49997004  1
  O  O411  1  0.38278961  0.36822596  0.11483291  1
  O  O412  1  0.36393959  0.37499127  0.62589297  1
  O  O413  1  0.37424988  0.86236974  0.11642544  1
  O  O414  1  0.37599372  0.86262429  0.62058336  1
  O  O415  1  0.87095159  0.37814550  0.11361323  1
  O  O416  1  0.86644968  0.36729819  0.61828329  1
  O  O417  1  0.86522295  0.87516742  0.12003745  1
  O  O418  1  0.86794428  0.86340278  0.62367486  1
  O  O419  1  0.12789578  0.13199710  0.37601046  1
  O  O420  1  0.12968460  0.12882273  0.88130123  1
  O  O421  1  0.12720261  0.63225777  0.38572551  1
  O  O422  1  0.13238119  0.63953192  0.87168609  1
  O  O423  1  0.63329992  0.13274232  0.36617682  1
  O  O424  1  0.63528260  0.13180891  0.87542807  1
  O  O425  1  0.63644313  0.62591121  0.38575779  1
  O  O426  1  0.62816032  0.63250663  0.89391177  1
