# generated using pymatgen
data_V85Zn86O256
_symmetry_space_group_name_H-M   'P 1'
_cell_length_a   16.93205397
_cell_length_b   16.92774805
_cell_length_c   16.92724726
_cell_angle_alpha   89.91332919
_cell_angle_beta   89.93774557
_cell_angle_gamma   89.95823060
_symmetry_Int_Tables_number   1
_chemical_formula_structural   V85Zn86O256
_chemical_formula_sum   'V85 Zn86 O256'
_cell_volume   4851.70403730
_cell_formula_units_Z   1
loop_
 _symmetry_equiv_pos_site_id
 _symmetry_equiv_pos_as_xyz
  1  'x, y, z'
loop_
 _atom_site_type_symbol
 _atom_site_label
 _atom_site_symmetry_multiplicity
 _atom_site_fract_x
 _atom_site_fract_y
 _atom_site_fract_z
 _atom_site_occupancy
  V  V0  1  0.25845321  0.62440020  0.88321179  1
  V  V1  1  0.24794213  0.62341472  0.36676268  1
  V  V2  1  0.74850500  0.62041795  0.38362732  1
  V  V3  1  0.12846473  0.13958852  -0.00077327  1
  V  V4  1  0.37711417  0.74752902  0.62228721  1
  V  V5  1  0.12383954  0.00543913  0.12250727  1
  V  V6  1  0.76404020  0.12182845  0.87143350  1
  V  V7  1  0.62751617  0.24821140  0.87494705  1
  V  V8  1  0.75754899  0.87753163  0.62031618  1
  V  V9  1  0.24852819  0.00110102  0.24942545  1
  V  V10  1  0.74789065  0.49847448  0.24849635  1
  V  V11  1  0.36377932  -0.00177621  0.87134987  1
  V  V12  1  0.37698131  0.87385586  0.50027555  1
  V  V13  1  0.76053154  0.00103550  0.25139564  1
  V  V14  1  0.12230357  0.75374666  0.38025633  1
  V  V15  1  0.12334173  0.87396376  0.25270311  1
  V  V16  1  0.12992415  0.88036371  0.75012287  1
  V  V17  1  0.50237895  0.74500857  0.74899020  1
  V  V18  1  0.74870812  0.62492022  0.87407938  1
  V  V19  1  0.88194251  0.62519359  0.74127977  1
  V  V20  1  0.76412051  0.25070248  0.49666284  1
  V  V21  1  0.62438661  -0.00169398  0.12424982  1
  V  V22  1  0.49827079  0.12521005  0.12351978  1
  V  V23  1  0.76557090  0.12023473  0.37234284  1
  V  V24  1  0.25212691  0.87050361  0.11540743  1
  V  V25  1  0.49994266  0.25186637  0.74619536  1
  V  V26  1  0.87434962  0.49083138  0.38100106  1
  V  V27  1  0.74938706  0.50061604  0.74909620  1
  V  V28  1  0.62625460  0.24780660  0.37356460  1
  V  V29  1  0.62773022  0.37743823  0.75003548  1
  V  V30  1  0.50258065  0.00349714  0.50128103  1
  V  V31  1  0.87642924  0.50056793  0.87651776  1
  V  V32  1  0.62858194  0.12846185  0.49931439  1
  V  V33  1  0.49823969  0.37926725  0.37552727  1
  V  V34  1  -0.00119035  0.00544940  -0.01341265  1
  V  V35  1  0.74845724  0.87253683  0.12158769  1
  V  V36  1  -0.00738578  0.25942913  0.24438637  1
  V  V37  1  0.12328455  0.37932357  0.74833748  1
  V  V38  1  0.49711569  0.25111340  0.24788142  1
  V  V39  1  0.36991703  0.12376829  0.74949566  1
  V  V40  1  0.62357709  0.74903901  0.87558470  1
  V  V41  1  0.01115117  0.37831352  0.37528883  1
  V  V42  1  0.00183481  0.50663518  0.00973820  1
  V  V43  1  0.25093242  0.74776226  0.50206452  1
  V  V44  1  0.23971795  0.24607514  0.50003191  1
  V  V45  1  0.50489559  0.62014999  0.60598864  1
  V  V46  1  0.61974638  0.87309061  0.25010563  1
  V  V47  1  0.76634092  0.00153358  0.75134624  1
  V  V48  1  0.75872034  0.37405318  0.62101998  1
  V  V49  1  0.37041524  0.12649288  0.25123650  1
  V  V50  1  0.24891158  0.14248180  0.87957939  1
  V  V51  1  0.00386363  -0.00655396  0.49096513  1
  V  V52  1  0.87609314  0.87967890  -0.00843326  1
  V  V53  1  0.25354593  0.50263427  0.75244626  1
  V  V54  1  -0.02670121  0.77282658  0.27817157  1
  V  V55  1  0.37875982  0.73452694  0.12721930  1
  V  V56  1  0.12141291  0.61996930  0.51738681  1
  V  V57  1  0.00070172  0.24366983  0.75547344  1
  V  V58  1  0.48651380  0.50217001  0.00060887  1
  V  V59  1  0.23465289  0.37400314  0.13269055  1
  V  V60  1  -0.01772099  0.12733786  0.13106191  1
  V  V61  1  0.12768989  0.75116128  0.87923632  1
  V  V62  1  0.24461920  0.38463967  0.62284945  1
  V  V63  1  0.12291108  0.62837056  0.00419535  1
  V  V64  1  0.74934071  0.36479114  0.12618065  1
  V  V65  1  0.49889731  0.87534486  0.87302712  1
  V  V66  1  0.62433739  0.12471255  -0.00365016  1
  V  V67  1  0.36507103  0.36645879  -0.00540273  1
  V  V68  1  0.49795164  -0.00133036  -0.00384168  1
  V  V69  1  0.37046580  0.50042518  0.36013740  1
  V  V70  1  0.50083170  0.87635836  0.37564087  1
  V  V71  1  0.50176791  0.12883726  0.62478370  1
  V  V72  1  0.37384830  0.38060997  0.49892165  1
  V  V73  1  0.87743664  0.23811964  0.63055785  1
  V  V74  1  0.87402331  0.37010917  0.00421587  1
  V  V75  1  0.61966206  0.62222818  0.01072634  1
  V  V76  1  0.62392717  0.74429558  0.38095729  1
  V  V77  1  0.25329295  0.88411732  0.62969346  1
  V  V78  1  0.00403869  0.74809934  0.74285043  1
  V  V79  1  0.37488044  0.00068519  0.37537833  1
  V  V80  1  0.75612230  0.75168457  0.50138431  1
  V  V81  1  0.01033204  0.37556714  0.87879034  1
  V  V82  1  0.74856997  0.74911679  -0.00090908  1
  V  V83  1  0.88557020  0.74072752  0.11728504  1
  V  V84  1  -0.00306791  0.49736217  0.51521186  1
  Zn  Zn85  1  0.21775650  0.49728162  0.24484089  1
  Zn  Zn86  1  0.12777224  0.00944120  0.61954449  1
  Zn  Zn87  1  0.36329834  0.24801799  0.12035004  1
  Zn  Zn88  1  0.62276761  0.37252429  0.24667958  1
  Zn  Zn89  1  0.61856224  0.49844459  0.12639991  1
  Zn  Zn90  1  0.04928887  0.58707368  0.17269506  1
  Zn  Zn91  1  0.37393897  0.25465142  0.62321805  1
  Zn  Zn92  1  0.49797746  0.72541674  0.24482359  1
  Zn  Zn93  1  0.75462591  0.24592515  0.00233889  1
  Zn  Zn94  1  0.89549129  -0.04785962  0.37425155  1
  Zn  Zn95  1  0.12265839  0.24533179  0.36904879  1
  Zn  Zn96  1  0.37099673  0.86933321  -0.00344474  1
  Zn  Zn97  1  0.49377475  0.38117360  0.87233312  1
  Zn  Zn98  1  0.88418341  0.75100197  0.61708918  1
  Zn  Zn99  1  0.63059695  0.00048620  0.62682590  1
  Zn  Zn100  1  0.62708919  0.50919320  0.61143771  1
  Zn  Zn101  1  0.87637695  0.62190103  0.24694127  1
  Zn  Zn102  1  0.37941249  0.61801734  0.75234728  1
  Zn  Zn103  1  0.62715302  0.87884395  0.74758858  1
  Zn  Zn104  1  -0.00192019  0.88053577  0.86875034  1
  Zn  Zn105  1  0.24362466  0.12081249  0.38451504  1
  Zn  Zn106  1  0.01029688  0.12563458  0.61559331  1
  Zn  Zn107  1  0.18185179  0.19366225  0.18954972  1
  Zn  Zn108  1  0.18699469  0.19728860  0.68925145  1
  Zn  Zn109  1  0.18877877  0.69656825  0.19110716  1
  Zn  Zn110  1  0.19164942  0.69062365  0.69252732  1
  Zn  Zn111  1  0.68809505  0.18403152  0.18795751  1
  Zn  Zn112  1  0.69176296  0.18548525  0.68757232  1
  Zn  Zn113  1  0.69041351  0.68721590  0.19116132  1
  Zn  Zn114  1  0.68663910  0.68787605  0.68479249  1
  Zn  Zn115  1  0.30687855  0.31420361  0.31069437  1
  Zn  Zn116  1  0.31343735  0.31649726  0.81082518  1
  Zn  Zn117  1  0.31120200  0.81087013  0.30928716  1
  Zn  Zn118  1  0.31317470  0.80665775  0.81124519  1
  Zn  Zn119  1  0.81829368  0.31063762  0.31070615  1
  Zn  Zn120  1  0.81591414  0.31209668  0.81475803  1
  Zn  Zn121  1  0.80191714  0.80725547  0.30673776  1
  Zn  Zn122  1  0.81382367  0.81344718  0.80763768  1
  Zn  Zn123  1  0.18561470  0.44204923  0.43893329  1
  Zn  Zn124  1  0.18812386  0.44441827  0.94244279  1
  Zn  Zn125  1  0.18528843  0.93928543  0.43953006  1
  Zn  Zn126  1  0.18355103  0.94240865  0.93592031  1
  Zn  Zn127  1  0.68526678  0.43439902  0.43843969  1
  Zn  Zn128  1  0.68533604  0.43801876  0.93932640  1
  Zn  Zn129  1  0.69055769  0.93774366  0.43865324  1
  Zn  Zn130  1  0.68740391  0.93826979  0.93147398  1
  Zn  Zn131  1  0.31220619  0.06234207  0.05986405  1
  Zn  Zn132  1  0.31584836  0.06520248  0.56426974  1
  Zn  Zn133  1  0.30594591  0.55709853  0.06580805  1
  Zn  Zn134  1  0.31520237  0.56235265  0.55952955  1
  Zn  Zn135  1  0.80968679  0.05923124  0.05673325  1
  Zn  Zn136  1  0.82647454  0.05515541  0.55381709  1
  Zn  Zn137  1  0.80850734  0.55872594  0.06197884  1
  Zn  Zn138  1  0.81281984  0.56244736  0.56223421  1
  Zn  Zn139  1  0.43068648  0.43646125  0.17925247  1
  Zn  Zn140  1  0.43585954  0.43977098  0.68581317  1
  Zn  Zn141  1  0.43619642  0.93667187  0.18661454  1
  Zn  Zn142  1  0.44046725  0.93893574  0.68843767  1
  Zn  Zn143  1  0.93219662  0.43597441  0.18931312  1
  Zn  Zn144  1  0.93370006  0.43136669  0.69099557  1
  Zn  Zn145  1  0.93681643  0.93734810  0.17702176  1
  Zn  Zn146  1  0.94307515  0.93655937  0.67972935  1
  Zn  Zn147  1  0.06153883  0.06729614  0.31513303  1
  Zn  Zn148  1  0.07668399  0.07205027  0.79849925  1
  Zn  Zn149  1  0.05371017  0.57615926  0.33030403  1
  Zn  Zn150  1  0.06603337  0.56219829  0.81488924  1
  Zn  Zn151  1  0.56528468  0.06336797  0.31172130  1
  Zn  Zn152  1  0.56538221  0.06121975  0.80844820  1
  Zn  Zn153  1  0.56496831  0.55814179  0.31555243  1
  Zn  Zn154  1  0.56175439  0.56083920  0.81602038  1
  Zn  Zn155  1  0.43217688  0.19435989  0.43804624  1
  Zn  Zn156  1  0.43897379  0.18985179  0.93285248  1
  Zn  Zn157  1  0.45090423  0.66783819  0.40799089  1
  Zn  Zn158  1  0.43614189  0.68924351  0.94504472  1
  Zn  Zn159  1  0.94731427  0.18403980  0.43668424  1
  Zn  Zn160  1  0.94302901  0.19060681  0.93827073  1
  Zn  Zn161  1  0.93564079  0.67866953  0.44077397  1
  Zn  Zn162  1  0.94149775  0.68891368  0.93010967  1
  Zn  Zn163  1  0.05759788  0.31164168  0.06465134  1
  Zn  Zn164  1  0.06039494  0.31742770  0.56669398  1
  Zn  Zn165  1  0.06261869  0.81619562  0.06069848  1
  Zn  Zn166  1  0.06397103  0.81891577  0.56254787  1
  Zn  Zn167  1  0.55866368  0.31709470  0.06092433  1
  Zn  Zn168  1  0.57872182  0.34113255  0.54803893  1
  Zn  Zn169  1  0.55468329  0.80866216  0.06294011  1
  Zn  Zn170  1  0.56852736  0.81276430  0.56254686  1
  O  O171  1  0.12229138  0.11836252  0.11687256  1
  O  O172  1  0.11778422  0.11659661  0.66037400  1
  O  O173  1  0.12723230  0.64445983  0.10913949  1
  O  O174  1  0.12785549  0.63045958  0.61557242  1
  O  O175  1  0.61905486  0.11831356  0.11718128  1
  O  O176  1  0.62255498  0.12720176  0.61236621  1
  O  O177  1  0.62907279  0.62543491  0.11389663  1
  O  O178  1  0.61062086  0.62589077  0.62365966  1
  O  O179  1  0.37675939  0.38125728  0.37810036  1
  O  O180  1  0.37443276  0.37402675  0.88888604  1
  O  O181  1  0.38111713  0.87937633  0.37938982  1
  O  O182  1  0.37930993  0.88120027  0.87377096  1
  O  O183  1  0.88059157  0.38700103  0.37494673  1
  O  O184  1  0.88027806  0.38781355  0.88078353  1
  O  O185  1  0.90479679  0.83932567  0.33891616  1
  O  O186  1  0.87760852  0.86788268  0.88795758  1
  O  O187  1  0.25772687  -0.00115578  0.36756279  1
  O  O188  1  0.26174319  0.00660604  0.87739166  1
  O  O189  1  0.25056383  0.50606023  0.36682025  1
  O  O190  1  0.24607554  0.51646197  0.86934740  1
  O  O191  1  0.75224831  0.00441736  0.36624046  1
  O  O192  1  0.74890701  0.00717445  0.86173695  1
  O  O193  1  0.75290367  0.50203516  0.37357067  1
  O  O194  1  0.75692735  0.50423246  0.87044114  1
  O  O195  1  0.25323508  0.48252585  0.13125660  1
  O  O196  1  0.25364619  0.49146518  0.63158633  1
  O  O197  1  0.24196661  0.99417733  0.12867907  1
  O  O198  1  0.25278380  0.98743422  0.62063728  1
  O  O199  1  0.74694830  0.49153660  0.13484311  1
  O  O200  1  0.74824526  0.49133377  0.62885190  1
  O  O201  1  0.74456896  0.99263373  0.13076738  1
  O  O202  1  0.75532864  0.99533330  0.63179147  1
  O  O203  1  -0.00564295  0.36728805  0.25663306  1
  O  O204  1  0.00638409  0.37579852  0.76072383  1
  O  O205  1  0.01460672  0.86945020  0.23488501  1
  O  O206  1  0.00970673  0.86726668  0.75080188  1
  O  O207  1  0.49693911  0.36550363  0.25437569  1
  O  O208  1  0.50867978  0.37056141  0.75013016  1
  O  O209  1  0.51100094  0.87946555  0.25564564  1
  O  O210  1  0.50171451  0.86282023  0.75440756  1
  O  O211  1  0.48946615  0.12875681  0.24620162  1
  O  O212  1  0.49230510  0.13328940  0.74698880  1
  O  O213  1  0.48232575  0.62984132  0.30150717  1
  O  O214  1  0.49903864  0.63583916  0.75072614  1
  O  O215  1  0.99715305  0.12579854  0.23348485  1
  O  O216  1  0.99480066  0.14316653  0.76485477  1
  O  O217  1  0.99012425  0.65173513  0.25757619  1
  O  O218  1  0.99249800  0.63166374  0.75747166  1
  O  O219  1  0.38052227  0.26276910  0.00068154  1
  O  O220  1  0.35990052  0.26137586  0.50090798  1
  O  O221  1  0.37869590  0.75505395  0.01895465  1
  O  O222  1  0.37393303  0.75520065  0.51132533  1
  O  O223  1  0.87405852  0.26635274  -0.00515046  1
  O  O224  1  0.86782957  0.24574443  0.50621356  1
  O  O225  1  0.87141281  0.75316911  0.00462003  1
  O  O226  1  0.86210655  0.74287215  0.49999845  1
  O  O227  1  0.13735208  0.25757250  0.50217408  1
  O  O228  1  0.11691981  0.23819967  0.99860132  1
  O  O229  1  0.12925351  0.74369773  0.49780503  1
  O  O230  1  0.11809865  0.74755569  0.98636934  1
  O  O231  1  0.63629148  0.24461871  0.49325861  1
  O  O232  1  0.62320466  0.24728738  0.98695083  1
  O  O233  1  0.63728730  0.75542616  0.48699038  1
  O  O234  1  0.62636760  0.74271855  0.99475707  1
  O  O235  1  0.50071850  0.24374956  0.13585582  1
  O  O236  1  0.50311227  0.24755293  0.63712466  1
  O  O237  1  0.48693758  0.74704856  0.13102148  1
  O  O238  1  0.49745299  0.74250830  0.62990270  1
  O  O239  1  0.99609212  0.23964482  0.13189336  1
  O  O240  1  0.99380079  0.24898500  0.63345675  1
  O  O241  1  0.98552529  0.75537623  0.12501358  1
  O  O242  1  1.00194760  0.75241163  0.63773991  1
  O  O243  1  -0.00066242  0.26268834  0.36939580  1
  O  O244  1  -0.00578770  0.26641361  0.86956876  1
  O  O245  1  0.01416568  0.74427498  0.38118758  1
  O  O246  1  0.01054851  0.75427335  0.86375539  1
  O  O247  1  0.50250915  0.25224645  0.36239122  1
  O  O248  1  0.50865821  0.25333862  0.86245418  1
  O  O249  1  0.51021562  0.76498995  0.38146310  1
  O  O250  1  0.50210047  0.75448683  0.86866581  1
  O  O251  1  0.25445683  0.14236816  0.50494170  1
  O  O252  1  0.24468057  0.12435776  0.98896915  1
  O  O253  1  0.23719327  0.62878279  0.49987885  1
  O  O254  1  0.24225116  0.61975975  0.98934788  1
  O  O255  1  0.74558905  0.12905238  0.49284420  1
  O  O256  1  0.74083729  0.12516458  0.99223358  1
  O  O257  1  0.74924891  0.62918468  0.49081360  1
  O  O258  1  0.74157331  0.62952266  0.99368367  1
  O  O259  1  0.26143616  0.38088990  0.00474447  1
  O  O260  1  0.25214636  0.37228224  0.50670862  1
  O  O261  1  0.24806325  0.88068137  0.01272612  1
  O  O262  1  0.25809140  0.86691524  0.50700110  1
  O  O263  1  0.75666858  0.37442133  0.00748798  1
  O  O264  1  0.75040542  0.36156067  0.50846789  1
  O  O265  1  0.75542167  0.87035627  0.00187766  1
  O  O266  1  0.75060254  0.86643829  0.50672566  1
  O  O267  1  0.10854629  0.52519107  0.24713166  1
  O  O268  1  0.13626730  0.49074861  0.75594500  1
  O  O269  1  0.12669473  0.99481679  0.23790672  1
  O  O270  1  0.12687840  0.98211195  0.75151488  1
  O  O271  1  0.63559486  0.49649306  0.25008552  1
  O  O272  1  0.63042294  0.49176849  0.74644418  1
  O  O273  1  0.63064257  0.99224548  0.24303699  1
  O  O274  1  0.63538915  0.99830654  0.74517001  1
  O  O275  1  0.37115565  0.00746536  0.25512442  1
  O  O276  1  0.38246323  0.01178880  0.75908160  1
  O  O277  1  0.37301360  0.49663612  0.25956254  1
  O  O278  1  0.36056175  0.49952268  0.75060192  1
  O  O279  1  0.86323043  -0.01542711  0.25330157  1
  O  O280  1  0.86514605  -0.00562860  0.75051036  1
  O  O281  1  0.86303388  0.50132136  0.25897896  1
  O  O282  1  0.87136097  0.50613212  0.75758611  1
  O  O283  1  0.11347617  0.37603576  0.37531516  1
  O  O284  1  0.11448862  0.38331947  0.87422393  1
  O  O285  1  0.13315424  0.86568964  0.36483495  1
  O  O286  1  0.12771869  0.86736036  0.86878773  1
  O  O287  1  0.61463884  0.36455828  0.36871481  1
  O  O288  1  0.62789458  0.36689629  0.86426291  1
  O  O289  1  0.62242041  0.86998863  0.36708367  1
  O  O290  1  0.61638777  0.86622666  0.87354128  1
  O  O291  1  0.38077264  0.12691839  0.13084850  1
  O  O292  1  0.38192479  0.13034415  0.63404295  1
  O  O293  1  0.36513958  0.63640923  0.12586954  1
  O  O294  1  0.38567626  0.63231694  0.62530152  1
  O  O295  1  0.88421959  0.12186162  0.11962429  1
  O  O296  1  0.87551522  0.13616031  0.62403885  1
  O  O297  1  0.86980661  0.63728164  0.12127401  1
  O  O298  1  0.87108403  0.62791281  0.63853326  1
  O  O299  1  0.24849016  0.26424998  0.12799417  1
  O  O300  1  0.25087867  0.26429768  0.61697025  1
  O  O301  1  0.25915888  0.76568806  0.12864891  1
  O  O302  1  0.26126556  0.75473979  0.62127758  1
  O  O303  1  0.74630507  0.25974226  0.12338859  1
  O  O304  1  0.75901494  0.25268158  0.61877621  1
  O  O305  1  0.75507461  0.75501014  0.11695738  1
  O  O306  1  0.75029651  0.75574888  0.61571745  1
  O  O307  1  0.24622840  0.25380935  0.39023411  1
  O  O308  1  0.25394751  0.24087335  0.87738561  1
  O  O309  1  0.24435408  0.74362576  0.38211399  1
  O  O310  1  0.24128353  0.73656879  0.87065413  1
  O  O311  1  0.74796139  0.24376193  0.38001832  1
  O  O312  1  0.74349505  0.24147612  0.87457316  1
  O  O313  1  0.74386598  0.74036221  0.37977097  1
  O  O314  1  0.74433734  0.74594708  0.87991706  1
  O  O315  1  0.00606486  0.12179229  0.00826557  1
  O  O316  1  -0.00305891  0.10802079  0.50154081  1
  O  O317  1  0.00805192  0.61853832  -0.00614820  1
  O  O318  1  0.01188163  0.61339258  0.50028323  1
  O  O319  1  0.50454660  0.11909689  0.00175441  1
  O  O320  1  0.50732975  0.12601140  0.50321951  1
  O  O321  1  0.50605512  0.61295536  -0.00339003  1
  O  O322  1  0.49876278  0.62811208  0.50767747  1
  O  O323  1  0.48322078  0.35388677  0.48384385  1
  O  O324  1  0.48804305  0.38393627  0.99683584  1
  O  O325  1  0.49661937  0.88259006  0.49676924  1
  O  O326  1  0.49764824  0.88198063  0.99119668  1
  O  O327  1  1.00504775  0.39043884  0.49381453  1
  O  O328  1  0.99320335  0.38437992  0.99637979  1
  O  O329  1  1.00000693  0.89012402  0.50420360  1
  O  O330  1  0.99341519  0.88697880  0.99788894  1
  O  O331  1  0.49094739  0.48344660  0.37419098  1
  O  O332  1  0.50602994  0.49636059  0.89258789  1
  O  O333  1  0.49654055  0.99542279  0.38057576  1
  O  O334  1  0.49362007  0.99451813  0.87775513  1
  O  O335  1  0.99056956  0.49522468  0.38497799  1
  O  O336  1  0.99204766  0.49563505  0.88375456  1
  O  O337  1  1.00359063  0.99528443  0.38189074  1
  O  O338  1  1.01026502  1.00353468  0.88480697  1
  O  O339  1  0.00545669  0.01161774  0.11735137  1
  O  O340  1  0.00257639  0.00479232  0.61457572  1
  O  O341  1  -0.01263717  0.50639985  0.11408329  1
  O  O342  1  -0.00696041  0.49453147  0.61412479  1
  O  O343  1  0.50421156  0.00491653  0.11726873  1
  O  O344  1  0.50287301  0.00983819  0.61834697  1
  O  O345  1  0.50171281  0.49586636  0.10851767  1
  O  O346  1  0.49841910  0.51887982  0.62941570  1
  O  O347  1  0.24381225  0.37708379  0.23919045  1
  O  O348  1  0.24370223  0.38130017  0.74462547  1
  O  O349  1  0.23977829  0.88146844  0.24066941  1
  O  O350  1  0.24492477  0.86694786  0.74016999  1
  O  O351  1  0.74973698  0.37947785  0.24340462  1
  O  O352  1  0.74753480  0.38247727  0.74706823  1
  O  O353  1  0.73637190  0.87949878  0.24361430  1
  O  O354  1  0.74896073  0.88641852  0.74549510  1
  O  O355  1  0.26107173  0.12031385  0.24454460  1
  O  O356  1  0.26409937  0.13477409  0.76184259  1
  O  O357  1  0.24651061  0.62932420  0.26458494  1
  O  O358  1  0.25237575  0.61863836  0.75974313  1
  O  O359  1  0.74437146  0.11125374  0.25813837  1
  O  O360  1  0.75069967  0.11187408  0.75616036  1
  O  O361  1  0.75130220  0.61546602  0.26099247  1
  O  O362  1  0.75579698  0.61980641  0.75490645  1
  O  O363  1  0.36968781  0.12002917  0.36768413  1
  O  O364  1  0.36678759  0.12025031  0.87105833  1
  O  O365  1  0.35288273  0.61059402  0.39472942  1
  O  O366  1  0.36117881  0.63325670  0.87519389  1
  O  O367  1  0.86426250  0.12733286  0.37516549  1
  O  O368  1  0.86225644  0.12812591  0.88522025  1
  O  O369  1  0.86515557  0.61196621  0.37379135  1
  O  O370  1  0.86932038  0.61532514  0.87011043  1
  O  O371  1  0.13620085  0.37591053  0.11473559  1
  O  O372  1  0.13250645  0.37829470  0.63504162  1
  O  O373  1  0.13535737  0.88077141  0.12784404  1
  O  O374  1  0.13893876  0.87252986  0.63398004  1
  O  O375  1  0.63350560  0.37640738  0.12654860  1
  O  O376  1  0.64231758  0.35965527  0.64434584  1
  O  O377  1  0.62713293  0.87654165  0.13072166  1
  O  O378  1  0.63999842  0.87720238  0.62632757  1
  O  O379  1  0.10037757  0.24501420  0.25036115  1
  O  O380  1  0.11573618  0.26946076  0.75217096  1
  O  O381  1  0.11864903  0.75943892  0.26182742  1
  O  O382  1  0.12086541  0.75561640  0.75848614  1
  O  O383  1  0.61521500  0.24606154  0.25646739  1
  O  O384  1  0.62160765  0.25183442  0.75955886  1
  O  O385  1  0.62124765  0.75579767  0.25943923  1
  O  O386  1  0.61848750  0.75113707  0.75745975  1
  O  O387  1  0.38004904  0.24141364  0.24972630  1
  O  O388  1  0.38455433  0.24613068  0.74841394  1
  O  O389  1  0.37802835  0.75963657  0.23280010  1
  O  O390  1  0.38422007  0.74715812  0.73735487  1
  O  O391  1  0.89211707  0.24409434  0.25458044  1
  O  O392  1  0.88660039  0.25945095  0.74130652  1
  O  O393  1  0.86971774  0.74615459  0.22973609  1
  O  O394  1  0.88559896  0.74054882  0.75239123  1
  O  O395  1  0.36758701  0.48508163  0.48991058  1
  O  O396  1  0.38290472  0.49386706  1.00165561  1
  O  O397  1  0.38206637  0.99628785  0.49458484  1
  O  O398  1  0.38285416  0.99860614  0.98950381  1
  O  O399  1  0.88817335  0.50581478  0.49581530  1
  O  O400  1  0.87859403  0.49481841  0.99223621  1
  O  O401  1  0.88727362  0.99182507  0.48397288  1
  O  O402  1  0.88458704  0.99093511  1.00270749  1
  O  O403  1  0.11793005  0.00731791  0.00898865  1
  O  O404  1  0.11520571  -0.00237933  0.50359476  1
  O  O405  1  0.11313906  0.51336361  -0.00101492  1
  O  O406  1  0.11487192  0.51249134  0.50164356  1
  O  O407  1  0.61834671  0.00308852  0.00398051  1
  O  O408  1  0.62103862  0.01114295  0.50086903  1
  O  O409  1  0.61918358  0.50847178  0.00295097  1
  O  O410  1  0.60942266  0.45164610  0.51701195  1
  O  O411  1  0.36672620  0.36879657  0.11188593  1
  O  O412  1  0.36870805  0.37530055  0.61593482  1
  O  O413  1  0.35948498  0.88135741  0.12218192  1
  O  O414  1  0.37246970  0.86873341  0.62181972  1
  O  O415  1  0.86362262  0.38027082  0.11522115  1
  O  O416  1  0.86313445  0.36525099  0.62769744  1
  O  O417  1  0.86790498  0.86506929  0.11195384  1
  O  O418  1  0.86191349  0.86718567  0.63273037  1
  O  O419  1  0.13359145  0.13100882  0.36861250  1
  O  O420  1  0.14313060  0.12165892  0.88083541  1
  O  O421  1  0.13412207  0.63538924  0.39077973  1
  O  O422  1  0.13253862  0.63338305  0.88322902  1
  O  O423  1  0.63159927  0.12874805  0.38434860  1
  O  O424  1  0.63077551  0.13187391  0.87859985  1
  O  O425  1  0.63537608  0.63331827  0.37482415  1
  O  O426  1  0.63043519  0.63166216  0.88264136  1
