# generated using pymatgen
data_V85Zn86O256
_symmetry_space_group_name_H-M   'P 1'
_cell_length_a   16.95516779
_cell_length_b   16.95368597
_cell_length_c   16.95355513
_cell_angle_alpha   89.93513373
_cell_angle_beta   89.92358304
_cell_angle_gamma   89.95758158
_symmetry_Int_Tables_number   1
_chemical_formula_structural   V85Zn86O256
_chemical_formula_sum   'V85 Zn86 O256'
_cell_volume   4873.33454742
_cell_formula_units_Z   1
loop_
 _symmetry_equiv_pos_site_id
 _symmetry_equiv_pos_as_xyz
  1  'x, y, z'
loop_
 _atom_site_type_symbol
 _atom_site_label
 _atom_site_symmetry_multiplicity
 _atom_site_fract_x
 _atom_site_fract_y
 _atom_site_fract_z
 _atom_site_occupancy
  V  V0  1  -0.00004296  0.49977895  0.00472366  1
  V  V1  1  0.24785626  0.37213927  0.62614464  1
  V  V2  1  0.62719438  0.37197224  0.24616695  1
  V  V3  1  0.37567415  0.25036003  0.12432679  1
  V  V4  1  0.50278489  0.24918416  0.76703176  1
  V  V5  1  0.38179114  0.74471069  0.62421228  1
  V  V6  1  0.12575890  0.61883430  -0.00379600  1
  V  V7  1  0.38536433  0.62227435  0.74717204  1
  V  V8  1  -0.00876114  0.12974691  0.62522709  1
  V  V9  1  0.00160278  -0.00504644  0.49637152  1
  V  V10  1  0.87554110  0.62852684  0.75099155  1
  V  V11  1  0.74847672  0.49922703  0.75018210  1
  V  V12  1  0.61766449  0.87352600  0.74680920  1
  V  V13  1  0.37370143  0.00102974  0.37364186  1
  V  V14  1  -0.00186607  0.36915957  0.38274703  1
  V  V15  1  -0.00116974  -0.00446755  -0.00056464  1
  V  V16  1  0.12570143  0.12792773  0.49939317  1
  V  V17  1  0.39007742  0.48983058  0.87048043  1
  V  V18  1  0.74576204  0.13095399  0.37550608  1
  V  V19  1  0.49962115  0.00582539  0.50174215  1
  V  V20  1  0.62237431  0.00563033  0.12610787  1
  V  V21  1  0.75841890  0.37333847  0.62227920  1
  V  V22  1  0.12937291  0.36892958  0.25789451  1
  V  V23  1  0.00511857  0.62551850  0.61459798  1
  V  V24  1  0.62740410  0.87386835  0.25458924  1
  V  V25  1  0.55714233  0.81767502  0.92147499  1
  V  V26  1  0.24564324  0.37081846  0.12504549  1
  V  V27  1  0.87480290  0.75201344  0.62240057  1
  V  V28  1  0.37523359  0.74031227  0.12556304  1
  V  V29  1  0.00007409  0.87427758  0.87254568  1
  V  V30  1  0.74879487  0.87664389  0.62135275  1
  V  V31  1  0.25092842  0.87775469  0.12617144  1
  V  V32  1  0.24736831  0.25335954  0.49808817  1
  V  V33  1  0.75162252  0.49720439  0.25177859  1
  V  V34  1  -0.00139492  0.12374143  0.12527754  1
  V  V35  1  0.50438128  0.51360484  0.50085806  1
  V  V36  1  0.50513847  0.37340100  0.37688498  1
  V  V37  1  0.87589371  -0.00567512  0.37257289  1
  V  V38  1  0.24478256  0.12993539  0.37359984  1
  V  V39  1  0.50481759  0.24937586  0.25226376  1
  V  V40  1  0.12654772  0.25550022  0.87522544  1
  V  V41  1  0.24985414  0.11625073  0.86958803  1
  V  V42  1  0.00249076  0.25065976  0.25100129  1
  V  V43  1  0.37634717  0.11825460  0.74594796  1
  V  V44  1  0.25044353  0.87554068  0.62867714  1
  V  V45  1  0.37508050  0.87206443  -0.00691287  1
  V  V46  1  0.62315535  0.50951395  0.62198588  1
  V  V47  1  0.62113213  0.37280623  0.75618885  1
  V  V48  1  0.62241911  0.00763196  0.62126280  1
  V  V49  1  0.86878506  0.86313886  0.00406277  1
  V  V50  1  -0.00673094  0.75597541  0.25491593  1
  V  V51  1  0.24887785  0.74884850  -0.00170975  1
  V  V52  1  0.49463257  0.73688287  0.25329248  1
  V  V53  1  0.50446842  0.00849134  -0.00879982  1
  V  V54  1  0.68759802  0.18436389  -0.05816683  1
  V  V55  1  0.76685537  0.25278387  0.50327883  1
  V  V56  1  0.37486859  0.12417026  0.24807106  1
  V  V57  1  0.74447638  0.63835601  0.88303551  1
  V  V58  1  0.12530921  -0.00297712  0.12522068  1
  V  V59  1  0.12556315  0.75002283  0.87456306  1
  V  V60  1  0.61885287  0.13873560  0.49663433  1
  V  V61  1  0.36304662  0.50335902  0.37156873  1
  V  V62  1  0.37203212  0.87448413  0.50125953  1
  V  V63  1  0.87128431  0.00135409  0.87136659  1
  V  V64  1  0.12918526  0.00376632  0.62796995  1
  V  V65  1  0.87565047  0.50197978  0.88089515  1
  V  V66  1  0.12697597  0.87894846  0.75014079  1
  V  V67  1  -0.00725604  0.25804864  0.74491812  1
  V  V68  1  0.38734292  0.24587368  0.62410840  1
  V  V69  1  0.87302535  0.12858080  0.24840309  1
  V  V70  1  0.87376336  0.49376173  0.38582238  1
  V  V71  1  0.24324986  0.73591149  0.49652768  1
  V  V72  1  0.61921741  0.73710392  0.38241713  1
  V  V73  1  0.87412295  0.62336948  0.24564462  1
  V  V74  1  0.25023494  0.49854684  0.75277444  1
  V  V75  1  0.49668380  0.87341984  0.37536226  1
  V  V76  1  0.18549411  0.54514216  0.18177123  1
  V  V77  1  0.74822070  0.00770877  0.74911333  1
  V  V78  1  -0.05445167  0.33377954  0.92994265  1
  V  V79  1  0.37728854  0.37391980  0.49977627  1
  V  V80  1  0.74608917  0.74312908  0.49802168  1
  V  V81  1  0.50470204  0.49880182  0.01584177  1
  V  V82  1  0.75566436  0.37284739  0.11062875  1
  V  V83  1  0.12072253  0.87772098  0.26604477  1
  V  V84  1  0.87506206  0.87508446  0.49339164  1
  Zn  Zn85  1  0.12883468  0.50708576  0.62502790  1
  Zn  Zn86  1  -0.00715316  0.62877003  0.12453047  1
  Zn  Zn87  1  0.86784513  0.13307721  0.74745537  1
  Zn  Zn88  1  0.00543989  0.49514419  0.50088460  1
  Zn  Zn89  1  0.62630832  0.51659436  0.12983316  1
  Zn  Zn90  1  0.25158632  0.24739298  -0.00291499  1
  Zn  Zn91  1  0.50405225  0.12873043  0.12134176  1
  Zn  Zn92  1  0.74653179  0.61883650  0.37970543  1
  Zn  Zn93  1  0.12920227  0.12274900  -0.00213174  1
  Zn  Zn94  1  0.11974535  0.37939817  0.75386632  1
  Zn  Zn95  1  0.00173879  0.74999402  0.74706319  1
  Zn  Zn96  1  0.50743490  0.74583330  0.74681658  1
  Zn  Zn97  1  0.36485196  0.61719487  0.24877258  1
  Zn  Zn98  1  0.87230666  0.25128606  0.10726214  1
  Zn  Zn99  1  0.74682896  0.00593795  0.24713743  1
  Zn  Zn100  1  0.61989616  0.63696984  0.00181703  1
  Zn  Zn101  1  0.25086113  0.62251597  0.87081687  1
  Zn  Zn102  1  0.74892224  0.86953728  0.11609145  1
  Zn  Zn103  1  0.25014531  -0.00009081  0.25050627  1
  Zn  Zn104  1  0.37658478  -0.00629844  0.86659749  1
  Zn  Zn105  1  0.37953000  0.37077870  -0.00469905  1
  Zn  Zn106  1  0.12256873  0.73104033  0.37976817  1
  Zn  Zn107  1  0.18676467  0.18636266  0.18668006  1
  Zn  Zn108  1  0.18728083  0.19010915  0.69054875  1
  Zn  Zn109  1  0.18047797  0.70613807  0.18730353  1
  Zn  Zn110  1  0.19192875  0.68913145  0.68841576  1
  Zn  Zn111  1  0.68834970  0.19151898  0.18048034  1
  Zn  Zn112  1  0.68244154  0.18970449  0.68309568  1
  Zn  Zn113  1  0.69118303  0.68944164  0.18548735  1
  Zn  Zn114  1  0.68982578  0.68794598  0.68894194  1
  Zn  Zn115  1  0.31405141  0.31537747  0.31294669  1
  Zn  Zn116  1  0.31217068  0.30823751  0.81035500  1
  Zn  Zn117  1  0.30842649  0.81096111  0.31300471  1
  Zn  Zn118  1  0.31349786  0.80943988  0.80982434  1
  Zn  Zn119  1  0.81319280  0.31062920  0.31314762  1
  Zn  Zn120  1  0.80207415  0.30848275  0.81121974  1
  Zn  Zn121  1  0.79673681  0.80486353  0.29368940  1
  Zn  Zn122  1  0.80968193  0.81818608  0.80939959  1
  Zn  Zn123  1  0.17984063  0.55177705  0.44197046  1
  Zn  Zn124  1  0.19132637  0.43538551  0.93929944  1
  Zn  Zn125  1  0.19143228  0.93979613  0.44231917  1
  Zn  Zn126  1  0.18982486  0.93883585  0.93661549  1
  Zn  Zn127  1  0.68439648  0.43209998  0.43744409  1
  Zn  Zn128  1  0.68506028  0.44265389  0.93524083  1
  Zn  Zn129  1  0.68812912  0.93762369  0.43185075  1
  Zn  Zn130  1  0.69149129  0.94860692  0.93889062  1
  Zn  Zn131  1  0.31585603  0.06237361  0.05816718  1
  Zn  Zn132  1  0.31243159  0.06437121  0.56376118  1
  Zn  Zn133  1  0.31929273  0.56214422  0.05136782  1
  Zn  Zn134  1  0.31968016  0.55825399  0.56652598  1
  Zn  Zn135  1  0.80917967  0.05781936  0.06311116  1
  Zn  Zn136  1  0.81008624  0.06389945  0.55893526  1
  Zn  Zn137  1  0.80838902  0.56201660  0.06304357  1
  Zn  Zn138  1  0.81381303  0.56152915  0.56523841  1
  Zn  Zn139  1  0.43374020  0.43464318  0.18945658  1
  Zn  Zn140  1  0.44015055  0.43308767  0.68448864  1
  Zn  Zn141  1  0.43901427  0.93502327  0.18463247  1
  Zn  Zn142  1  0.44003562  0.93663904  0.68401547  1
  Zn  Zn143  1  0.93589923  0.43568722  0.18728271  1
  Zn  Zn144  1  0.93553385  0.44118425  0.68939553  1
  Zn  Zn145  1  0.93587289  0.93566317  0.18757583  1
  Zn  Zn146  1  0.93899306  0.93877012  0.68420359  1
  Zn  Zn147  1  0.06204115  0.06359119  0.31313059  1
  Zn  Zn148  1  0.06168080  0.06552787  0.80970972  1
  Zn  Zn149  1  0.05248863  0.56147690  0.31539114  1
  Zn  Zn150  1  0.05948866  0.56003378  0.81281382  1
  Zn  Zn151  1  0.56147884  0.06480602  0.31426057  1
  Zn  Zn152  1  0.56416997  0.06861844  0.81341181  1
  Zn  Zn153  1  0.56092432  0.55675846  0.31354276  1
  Zn  Zn154  1  0.56717024  0.56354692  0.81277668  1
  Zn  Zn155  1  0.43467727  0.18896223  0.43415710  1
  Zn  Zn156  1  0.43477653  0.18471658  0.93553583  1
  Zn  Zn157  1  0.42788968  0.68411426  0.43683698  1
  Zn  Zn158  1  0.43288349  0.67611224  0.93725415  1
  Zn  Zn159  1  0.93986775  0.18375188  0.43357456  1
  Zn  Zn160  1  0.93759010  0.17107227  0.93392135  1
  Zn  Zn161  1  0.93348670  0.68716393  0.42958675  1
  Zn  Zn162  1  0.94021895  0.68598819  0.93560500  1
  Zn  Zn163  1  0.06905280  0.30723169  0.06839467  1
  Zn  Zn164  1  0.06646103  0.31318166  0.56365980  1
  Zn  Zn165  1  0.05853538  0.81068228  0.06707972  1
  Zn  Zn166  1  0.06256417  0.81245245  0.56127511  1
  Zn  Zn167  1  0.56577485  0.31574821  0.05892746  1
  Zn  Zn168  1  0.56697116  0.32032805  0.56713456  1
  Zn  Zn169  1  0.56094218  0.81152708  0.08384922  1
  Zn  Zn170  1  0.56245298  0.81562266  0.56164317  1
  O  O171  1  0.11949255  0.11125582  0.12458969  1
  O  O172  1  0.12108116  0.11791358  0.62144918  1
  O  O173  1  0.13065455  0.61395852  0.12212770  1
  O  O174  1  0.10750027  0.63001038  0.63334814  1
  O  O175  1  0.62267649  0.11025420  0.13256767  1
  O  O176  1  0.62614856  0.11362484  0.61347892  1
  O  O177  1  0.63323270  0.62990788  0.11522877  1
  O  O178  1  0.63059330  0.60918478  0.62981240  1
  O  O179  1  0.38582050  0.38264254  0.37888731  1
  O  O180  1  0.37108947  0.38679041  0.87399266  1
  O  O181  1  0.38075007  0.87887858  0.37918599  1
  O  O182  1  0.36784694  0.87538233  0.88764307  1
  O  O183  1  0.88516126  0.38215647  0.36695699  1
  O  O184  1  0.87285316  0.38442484  0.87178002  1
  O  O185  1  0.86687716  0.89047045  0.37385873  1
  O  O186  1  0.88105117  0.88159332  0.88075714  1
  O  O187  1  0.25778487  0.00878182  0.37526413  1
  O  O188  1  0.25323173  0.01128039  0.87494862  1
  O  O189  1  0.26645120  0.49128667  0.38555701  1
  O  O190  1  0.25807502  0.49803902  0.86327303  1
  O  O191  1  0.75938675  0.01846751  0.38237641  1
  O  O192  1  0.75934270  -0.00663784  0.86097081  1
  O  O193  1  0.75540605  0.49626505  0.37078754  1
  O  O194  1  0.75756839  0.50926541  0.86882605  1
  O  O195  1  0.25228783  0.49259049  0.12190327  1
  O  O196  1  0.25535336  0.49040147  0.63696329  1
  O  O197  1  0.24260710  0.99573676  0.12500663  1
  O  O198  1  0.23693334  0.99228703  0.61794292  1
  O  O199  1  0.74954438  0.48911873  0.13499786  1
  O  O200  1  0.74343983  0.49492863  0.62887009  1
  O  O201  1  0.73969720  0.99161226  0.12909480  1
  O  O202  1  0.74168090  0.99465454  0.62505898  1
  O  O203  1  0.00526308  0.36568015  0.25056265  1
  O  O204  1  0.00344469  0.36617631  0.74145704  1
  O  O205  1  0.00461217  0.86535973  0.24914175  1
  O  O206  1  0.00871648  0.87359104  0.75386325  1
  O  O207  1  0.50740578  0.36958146  0.25442300  1
  O  O208  1  0.50600630  0.35918776  0.74338077  1
  O  O209  1  0.50385313  0.86807067  0.25989630  1
  O  O210  1  0.51302044  0.87532591  0.74802131  1
  O  O211  1  0.49306460  0.13370930  0.25006109  1
  O  O212  1  0.49378296  0.13945542  0.75286564  1
  O  O213  1  0.49433549  0.63460159  0.25797381  1
  O  O214  1  0.49000261  0.62612055  0.75292919  1
  O  O215  1  0.99335001  0.13044084  0.24548936  1
  O  O216  1  0.99787746  0.13280992  0.73975142  1
  O  O217  1  0.99035512  0.63125632  0.24587350  1
  O  O218  1  0.98703378  0.62743717  0.74561837  1
  O  O219  1  0.37788803  0.25023587  0.01297208  1
  O  O220  1  0.36854463  0.25173798  0.50705165  1
  O  O221  1  0.37136199  0.75238449  0.00535249  1
  O  O222  1  0.36443483  0.75354971  0.50609794  1
  O  O223  1  0.89488761  0.26167251  -0.01043036  1
  O  O224  1  0.86493128  0.24371658  0.50098165  1
  O  O225  1  0.88322753  0.76511885  -0.00303380  1
  O  O226  1  0.86803762  0.75809525  0.49939967  1
  O  O227  1  0.13970767  0.24324399  0.50469484  1
  O  O228  1  0.12538246  0.24302968  0.99040173  1
  O  O229  1  0.13961901  0.75308446  0.50004436  1
  O  O230  1  0.12800301  0.73976099  0.99775977  1
  O  O231  1  0.62494028  0.24001578  0.50393903  1
  O  O232  1  0.62424193  0.23915906  1.00198202  1
  O  O233  1  0.63270234  0.75574107  0.49389032  1
  O  O234  1  0.60983168  0.76159145  0.98945848  1
  O  O235  1  0.49342594  0.25099687  0.13495533  1
  O  O236  1  0.48877509  0.25259720  0.62252900  1
  O  O237  1  0.48654444  0.75228477  0.14100088  1
  O  O238  1  0.48509885  0.75703841  0.62333915  1
  O  O239  1  0.99491693  0.24225067  0.13273081  1
  O  O240  1  1.00518464  0.24075372  0.63218884  1
  O  O241  1  1.00890594  0.74495030  0.14638145  1
  O  O242  1  0.99313759  0.74240729  0.62512354  1
  O  O243  1  -0.00546314  0.25406348  0.36068819  1
  O  O244  1  0.00387137  0.25679054  0.87240752  1
  O  O245  1  0.00581460  0.74617546  0.36174022  1
  O  O246  1  0.00841597  0.75680206  0.87139576  1
  O  O247  1  0.49185558  0.25923139  0.36117330  1
  O  O248  1  0.49650281  0.25282385  0.86546857  1
  O  O249  1  0.49870144  0.75521079  0.37471186  1
  O  O250  1  0.49604122  0.75327728  0.87127172  1
  O  O251  1  0.24651401  0.13152365  0.49298908  1
  O  O252  1  0.25042251  0.12585157  0.98791882  1
  O  O253  1  0.25103884  0.63308136  0.50672889  1
  O  O254  1  0.24213046  0.62894083  0.99555821  1
  O  O255  1  0.74270917  0.13714911  0.49630977  1
  O  O256  1  0.75484063  0.13212451  0.99950079  1
  O  O257  1  0.75660217  0.63937541  0.49915286  1
  O  O258  1  0.75041293  0.62618711  0.98609607  1
  O  O259  1  0.25542623  0.37003410  0.00989239  1
  O  O260  1  0.26095596  0.36384975  0.50950886  1
  O  O261  1  0.25731108  0.87062695  0.00587252  1
  O  O262  1  0.25482204  0.86945321  0.51134745  1
  O  O263  1  0.74612895  0.38305443  0.01278370  1
  O  O264  1  0.74494902  0.35897268  0.50382411  1
  O  O265  1  0.76368794  0.87493115  -0.00233790  1
  O  O266  1  0.75480021  0.86830746  0.50218187  1
  O  O267  1  0.12163169  0.49111343  0.24137671  1
  O  O268  1  0.13481171  0.49935832  0.74675345  1
  O  O269  1  0.12391835  0.99389632  0.24275651  1
  O  O270  1  0.12101633  0.98865042  0.74204412  1
  O  O271  1  0.63208752  0.49227546  0.24909846  1
  O  O272  1  0.62865142  0.49410553  0.74146182  1
  O  O273  1  0.61672346  0.99297152  0.24297348  1
  O  O274  1  0.62830409  0.99800334  0.73997476  1
  O  O275  1  0.37472263  0.00495468  0.25454899  1
  O  O276  1  0.38418080  0.01332768  0.74789410  1
  O  O277  1  0.37685007  0.49898473  0.26597164  1
  O  O278  1  0.37393929  0.50217220  0.75540401  1
  O  O279  1  0.87355335  0.01028476  0.25509419  1
  O  O280  1  0.86523369  -0.00455911  0.75373782  1
  O  O281  1  0.86814119  0.50342315  0.25771141  1
  O  O282  1  0.87011347  0.50966780  0.76018021  1
  O  O283  1  0.11175630  0.37548311  0.35817343  1
  O  O284  1  0.13363667  0.36023119  0.87260843  1
  O  O285  1  0.12845643  0.88090576  0.36658847  1
  O  O286  1  0.12231304  0.87221236  0.86740301  1
  O  O287  1  0.61228024  0.37793199  0.36379479  1
  O  O288  1  0.63049144  0.38281337  0.85535044  1
  O  O289  1  0.60699814  0.86835821  0.37836336  1
  O  O290  1  0.62456017  0.87570940  0.86793664  1
  O  O291  1  0.37654464  0.13170376  0.13205957  1
  O  O292  1  0.37028073  0.13407505  0.63292946  1
  O  O293  1  0.36806558  0.63640807  0.12587649  1
  O  O294  1  0.37370487  0.63303411  0.63365405  1
  O  O295  1  0.87970115  0.12566878  0.13151459  1
  O  O296  1  0.88848762  0.11677139  0.62521850  1
  O  O297  1  0.86936943  0.62247616  0.14082487  1
  O  O298  1  0.88094392  0.63198180  0.63257932  1
  O  O299  1  0.25751443  0.25395552  0.12285765  1
  O  O300  1  0.25895501  0.25470819  0.62035961  1
  O  O301  1  0.25537819  0.75877392  0.11790383  1
  O  O302  1  0.25755369  0.75608871  0.61591256  1
  O  O303  1  0.75449952  0.26683292  0.12658267  1
  O  O304  1  0.74774379  0.25621177  0.61183258  1
  O  O305  1  0.75003801  0.78257754  0.18695489  1
  O  O306  1  0.75475124  0.75656453  0.61629538  1
  O  O307  1  0.25889876  0.24174192  0.38561736  1
  O  O308  1  0.24332718  0.23933033  0.87458430  1
  O  O309  1  0.24998972  0.75267429  0.39392341  1
  O  O310  1  0.24351251  0.74769221  0.88119545  1
  O  O311  1  0.75450973  0.24049240  0.38744656  1
  O  O312  1  0.74051325  0.24417235  0.87770073  1
  O  O313  1  0.73580133  0.74742573  0.38149861  1
  O  O314  1  0.75489127  0.73618090  0.86909643  1
  O  O315  1  0.00306622  0.10885739  0.00549114  1
  O  O316  1  0.00669549  0.11922775  0.50608606  1
  O  O317  1  0.00856309  0.62103174  0.00533382  1
  O  O318  1  -0.00718041  0.62783911  0.51315209  1
  O  O319  1  0.49414218  0.11054930  0.00264013  1
  O  O320  1  0.50626339  0.11681795  0.48933122  1
  O  O321  1  0.50278251  0.60452947  -0.00956418  1
  O  O322  1  0.49692525  0.61185466  0.49739825  1
  O  O323  1  0.49624840  0.37575752  0.49097908  1
  O  O324  1  0.49663860  0.39132320  1.00410721  1
  O  O325  1  0.49074954  0.88201849  0.49347123  1
  O  O326  1  0.49781094  0.87307857  0.99192035  1
  O  O327  1  1.00200824  0.36645957  0.48566065  1
  O  O328  1  1.00943931  0.38263032  0.99875078  1
  O  O329  1  0.99482764  0.88794657  0.50396089  1
  O  O330  1  0.99544951  0.88204755  0.99528976  1
  O  O331  1  0.49515507  0.49262533  0.38628491  1
  O  O332  1  0.49074356  0.49569375  0.87092553  1
  O  O333  1  0.49419861  0.99262201  0.38303666  1
  O  O334  1  0.49861427  1.00070801  0.88745949  1
  O  O335  1  0.98990587  0.48720580  0.37715879  1
  O  O336  1  0.98967706  0.50234246  0.88629614  1
  O  O337  1  0.99008774  1.00882457  0.38580723  1
  O  O338  1  0.99648518  0.99334701  0.88091187  1
  O  O339  1  0.00591657  0.00146464  0.11804032  1
  O  O340  1  0.01083479  0.00675449  0.61772945  1
  O  O341  1  -0.00864201  0.50265047  0.10887462  1
  O  O342  1  -0.00393448  0.51636945  0.62487412  1
  O  O343  1  0.50551207  -0.00106674  0.11343269  1
  O  O344  1  0.50669579  -0.00337386  0.60938475  1
  O  O345  1  0.49777077  0.50213760  0.11822542  1
  O  O346  1  0.50590201  0.49332428  0.60885832  1
  O  O347  1  0.24024995  0.36898775  0.24370672  1
  O  O348  1  0.25085373  0.38042265  0.74255082  1
  O  O349  1  0.24010090  0.87650994  0.24413826  1
  O  O350  1  0.24486286  0.87170956  0.73667098  1
  O  O351  1  0.74284378  0.38145802  0.25107984  1
  O  O352  1  0.74303631  0.37950869  0.74066906  1
  O  O353  1  0.72367793  0.89688059  0.28891726  1
  O  O354  1  0.73954782  0.88541971  0.74097961  1
  O  O355  1  0.25510652  0.12418167  0.25765001  1
  O  O356  1  0.26241021  0.13059134  0.75685022  1
  O  O357  1  0.24075449  0.61269068  0.23419700  1
  O  O358  1  0.26066125  0.61523626  0.74879092  1
  O  O359  1  0.75530084  0.12677660  0.25742561  1
  O  O360  1  0.75051355  0.11188541  0.73621388  1
  O  O361  1  0.75349454  0.60972260  0.25656353  1
  O  O362  1  0.76068941  0.62034994  0.75576430  1
  O  O363  1  0.36581650  0.12051555  0.36762949  1
  O  O364  1  0.36768267  0.12179217  0.86493065  1
  O  O365  1  0.37135117  0.60898851  0.37224739  1
  O  O366  1  0.37098660  0.60935206  0.86569411  1
  O  O367  1  0.86912339  0.11821341  0.36648912  1
  O  O368  1  0.87952114  0.10596929  0.86435983  1
  O  O369  1  0.87189772  0.61195310  0.36495677  1
  O  O370  1  0.86933398  0.62076140  0.86883237  1
  O  O371  1  0.13868293  0.37201059  0.13308361  1
  O  O372  1  0.14084625  0.37115824  0.63053535  1
  O  O373  1  0.12799162  0.88474573  0.13145380  1
  O  O374  1  0.13029051  0.88100994  0.63117720  1
  O  O375  1  0.63482116  0.37820095  0.13577038  1
  O  O376  1  0.63462666  0.38547819  0.63244002  1
  O  O377  1  0.62530105  0.88384921  0.14031281  1
  O  O378  1  0.62827281  0.88766351  0.62812936  1
  O  O379  1  0.11394407  0.25540307  0.24459136  1
  O  O380  1  0.11208825  0.24955200  0.75949606  1
  O  O381  1  0.11712141  0.76243121  0.25945676  1
  O  O382  1  0.12642475  0.76229141  0.75430010  1
  O  O383  1  0.61583320  0.25743897  0.24607946  1
  O  O384  1  0.60960195  0.25483722  0.74316102  1
  O  O385  1  0.60965995  0.75760213  0.26489390  1
  O  O386  1  0.62381594  0.76334181  0.74167870  1
  O  O387  1  0.38080403  0.24546690  0.24084400  1
  O  O388  1  0.38679667  0.24400169  0.74356823  1
  O  O389  1  0.37589320  0.74486983  0.24452731  1
  O  O390  1  0.37631654  0.74015376  0.74168987  1
  O  O391  1  0.87994118  0.23764886  0.24848418  1
  O  O392  1  0.88738668  0.24887707  0.75719004  1
  O  O393  1  0.88745053  0.74052546  0.26229455  1
  O  O394  1  0.87482389  0.74551843  0.74171551  1
  O  O395  1  0.38661171  0.49379809  0.49448635  1
  O  O396  1  0.38678749  0.49734097  0.98628499  1
  O  O397  1  0.38129319  0.99622454  0.49580331  1
  O  O398  1  0.38980418  0.98770634  1.00065047  1
  O  O399  1  0.87734430  0.50191448  0.48856909  1
  O  O400  1  0.88117159  0.50563687  0.98867112  1
  O  O401  1  0.88203382  0.99621166  0.49310996  1
  O  O402  1  0.88200200  0.99280273  0.99036531  1
  O  O403  1  0.11669187  -0.00279901  0.00745542  1
  O  O404  1  0.11810902  0.00570599  0.50651473  1
  O  O405  1  0.11835033  0.51147545  -0.00844331  1
  O  O406  1  0.11891763  0.49404167  0.51371926  1
  O  O407  1  0.61051489  -0.01110010  0.00907754  1
  O  O408  1  0.61771364  0.00680807  0.50306991  1
  O  O409  1  0.61196989  0.49922345  0.00505811  1
  O  O410  1  0.61226684  0.49614166  0.50424999  1
  O  O411  1  0.36383555  0.36618489  0.12775353  1
  O  O412  1  0.36760153  0.36584585  0.62059922  1
  O  O413  1  0.37163377  0.86557953  0.11404454  1
  O  O414  1  0.36650821  0.87011713  0.62148404  1
  O  O415  1  0.85989838  0.37312268  0.12674113  1
  O  O416  1  0.85786733  0.38380672  0.62713413  1
  O  O417  1  0.87538201  0.88024675  0.10697563  1
  O  O418  1  0.86995553  0.87076714  0.61617408  1
  O  O419  1  0.13819560  0.12097446  0.37974155  1
  O  O420  1  0.13247552  0.13165983  0.87286419  1
  O  O421  1  0.13028636  0.61875995  0.36881163  1
  O  O422  1  0.12579444  0.63163947  0.88065556  1
  O  O423  1  0.63441147  0.12151245  0.38367446  1
  O  O424  1  0.63430246  0.11585924  0.88648855  1
  O  O425  1  0.62277949  0.63437688  0.37550489  1
  O  O426  1  0.64003773  0.62467229  0.87746750  1
