# generated using pymatgen
data_V85Zn86O256
_symmetry_space_group_name_H-M   'P 1'
_cell_length_a   16.92467575
_cell_length_b   16.92675810
_cell_length_c   16.93104882
_cell_angle_alpha   90.00234413
_cell_angle_beta   89.92809031
_cell_angle_gamma   90.00301956
_symmetry_Int_Tables_number   1
_chemical_formula_structural   V85Zn86O256
_chemical_formula_sum   'V85 Zn86 O256'
_cell_volume   4850.40121291
_cell_formula_units_Z   1
loop_
 _symmetry_equiv_pos_site_id
 _symmetry_equiv_pos_as_xyz
  1  'x, y, z'
loop_
 _atom_site_type_symbol
 _atom_site_label
 _atom_site_symmetry_multiplicity
 _atom_site_fract_x
 _atom_site_fract_y
 _atom_site_fract_z
 _atom_site_occupancy
  V  V0  1  -0.01212182  0.12896734  0.63312582  1
  V  V1  1  0.62658729  0.86898799  0.75229431  1
  V  V2  1  0.74893987  0.49155040  0.74455424  1
  V  V3  1  0.25065518  0.37490124  0.62883516  1
  V  V4  1  0.37592395  0.00093387  0.37415509  1
  V  V5  1  0.24964517  0.87509113  0.62975830  1
  V  V6  1  0.62586580  0.74616541  0.37605254  1
  V  V7  1  0.25026323  0.75089508  0.49729211  1
  V  V8  1  0.12350874  0.87592531  0.24938344  1
  V  V9  1  0.24697713  0.24547244  -0.00167644  1
  V  V10  1  0.75423138  0.25766488  0.50139872  1
  V  V11  1  0.24864200  0.37526773  0.12392036  1
  V  V12  1  0.87979255  0.11786690  0.26398624  1
  V  V13  1  0.51892545  0.25030577  0.75293002  1
  V  V14  1  0.24522671  0.74047398  -0.00474400  1
  V  V15  1  0.49838323  0.74007273  0.74802004  1
  V  V16  1  0.25163613  0.24966747  0.49992879  1
  V  V17  1  0.37730613  0.12555120  0.24729564  1
  V  V18  1  -0.01067314  -0.01218360  0.00288454  1
  V  V19  1  0.37690263  0.24906923  0.63187846  1
  V  V20  1  0.75639761  0.88333198  0.11839897  1
  V  V21  1  0.50238139  0.87510729  0.37318675  1
  V  V22  1  0.11219847  0.12383839  -0.00132799  1
  V  V23  1  0.76028821  0.00165788  0.75122216  1
  V  V24  1  0.38295864  0.62367075  0.24448021  1
  V  V25  1  -0.00197087  0.24878570  0.24450925  1
  V  V26  1  0.73116876  0.24416235  0.00185232  1
  V  V27  1  0.50531413  0.25404242  0.24918084  1
  V  V28  1  0.75134058  0.62056473  0.38052785  1
  V  V29  1  0.88358270  0.74764108  0.62679900  1
  V  V30  1  0.87423880  0.37216289  0.00484492  1
  V  V31  1  0.87431384  0.87579382  0.49699791  1
  V  V32  1  -0.00272681  0.87151385  0.85996151  1
  V  V33  1  0.87418730  0.23435891  0.12228462  1
  V  V34  1  0.75214438  0.87310716  0.62591588  1
  V  V35  1  -0.00049256  0.74707775  0.24381286  1
  V  V36  1  0.50601187  0.37653112  0.37554730  1
  V  V37  1  0.88409973  0.49195663  0.37609703  1
  V  V38  1  -0.00256418  0.00149825  0.49430207  1
  V  V39  1  0.63037304  0.87816286  0.24917725  1
  V  V40  1  0.51110335  0.00805891  0.00510646  1
  V  V41  1  0.12284685  0.62459425  0.49732642  1
  V  V42  1  0.25022165  0.00010918  0.24979438  1
  V  V43  1  0.50176053  0.00173602  0.49952487  1
  V  V44  1  0.62996270  0.24839355  0.37266958  1
  V  V45  1  0.50877408  0.37089442  0.87124017  1
  V  V46  1  0.12430160  0.50052487  0.62719479  1
  V  V47  1  0.37199620  0.50705947  0.87117117  1
  V  V48  1  0.12178834  0.37101276  0.75464593  1
  V  V49  1  0.37230939  0.87663464  -0.00118621  1
  V  V50  1  0.37491877  0.00153111  0.87487128  1
  V  V51  1  0.73290236  0.63035761  0.87763279  1
  V  V52  1  0.11789069  0.37600534  0.25193693  1
  V  V53  1  0.50355374  0.49853087  0.00031117  1
  V  V54  1  0.74362753  0.49137500  0.25109939  1
  V  V55  1  0.12396394  -0.00293741  0.62729479  1
  V  V56  1  0.24997786  0.87455820  0.12300454  1
  V  V57  1  0.37852141  0.73656437  0.62802959  1
  V  V58  1  -0.00502480  0.50766522  0.00275872  1
  V  V59  1  0.12512743  0.75131327  0.85703452  1
  V  V60  1  0.75226468  0.00497245  0.26504907  1
  V  V61  1  0.25113777  0.51272568  0.75512601  1
  V  V62  1  0.61871501  0.49278727  0.12824498  1
  V  V63  1  0.61626018  0.48743703  0.62745014  1
  V  V64  1  0.37629156  0.87510976  0.50037184  1
  V  V65  1  0.37884411  0.50090033  0.37865926  1
  V  V66  1  0.12561967  0.12483704  0.50019145  1
  V  V67  1  0.56243406  0.67533253  0.06288006  1
  V  V68  1  0.37529503  0.24888395  0.12479232  1
  V  V69  1  0.24661369  0.00048696  0.75157631  1
  V  V70  1  0.11889527  0.50959913  0.12493868  1
  V  V71  1  -0.00466739  0.87642606  0.37172391  1
  V  V72  1  0.88013833  0.62865754  0.75631365  1
  V  V73  1  0.63331737  0.12279868  0.49484416  1
  V  V74  1  0.38138802  0.37787852  0.50242928  1
  V  V75  1  0.62495289  -0.00209889  0.62541771  1
  V  V76  1  0.11907980  0.25462722  0.37803956  1
  V  V77  1  0.74481266  0.13102755  0.87116923  1
  V  V78  1  0.12224834  0.00603481  0.12363430  1
  V  V79  1  0.37612632  0.74587327  0.12090662  1
  V  V80  1  0.50253576  0.87248721  0.87216619  1
  V  V81  1  0.61277052  0.62192077  0.51194822  1
  V  V82  1  0.87710868  0.62294986  0.24548707  1
  V  V83  1  0.87468875  0.74934411  0.11602161  1
  V  V84  1  0.25185579  0.50039838  0.24854999  1
  Zn  Zn85  1  0.11950667  0.24766986  0.87441312  1
  Zn  Zn86  1  0.51928188  0.12924506  0.12051409  1
  Zn  Zn87  1  0.87157347  0.50132793  0.87854657  1
  Zn  Zn88  1  0.24967346  0.12649919  0.37390746  1
  Zn  Zn89  1  0.12022794  0.62747044  -0.00428691  1
  Zn  Zn90  1  0.89025193  0.36802564  0.50105481  1
  Zn  Zn91  1  -0.00149457  0.37294984  0.87852136  1
  Zn  Zn92  1  0.24778472  0.12491139  0.87461920  1
  Zn  Zn93  1  0.74548275  0.74950766  -0.00349698  1
  Zn  Zn94  1  0.12503797  0.74898596  0.37236944  1
  Zn  Zn95  1  0.00727139  0.49012748  0.49550356  1
  Zn  Zn96  1  0.00305105  0.62832469  0.62839759  1
  Zn  Zn97  1  0.75180629  0.74579061  0.50337237  1
  Zn  Zn98  1  0.50475029  0.74726902  0.24503574  1
  Zn  Zn99  1  0.37359048  0.37387708  -0.00321214  1
  Zn  Zn100  1  0.87295819  -0.00169627  0.88011365  1
  Zn  Zn101  1  0.83699494  0.29631013  0.65688907  1
  Zn  Zn102  1  0.25156537  0.62537863  0.37341482  1
  Zn  Zn103  1  0.74683029  0.37244405  0.12749357  1
  Zn  Zn104  1  0.37689733  0.12638354  0.75117363  1
  Zn  Zn105  1  0.50142599  0.12433657  0.62812467  1
  Zn  Zn106  1  -0.01421910  0.24490567  0.75645520  1
  Zn  Zn107  1  0.18671569  0.18641550  0.18667823  1
  Zn  Zn108  1  0.18550792  0.18496162  0.68867859  1
  Zn  Zn109  1  0.19210040  0.68800513  0.18763434  1
  Zn  Zn110  1  0.19055238  0.68683994  0.68373937  1
  Zn  Zn111  1  0.69250756  0.18880873  0.19395599  1
  Zn  Zn112  1  0.69015981  0.18114210  0.68424305  1
  Zn  Zn113  1  0.69735238  0.68908360  0.19297238  1
  Zn  Zn114  1  0.69285371  0.68690819  0.69026495  1
  Zn  Zn115  1  0.31159142  0.31303383  0.31363015  1
  Zn  Zn116  1  0.31355845  0.31986600  0.81503723  1
  Zn  Zn117  1  0.31558015  0.81163770  0.30992860  1
  Zn  Zn118  1  0.31174963  0.81040964  0.81094478  1
  Zn  Zn119  1  0.81233609  0.31073791  0.31413674  1
  Zn  Zn120  1  0.81190766  0.31201456  0.82546682  1
  Zn  Zn121  1  0.81319364  0.81047099  0.31163834  1
  Zn  Zn122  1  0.81452198  0.80973778  0.81594441  1
  Zn  Zn123  1  0.19070202  0.43602276  0.43746909  1
  Zn  Zn124  1  0.18540005  0.43892458  0.93864831  1
  Zn  Zn125  1  0.18579460  0.93644973  0.43659527  1
  Zn  Zn126  1  0.18245275  0.93218650  0.93537800  1
  Zn  Zn127  1  0.68606419  0.43980751  0.44316349  1
  Zn  Zn128  1  0.68976283  0.44127500  0.93882667  1
  Zn  Zn129  1  0.69000671  0.93516311  0.43743879  1
  Zn  Zn130  1  0.68822273  0.93538438  0.93204107  1
  Zn  Zn131  1  0.31224987  0.06396201  0.06153880  1
  Zn  Zn132  1  0.31367289  0.06487952  0.56340930  1
  Zn  Zn133  1  0.31535534  0.56150950  0.05988258  1
  Zn  Zn134  1  0.30959755  0.56088726  0.56120561  1
  Zn  Zn135  1  0.69545553  0.06144293  0.06617281  1
  Zn  Zn136  1  0.81046970  0.06150764  0.55685411  1
  Zn  Zn137  1  0.80605692  0.56405346  0.06249203  1
  Zn  Zn138  1  0.81436193  0.55607873  0.56519916  1
  Zn  Zn139  1  0.43807485  0.43579165  0.18642460  1
  Zn  Zn140  1  0.44010489  0.43772778  0.69222554  1
  Zn  Zn141  1  0.43962653  0.93603625  0.18607444  1
  Zn  Zn142  1  0.43624116  0.93430081  0.68748243  1
  Zn  Zn143  1  0.93530750  0.43463412  0.18536198  1
  Zn  Zn144  1  0.93929016  0.44246592  0.68717712  1
  Zn  Zn145  1  0.93451961  0.94066178  0.18353321  1
  Zn  Zn146  1  0.93895827  0.93774500  0.68361844  1
  Zn  Zn147  1  0.06102821  0.06578719  0.31293742  1
  Zn  Zn148  1  0.06237606  0.05873991  0.81518314  1
  Zn  Zn149  1  0.06344379  0.56654358  0.30979543  1
  Zn  Zn150  1  0.06069556  0.56244023  0.81756944  1
  Zn  Zn151  1  0.56548463  0.06554445  0.30707340  1
  Zn  Zn152  1  0.56642320  0.06290005  0.81308176  1
  Zn  Zn153  1  0.56201923  0.56229092  0.31421645  1
  Zn  Zn154  1  0.56303624  0.55657109  0.80951212  1
  Zn  Zn155  1  0.44113441  0.18721898  0.43862527  1
  Zn  Zn156  1  0.43778253  0.18785696  0.93536417  1
  Zn  Zn157  1  0.43827895  0.68682913  0.43711238  1
  Zn  Zn158  1  0.43177814  0.69013656  0.92817625  1
  Zn  Zn159  1  0.94140557  0.18933744  0.43770840  1
  Zn  Zn160  1  0.93033079  0.18435082  0.93157575  1
  Zn  Zn161  1  0.93920715  0.68712414  0.43466846  1
  Zn  Zn162  1  0.94166723  0.68921040  0.93386327  1
  Zn  Zn163  1  0.05948438  0.31431246  0.06411573  1
  Zn  Zn164  1  0.05791523  0.31413805  0.56641908  1
  Zn  Zn165  1  0.06265577  0.81410655  0.06193858  1
  Zn  Zn166  1  0.06365572  0.81363028  0.56271757  1
  Zn  Zn167  1  0.55906126  0.31827931  0.06397205  1
  Zn  Zn168  1  0.56257084  0.30946902  0.56219380  1
  Zn  Zn169  1  0.56929246  0.84028850  0.06082818  1
  Zn  Zn170  1  0.56264745  0.80917172  0.56359330  1
  O  O171  1  0.12744747  0.11200468  0.11978640  1
  O  O172  1  0.12119724  0.11305454  0.61813352  1
  O  O173  1  0.13051798  0.61193554  0.12578730  1
  O  O174  1  0.12559657  0.61874577  0.61685685  1
  O  O175  1  0.62936536  0.11799812  0.13602566  1
  O  O176  1  0.62309108  0.11319703  0.61570444  1
  O  O177  1  0.62330429  0.62204250  0.12654751  1
  O  O178  1  0.62870337  0.62556369  0.61380978  1
  O  O179  1  0.38209250  0.37936662  0.38236282  1
  O  O180  1  0.38447320  0.38476328  0.87905289  1
  O  O181  1  0.38229914  0.87963771  0.37944082  1
  O  O182  1  0.38025153  0.88506102  0.87769094  1
  O  O183  1  0.87223344  0.38994038  0.37517590  1
  O  O184  1  0.87441677  0.38019172  0.89412467  1
  O  O185  1  0.88687939  0.86899668  0.38137604  1
  O  O186  1  0.89067045  0.87558465  0.87249788  1
  O  O187  1  0.25763655  -0.00014196  0.36811326  1
  O  O188  1  0.25592854  -0.00408925  0.86699473  1
  O  O189  1  0.26316302  0.49730559  0.36621172  1
  O  O190  1  0.26250464  0.49488896  0.87094652  1
  O  O191  1  0.75748226  -0.00753321  0.36342802  1
  O  O192  1  0.75343972  0.00151687  0.86653277  1
  O  O193  1  0.75536125  0.50464732  0.37042896  1
  O  O194  1  0.74943221  0.51184394  0.86645534  1
  O  O195  1  0.24503726  0.49188649  0.12825882  1
  O  O196  1  0.24243391  0.49519950  0.63274303  1
  O  O197  1  0.24421788  0.99424780  0.12999330  1
  O  O198  1  0.24515846  0.99449910  0.62979636  1
  O  O199  1  0.73902282  0.50030993  0.13398214  1
  O  O200  1  0.74112080  0.50625495  0.63875441  1
  O  O201  1  0.75555229  0.98592026  0.13576324  1
  O  O202  1  0.74477259  0.99445395  0.63049994  1
  O  O203  1  0.00927037  0.36664626  0.24743983  1
  O  O204  1  0.01280780  0.37769476  0.75110857  1
  O  O205  1  0.00203142  0.87249513  0.25596045  1
  O  O206  1  0.00341521  0.88275497  0.76107333  1
  O  O207  1  0.49183297  0.36154254  0.25966958  1
  O  O208  1  0.49813213  0.36577498  0.76322515  1
  O  O209  1  0.51203343  0.87365058  0.25368571  1
  O  O210  1  0.50729377  0.87194796  0.75607613  1
  O  O211  1  0.49315753  0.13612077  0.24802548  1
  O  O212  1  0.49806001  0.13453031  0.75185872  1
  O  O213  1  0.48755522  0.62786496  0.25420225  1
  O  O214  1  0.50492121  0.64128150  0.75807215  1
  O  O215  1  0.98826745  0.13015058  0.24999234  1
  O  O216  1  1.00278759  0.11955188  0.73623341  1
  O  O217  1  0.99065722  0.63489977  0.25166947  1
  O  O218  1  0.98389927  0.61860913  0.74849732  1
  O  O219  1  0.36625096  0.24802304  0.00784675  1
  O  O220  1  0.37280466  0.25529819  0.51008348  1
  O  O221  1  0.36745119  0.75610278  0.00118723  1
  O  O222  1  0.36933854  0.75531439  0.50445156  1
  O  O223  1  0.87159543  0.25426382  0.00851577  1
  O  O224  1  0.85912688  0.24941888  0.48945163  1
  O  O225  1  0.87608344  0.74298899  0.01382325  1
  O  O226  1  0.87590843  0.75851431  0.50493456  1
  O  O227  1  0.12965584  0.24627460  0.49305620  1
  O  O228  1  0.12902021  0.24036281  1.00405084  1
  O  O229  1  0.13353419  0.74418578  0.49921791  1
  O  O230  1  0.13278011  0.74810319  0.99948411  1
  O  O231  1  0.63221066  0.24225503  0.49412292  1
  O  O232  1  0.63307590  0.25120436  1.00663365  1
  O  O233  1  0.62831999  0.73887005  0.49493525  1
  O  O234  1  0.61875702  0.74295312  1.01128714  1
  O  O235  1  0.49475767  0.24947150  0.13234865  1
  O  O236  1  0.49363456  0.25027261  0.63509743  1
  O  O237  1  0.50271955  0.74514209  0.11756686  1
  O  O238  1  0.48910530  0.75673487  0.63400795  1
  O  O239  1  0.99235154  0.25144296  0.13720147  1
  O  O240  1  1.00419423  0.23226144  0.62833637  1
  O  O241  1  0.99162142  0.75881751  0.13655601  1
  O  O242  1  0.98879353  0.74992831  0.62225909  1
  O  O243  1  0.01297162  0.24649196  0.36383886  1
  O  O244  1  0.00119991  0.25268781  0.87378355  1
  O  O245  1  0.00148534  0.75756834  0.36206085  1
  O  O246  1  0.00931186  0.76289300  0.87518252  1
  O  O247  1  0.50711137  0.25668542  0.36914481  1
  O  O248  1  0.49635774  0.26141234  0.86867305  1
  O  O249  1  0.51216673  0.75524562  0.37446087  1
  O  O250  1  0.49173703  0.76581948  0.86683900  1
  O  O251  1  0.24424896  0.13175993  0.49822190  1
  O  O252  1  0.23952267  0.13158836  1.00068793  1
  O  O253  1  0.24121719  0.63415455  0.49812675  1
  O  O254  1  0.24908406  0.63762268  1.00094463  1
  O  O255  1  0.73923062  0.13056074  0.49746254  1
  O  O256  1  0.74723863  0.13862856  0.99563677  1
  O  O257  1  0.74627626  0.62388460  0.48958251  1
  O  O258  1  0.75137650  0.62650740  0.98272953  1
  O  O259  1  0.24702043  0.36790187  0.01163283  1
  O  O260  1  0.26072382  0.36898314  0.50676936  1
  O  O261  1  0.25481859  0.86923674  0.00507491  1
  O  O262  1  0.25396913  0.86958884  0.50748624  1
  O  O263  1  0.75360966  0.36278686  0.00134550  1
  O  O264  1  0.75004700  0.35920899  0.49531595  1
  O  O265  1  0.74193500  0.87167012  0.01485091  1
  O  O266  1  0.75943821  0.87174231  0.50492370  1
  O  O267  1  0.12959742  0.49364702  0.24483243  1
  O  O268  1  0.13104934  0.49609127  0.74558050  1
  O  O269  1  0.12823580  0.99713688  0.24324925  1
  O  O270  1  0.13744846  1.00214617  0.74203903  1
  O  O271  1  0.63202523  0.50677836  0.24257550  1
  O  O272  1  0.63632100  0.50377475  0.73812208  1
  O  O273  1  0.64069150  0.99175607  0.25936133  1
  O  O274  1  0.62996192  0.98879209  0.74213375  1
  O  O275  1  0.37303659  0.00651187  0.25332687  1
  O  O276  1  0.36652387  -0.00014793  0.75677293  1
  O  O277  1  0.37150541  0.50563919  0.25402330  1
  O  O278  1  0.36660807  0.49390053  0.76223612  1
  O  O279  1  0.87040097  0.01111176  0.24954031  1
  O  O280  1  0.86228390  -0.00496401  0.74802224  1
  O  O281  1  0.86935551  0.50531877  0.25769057  1
  O  O282  1  0.86425811  0.51244597  0.75096085  1
  O  O283  1  0.13338850  0.36848425  0.36114617  1
  O  O284  1  0.12410525  0.37245938  0.86752693  1
  O  O285  1  0.11365971  0.87304199  0.36845983  1
  O  O286  1  0.11300942  0.86260310  0.87640012  1
  O  O287  1  0.61114830  0.37087605  0.38406481  1
  O  O288  1  0.60745291  0.38330789  0.87952213  1
  O  O289  1  0.62453930  0.86550055  0.36850577  1
  O  O290  1  0.61512605  0.87730969  0.86473716  1
  O  O291  1  0.37635809  0.12922844  0.13637176  1
  O  O292  1  0.37977661  0.13535942  0.62652726  1
  O  O293  1  0.37205460  0.63205808  0.13219238  1
  O  O294  1  0.37047646  0.63751854  0.61944122  1
  O  O295  1  0.87098918  0.13629064  0.13937895  1
  O  O296  1  0.88975454  0.11834744  0.61925546  1
  O  O297  1  0.86455814  0.63200735  0.13923269  1
  O  O298  1  0.87632631  0.63117074  0.63287612  1
  O  O299  1  0.25243793  0.25546310  0.11729127  1
  O  O300  1  0.25712795  0.25459682  0.62050658  1
  O  O301  1  0.25499722  0.75643834  0.11619441  1
  O  O302  1  0.25530254  0.75795576  0.61569493  1
  O  O303  1  0.75538919  0.25131798  0.11594646  1
  O  O304  1  0.74773507  0.24421451  0.60687302  1
  O  O305  1  0.75803332  0.75954556  0.12371471  1
  O  O306  1  0.76268765  0.75611239  0.62354679  1
  O  O307  1  0.23968888  0.24984060  0.38049874  1
  O  O308  1  0.24995949  0.25131472  0.88984534  1
  O  O309  1  0.25055370  0.75279348  0.38702561  1
  O  O310  1  0.23537189  0.75938117  0.88141792  1
  O  O311  1  0.73653886  0.25313057  0.38087085  1
  O  O312  1  0.74541117  0.24045053  0.88845882  1
  O  O313  1  0.74070772  0.74145699  0.37616912  1
  O  O314  1  0.74925420  0.73750797  0.87729918  1
  O  O315  1  0.00904368  0.11225148  -0.00545257  1
  O  O316  1  0.00510013  0.11771997  0.50612496  1
  O  O317  1  -0.00203207  0.61242640  0.00108236  1
  O  O318  1  0.01412565  0.62340348  0.49879652  1
  O  O319  1  0.49785844  0.11148918  -0.00011479  1
  O  O320  1  0.51125423  0.11830200  0.50166938  1
  O  O321  1  0.50114349  0.62225130  -0.00158590  1
  O  O322  1  0.51450124  0.62529287  0.49809605  1
  O  O323  1  0.48786243  0.36848526  0.49226070  1
  O  O324  1  0.49560112  0.38226920  0.99115340  1
  O  O325  1  0.49740357  0.88070568  0.49271800  1
  O  O326  1  0.49367332  0.88641163  0.99102750  1
  O  O327  1  1.00479390  0.37585641  0.49214204  1
  O  O328  1  0.99093220  0.38443015  1.00393710  1
  O  O329  1  0.99570102  0.88096659  0.49209928  1
  O  O330  1  1.00359434  0.88495963  0.99243224  1
  O  O331  1  0.48837160  0.49075449  0.36941773  1
  O  O332  1  0.49237692  0.49235536  0.87795357  1
  O  O333  1  0.49585713  0.99478380  0.37797302  1
  O  O334  1  0.49383061  0.99399303  0.88239845  1
  O  O335  1  0.98636206  0.50502635  0.37077230  1
  O  O336  1  0.99546235  0.49556025  0.88751392  1
  O  O337  1  1.00463279  0.99353667  0.38654992  1
  O  O338  1  1.00063261  0.98827892  0.88448332  1
  O  O339  1  0.00891849  -0.00689142  0.11315069  1
  O  O340  1  0.00782668  0.00443455  0.61542072  1
  O  O341  1  0.00942550  0.49562277  0.12010255  1
  O  O342  1  0.01635681  0.50527712  0.62196984  1
  O  O343  1  0.49463379  0.00057892  0.10754099  1
  O  O344  1  0.50672767  -0.00200569  0.61773775  1
  O  O345  1  0.50440237  0.49786058  0.11570315  1
  O  O346  1  0.51615039  0.50048435  0.63411105  1
  O  O347  1  0.24429539  0.37789859  0.23938190  1
  O  O348  1  0.24018310  0.38189223  0.74525835  1
  O  O349  1  0.24499715  0.88012827  0.24449735  1
  O  O350  1  0.25473439  0.88183584  0.73559051  1
  O  O351  1  0.75277158  0.38780619  0.24990311  1
  O  O352  1  0.75494558  0.39291673  0.75855514  1
  O  O353  1  0.74840842  0.88308608  0.24633943  1
  O  O354  1  0.74371675  0.87911455  0.74708663  1
  O  O355  1  0.25828083  0.11858064  0.25089504  1
  O  O356  1  0.25418495  0.11484259  0.75219045  1
  O  O357  1  0.26222455  0.61956183  0.25225927  1
  O  O358  1  0.24810592  0.61199360  0.74820345  1
  O  O359  1  0.76201677  0.11175800  0.25354027  1
  O  O360  1  0.74528223  0.11587249  0.76051598  1
  O  O361  1  0.75639057  0.61597553  0.26263363  1
  O  O362  1  0.75744035  0.62040588  0.76076579  1
  O  O363  1  0.37542833  0.12141149  0.36382832  1
  O  O364  1  0.37103074  0.11214805  0.87515618  1
  O  O365  1  0.37390044  0.61655038  0.37007280  1
  O  O366  1  0.37751940  0.60684758  0.87473709  1
  O  O367  1  0.87938152  0.12617534  0.36284641  1
  O  O368  1  0.85309452  0.11607410  0.88148967  1
  O  O369  1  0.86822434  0.61942869  0.36622674  1
  O  O370  1  0.87219893  0.62532219  0.86438833  1
  O  O371  1  0.13147074  0.38096522  0.13442766  1
  O  O372  1  0.13142739  0.38232320  0.63214555  1
  O  O373  1  0.13041732  0.88527274  0.13069167  1
  O  O374  1  0.13333205  0.88832566  0.61781066  1
  O  O375  1  0.62592674  0.38845994  0.12692359  1
  O  O376  1  0.62453406  0.38866400  0.61698080  1
  O  O377  1  0.64071266  0.87283480  0.14139392  1
  O  O378  1  0.63242829  0.88042060  0.62755083  1
  O  O379  1  0.11818608  0.25536637  0.25312034  1
  O  O380  1  0.12448029  0.25917073  0.75172149  1
  O  O381  1  0.11788607  0.75639290  0.24781539  1
  O  O382  1  0.13152262  0.75189681  0.75802779  1
  O  O383  1  0.61728689  0.25030171  0.25938319  1
  O  O384  1  0.61802390  0.24811801  0.74432887  1
  O  O385  1  0.62581438  0.75559236  0.25890770  1
  O  O386  1  0.61809211  0.76352056  0.73953122  1
  O  O387  1  0.37985458  0.24282345  0.24639184  1
  O  O388  1  0.37522340  0.25198228  0.73966608  1
  O  O389  1  0.38034476  0.74367350  0.24069341  1
  O  O390  1  0.38323284  0.75530271  0.73975024  1
  O  O391  1  0.88056085  0.24225331  0.24863170  1
  O  O392  1  0.87138721  0.25322682  0.75124884  1
  O  O393  1  0.88049577  0.74175337  0.24399830  1
  O  O394  1  0.87085391  0.73647198  0.74274701  1
  O  O395  1  0.36980721  0.49058160  0.49132832  1
  O  O396  1  0.38485531  0.49907893  0.99128845  1
  O  O397  1  0.38023933  0.99598862  0.49393077  1
  O  O398  1  0.37951215  0.99539397  0.99228250  1
  O  O399  1  0.87808496  0.50544248  0.48261674  1
  O  O400  1  0.87912082  0.49249587  1.00645528  1
  O  O401  1  0.88333323  0.98570050  0.50399065  1
  O  O402  1  0.89179278  0.99784311  1.00351699  1
  O  O403  1  0.12188190  0.00537930  0.00689688  1
  O  O404  1  0.11839350  0.00468804  0.50528401  1
  O  O405  1  0.11693520  0.50275328  0.00847779  1
  O  O406  1  0.13103512  0.50761063  0.50719503  1
  O  O407  1  0.61508563  -0.00663770  0.00403109  1
  O  O408  1  0.62335546  0.00460907  0.50274115  1
  O  O409  1  0.61199617  0.50070893  0.00866767  1
  O  O410  1  0.63014230  0.51237031  0.51428765  1
  O  O411  1  0.36514786  0.36822906  0.12270436  1
  O  O412  1  0.37268828  0.37067357  0.61941883  1
  O  O413  1  0.37151232  0.86701750  0.11954230  1
  O  O414  1  0.36637914  0.87110362  0.61611913  1
  O  O415  1  0.86960714  0.36542184  0.11865287  1
  O  O416  1  0.87518344  0.38910362  0.61288046  1
  O  O417  1  0.86235017  0.86581378  0.13162938  1
  O  O418  1  0.87236743  0.86803155  0.61780483  1
  O  O419  1  0.12701748  0.13384326  0.38173388  1
  O  O420  1  0.12857960  0.12549330  0.88463799  1
  O  O421  1  0.13122481  0.62752138  0.38095705  1
  O  O422  1  0.11647109  0.64542500  0.87622752  1
  O  O423  1  0.61892412  0.13617733  0.38235943  1
  O  O424  1  0.64473321  0.11154663  0.88070202  1
  O  O425  1  0.63111127  0.62835283  0.38378316  1
  O  O426  1  0.63434207  0.62467587  0.87195451  1
