# generated using pymatgen
data_V85Zn86O256
_symmetry_space_group_name_H-M   'P 1'
_cell_length_a   16.91663417
_cell_length_b   16.92235954
_cell_length_c   16.91955824
_cell_angle_alpha   90.01698147
_cell_angle_beta   89.96423610
_cell_angle_gamma   90.00282886
_symmetry_Int_Tables_number   1
_chemical_formula_structural   V85Zn86O256
_chemical_formula_sum   'V85 Zn86 O256'
_cell_volume   4843.55004401
_cell_formula_units_Z   1
loop_
 _symmetry_equiv_pos_site_id
 _symmetry_equiv_pos_as_xyz
  1  'x, y, z'
loop_
 _atom_site_type_symbol
 _atom_site_label
 _atom_site_symmetry_multiplicity
 _atom_site_fract_x
 _atom_site_fract_y
 _atom_site_fract_z
 _atom_site_occupancy
  V  V0  1  0.50295384  0.87596795  0.88162885  1
  V  V1  1  0.50172077  0.00104835  0.49865290  1
  V  V2  1  0.37320243  0.62801733  0.25060545  1
  V  V3  1  0.25295242  0.12835893  0.87628548  1
  V  V4  1  0.37715714  0.25216869  0.62310880  1
  V  V5  1  0.62899846  0.49756276  0.62353305  1
  V  V6  1  0.74317568  0.37113752  0.12501623  1
  V  V7  1  0.37755386  -0.00105975  0.37259166  1
  V  V8  1  0.87746132  0.50548236  0.36849486  1
  V  V9  1  0.50495504  0.50906645  -0.00200509  1
  V  V10  1  0.50443519  0.12863223  0.62628161  1
  V  V11  1  0.00203748  -0.00266808  0.50909267  1
  V  V12  1  0.86941148  0.87075417  0.50016523  1
  V  V13  1  0.24939305  0.25161084  0.49630882  1
  V  V14  1  -0.00619567  0.74619607  0.75702444  1
  V  V15  1  0.75305936  0.50888835  0.74766412  1
  V  V16  1  0.86773961  0.74596549  0.62775935  1
  V  V17  1  0.86864402  0.37436694  0.50148850  1
  V  V18  1  0.86988869  0.87344239  0.00555082  1
  V  V19  1  0.50554995  0.01793366  0.00696464  1
  V  V20  1  0.63522871  -0.00222361  0.12263263  1
  V  V21  1  0.74596315  -0.01767012  0.25256759  1
  V  V22  1  0.01137522  0.25076880  0.74726235  1
  V  V23  1  0.50758822  0.87507499  0.37185894  1
  V  V24  1  0.00079604  0.74376404  0.25352749  1
  V  V25  1  0.62121873  0.37259330  0.26494255  1
  V  V26  1  0.38056286  0.12227208  0.23544862  1
  V  V27  1  0.36971988  0.37563200  -0.00461573  1
  V  V28  1  0.86895355  0.24892240  0.12262021  1
  V  V29  1  0.00196155  0.87514879  0.87793908  1
  V  V30  1  0.00212857  0.37446031  0.87151787  1
  V  V31  1  0.00061654  0.49791657  0.50070626  1
  V  V32  1  0.75241292  0.62914882  0.37785516  1
  V  V33  1  0.25170399  0.49772285  0.75683590  1
  V  V34  1  0.12705823  0.25383358  0.36799244  1
  V  V35  1  0.69057911  0.19222526  -0.06092785  1
  V  V36  1  0.38049465  0.24778117  0.11828879  1
  V  V37  1  0.38395062  0.37469598  0.49504231  1
  V  V38  1  0.12872486  0.12900304  0.00081467  1
  V  V39  1  0.49591452  0.74989848  0.74719330  1
  V  V40  1  0.62765930  0.13383614  0.49236743  1
  V  V41  1  0.74987720  0.87258920  0.62322993  1
  V  V42  1  0.86836920  0.37447032  -0.00125754  1
  V  V43  1  0.00227871  0.87508857  0.37696490  1
  V  V44  1  0.12015405  0.49037916  0.63523890  1
  V  V45  1  0.25071514  -0.00152159  0.25183242  1
  V  V46  1  0.37878542  0.00380902  0.87145923  1
  V  V47  1  -0.00016381  0.12694112  0.12594067  1
  V  V48  1  0.87527482  0.50894976  0.87250487  1
  V  V49  1  0.74917302  0.13467961  0.36729658  1
  V  V50  1  0.74958617  0.50439993  0.24815749  1
  V  V51  1  0.62871750  0.87417419  0.75255208  1
  V  V52  1  0.12444632  0.12067165  0.49886383  1
  V  V53  1  0.50524492  0.25323085  0.75440267  1
  V  V54  1  0.12807460  0.62398262  0.50397802  1
  V  V55  1  0.24996211  0.36948904  0.13107186  1
  V  V56  1  0.13170900  0.25367297  0.87619455  1
  V  V57  1  0.75113881  0.00548250  0.75875117  1
  V  V58  1  0.00163813  0.50116208  0.00033136  1
  V  V59  1  0.50587313  0.62703614  0.12261516  1
  V  V60  1  0.62342255  0.74139945  0.88057708  1
  V  V61  1  0.13000575  0.87126838  0.25229494  1
  V  V62  1  -0.00861570  0.62078028  0.63233999  1
  V  V63  1  0.87088935  0.74840615  0.13002008  1
  V  V64  1  0.49258960  0.62688907  0.62586816  1
  V  V65  1  0.00500943  0.37596199  0.37169201  1
  V  V66  1  0.50263046  0.37657030  0.87601349  1
  V  V67  1  0.12321119  -0.00064824  0.12751789  1
  V  V68  1  0.63414893  0.37478370  0.74975417  1
  V  V69  1  0.86728181  0.25219783  0.62599405  1
  V  V70  1  0.50643985  0.75244764  0.24934707  1
  V  V71  1  0.50408812  0.24979989  0.26025689  1
  V  V72  1  0.74513622  0.74452261  0.00571380  1
  V  V73  1  0.00191772  0.25369483  0.24707829  1
  V  V74  1  0.12836280  0.49637576  0.13129887  1
  V  V75  1  0.38275636  0.49821118  0.37352560  1
  V  V76  1  0.62927775  0.00179046  0.62499594  1
  V  V77  1  -0.00249330  0.00019590  0.00277554  1
  V  V78  1  0.24335238  0.36831309  0.63028216  1
  V  V79  1  0.87373516  0.12843059  0.75736619  1
  V  V80  1  0.37007003  0.86983530  0.51342073  1
  V  V81  1  0.12405348  0.88440246  0.73537150  1
  V  V82  1  -0.00164572  0.62322427  0.12736693  1
  V  V83  1  0.14094036  0.63109669  -0.00416921  1
  V  V84  1  0.62790928  0.63532681  0.50084687  1
  Zn  Zn85  1  0.87214570  0.12093768  0.24838820  1
  Zn  Zn86  1  0.25127087  -0.00049215  0.73854727  1
  Zn  Zn87  1  0.62646082  0.50080600  0.12099922  1
  Zn  Zn88  1  -0.00276454  0.12261467  0.62509290  1
  Zn  Zn89  1  0.13987936  0.74991213  0.87449529  1
  Zn  Zn90  1  0.36757179  0.86665513  -0.00439445  1
  Zn  Zn91  1  0.25363760  0.62631184  0.38103132  1
  Zn  Zn92  1  0.87393020  0.00130730  0.37486325  1
  Zn  Zn93  1  0.63296903  0.75668366  0.37411852  1
  Zn  Zn94  1  0.33175690  0.66544609  0.73211012  1
  Zn  Zn95  1  0.87087339  0.00486612  0.88165726  1
  Zn  Zn96  1  0.13496067  0.74993666  0.38512007  1
  Zn  Zn97  1  0.25765994  0.74498678  0.53074056  1
  Zn  Zn98  1  0.25223675  0.12725064  0.37270657  1
  Zn  Zn99  1  0.24866238  0.49745285  0.25563958  1
  Zn  Zn100  1  0.24836048  0.86260940  0.11287551  1
  Zn  Zn101  1  0.36767270  0.74645610  0.11060597  1
  Zn  Zn102  1  0.74870593  0.62400522  0.87982119  1
  Zn  Zn103  1  0.50413221  0.49925310  0.49733886  1
  Zn  Zn104  1  0.37404235  0.51861320  0.87089007  1
  Zn  Zn105  1  0.74702311  0.25474129  0.49736812  1
  Zn  Zn106  1  0.37630204  0.12882813  0.74945942  1
  Zn  Zn107  1  0.19376578  0.18704428  0.18705187  1
  Zn  Zn108  1  0.20120725  0.15513281  0.66932424  1
  Zn  Zn109  1  0.18911837  0.68551941  0.18768221  1
  Zn  Zn110  1  0.17135415  0.69025480  0.68815907  1
  Zn  Zn111  1  0.68137033  0.18174499  0.18098117  1
  Zn  Zn112  1  0.68893158  0.18863039  0.69069606  1
  Zn  Zn113  1  0.68573897  0.68661943  0.18928178  1
  Zn  Zn114  1  0.68374105  0.68466996  0.68986295  1
  Zn  Zn115  1  0.31773440  0.31288884  0.30915665  1
  Zn  Zn116  1  0.31385416  0.31418684  0.81088680  1
  Zn  Zn117  1  0.31435742  0.80649825  0.32136177  1
  Zn  Zn118  1  0.31014111  0.82582655  0.80392438  1
  Zn  Zn119  1  0.81451420  0.31499089  0.30979855  1
  Zn  Zn120  1  0.81299627  0.31351410  0.81338019  1
  Zn  Zn121  1  0.81840459  0.80924686  0.31380214  1
  Zn  Zn122  1  0.81275716  0.81249796  0.81761735  1
  Zn  Zn123  1  0.19226253  0.43986940  0.43992361  1
  Zn  Zn124  1  0.18621923  0.43695394  0.94392187  1
  Zn  Zn125  1  0.19087423  0.93449983  0.44178862  1
  Zn  Zn126  1  0.18588523  0.94108744  0.92926032  1
  Zn  Zn127  1  0.68837853  0.44339285  0.43751512  1
  Zn  Zn128  1  0.68683952  0.43303864  0.93515099  1
  Zn  Zn129  1  0.68922864  0.94304809  0.43752973  1
  Zn  Zn130  1  0.68771644  0.93597495  0.94245971  1
  Zn  Zn131  1  0.29921648  0.02939803  0.04716555  1
  Zn  Zn132  1  0.31534323  0.06112429  0.55974632  1
  Zn  Zn133  1  0.31773862  0.55846613  0.06606909  1
  Zn  Zn134  1  0.31105744  0.55606328  0.56736212  1
  Zn  Zn135  1  0.80735901  0.06363735  0.06453779  1
  Zn  Zn136  1  0.81391201  0.06324269  0.56317436  1
  Zn  Zn137  1  0.81407320  0.56332712  0.06367166  1
  Zn  Zn138  1  0.81105050  0.55973927  0.55999425  1
  Zn  Zn139  1  0.43897602  0.43575684  0.18663569  1
  Zn  Zn140  1  0.43836417  0.43805531  0.68376120  1
  Zn  Zn141  1  0.43938130  0.93034752  0.18045052  1
  Zn  Zn142  1  0.44381666  0.94173877  0.69089598  1
  Zn  Zn143  1  0.93663176  0.43587495  0.18762645  1
  Zn  Zn144  1  0.93286896  0.43244108  0.68980116  1
  Zn  Zn145  1  0.93548949  0.93446158  0.19017335  1
  Zn  Zn146  1  0.93593264  0.93639157  0.69030252  1
  Zn  Zn147  1  0.06072068  0.06335421  0.31606132  1
  Zn  Zn148  1  0.05857761  0.06411854  0.81540178  1
  Zn  Zn149  1  0.06667157  0.56425911  0.31375858  1
  Zn  Zn150  1  0.06608090  0.56121715  0.81312039  1
  Zn  Zn151  1  0.56636916  0.06423180  0.30495750  1
  Zn  Zn152  1  0.56860385  0.06795629  0.81713352  1
  Zn  Zn153  1  0.56337010  0.56282253  0.31184021  1
  Zn  Zn154  1  0.55907930  0.56381312  0.81169159  1
  Zn  Zn155  1  0.43729575  0.18480441  0.43456246  1
  Zn  Zn156  1  0.44134661  0.19129381  0.93763607  1
  Zn  Zn157  1  0.43890886  0.68903680  0.43823340  1
  Zn  Zn158  1  0.33315897  0.69402454  0.91924248  1
  Zn  Zn159  1  0.93481870  0.18634996  0.43518934  1
  Zn  Zn160  1  0.93581294  0.18999272  0.93877293  1
  Zn  Zn161  1  0.93886919  0.68726994  0.44167624  1
  Zn  Zn162  1  0.94071723  0.68788973  0.94319709  1
  Zn  Zn163  1  0.06271415  0.31441834  0.05967288  1
  Zn  Zn164  1  0.05912848  0.30771861  0.55892877  1
  Zn  Zn165  1  0.06469660  0.80936773  0.06432153  1
  Zn  Zn166  1  0.05650308  0.80624643  0.56441731  1
  Zn  Zn167  1  0.55959095  0.30932233  0.06230257  1
  Zn  Zn168  1  0.56644126  0.31471219  0.56445338  1
  Zn  Zn169  1  0.55935590  0.81662264  0.06506945  1
  Zn  Zn170  1  0.56013867  0.81321455  0.56056699  1
  O  O171  1  0.12154641  0.12163063  0.11934326  1
  O  O172  1  0.10995439  0.14495610  0.60069116  1
  O  O173  1  0.11746358  0.61796619  0.11576177  1
  O  O174  1  0.10828880  0.61261082  0.62201113  1
  O  O175  1  0.61930127  0.09965810  0.13347845  1
  O  O176  1  0.61870207  0.12341090  0.61900379  1
  O  O177  1  0.61098922  0.62070997  0.12866208  1
  O  O178  1  0.62243603  0.61661214  0.61740181  1
  O  O179  1  0.37035533  0.38266350  0.38430582  1
  O  O180  1  0.38562452  0.37621791  0.88018646  1
  O  O181  1  0.38349770  0.88583222  0.38298053  1
  O  O182  1  0.38622141  0.88833682  0.87141241  1
  O  O183  1  0.88665306  0.38140732  0.37867931  1
  O  O184  1  0.88141775  0.38179665  0.88375910  1
  O  O185  1  0.88328853  0.87414283  0.38461939  1
  O  O186  1  0.88580911  0.87596169  0.88591242  1
  O  O187  1  0.25844147  -0.00145839  0.36636448  1
  O  O188  1  0.26084648  0.01141906  0.86560743  1
  O  O189  1  0.26235747  0.50365529  0.37451651  1
  O  O190  1  0.24888746  0.48474100  0.85973295  1
  O  O191  1  0.75148534  0.00669015  0.36333019  1
  O  O192  1  0.75256758  -0.00858123  0.86250413  1
  O  O193  1  0.75903069  0.50741297  0.36794100  1
  O  O194  1  0.75802568  0.50178938  0.87081357  1
  O  O195  1  0.24392869  0.49149160  0.12742217  1
  O  O196  1  0.23888597  0.48687765  0.63189272  1
  O  O197  1  0.24041664  1.00207840  0.14350888  1
  O  O198  1  0.23990367  1.04785859  0.63801491  1
  O  O199  1  0.75021837  0.49349009  0.13219133  1
  O  O200  1  0.74303019  0.50349572  0.63420554  1
  O  O201  1  0.74348752  0.99518806  0.13500305  1
  O  O202  1  0.74669958  0.99430846  0.63424655  1
  O  O203  1  -0.00147031  0.36288252  0.25568584  1
  O  O204  1  -0.00530592  0.36613799  0.76370394  1
  O  O205  1  0.01070854  0.86970632  0.25815452  1
  O  O206  1  0.00201778  0.87007827  0.76013128  1
  O  O207  1  0.50787686  0.36283675  0.24609715  1
  O  O208  1  0.50718983  0.37239156  0.75522246  1
  O  O209  1  0.49181268  0.86590373  0.26129070  1
  O  O210  1  0.51575511  0.87496046  0.75480766  1
  O  O211  1  0.49301419  0.13606461  0.25129106  1
  O  O212  1  0.50383976  0.13548040  0.74224216  1
  O  O213  1  0.49475380  0.63039558  0.24345050  1
  O  O214  1  0.51170697  0.63812524  0.73865106  1
  O  O215  1  0.99805128  0.13567224  0.24509893  1
  O  O216  1  0.99309544  0.13344587  0.74785492  1
  O  O217  1  1.00641745  0.63413135  0.24334384  1
  O  O218  1  1.00299214  0.63207991  0.74434252  1
  O  O219  1  0.38138463  0.26064857  0.00652988  1
  O  O220  1  0.37024980  0.25514342  0.50176915  1
  O  O221  1  0.38460853  0.75329288  -0.00411791  1
  O  O222  1  0.37933908  0.76625358  0.50332992  1
  O  O223  1  0.88245026  0.26053215  0.01396071  1
  O  O224  1  0.87650869  0.25731942  0.50731710  1
  O  O225  1  0.86997981  0.75472114  0.00983787  1
  O  O226  1  0.88189360  0.76141288  0.51213450  1
  O  O227  1  0.12782603  0.24742970  0.48415142  1
  O  O228  1  0.11817159  0.23650885  0.99225712  1
  O  O229  1  0.12871994  0.73787336  0.50882376  1
  O  O230  1  0.12384398  0.73471795  0.99876688  1
  O  O231  1  0.62797301  0.23851976  0.50464278  1
  O  O232  1  0.62890031  0.24868249  0.99891623  1
  O  O233  1  0.62549697  0.73900583  0.49763364  1
  O  O234  1  0.63368280  0.76000519  0.99420687  1
  O  O235  1  0.48571107  0.25310510  0.13342944  1
  O  O236  1  0.49864617  0.24631405  0.63231000  1
  O  O237  1  0.49818393  0.74248254  0.13243838  1
  O  O238  1  0.51058329  0.73975565  0.63348007  1
  O  O239  1  0.99604196  0.24829377  0.13146404  1
  O  O240  1  0.98947243  0.25282874  0.63460115  1
  O  O241  1  0.99666065  0.74123087  0.13337197  1
  O  O242  1  0.98849018  0.73971222  0.63431479  1
  O  O243  1  0.00451202  0.25699008  0.36724261  1
  O  O244  1  0.00690434  0.25625470  0.86973035  1
  O  O245  1  0.00194905  0.75858583  0.37052070  1
  O  O246  1  -0.00053141  0.75683661  0.87095930  1
  O  O247  1  0.49507784  0.25054347  0.35963981  1
  O  O248  1  0.49731944  0.25938424  0.86129094  1
  O  O249  1  0.50273019  0.75887088  0.36918092  1
  O  O250  1  0.51212120  0.76396035  0.86414407  1
  O  O251  1  0.24227098  0.13397782  0.49170619  1
  O  O252  1  0.24045302  0.11716885  0.98945340  1
  O  O253  1  0.23688026  0.61919501  0.50691889  1
  O  O254  1  0.24217047  0.61834292  0.99941076  1
  O  O255  1  0.74347191  0.12458630  0.49055219  1
  O  O256  1  0.74821204  0.12872281  0.99579631  1
  O  O257  1  0.74201640  0.61924802  0.48946172  1
  O  O258  1  0.75337307  0.63911486  1.00033767  1
  O  O259  1  0.26460962  0.38082260  0.00838809  1
  O  O260  1  0.25714604  0.36849055  0.50944064  1
  O  O261  1  0.26025470  0.91705765  0.00864873  1
  O  O262  1  0.26532742  0.87462869  0.50529437  1
  O  O263  1  0.76085755  0.38240583  0.00921808  1
  O  O264  1  0.76432663  0.37421650  0.49083933  1
  O  O265  1  0.76347964  0.86499362  -0.00189509  1
  O  O266  1  0.75970799  0.87964082  0.50628483  1
  O  O267  1  0.12579577  0.50340476  0.23560627  1
  O  O268  1  0.12565581  0.49046093  0.74020518  1
  O  O269  1  0.13106324  0.99293244  0.25103150  1
  O  O270  1  0.11544394  0.98660305  0.75286139  1
  O  O271  1  0.63124700  0.49012287  0.24713113  1
  O  O272  1  0.63179884  0.49574218  0.74394131  1
  O  O273  1  0.63992272  0.99724586  0.24493051  1
  O  O274  1  0.63280565  0.99513641  0.74520341  1
  O  O275  1  0.37049270  0.00367020  0.25280377  1
  O  O276  1  0.37831469  0.00778807  0.75921876  1
  O  O277  1  0.37761500  0.50831787  0.25670813  1
  O  O278  1  0.35543744  0.48866486  0.74690968  1
  O  O279  1  0.86117943  -0.00093152  0.24924524  1
  O  O280  1  0.86849096  0.00919619  0.75134733  1
  O  O281  1  0.86722294  0.49376758  0.26051809  1
  O  O282  1  0.86505516  0.49274431  0.75990433  1
  O  O283  1  0.11321350  0.37129596  0.37943757  1
  O  O284  1  0.11369779  0.36584484  0.88676707  1
  O  O285  1  0.11866009  0.87143849  0.37165449  1
  O  O286  1  0.11213366  0.87300472  0.87338822  1
  O  O287  1  0.63063027  0.37592514  0.36433712  1
  O  O288  1  0.61133980  0.38099038  0.86465727  1
  O  O289  1  0.61236981  0.87530624  0.38434508  1
  O  O290  1  0.62215580  0.87132946  0.86829574  1
  O  O291  1  0.36793301  0.12955226  0.13305940  1
  O  O292  1  0.39298479  0.13310303  0.62161531  1
  O  O293  1  0.38677848  0.62336403  0.13436038  1
  O  O294  1  0.39064280  0.61396487  0.62935502  1
  O  O295  1  0.88049957  0.13378238  0.12581221  1
  O  O296  1  0.87840262  0.13362238  0.63330303  1
  O  O297  1  0.88983119  0.63203302  0.12195441  1
  O  O298  1  0.88362066  0.62934035  0.61940363  1
  O  O299  1  0.26411619  0.25714798  0.12913698  1
  O  O300  1  0.25559216  0.25138847  0.61774393  1
  O  O301  1  0.25210797  0.75013915  0.12439934  1
  O  O302  1  0.26679610  0.72193707  0.64448205  1
  O  O303  1  0.75801195  0.25791490  0.13353342  1
  O  O304  1  0.76319578  0.24833171  0.62220834  1
  O  O305  1  0.76169867  0.74384704  0.12352142  1
  O  O306  1  0.76180360  0.75092016  0.63285120  1
  O  O307  1  0.24237606  0.25277782  0.37645838  1
  O  O308  1  0.23737024  0.25128013  0.87576540  1
  O  O309  1  0.25136323  0.74375126  0.39149680  1
  O  O310  1  0.25148690  0.74998941  0.86043577  1
  O  O311  1  0.75564487  0.23909572  0.37495635  1
  O  O312  1  0.75260876  0.25578323  0.88728876  1
  O  O313  1  0.75161917  0.73389248  0.36733802  1
  O  O314  1  0.74248861  0.74842362  0.88501374  1
  O  O315  1  0.00414340  0.12040458  0.00716202  1
  O  O316  1  0.00339586  0.11230197  0.49444231  1
  O  O317  1  0.00625918  0.61815283  0.01004852  1
  O  O318  1  0.00673660  0.61708621  0.50921058  1
  O  O319  1  0.50781037  0.11591399  -0.00693718  1
  O  O320  1  0.50823404  0.12146652  0.50438438  1
  O  O321  1  0.49691954  0.60977044  0.00630918  1
  O  O322  1  0.50851853  0.62423229  0.50885730  1
  O  O323  1  0.48760550  0.37531494  0.50561361  1
  O  O324  1  0.49268057  0.38203550  0.99251967  1
  O  O325  1  0.49352352  0.88337428  0.49395986  1
  O  O326  1  0.50348554  0.88626311  0.98648195  1
  O  O327  1  0.99182706  0.37964866  0.49056330  1
  O  O328  1  0.98980424  0.38117225  0.99352504  1
  O  O329  1  0.99561318  0.87875415  0.49430197  1
  O  O330  1  0.99461045  0.87825131  0.99645773  1
  O  O331  1  0.48845114  0.50230237  0.37803802  1
  O  O332  1  0.49677193  0.49639409  0.88256969  1
  O  O333  1  0.49582877  0.99507502  0.37613938  1
  O  O334  1  0.49964818  0.99690278  0.87794299  1
  O  O335  1  0.99524953  0.49414041  0.37619150  1
  O  O336  1  0.99493798  0.49198210  0.87760468  1
  O  O337  1  0.99696482  0.98685018  0.37978658  1
  O  O338  1  0.99535431  0.99318928  0.88578875  1
  O  O339  1  0.00468592  0.00563353  0.12343184  1
  O  O340  1  -0.00448347  0.00015519  0.61242739  1
  O  O341  1  0.00525999  0.50459202  0.12241442  1
  O  O342  1  0.00150832  0.50188973  0.62415116  1
  O  O343  1  0.49511037  0.00459413  0.10835993  1
  O  O344  1  0.50914117  0.01110141  0.62128414  1
  O  O345  1  0.50050156  0.50349547  0.11295826  1
  O  O346  1  0.51109951  0.50852964  0.62530694  1
  O  O347  1  0.25577648  0.37810035  0.23571000  1
  O  O348  1  0.24722113  0.37521671  0.73606957  1
  O  O349  1  0.23929635  0.87899263  0.25662957  1
  O  O350  1  0.22967001  0.88371567  0.74537688  1
  O  O351  1  0.74385404  0.38294544  0.24419659  1
  O  O352  1  0.73855252  0.38485201  0.75663541  1
  O  O353  1  0.75019930  0.88349057  0.25803390  1
  O  O354  1  0.74306571  0.87979277  0.74580473  1
  O  O355  1  0.25938358  0.11627002  0.25459162  1
  O  O356  1  0.25463208  0.13716311  0.76925611  1
  O  O357  1  0.26055159  0.62045526  0.25372151  1
  O  O358  1  0.23134695  0.59806445  0.74620724  1
  O  O359  1  0.74993812  0.11946394  0.25609758  1
  O  O360  1  0.75944228  0.11605741  0.74479837  1
  O  O361  1  0.74478212  0.61032537  0.25612606  1
  O  O362  1  0.74684392  0.61280774  0.75692744  1
  O  O363  1  0.37597119  0.11117314  0.36688203  1
  O  O364  1  0.36938404  0.12348145  0.87548702  1
  O  O365  1  0.37714622  0.61732802  0.36928256  1
  O  O366  1  0.37099308  0.62653556  0.83781514  1
  O  O367  1  0.86536336  0.12099086  0.37088284  1
  O  O368  1  0.87973682  0.12473361  0.86263630  1
  O  O369  1  0.87063710  0.61407699  0.38214025  1
  O  O370  1  0.87733572  0.61168946  0.88099863  1
  O  O371  1  0.13673714  0.38259145  0.11478226  1
  O  O372  1  0.13063397  0.37876524  0.61679978  1
  O  O373  1  0.12517176  0.88137363  0.13524602  1
  O  O374  1  0.11286620  0.87547520  0.63704818  1
  O  O375  1  0.63572536  0.37433292  0.12949219  1
  O  O376  1  0.62261926  0.38903099  0.63272663  1
  O  O377  1  0.60624209  0.89875893  0.13082544  1
  O  O378  1  0.63100429  0.87947343  0.63101845  1
  O  O379  1  0.11954793  0.24584116  0.25995168  1
  O  O380  1  0.11332666  0.24360488  0.75878238  1
  O  O381  1  0.11685619  0.75617956  0.25423158  1
  O  O382  1  0.10771102  0.76207578  0.75309769  1
  O  O383  1  0.61105794  0.25504527  0.24363273  1
  O  O384  1  0.61798745  0.26384226  0.73996441  1
  O  O385  1  0.61144312  0.74626887  0.25462526  1
  O  O386  1  0.62466158  0.75934768  0.75888378  1
  O  O387  1  0.38447514  0.24173990  0.24394908  1
  O  O388  1  0.38581853  0.25176022  0.74056635  1
  O  O389  1  0.38534762  0.73739276  0.25470639  1
  O  O390  1  0.39541617  0.76968742  0.74500378  1
  O  O391  1  0.88387541  0.25058409  0.23831330  1
  O  O392  1  0.88052946  0.24609212  0.74485671  1
  O  O393  1  0.89025059  0.75425496  0.24301590  1
  O  O394  1  0.88501517  0.75546473  0.74468424  1
  O  O395  1  0.37680283  0.49067969  0.49435110  1
  O  O396  1  0.38521527  0.49370386  0.99338263  1
  O  O397  1  0.38191174  0.99741739  0.49060874  1
  O  O398  1  0.39351331  1.00503283  0.98396771  1
  O  O399  1  0.88145356  0.49254571  0.49112315  1
  O  O400  1  0.88114967  0.49322552  0.99459539  1
  O  O401  1  0.88252439  0.98835113  0.49923238  1
  O  O402  1  0.87889688  0.99107915  1.00439051  1
  O  O403  1  0.11557298  0.01180769  0.00423588  1
  O  O404  1  0.11660010  0.00894409  0.49141364  1
  O  O405  1  0.12043063  0.50873251  0.00977696  1
  O  O406  1  0.11846673  0.50311529  0.51099357  1
  O  O407  1  0.61829351  -0.00195367  0.00976583  1
  O  O408  1  0.62091763  0.01073777  0.50679499  1
  O  O409  1  0.60954249  0.49278121  0.00045415  1
  O  O410  1  0.62431815  0.50638116  0.50836651  1
  O  O411  1  0.36997715  0.36856459  0.11679329  1
  O  O412  1  0.36707560  0.36916297  0.61677085  1
  O  O413  1  0.36914235  0.87013161  0.11768705  1
  O  O414  1  0.38209417  0.88803720  0.61078967  1
  O  O415  1  0.86512266  0.37008243  0.11954643  1
  O  O416  1  0.87839654  0.36721475  0.61302469  1
  O  O417  1  0.88449148  0.86049047  0.11686879  1
  O  O418  1  0.86991569  0.86633195  0.62073346  1
  O  O419  1  0.12505624  0.13556078  0.38134286  1
  O  O420  1  0.13028556  0.13172691  0.88206472  1
  O  O421  1  0.12486849  0.62550331  0.39075025  1
  O  O422  1  0.12064152  0.62412387  0.89309792  1
  O  O423  1  0.63429902  0.12048617  0.38235809  1
  O  O424  1  0.63642337  0.13840463  0.87018807  1
  O  O425  1  0.63376962  0.62340744  0.38413465  1
  O  O426  1  0.62370038  0.63855909  0.87531217  1
