# generated using pymatgen
data_V85Zn86O256
_symmetry_space_group_name_H-M   'P 1'
_cell_length_a   16.94505132
_cell_length_b   16.95241697
_cell_length_c   16.96352724
_cell_angle_alpha   89.93407621
_cell_angle_beta   90.06502051
_cell_angle_gamma   89.83169697
_symmetry_Int_Tables_number   1
_chemical_formula_structural   V85Zn86O256
_chemical_formula_sum   'V85 Zn86 O256'
_cell_volume   4872.90823113
_cell_formula_units_Z   1
loop_
 _symmetry_equiv_pos_site_id
 _symmetry_equiv_pos_as_xyz
  1  'x, y, z'
loop_
 _atom_site_type_symbol
 _atom_site_label
 _atom_site_symmetry_multiplicity
 _atom_site_fract_x
 _atom_site_fract_y
 _atom_site_fract_z
 _atom_site_occupancy
  V  V0  1  0.62319158  0.37421251  0.74986763  1
  V  V1  1  0.36901857  0.50124327  0.37253331  1
  V  V2  1  0.25221444  0.12140189  0.87592829  1
  V  V3  1  0.12514069  0.74003224  0.88462054  1
  V  V4  1  0.87697853  -0.00294811  0.37280035  1
  V  V5  1  0.00658710  0.61252604  0.62346463  1
  V  V6  1  0.76476747  0.61500164  0.37848312  1
  V  V7  1  0.62439402  0.12798022  0.49941952  1
  V  V8  1  0.00078858  0.62368948  0.11123706  1
  V  V9  1  0.49257558  0.38176896  0.87584819  1
  V  V10  1  0.87721941  0.25888893  0.12724505  1
  V  V11  1  0.87689542  0.62401989  0.74915632  1
  V  V12  1  0.62748210  0.25568172  0.37693954  1
  V  V13  1  0.25086878  -0.00325011  0.75261831  1
  V  V14  1  0.00457501  0.37708615  0.87452352  1
  V  V15  1  0.88094003  0.62645696  0.24757229  1
  V  V16  1  0.12982220  0.61586508  0.49862468  1
  V  V17  1  0.75127943  0.12665854  0.37536032  1
  V  V18  1  0.37584002  0.74138335  0.62465045  1
  V  V19  1  0.49923143  0.25232570  0.25080402  1
  V  V20  1  0.62218087  0.24866436  0.87558935  1
  V  V21  1  0.09899910  0.37400928  0.24525290  1
  V  V22  1  0.00336476  0.12636718  0.12654308  1
  V  V23  1  0.87846458  0.74868777  0.62439085  1
  V  V24  1  -0.01196161  0.00331033  0.00118716  1
  V  V25  1  0.49394799  0.00019952  -0.00023719  1
  V  V26  1  0.12580819  0.11611897  0.00123094  1
  V  V27  1  0.00026622  -0.00028654  0.49943135  1
  V  V28  1  0.50120966  0.74655870  0.75568187  1
  V  V29  1  0.75153495  0.50119099  0.75027077  1
  V  V30  1  -0.00451252  0.88189315  0.87502456  1
  V  V31  1  0.63387147  0.37904324  0.23460832  1
  V  V32  1  0.75474811  0.11285992  0.87935719  1
  V  V33  1  0.23046230  -0.00147035  0.24657792  1
  V  V34  1  0.49872745  0.00053393  0.49829924  1
  V  V35  1  0.10956461  0.25248035  0.36589317  1
  V  V36  1  0.49991457  0.87455760  0.37341381  1
  V  V37  1  0.24667847  0.48560873  0.24281154  1
  V  V38  1  0.62512467  0.49682713  0.62382486  1
  V  V39  1  0.24979913  0.73666325  0.00268500  1
  V  V40  1  0.75398514  0.00015001  0.25025021  1
  V  V41  1  0.23435159  0.87869490  0.12613019  1
  V  V42  1  0.12617508  0.87598838  0.75404656  1
  V  V43  1  0.88253875  0.37140291  0.49449977  1
  V  V44  1  0.37836816  0.12375696  0.74967272  1
  V  V45  1  0.25010904  0.13098998  0.37274581  1
  V  V46  1  0.37270709  0.62147772  0.24189316  1
  V  V47  1  0.62351735  0.00027898  0.62351855  1
  V  V48  1  0.74112803  0.63378562  0.88941666  1
  V  V49  1  0.25128058  0.25270946  0.00561421  1
  V  V50  1  0.62094698  0.87056177  0.75060180  1
  V  V51  1  0.75272696  0.87286085  0.62416106  1
  V  V52  1  0.25702136  0.51298776  0.74671655  1
  V  V53  1  0.12408223  0.12960678  0.50301476  1
  V  V54  1  0.25087990  0.87660368  0.62590655  1
  V  V55  1  0.76045836  0.86581556  0.12795293  1
  V  V56  1  0.62891901  0.87627116  0.25422209  1
  V  V57  1  0.49723901  0.49754249  0.49860471  1
  V  V58  1  0.75134496  0.25403212  0.00324303  1
  V  V59  1  0.37415790  0.87414679  0.49726308  1
  V  V60  1  0.36915971  0.38718028  0.00473227  1
  V  V61  1  0.00242963  0.75093098  0.74983325  1
  V  V62  1  0.01435502  0.75069845  0.24653491  1
  V  V63  1  0.87382135  0.13234843  0.74783651  1
  V  V64  1  0.87291544  0.86165296  0.00248135  1
  V  V65  1  0.36900168  0.25480253  0.62377294  1
  V  V66  1  0.01621001  0.86968669  0.37125346  1
  V  V67  1  0.62598931  0.12236443  0.00109278  1
  V  V68  1  0.12537365  0.25083431  0.87200862  1
  V  V69  1  0.88122252  0.50143301  0.87643036  1
  V  V70  1  0.49642869  0.12790939  0.12610217  1
  V  V71  1  0.13565703  0.38166980  0.73376706  1
  V  V72  1  0.52275505  0.50459819  0.00524138  1
  V  V73  1  0.87993126  0.13148301  0.24896580  1
  V  V74  1  0.35930920  0.37925434  0.50092642  1
  V  V75  1  0.75304054  0.74711253  0.50005607  1
  V  V76  1  0.75505243  -0.00366960  0.75375643  1
  V  V77  1  0.87665288  0.37897763  -0.00404328  1
  V  V78  1  0.62775474  0.74731934  0.37799273  1
  V  V79  1  0.62679039  0.00172087  0.12837108  1
  V  V80  1  0.37366579  0.00224678  0.36889176  1
  V  V81  1  0.24052093  0.75408250  0.49077024  1
  V  V82  1  0.12153711  0.49747071  0.11142241  1
  V  V83  1  0.62543091  0.62145023  0.49859795  1
  V  V84  1  0.50020365  0.74551216  0.25085962  1
  Zn  Zn85  1  0.49685895  0.62181799  0.62796088  1
  Zn  Zn86  1  0.36921560  0.87640293  0.00583719  1
  Zn  Zn87  1  -0.01698121  0.49921916  0.46776722  1
  Zn  Zn88  1  0.37043315  0.12877752  0.24737048  1
  Zn  Zn89  1  0.50111568  0.37777610  0.37292428  1
  Zn  Zn90  1  0.24188912  0.26022833  0.50067962  1
  Zn  Zn91  1  0.76238425  0.36595924  0.62801875  1
  Zn  Zn92  1  0.75864763  0.24852461  0.51274715  1
  Zn  Zn93  1  0.37308319  0.75488973  0.12873493  1
  Zn  Zn94  1  0.38199357  0.60663474  0.78804486  1
  Zn  Zn95  1  0.24361827  0.63307594  0.36480977  1
  Zn  Zn96  1  0.49770728  0.12674084  0.62426431  1
  Zn  Zn97  1  0.87855100  0.87247246  0.49739030  1
  Zn  Zn98  1  0.12183648  0.00187489  0.62715145  1
  Zn  Zn99  1  0.49599792  0.25178392  0.74978988  1
  Zn  Zn100  1  0.38106294  -0.01684344  0.87191518  1
  Zn  Zn101  1  -0.00334720  0.25475806  0.74399929  1
  Zn  Zn102  1  0.52113389  0.61898548  0.12691228  1
  Zn  Zn103  1  0.51529182  0.84610415  0.91034143  1
  Zn  Zn104  1  -0.01228851  0.12754383  0.61948973  1
  Zn  Zn105  1  0.36869261  0.25505442  0.12746996  1
  Zn  Zn106  1  0.75562638  0.49478430  0.24914412  1
  Zn  Zn107  1  0.18359901  0.18943302  0.18698799  1
  Zn  Zn108  1  0.18802382  0.19018750  0.68573740  1
  Zn  Zn109  1  0.18504933  0.68316303  0.18202692  1
  Zn  Zn110  1  0.18748123  0.68996000  0.68664131  1
  Zn  Zn111  1  0.68999702  0.19167777  0.18775518  1
  Zn  Zn112  1  0.68627046  0.18380826  0.69129515  1
  Zn  Zn113  1  0.69305916  0.68812555  0.19358734  1
  Zn  Zn114  1  0.68754333  0.68333788  0.68859161  1
  Zn  Zn115  1  0.31253133  0.31431801  0.31473305  1
  Zn  Zn116  1  0.31125869  0.31232136  0.81606611  1
  Zn  Zn117  1  0.30968987  0.81545236  0.30563131  1
  Zn  Zn118  1  0.33608665  0.77930075  0.83977275  1
  Zn  Zn119  1  0.81587414  0.31348241  0.31666289  1
  Zn  Zn120  1  0.80827893  0.31085579  0.81561055  1
  Zn  Zn121  1  0.82161285  0.80782170  0.31279365  1
  Zn  Zn122  1  0.81387960  0.81186346  0.81523981  1
  Zn  Zn123  1  0.16199816  0.44921264  0.42096245  1
  Zn  Zn124  1  0.19239378  0.44089728  0.92977529  1
  Zn  Zn125  1  0.18859261  0.94357704  0.43735587  1
  Zn  Zn126  1  0.18629962  0.93371521  0.93868163  1
  Zn  Zn127  1  0.69693500  0.43321092  0.43799965  1
  Zn  Zn128  1  0.69217837  0.43597215  0.93035692  1
  Zn  Zn129  1  0.69030319  0.93683413  0.43889520  1
  Zn  Zn130  1  0.67147387  0.90738866  0.95337803  1
  Zn  Zn131  1  0.31070786  0.06124694  0.06620141  1
  Zn  Zn132  1  0.31094282  0.06506256  0.56124377  1
  Zn  Zn133  1  0.30993693  0.56006439  0.06534149  1
  Zn  Zn134  1  0.29943013  0.55809736  0.56695141  1
  Zn  Zn135  1  0.81395963  0.06240841  0.06607056  1
  Zn  Zn136  1  0.81087432  0.06164987  0.56279528  1
  Zn  Zn137  1  0.70972868  0.55795903  0.07549879  1
  Zn  Zn138  1  0.81739829  0.55344934  0.56403991  1
  Zn  Zn139  1  0.44130650  0.43666242  0.18398818  1
  Zn  Zn140  1  0.43231147  0.43814847  0.68561833  1
  Zn  Zn141  1  0.43307480  0.93633319  0.18519622  1
  Zn  Zn142  1  0.43617247  0.93384694  0.68675842  1
  Zn  Zn143  1  0.89155065  0.47779567  0.14619598  1
  Zn  Zn144  1  0.94013829  0.43076469  0.68466573  1
  Zn  Zn145  1  0.94578385  0.93810374  0.18705781  1
  Zn  Zn146  1  0.93589506  0.94089885  0.68674521  1
  Zn  Zn147  1  0.05848031  0.06746190  0.31589838  1
  Zn  Zn148  1  0.06112248  0.06178902  0.81559612  1
  Zn  Zn149  1  0.06471035  0.56481188  0.31095800  1
  Zn  Zn150  1  0.06707886  0.55829629  0.80856262  1
  Zn  Zn151  1  0.56238584  0.06614770  0.31258238  1
  Zn  Zn152  1  0.56430954  0.05834047  0.81439611  1
  Zn  Zn153  1  0.56544465  0.56001107  0.31272317  1
  Zn  Zn154  1  0.56312972  0.56349435  0.81445051  1
  Zn  Zn155  1  0.43678026  0.19102020  0.43816336  1
  Zn  Zn156  1  0.43429669  0.18853593  0.93782306  1
  Zn  Zn157  1  0.43314558  0.68386742  0.43659240  1
  Zn  Zn158  1  0.43725675  0.68184889  0.94810912  1
  Zn  Zn159  1  0.93521871  0.19141468  0.43862040  1
  Zn  Zn160  1  0.93711627  0.18915284  0.93335739  1
  Zn  Zn161  1  0.94537157  0.68933539  0.43835728  1
  Zn  Zn162  1  0.93365048  0.68929653  0.93362912  1
  Zn  Zn163  1  0.06033520  0.31113917  0.05994082  1
  Zn  Zn164  1  0.05153652  0.30889870  0.56279442  1
  Zn  Zn165  1  0.05982192  0.81222916  0.06334144  1
  Zn  Zn166  1  0.06381738  0.81364344  0.56416981  1
  Zn  Zn167  1  0.55919604  0.31347552  0.06015948  1
  Zn  Zn168  1  0.55833496  0.31281907  0.56416878  1
  Zn  Zn169  1  0.56849983  0.80863135  0.07449243  1
  Zn  Zn170  1  0.56137073  0.81087333  0.56489253  1
  O  O171  1  0.11527264  0.13181789  0.11357388  1
  O  O172  1  0.13198190  0.12208807  0.60919393  1
  O  O173  1  0.11157721  0.60981778  0.12808105  1
  O  O174  1  0.11496006  0.63962898  0.61226806  1
  O  O175  1  0.61955011  0.12189319  0.12087231  1
  O  O176  1  0.62095119  0.11239974  0.62087055  1
  O  O177  1  0.63396109  0.62555497  0.12610029  1
  O  O178  1  0.62452090  0.61143769  0.61749235  1
  O  O179  1  0.37803711  0.38711593  0.37984690  1
  O  O180  1  0.38758125  0.36789725  0.88640255  1
  O  O181  1  0.37974260  0.88334792  0.37724444  1
  O  O182  1  0.39634942  0.86755911  0.88817574  1
  O  O183  1  0.87252517  0.37251255  0.39192109  1
  O  O184  1  0.88279949  0.37937213  0.87504871  1
  O  O185  1  0.88423445  0.88453365  0.37687342  1
  O  O186  1  0.88169413  0.87212513  0.88939207  1
  O  O187  1  0.25536953  0.00909742  0.36719491  1
  O  O188  1  0.25376318  0.00184405  0.86716729  1
  O  O189  1  0.25503012  0.50379992  0.36186517  1
  O  O190  1  0.24278717  0.49782329  0.84949098  1
  O  O191  1  0.75723470  0.00558536  0.36997249  1
  O  O192  1  0.73832086  0.00978778  0.86828604  1
  O  O193  1  0.74374819  0.51322869  0.36784733  1
  O  O194  1  0.76257433  0.50552390  0.86697786  1
  O  O195  1  0.23117206  0.50302146  0.12945702  1
  O  O196  1  0.25430441  0.49116082  0.64464949  1
  O  O197  1  0.24840180  0.99129273  0.13445176  1
  O  O198  1  0.25022540  0.98999981  0.62929201  1
  O  O199  1  0.77849200  0.49752361  0.13824902  1
  O  O200  1  0.74103807  0.49664914  0.63422814  1
  O  O201  1  0.74668846  0.99705364  0.13508642  1
  O  O202  1  0.74265879  0.99352758  0.63128929  1
  O  O203  1  0.00439484  0.37753008  0.25055528  1
  O  O204  1  0.01278354  0.37465012  0.75858660  1
  O  O205  1  0.00013601  0.86392152  0.25914026  1
  O  O206  1  0.00191846  0.87313266  0.75845125  1
  O  O207  1  0.51004414  0.36547152  0.24911858  1
  O  O208  1  0.50410547  0.37629798  0.75980341  1
  O  O209  1  0.50523247  0.86844772  0.25613242  1
  O  O210  1  0.51007257  0.86373802  0.73853914  1
  O  O211  1  0.49999785  0.13733868  0.24412082  1
  O  O212  1  0.48765625  0.12304517  0.75074307  1
  O  O213  1  0.49506299  0.63042465  0.24999377  1
  O  O214  1  0.49418670  0.62844663  0.74702522  1
  O  O215  1  0.98831490  0.12209550  0.24179794  1
  O  O216  1  0.97905721  0.11683450  0.75592197  1
  O  O217  1  0.99943650  0.63647964  0.25249079  1
  O  O218  1  0.99748942  0.63155533  0.74264301  1
  O  O219  1  0.36641078  0.25832163  0.00171094  1
  O  O220  1  0.37235440  0.26208208  0.50373181  1
  O  O221  1  0.36404819  0.75162341  0.01162171  1
  O  O222  1  0.36956710  0.75735500  0.50510693  1
  O  O223  1  0.86791081  0.25502988  0.00253960  1
  O  O224  1  0.87489536  0.26014556  0.50181235  1
  O  O225  1  0.87825020  0.76349627  0.00333411  1
  O  O226  1  0.87276276  0.74989574  0.50848065  1
  O  O227  1  0.12415674  0.24585228  0.48460781  1
  O  O228  1  0.13025353  0.24410861  0.98855090  1
  O  O229  1  0.13781825  0.74984379  0.50326972  1
  O  O230  1  0.12598378  0.75220871  0.98977286  1
  O  O231  1  0.61723349  0.24275968  0.49056358  1
  O  O232  1  0.63113520  0.24555565  0.99320902  1
  O  O233  1  0.63080663  0.74239114  0.49709655  1
  O  O234  1  0.60928741  0.81277682  0.97424944  1
  O  O235  1  0.50083812  0.24069953  0.13081899  1
  O  O236  1  0.48666960  0.24630495  0.62789027  1
  O  O237  1  0.50136391  0.74772623  0.14124887  1
  O  O238  1  0.49146217  0.74380354  0.62629329  1
  O  O239  1  0.98954225  0.23602073  0.11633255  1
  O  O240  1  1.01074028  0.23538296  0.63509884  1
  O  O241  1  1.00864721  0.74037253  0.13852982  1
  O  O242  1  0.99293177  0.74790647  0.63019315  1
  O  O243  1  0.01143431  0.24445572  0.36869277  1
  O  O244  1  0.00857239  0.25536364  0.86679481  1
  O  O245  1  0.00361256  0.76521292  0.37182005  1
  O  O246  1  0.00720869  0.76023982  0.87136007  1
  O  O247  1  0.50685983  0.25169934  0.36570206  1
  O  O248  1  0.50820095  0.25773083  0.87768172  1
  O  O249  1  0.50384955  0.75244073  0.36705834  1
  O  O250  1  0.50439721  0.74054228  0.85802648  1
  O  O251  1  0.24054043  0.12383913  0.48781147  1
  O  O252  1  0.24239204  0.12929894  0.99600045  1
  O  O253  1  0.24340839  0.63816213  0.50151187  1
  O  O254  1  0.24586556  0.63735511  1.01044421  1
  O  O255  1  0.74264611  0.12543759  0.49350869  1
  O  O256  1  0.74576365  0.12826373  0.99441515  1
  O  O257  1  0.74691609  0.62671721  0.49471274  1
  O  O258  1  0.75448613  0.62045976  0.98750157  1
  O  O259  1  0.26325143  0.36891564  -0.00873804  1
  O  O260  1  0.25820614  0.37930731  0.48812703  1
  O  O261  1  0.24840407  0.87355306  0.01402018  1
  O  O262  1  0.25257467  0.87235247  0.50574730  1
  O  O263  1  0.76030159  0.36210396  -0.01136070  1
  O  O264  1  0.76041953  0.37099597  0.50547798  1
  O  O265  1  0.76809477  0.88550817  0.01206931  1
  O  O266  1  0.75335528  0.86696383  0.50675043  1
  O  O267  1  0.12943809  0.48557513  0.24062257  1
  O  O268  1  0.13130611  0.48732777  0.74498648  1
  O  O269  1  0.13188732  1.00586123  0.25388640  1
  O  O270  1  0.13299477  0.99617083  0.74941883  1
  O  O271  1  0.62427796  0.48166175  0.25174736  1
  O  O272  1  0.63178804  0.49679684  0.74276831  1
  O  O273  1  0.63250061  0.99608103  0.24933055  1
  O  O274  1  0.63265296  0.99811289  0.73809350  1
  O  O275  1  0.37130259  0.00353641  0.26158135  1
  O  O276  1  0.36923824  0.00439472  0.75189117  1
  O  O277  1  0.37051710  0.50236939  0.25294781  1
  O  O278  1  0.36607075  0.50100853  0.75284643  1
  O  O279  1  0.87313126  0.00784919  0.25446204  1
  O  O280  1  0.85913229  0.00331791  0.75039918  1
  O  O281  1  0.88605619  0.52328046  0.25894929  1
  O  O282  1  0.86886325  0.50218198  0.75533427  1
  O  O283  1  0.13397569  0.35622543  0.35699138  1
  O  O284  1  0.11877899  0.36729618  0.87203912  1
  O  O285  1  0.11414844  0.88133763  0.37513298  1
  O  O286  1  0.11374237  0.87092376  0.87055303  1
  O  O287  1  0.62362911  0.36355563  0.37337917  1
  O  O288  1  0.61758940  0.36701464  0.86995578  1
  O  O289  1  0.62007444  0.86926750  0.37285177  1
  O  O290  1  0.62023600  0.89249277  0.84917316  1
  O  O291  1  0.38332059  0.13009936  0.12787919  1
  O  O292  1  0.37599577  0.12878587  0.63297469  1
  O  O293  1  0.38060811  0.62329902  0.13651550  1
  O  O294  1  0.37263143  0.63872559  0.61555089  1
  O  O295  1  0.88007878  0.13433811  0.13198343  1
  O  O296  1  0.86952396  0.11917932  0.64318137  1
  O  O297  1  0.89395494  0.62863205  0.14176981  1
  O  O298  1  0.88332631  0.62985184  0.62974034  1
  O  O299  1  0.24785137  0.24667172  0.10950230  1
  O  O300  1  0.26356416  0.24322361  0.61703696  1
  O  O301  1  0.24469187  0.76077747  0.11998271  1
  O  O302  1  0.25715046  0.76309237  0.62006987  1
  O  O303  1  0.76010202  0.24302605  0.11082216  1
  O  O304  1  0.72849286  0.25702791  0.62274368  1
  O  O305  1  0.75367762  0.76737193  0.13516257  1
  O  O306  1  0.75834812  0.75160444  0.62021589  1
  O  O307  1  0.24653979  0.23893596  0.37410339  1
  O  O308  1  0.24443180  0.24177848  0.88490147  1
  O  O309  1  0.25949291  0.75104796  0.38625499  1
  O  O310  1  0.23031275  0.76431404  0.89019264  1
  O  O311  1  0.74141099  0.24180039  0.37799654  1
  O  O312  1  0.74083368  0.23965572  0.88317642  1
  O  O313  1  0.74764534  0.74373177  0.38408973  1
  O  O314  1  0.75672059  0.73255226  0.87086552  1
  O  O315  1  0.00503081  0.11946526  0.00177137  1
  O  O316  1  0.00718989  0.11718985  0.49643465  1
  O  O317  1  -0.00515712  0.63347525  0.01358574  1
  O  O318  1  0.01225485  0.61888552  0.50471398  1
  O  O319  1  0.50416840  0.12078830  0.00928634  1
  O  O320  1  0.50578003  0.11700255  0.49877783  1
  O  O321  1  0.50349254  0.60780757  0.00230807  1
  O  O322  1  0.50557299  0.61295512  0.49853870  1
  O  O323  1  0.49204825  0.38793968  0.49745453  1
  O  O324  1  0.49390070  0.38565150  0.99507419  1
  O  O325  1  0.49581149  0.88010282  0.49211461  1
  O  O326  1  0.48998295  0.89770488  1.02638031  1
  O  O327  1  0.98906218  0.37956944  0.50179894  1
  O  O328  1  0.99211716  0.36561009  0.98197674  1
  O  O329  1  1.00211470  0.88201270  0.48945875  1
  O  O330  1  0.99039832  0.88250052  0.99737014  1
  O  O331  1  0.49041357  0.49945035  0.38129038  1
  O  O332  1  0.50793757  0.49159796  0.88993911  1
  O  O333  1  0.49255973  0.99674172  0.37799391  1
  O  O334  1  0.50042960  1.00349592  0.89159222  1
  O  O335  1  1.05492419  0.48652323  0.38655028  1
  O  O336  1  0.98998276  0.49321860  0.86843848  1
  O  O337  1  0.99606056  0.99153308  0.37933663  1
  O  O338  1  1.00227252  0.98806997  0.88351001  1
  O  O339  1  -0.00299693  0.01489345  0.11608592  1
  O  O340  1  0.00120455  0.00494464  0.61425313  1
  O  O341  1  0.00385226  0.51539092  0.12288697  1
  O  O342  1  0.00155234  0.51329184  0.62966859  1
  O  O343  1  0.50435303  0.01495488  0.12873261  1
  O  O344  1  0.50700704  -0.00078230  0.61645420  1
  O  O345  1  0.50193664  0.49842125  0.10806515  1
  O  O346  1  0.50498028  0.50212258  0.61643525  1
  O  O347  1  0.25321814  0.38456998  0.24495418  1
  O  O348  1  0.23704083  0.37182398  0.75251686  1
  O  O349  1  0.24719695  0.88505211  0.23962314  1
  O  O350  1  0.24900901  0.88665815  0.74294008  1
  O  O351  1  0.73645834  0.37172278  0.25460251  1
  O  O352  1  0.74247349  0.38556339  0.75291791  1
  O  O353  1  0.75176832  0.88203873  0.24921273  1
  O  O354  1  0.74535858  0.87947566  0.74427363  1
  O  O355  1  0.24953264  0.11880678  0.25542836  1
  O  O356  1  0.25735037  0.11308309  0.75188237  1
  O  O357  1  0.25745286  0.61601675  0.24714372  1
  O  O358  1  0.25421065  0.61711976  0.74269314  1
  O  O359  1  0.76000387  0.12050876  0.25423574  1
  O  O360  1  0.75598327  0.11676561  0.75862803  1
  O  O361  1  0.76917590  0.63236620  0.26199326  1
  O  O362  1  0.75759057  0.61280115  0.75045595  1
  O  O363  1  0.36672238  0.11963381  0.37393204  1
  O  O364  1  0.36756734  0.12573947  0.86463819  1
  O  O365  1  0.37257275  0.61381064  0.36396330  1
  O  O366  1  0.35668896  0.66910774  0.87361891  1
  O  O367  1  0.87273807  0.11972854  0.36669339  1
  O  O368  1  0.86280958  0.12635006  0.86695308  1
  O  O369  1  0.87084856  0.62910990  0.37407847  1
  O  O370  1  0.87366290  0.61618310  0.86751148  1
  O  O371  1  0.11170430  0.38325714  0.13488096  1
  O  O372  1  0.12559256  0.36489840  0.63730024  1
  O  O373  1  0.13426935  0.87713960  0.12343226  1
  O  O374  1  0.13364244  0.87761152  0.63383408  1
  O  O375  1  0.62755166  0.36643008  0.13636738  1
  O  O376  1  0.61829720  0.38708432  0.63238327  1
  O  O377  1  0.63684826  0.88376734  0.13868224  1
  O  O378  1  0.63140732  0.88505905  0.62693468  1
  O  O379  1  0.12273273  0.26031015  0.25406414  1
  O  O380  1  0.13031170  0.25384163  0.76285943  1
  O  O381  1  0.11383001  0.74305464  0.25481608  1
  O  O382  1  0.12125311  0.75828005  0.75918443  1
  O  O383  1  0.62001324  0.25674812  0.25712860  1
  O  O384  1  0.61947537  0.25111199  0.76374950  1
  O  O385  1  0.61978610  0.75642607  0.26043411  1
  O  O386  1  0.61582488  0.75874852  0.73670567  1
  O  O387  1  0.38473676  0.25130400  0.24790970  1
  O  O388  1  0.37358852  0.24217425  0.74314216  1
  O  O389  1  0.38272523  0.73999786  0.25078470  1
  O  O390  1  0.38783723  0.76016394  0.73413383  1
  O  O391  1  0.86803729  0.24304591  0.23928697  1
  O  O392  1  0.87197390  0.23540947  0.75459202  1
  O  O393  1  0.89497368  0.73835595  0.26002889  1
  O  O394  1  0.88235926  0.74475813  0.74402345  1
  O  O395  1  0.37724247  0.49845638  0.49237480  1
  O  O396  1  0.37442595  0.48881004  0.99967283  1
  O  O397  1  0.37683559  0.99553883  0.48795213  1
  O  O398  1  0.38090208  1.00511457  0.99517402  1
  O  O399  1  0.87553135  0.48798212  0.49551903  1
  O  O400  1  0.87408245  0.48230625  0.98892181  1
  O  O401  1  0.88621080  1.00125035  0.49314182  1
  O  O402  1  0.88572043  1.00053138  0.99891991  1
  O  O403  1  0.11604642  0.01289980  -0.00707654  1
  O  O404  1  0.11443431  0.00956978  0.49827298  1
  O  O405  1  0.12611135  0.48717715  0.01300848  1
  O  O406  1  0.14853930  0.51915348  0.51399056  1
  O  O407  1  0.61724811  0.00432583  0.01064662  1
  O  O408  1  0.62120283  0.00562467  0.50525794  1
  O  O409  1  0.62500965  0.49397200  0.00453393  1
  O  O410  1  0.61811641  0.50012457  0.50526999  1
  O  O411  1  0.37971980  0.37249445  0.10813116  1
  O  O412  1  0.37774446  0.36700207  0.61310080  1
  O  O413  1  0.35871587  0.87342387  0.12806784  1
  O  O414  1  0.36761784  0.87089333  0.61466035  1
  O  O415  1  0.88690659  0.36340695  0.11153269  1
  O  O416  1  0.87516301  0.37835252  0.61193440  1
  O  O417  1  0.87389245  0.88195292  0.11374582  1
  O  O418  1  0.86998976  0.86791524  0.62295219  1
  O  O419  1  0.13038407  0.13587489  0.37862328  1
  O  O420  1  0.13071074  0.13119467  0.88018711  1
  O  O421  1  0.12952736  0.63045768  0.39391618  1
  O  O422  1  0.11764194  0.64195926  0.87042371  1
  O  O423  1  0.63004578  0.13482209  0.37830145  1
  O  O424  1  0.62974945  0.13129049  0.88199293  1
  O  O425  1  0.63328660  0.63040703  0.38033453  1
  O  O426  1  0.64278907  0.61891191  0.87239726  1
