# generated using pymatgen
data_V85Zn86O256
_symmetry_space_group_name_H-M   'P 1'
_cell_length_a   16.93695412
_cell_length_b   16.92856755
_cell_length_c   16.94387190
_cell_angle_alpha   90.02938995
_cell_angle_beta   90.02113186
_cell_angle_gamma   89.94558166
_symmetry_Int_Tables_number   1
_chemical_formula_structural   V85Zn86O256
_chemical_formula_sum   'V85 Zn86 O256'
_cell_volume   4858.11620544
_cell_formula_units_Z   1
loop_
 _symmetry_equiv_pos_site_id
 _symmetry_equiv_pos_as_xyz
  1  'x, y, z'
loop_
 _atom_site_type_symbol
 _atom_site_label
 _atom_site_symmetry_multiplicity
 _atom_site_fract_x
 _atom_site_fract_y
 _atom_site_fract_z
 _atom_site_occupancy
  V  V0  1  0.48848424  0.37708032  0.88032963  1
  V  V1  1  0.62584394  0.50145749  0.62650406  1
  V  V2  1  0.75391222  0.87328042  0.11763734  1
  V  V3  1  0.75076896  0.37309317  0.62745824  1
  V  V4  1  -0.00678516  0.37821498  0.37953201  1
  V  V5  1  0.37190460  0.86833348  0.00657998  1
  V  V6  1  0.50098622  0.62721070  0.62692149  1
  V  V7  1  0.76127701  0.50543179  0.24826824  1
  V  V8  1  0.24904206  0.12678568  0.87809271  1
  V  V9  1  0.00385805  0.49901957  -0.00297698  1
  V  V10  1  0.87614439  0.37296813  -0.00268142  1
  V  V11  1  0.50419157  0.49966063  0.49895935  1
  V  V12  1  0.62773024  0.63382431  -0.01173736  1
  V  V13  1  0.13116236  -0.00171687  0.12813339  1
  V  V14  1  0.11983150  0.12082903  0.00315745  1
  V  V15  1  0.26250188  0.24935890  0.00946932  1
  V  V16  1  -0.00038734  0.61468591  0.62353932  1
  V  V17  1  0.62186984  0.51178435  0.12099341  1
  V  V18  1  0.11874103  0.62427058  -0.00186407  1
  V  V19  1  0.62504334  0.37438015  0.75209106  1
  V  V20  1  0.37378615  0.50682735  0.37412473  1
  V  V21  1  0.37618740  -0.00205355  0.87551817  1
  V  V22  1  0.62512511  0.11790919  0.50050253  1
  V  V23  1  0.62919351  0.24729320  0.87430897  1
  V  V24  1  0.74784116  0.25064553  0.50186261  1
  V  V25  1  0.12460517  0.62079772  0.50385285  1
  V  V26  1  0.49661847  0.88022612  0.37452175  1
  V  V27  1  0.87934979  0.73830200  0.12651360  1
  V  V28  1  0.26350373  0.37345025  0.12421981  1
  V  V29  1  0.24802226  0.24907741  0.49951525  1
  V  V30  1  0.87726419  0.87879495  0.49868091  1
  V  V31  1  -0.00024518  0.87618045  0.37445141  1
  V  V32  1  -0.00487974  0.11591447  0.12960908  1
  V  V33  1  0.48893216  0.50247519  0.00031607  1
  V  V34  1  0.62543962  0.00416742  0.12417808  1
  V  V35  1  0.12129555  0.01517070  0.62336030  1
  V  V36  1  0.37371303  0.75071154  0.62706097  1
  V  V37  1  0.06596882  0.55871966  0.17288432  1
  V  V38  1  0.75079177  0.12790526  0.36522768  1
  V  V39  1  0.37598613  0.12402263  0.74904483  1
  V  V40  1  0.50085723  0.86450324  0.87304581  1
  V  V41  1  0.87585793  0.11731690  0.74748633  1
  V  V42  1  0.36968663  0.37746223  0.50306436  1
  V  V43  1  0.62903980  0.88326019  0.75029214  1
  V  V44  1  0.62471919  0.74968226  0.37077107  1
  V  V45  1  0.50452080  0.11727298  0.62444040  1
  V  V46  1  0.50358202  0.37596602  0.37497582  1
  V  V47  1  0.50126057  0.24913285  0.74957302  1
  V  V48  1  0.62787484  0.87586250  0.24772633  1
  V  V49  1  0.25457395  0.61459885  0.87372796  1
  V  V50  1  0.12558544  0.75051171  0.37779201  1
  V  V51  1  0.74643536  0.37407067  0.12342609  1
  V  V52  1  0.24785103  0.50236715  0.24481887  1
  V  V53  1  0.13369628  0.87905225  0.25349276  1
  V  V54  1  0.74851518  0.24649273  -0.00210506  1
  V  V55  1  0.89430803  0.87415001  0.00099784  1
  V  V56  1  0.24938880  -0.00061556  0.74884054  1
  V  V57  1  0.50332090  0.00060253  -0.00091820  1
  V  V58  1  0.12212777  0.36902869  0.24000522  1
  V  V59  1  0.74685630  0.09708411  0.87277024  1
  V  V60  1  0.49658762  0.74619637  0.23778843  1
  V  V61  1  0.37197974  0.10637114  0.24796336  1
  V  V62  1  0.88234594  0.24517962  0.62569488  1
  V  V63  1  0.87516229  0.75317037  0.62361100  1
  V  V64  1  0.37681972  0.62838788  0.23142845  1
  V  V65  1  0.12338947  0.87755636  0.75120032  1
  V  V66  1  0.87302307  0.24070691  0.13010285  1
  V  V67  1  0.62177964  0.37755765  0.24810753  1
  V  V68  1  0.48412503  0.25302619  0.24412342  1
  V  V69  1  0.62801417  0.62729362  0.49848497  1
  V  V70  1  0.13505113  0.49020601  0.62714326  1
  V  V71  1  0.89888945  -0.00560795  0.87776510  1
  V  V72  1  0.75080085  0.75283118  0.49862950  1
  V  V73  1  0.74412722  0.89415023  0.62318082  1
  V  V74  1  0.76676549  0.62708870  0.36701854  1
  V  V75  1  0.37339124  0.88152045  0.49903895  1
  V  V76  1  0.12485559  0.75364282  0.87696299  1
  V  V77  1  0.87407366  0.62677997  0.75512264  1
  V  V78  1  0.00191245  0.75513901  0.75121884  1
  V  V79  1  0.25575835  0.11443744  0.37701185  1
  V  V80  1  0.37232627  0.25275325  0.62535905  1
  V  V81  1  0.12642249  0.24636322  0.37530499  1
  V  V82  1  0.87804358  0.00751488  0.36524861  1
  V  V83  1  0.00388891  0.01721621  0.50198983  1
  V  V84  1  0.74804610  0.50415305  0.75852337  1
  Zn  Zn85  1  0.50607070  0.74933723  0.75109291  1
  Zn  Zn86  1  0.26343436  0.48517842  0.75147079  1
  Zn  Zn87  1  0.62196804  0.24934980  0.37446476  1
  Zn  Zn88  1  0.88605046  0.38707981  0.50554739  1
  Zn  Zn89  1  0.49118401  0.13177899  0.12005192  1
  Zn  Zn90  1  0.11922678  0.25092160  0.87810983  1
  Zn  Zn91  1  0.25824188  0.87409473  0.13612771  1
  Zn  Zn92  1  0.12709313  0.36842146  0.75512721  1
  Zn  Zn93  1  0.00065948  0.24779129  0.75335514  1
  Zn  Zn94  1  0.74799075  0.66205761  0.87886967  1
  Zn  Zn95  1  0.87263640  0.50473368  0.87894505  1
  Zn  Zn96  1  -0.00582307  0.24357253  0.25263594  1
  Zn  Zn97  1  0.49962982  0.00019886  0.49752965  1
  Zn  Zn98  1  0.00070795  0.37120540  0.87231297  1
  Zn  Zn99  1  0.24999014  0.74983612  0.50245139  1
  Zn  Zn100  1  0.75633036  0.00516503  0.24393417  1
  Zn  Zn101  1  0.37816842  0.62284673  0.75652639  1
  Zn  Zn102  1  -0.00097213  0.74016160  0.24750454  1
  Zn  Zn103  1  0.62250972  0.12451263  -0.00068544  1
  Zn  Zn104  1  0.25094324  0.62566386  0.37591931  1
  Zn  Zn105  1  0.25229750  0.74536256  0.00706493  1
  Zn  Zn106  1  0.24791848  0.87468275  0.62449100  1
  Zn  Zn107  1  0.19101719  0.18414014  0.18936037  1
  Zn  Zn108  1  0.18980986  0.19361940  0.68988795  1
  Zn  Zn109  1  0.19591325  0.69815310  0.19175323  1
  Zn  Zn110  1  0.18880960  0.68475584  0.68971782  1
  Zn  Zn111  1  0.68034855  0.19097420  0.18702133  1
  Zn  Zn112  1  0.69222083  0.17870711  0.68936668  1
  Zn  Zn113  1  0.69256607  0.69048572  0.18275664  1
  Zn  Zn114  1  0.68824082  0.69593208  0.69051023  1
  Zn  Zn115  1  0.31014619  0.31727262  0.31471563  1
  Zn  Zn116  1  0.30546746  0.31132207  0.81331514  1
  Zn  Zn117  1  0.31426725  0.80933066  0.31585313  1
  Zn  Zn118  1  0.31122742  0.80835230  0.81386950  1
  Zn  Zn119  1  0.80864230  0.31353418  0.31148984  1
  Zn  Zn120  1  0.81424048  0.30929611  0.81167930  1
  Zn  Zn121  1  0.81487332  0.81379804  0.30481774  1
  Zn  Zn122  1  0.82097846  0.82501513  0.80316315  1
  Zn  Zn123  1  0.18397481  0.43641056  0.43655487  1
  Zn  Zn124  1  0.18600270  0.43319348  0.94151089  1
  Zn  Zn125  1  0.18616332  0.93709250  0.44375309  1
  Zn  Zn126  1  0.18437223  0.93975902  0.93728189  1
  Zn  Zn127  1  0.72393226  0.45716864  0.45245433  1
  Zn  Zn128  1  0.68325087  0.43745022  0.93877289  1
  Zn  Zn129  1  0.68908726  0.94023648  0.43426806  1
  Zn  Zn130  1  0.70719496  0.86601423  0.92056730  1
  Zn  Zn131  1  0.31191200  0.05768716  0.06468441  1
  Zn  Zn132  1  0.31090460  0.06291377  0.56277993  1
  Zn  Zn133  1  0.30372007  0.55874425  0.06055530  1
  Zn  Zn134  1  0.31222266  0.56489374  0.56343944  1
  Zn  Zn135  1  0.81249502  0.05756162  0.05439849  1
  Zn  Zn136  1  0.81863167  0.06777333  0.55319457  1
  Zn  Zn137  1  0.80729295  0.56127433  0.05787061  1
  Zn  Zn138  1  0.81333601  0.56468020  0.56690902  1
  Zn  Zn139  1  0.43780997  0.44377618  0.18553889  1
  Zn  Zn140  1  0.43573526  0.43881411  0.68966657  1
  Zn  Zn141  1  0.44343600  0.93659446  0.18717345  1
  Zn  Zn142  1  0.43869737  0.93631847  0.68757657  1
  Zn  Zn143  1  0.93408458  0.42450835  0.18845668  1
  Zn  Zn144  1  0.93729676  0.43459043  0.69181450  1
  Zn  Zn145  1  0.94488873  0.93545190  0.18682162  1
  Zn  Zn146  1  0.93815681  0.94137506  0.68643640  1
  Zn  Zn147  1  0.06663584  0.06468962  0.31115721  1
  Zn  Zn148  1  0.06439441  0.07052214  0.80872383  1
  Zn  Zn149  1  0.05755618  0.55938204  0.33481697  1
  Zn  Zn150  1  0.06268065  0.55955350  0.81243867  1
  Zn  Zn151  1  0.56175759  0.06441324  0.31012673  1
  Zn  Zn152  1  0.56484705  0.05546979  0.81053508  1
  Zn  Zn153  1  0.56431811  0.56539827  0.30985307  1
  Zn  Zn154  1  0.55935457  0.56144526  0.81602068  1
  Zn  Zn155  1  0.43595137  0.18745852  0.43464941  1
  Zn  Zn156  1  0.43819891  0.18740275  0.93600545  1
  Zn  Zn157  1  0.43963364  0.69296523  0.43867436  1
  Zn  Zn158  1  0.43885971  0.68541758  0.94308632  1
  Zn  Zn159  1  0.93416120  0.19378681  0.43613954  1
  Zn  Zn160  1  0.93609781  0.18170518  0.93991975  1
  Zn  Zn161  1  0.94182270  0.68899287  0.44056685  1
  Zn  Zn162  1  0.93886614  0.69229961  0.93848559  1
  Zn  Zn163  1  0.06192383  0.30434803  0.05952043  1
  Zn  Zn164  1  0.06295811  0.30794465  0.56128955  1
  Zn  Zn165  1  0.06569832  0.80856879  0.06891958  1
  Zn  Zn166  1  0.06253201  0.81461739  0.56463280  1
  Zn  Zn167  1  0.55949095  0.31404890  0.06185093  1
  Zn  Zn168  1  0.56305881  0.30859878  0.56200649  1
  Zn  Zn169  1  0.56219961  0.81572064  0.06147019  1
  Zn  Zn170  1  0.56323021  0.81441368  0.56258369  1
  O  O171  1  0.12121195  0.11713798  0.12217472  1
  O  O172  1  0.12773639  0.11411538  0.63035169  1
  O  O173  1  0.12646492  0.62371830  0.11965644  1
  O  O174  1  0.11775422  0.61943260  0.62121655  1
  O  O175  1  0.62198527  0.11385557  0.12362181  1
  O  O176  1  0.61593171  0.13157600  0.61600303  1
  O  O177  1  0.62984340  0.61483076  0.11677418  1
  O  O178  1  0.61990753  0.62363955  0.61984079  1
  O  O179  1  0.38460007  0.38782124  0.37937270  1
  O  O180  1  0.39118746  0.36248423  0.87519530  1
  O  O181  1  0.38541506  0.86776973  0.38535889  1
  O  O182  1  0.38214276  0.87997498  0.88006671  1
  O  O183  1  0.89041096  0.36105000  0.37580519  1
  O  O184  1  0.87194087  0.37494546  0.88929962  1
  O  O185  1  0.88212402  0.88173112  0.37802124  1
  O  O186  1  0.88083873  0.88613429  0.88515391  1
  O  O187  1  0.24359912  0.01649062  0.38211702  1
  O  O188  1  0.25574824  0.01027605  0.87160567  1
  O  O189  1  0.25780777  0.49988020  0.36699753  1
  O  O190  1  0.24542360  0.51212039  0.87855944  1
  O  O191  1  0.76029115  0.00938253  0.37252790  1
  O  O192  1  0.74769691  -0.00139893  0.87969782  1
  O  O193  1  0.73632858  0.51761785  0.35716098  1
  O  O194  1  0.75048946  0.49686382  0.86346288  1
  O  O195  1  0.24850526  0.48759950  0.13149691  1
  O  O196  1  0.23742725  0.50360371  0.62615396  1
  O  O197  1  0.23735077  0.99227311  0.12395598  1
  O  O198  1  0.24159283  0.99918170  0.63182424  1
  O  O199  1  0.74042303  0.49435750  0.12936065  1
  O  O200  1  0.74218142  0.49700324  0.64039156  1
  O  O201  1  0.74262884  0.99700142  0.12556843  1
  O  O202  1  0.75441203  0.99164777  0.61416458  1
  O  O203  1  0.00647195  0.36720527  0.25780960  1
  O  O204  1  0.00372060  0.36930637  0.75313981  1
  O  O205  1  0.00904269  0.87535531  0.26506651  1
  O  O206  1  0.00561021  0.86247575  0.74514032  1
  O  O207  1  0.50168061  0.37189435  0.25480485  1
  O  O208  1  0.50558363  0.36894840  0.76055183  1
  O  O209  1  0.50662345  0.86751595  0.25657234  1
  O  O210  1  0.50586226  0.87429904  0.75745056  1
  O  O211  1  0.48530230  0.13359891  0.25324783  1
  O  O212  1  0.49712288  0.13028977  0.74380968  1
  O  O213  1  0.49006533  0.63346637  0.25288893  1
  O  O214  1  0.50417717  0.62746627  0.73784492  1
  O  O215  1  1.00327419  0.12689946  0.23598207  1
  O  O216  1  0.98088752  0.12567936  0.75439368  1
  O  O217  1  1.01332716  0.61491781  0.24037628  1
  O  O218  1  0.99240071  0.63276975  0.74444608  1
  O  O219  1  0.36162544  0.24204190  0.00292920  1
  O  O220  1  0.37008101  0.25789380  0.50471589  1
  O  O221  1  0.37594264  0.76522186  -0.00178079  1
  O  O222  1  0.37458444  0.75890406  0.50932034  1
  O  O223  1  0.86665716  0.25406036  0.00742844  1
  O  O224  1  0.86343950  0.25164650  0.50909587  1
  O  O225  1  0.88100277  0.76572576  0.00757723  1
  O  O226  1  0.87187546  0.75956099  0.50366153  1
  O  O227  1  0.14041853  0.25510151  0.49368822  1
  O  O228  1  0.13585461  0.23434232  1.00158934  1
  O  O229  1  0.12466769  0.74441355  0.49461101  1
  O  O230  1  0.12229436  0.74256257  0.99198760  1
  O  O231  1  0.62884055  0.23831205  0.49623858  1
  O  O232  1  0.62955835  0.24769540  0.99170257  1
  O  O233  1  0.63049365  0.74776941  0.49034645  1
  O  O234  1  0.61742351  0.73249612  1.00532401  1
  O  O235  1  0.50493774  0.24815551  0.13750149  1
  O  O236  1  0.49041700  0.24159992  0.62811403  1
  O  O237  1  0.50247541  0.75611412  0.13884021  1
  O  O238  1  0.49329759  0.74212303  0.62275555  1
  O  O239  1  0.98852159  0.24051798  0.12621229  1
  O  O240  1  0.98514950  0.24971787  0.62235565  1
  O  O241  1  0.98607885  0.75044150  0.12828167  1
  O  O242  1  0.99483414  0.74205379  0.63182895  1
  O  O243  1  0.01091504  0.25185396  0.37199743  1
  O  O244  1  -0.00192707  0.24974482  0.87663571  1
  O  O245  1  0.00839673  0.75737735  0.37294129  1
  O  O246  1  0.01400370  0.74385113  0.86426087  1
  O  O247  1  0.49953602  0.26062468  0.36683945  1
  O  O248  1  0.51113312  0.25602673  0.87300140  1
  O  O249  1  0.50967148  0.75839810  0.36887044  1
  O  O250  1  0.49711791  0.76126668  0.87440773  1
  O  O251  1  0.25996398  0.13542173  0.48639902  1
  O  O252  1  0.24687440  0.13005389  0.99699063  1
  O  O253  1  0.23818091  0.62839469  0.49892264  1
  O  O254  1  0.23658994  0.62385921  0.99196249  1
  O  O255  1  0.74301458  0.13376148  0.49157909  1
  O  O256  1  0.74613307  0.12863692  0.98749816  1
  O  O257  1  0.74480616  0.63529130  0.49059808  1
  O  O258  1  0.73382063  0.62029107  0.99139160  1
  O  O259  1  0.24668514  0.35890235  0.00970743  1
  O  O260  1  0.26376892  0.36855224  0.49233497  1
  O  O261  1  0.26750553  0.87800153  -0.00647016  1
  O  O262  1  0.25843169  0.87100073  0.50327671  1
  O  O263  1  0.75428587  0.36905205  0.00491021  1
  O  O264  1  0.73440131  0.35709387  0.50949444  1
  O  O265  1  0.76493257  0.88290074  0.01417358  1
  O  O266  1  0.75525772  0.87268531  0.50569322  1
  O  O267  1  0.12205982  0.49831205  0.24328649  1
  O  O268  1  0.12529717  0.50157240  0.73366759  1
  O  O269  1  0.12319631  0.99063365  0.24351206  1
  O  O270  1  0.12748807  0.99428695  0.74559942  1
  O  O271  1  0.62261080  0.49212867  0.23884588  1
  O  O272  1  0.62982434  0.49581382  0.74710364  1
  O  O273  1  0.62476019  0.99350000  0.24021160  1
  O  O274  1  0.61728093  0.98437950  0.73798793  1
  O  O275  1  0.37972692  0.00788971  0.25421799  1
  O  O276  1  0.36980043  0.00445112  0.75487525  1
  O  O277  1  0.37215821  0.50957158  0.25750209  1
  O  O278  1  0.37430661  0.51024045  0.74530546  1
  O  O279  1  0.87733554  -0.00376497  0.26208331  1
  O  O280  1  0.87889285  0.00086829  0.76628725  1
  O  O281  1  0.85993948  0.49279932  0.24306371  1
  O  O282  1  0.86667756  0.51117529  0.75151740  1
  O  O283  1  0.11831023  0.36603645  0.36603818  1
  O  O284  1  0.11968951  0.36982623  0.87794587  1
  O  O285  1  0.11915816  0.86963378  0.37368721  1
  O  O286  1  0.12901840  0.86832545  0.86284331  1
  O  O287  1  0.61084384  0.37949300  0.36676255  1
  O  O288  1  0.61957654  0.36515200  0.86964947  1
  O  O289  1  0.62330622  0.86549078  0.36974172  1
  O  O290  1  0.61368947  0.88496603  0.86128923  1
  O  O291  1  0.37350314  0.11852113  0.14263721  1
  O  O292  1  0.38173969  0.13180981  0.63004049  1
  O  O293  1  0.37099832  0.62118908  0.13253290  1
  O  O294  1  0.38611289  0.63396680  0.62095983  1
  O  O295  1  0.88187625  0.12819554  0.11708114  1
  O  O296  1  0.86568556  0.13109788  0.63532261  1
  O  O297  1  0.86912222  0.64044149  0.11409421  1
  O  O298  1  0.88051663  0.63100017  0.63395065  1
  O  O299  1  0.24888094  0.25351151  0.11584382  1
  O  O300  1  0.26443291  0.24320501  0.61547781  1
  O  O301  1  0.24521460  0.76292938  0.11837127  1
  O  O302  1  0.26076230  0.74978308  0.62580092  1
  O  O303  1  0.75202770  0.25212794  0.11770460  1
  O  O304  1  0.75499567  0.25192193  0.61946683  1
  O  O305  1  0.76432400  0.76175480  0.12730722  1
  O  O306  1  0.75889615  0.75640077  0.61627851  1
  O  O307  1  0.24590273  0.24645999  0.38198492  1
  O  O308  1  0.25273301  0.23664146  0.88780971  1
  O  O309  1  0.23650665  0.74720283  0.37814554  1
  O  O310  1  0.23757721  0.74152812  0.87945017  1
  O  O311  1  0.74714488  0.24481352  0.38269868  1
  O  O312  1  0.73927376  0.24632104  0.87792204  1
  O  O313  1  0.74435247  0.74701619  0.37535081  1
  O  O314  1  0.74808748  0.77349115  0.86930071  1
  O  O315  1  0.01011323  0.12740068  0.01395184  1
  O  O316  1  -0.00250104  0.11622228  0.49505793  1
  O  O317  1  0.01035637  0.61798253  -0.00319654  1
  O  O318  1  0.01110579  0.62873069  0.51033188  1
  O  O319  1  0.50075435  0.11625427  0.00127502  1
  O  O320  1  0.50612472  0.12480888  0.50509417  1
  O  O321  1  0.51008539  0.60983599  -0.00844391  1
  O  O322  1  0.50776828  0.62081814  0.50750113  1
  O  O323  1  0.49463756  0.37929454  0.49186273  1
  O  O324  1  0.50425184  0.38461098  0.98825389  1
  O  O325  1  0.49451739  0.87639744  0.49228374  1
  O  O326  1  0.49189525  0.88030429  0.99252447  1
  O  O327  1  1.00002878  0.36763391  0.48487561  1
  O  O328  1  0.99123277  0.38128730  1.00364702  1
  O  O329  1  0.99618886  0.87972394  0.48916400  1
  O  O330  1  0.99287234  0.87604914  1.00446419  1
  O  O331  1  0.49502218  0.49649369  0.38028468  1
  O  O332  1  0.50264790  0.48557946  0.88418342  1
  O  O333  1  0.50747904  0.98405855  0.37457128  1
  O  O334  1  0.49386097  0.99337147  0.88191722  1
  O  O335  1  0.99547830  0.47837409  0.37564215  1
  O  O336  1  0.99331385  0.49847256  0.88436339  1
  O  O337  1  0.99695776  0.99655088  0.38055556  1
  O  O338  1  0.99662282  1.00212242  0.87694526  1
  O  O339  1  0.01216360  0.00683736  0.12689131  1
  O  O340  1  0.00742180  -0.00288000  0.61399656  1
  O  O341  1  -0.00064702  0.49857653  0.12192609  1
  O  O342  1  0.00232733  0.51185162  0.62793015  1
  O  O343  1  0.50791117  0.00222414  0.11754654  1
  O  O344  1  0.49384857  0.01439876  0.62179171  1
  O  O345  1  0.50827159  0.49339288  0.10920119  1
  O  O346  1  0.50719855  0.50719162  0.61733621  1
  O  O347  1  0.24077599  0.38137903  0.24492350  1
  O  O348  1  0.24248085  0.37399450  0.74994879  1
  O  O349  1  0.23815068  0.87248160  0.25674838  1
  O  O350  1  0.24290571  0.88242023  0.75016007  1
  O  O351  1  0.73856305  0.38243437  0.24630256  1
  O  O352  1  0.74535458  0.38192825  0.74604678  1
  O  O353  1  0.74483340  0.88043789  0.23818763  1
  O  O354  1  0.74338626  0.88092114  0.73197237  1
  O  O355  1  0.26431740  0.12738159  0.26138355  1
  O  O356  1  0.25612055  0.12064134  0.76008922  1
  O  O357  1  0.25826836  0.62018912  0.25359308  1
  O  O358  1  0.24802484  0.62232764  0.76707221  1
  O  O359  1  0.74291939  0.12651588  0.26175214  1
  O  O360  1  0.76034650  0.12265323  0.76384406  1
  O  O361  1  0.74759434  0.61866267  0.25481616  1
  O  O362  1  0.75638859  0.62223760  0.75300056  1
  O  O363  1  0.36415744  0.12638785  0.36618508  1
  O  O364  1  0.37042843  0.11849357  0.86866987  1
  O  O365  1  0.37579152  0.61427692  0.37824341  1
  O  O366  1  0.35743576  0.63260503  0.87912503  1
  O  O367  1  0.86489183  0.11915040  0.37857974  1
  O  O368  1  0.86683196  0.10722651  0.87434807  1
  O  O369  1  0.86616422  0.63174710  0.37590234  1
  O  O370  1  0.86985111  0.62980532  0.86537976  1
  O  O371  1  0.12799447  0.36584369  0.13720082  1
  O  O372  1  0.11963004  0.38979961  0.62013763  1
  O  O373  1  0.12134789  0.88215183  0.13802456  1
  O  O374  1  0.12634373  0.87936316  0.63853471  1
  O  O375  1  0.62926007  0.38250567  0.13037728  1
  O  O376  1  0.62780533  0.37938062  0.63314379  1
  O  O377  1  0.63418286  0.88347194  0.12551396  1
  O  O378  1  0.63935814  0.87788867  0.62274676  1
  O  O379  1  0.12695481  0.25624576  0.25772654  1
  O  O380  1  0.11942368  0.24635388  0.75669698  1
  O  O381  1  0.11909587  0.75615954  0.26114748  1
  O  O382  1  0.12039091  0.75667873  0.75461931  1
  O  O383  1  0.61700722  0.26519461  0.25258108  1
  O  O384  1  0.62063778  0.25221724  0.75616206  1
  O  O385  1  0.62031339  0.75445793  0.25430064  1
  O  O386  1  0.62024030  0.77362863  0.73738431  1
  O  O387  1  0.38240873  0.24925183  0.25496091  1
  O  O388  1  0.38083742  0.24439155  0.74248511  1
  O  O389  1  0.38396151  0.73892845  0.25623405  1
  O  O390  1  0.38014320  0.74516484  0.74085262  1
  O  O391  1  0.87052899  0.25387490  0.23325464  1
  O  O392  1  0.87249915  0.23909946  0.74132799  1
  O  O393  1  0.88072507  0.75217449  0.23363401  1
  O  O394  1  0.88400195  0.74636158  0.74391220  1
  O  O395  1  0.38057135  0.49426097  0.49537138  1
  O  O396  1  0.39002917  0.50501267  1.00317130  1
  O  O397  1  0.37691703  0.98581800  0.50513419  1
  O  O398  1  0.38462617  0.99326935  0.99498666  1
  O  O399  1  0.83061823  0.48381278  0.49450682  1
  O  O400  1  0.88351963  0.49198737  1.00164849  1
  O  O401  1  0.88437065  0.99567269  0.48876909  1
  O  O402  1  0.87885825  0.98958602  0.98699748  1
  O  O403  1  0.13021518  0.01169488  0.00863877  1
  O  O404  1  0.11529517  -0.00309156  0.51136209  1
  O  O405  1  0.11151985  0.50579154  0.00224737  1
  O  O406  1  0.12799644  0.50875213  0.51083889  1
  O  O407  1  0.61052371  -0.00140392  0.00741527  1
  O  O408  1  0.62383418  0.01352900  0.49604051  1
  O  O409  1  0.61761818  0.50654808  0.00517216  1
  O  O410  1  0.62565477  0.50763019  0.50641342  1
  O  O411  1  0.36296153  0.37462393  0.13289284  1
  O  O412  1  0.38567754  0.36556689  0.61304350  1
  O  O413  1  0.37683705  0.88269478  0.10973654  1
  O  O414  1  0.37550951  0.86593011  0.61914799  1
  O  O415  1  0.86627544  0.36519550  0.11407404  1
  O  O416  1  0.86637304  0.36608171  0.62475178  1
  O  O417  1  0.87406245  0.87578506  0.11491968  1
  O  O418  1  0.86579790  0.87385569  0.61959423  1
  O  O419  1  0.13995681  0.13823980  0.36719624  1
  O  O420  1  0.13456773  0.12280936  0.88508085  1
  O  O421  1  0.12474012  0.63228044  0.38610432  1
  O  O422  1  0.13092124  0.63006330  0.88145152  1
  O  O423  1  0.63151663  0.12718532  0.38073292  1
  O  O424  1  0.63164237  0.12847778  0.87319033  1
  O  O425  1  0.62800463  0.63831451  0.37749327  1
  O  O426  1  0.62735278  0.62632068  0.88364377  1
