# generated using pymatgen
data_V85Zn86O256
_symmetry_space_group_name_H-M   'P 1'
_cell_length_a   16.95683993
_cell_length_b   16.94685233
_cell_length_c   16.94864075
_cell_angle_alpha   90.04951152
_cell_angle_beta   89.97992735
_cell_angle_gamma   89.99481498
_symmetry_Int_Tables_number   1
_chemical_formula_structural   V85Zn86O256
_chemical_formula_sum   'V85 Zn86 O256'
_cell_volume   4870.44506719
_cell_formula_units_Z   1
loop_
 _symmetry_equiv_pos_site_id
 _symmetry_equiv_pos_as_xyz
  1  'x, y, z'
loop_
 _atom_site_type_symbol
 _atom_site_label
 _atom_site_symmetry_multiplicity
 _atom_site_fract_x
 _atom_site_fract_y
 _atom_site_fract_z
 _atom_site_occupancy
  V  V0  1  0.63158225  0.74495862  0.37483868  1
  V  V1  1  0.62344552  0.62100173  0.51416914  1
  V  V2  1  0.37551539  -0.00183068  0.87215000  1
  V  V3  1  0.62446625  0.12237370  -0.00114968  1
  V  V4  1  0.75450274  0.25080733  0.49849227  1
  V  V5  1  0.50144375  -0.00056285  0.50006987  1
  V  V6  1  0.37555375  0.49781074  0.87784635  1
  V  V7  1  0.62588523  -0.01733685  0.62954035  1
  V  V8  1  0.01966479  0.63055382  0.61095389  1
  V  V9  1  0.37485151  0.87400889  -0.00477330  1
  V  V10  1  -0.00250502  0.00100424  0.00209724  1
  V  V11  1  0.24844079  0.12734219  0.37384911  1
  V  V12  1  -0.00009742  0.49202263  -0.00217408  1
  V  V13  1  0.12322802  0.36711135  0.25866602  1
  V  V14  1  0.87210155  0.37402729  0.00949410  1
  V  V15  1  0.00206208  0.26808596  0.75126842  1
  V  V16  1  0.24341099  0.37288634  0.63328791  1
  V  V17  1  0.25385541  0.25552254  -0.00263484  1
  V  V18  1  0.38357945  0.62128395  0.74660867  1
  V  V19  1  0.12559488  0.49974076  0.12619150  1
  V  V20  1  0.74844737  0.75109658  0.00421787  1
  V  V21  1  -0.00179673  0.87068220  0.87409731  1
  V  V22  1  0.63469595  0.48937469  0.12962387  1
  V  V23  1  -0.00164326  0.12219727  0.63308849  1
  V  V24  1  0.12187140  0.87342081  0.24893457  1
  V  V25  1  0.50093752  0.12441677  0.12375382  1
  V  V26  1  0.74472454  -0.01937820  0.75186440  1
  V  V27  1  0.74767646  0.50118970  0.74541282  1
  V  V28  1  0.62103570  0.75399254  0.86863831  1
  V  V29  1  0.49813182  0.49004452  0.00148810  1
  V  V30  1  0.88670023  0.62588943  0.74736210  1
  V  V31  1  -0.05530598  0.03384910  0.44974994  1
  V  V32  1  0.25075118  -0.00237956  0.74258317  1
  V  V33  1  0.36611258  0.87213106  0.50631527  1
  V  V34  1  0.37712684  0.62601952  0.25135390  1
  V  V35  1  0.37527166  0.25241612  0.12181439  1
  V  V36  1  0.62946395  0.24909247  0.37710770  1
  V  V37  1  0.74931157  0.12406385  0.87156606  1
  V  V38  1  0.62479176  0.62052274  0.00012398  1
  V  V39  1  0.24208753  0.49642004  0.75026147  1
  V  V40  1  0.50657933  0.87493201  0.37174293  1
  V  V41  1  -0.00993241  0.13667955  0.12596846  1
  V  V42  1  0.12082360  -0.00317923  0.62445306  1
  V  V43  1  0.24951354  0.74861885  -0.00260460  1
  V  V44  1  0.49532886  0.37076828  0.87113093  1
  V  V45  1  0.50145870  0.62094398  0.12459983  1
  V  V46  1  0.24953320  0.00068416  0.24949341  1
  V  V47  1  0.50205605  0.25216646  0.25328128  1
  V  V48  1  0.88614976  0.49142038  0.39215710  1
  V  V49  1  0.87849108  0.25699620  0.62691568  1
  V  V50  1  0.37698468  0.37331005  0.50021213  1
  V  V51  1  0.11958559  0.26456126  0.87100690  1
  V  V52  1  0.24329800  0.25018304  0.49846270  1
  V  V53  1  0.12382930  0.12808931  -0.00185989  1
  V  V54  1  0.37718421  -0.00176310  0.37289042  1
  V  V55  1  0.49688746  0.50640215  0.51173233  1
  V  V56  1  0.37639323  0.75000830  0.12334303  1
  V  V57  1  0.37855898  0.13076593  0.74891233  1
  V  V58  1  0.87271268  -0.00060530  0.87651184  1
  V  V59  1  0.36752024  0.73324646  0.61652205  1
  V  V60  1  0.00745499  0.87017711  0.39790847  1
  V  V61  1  -0.00081197  0.62462617  0.12840263  1
  V  V62  1  0.37521335  0.12554699  0.24991924  1
  V  V63  1  0.12189029  0.74724482  0.87063479  1
  V  V64  1  0.74886393  0.37629048  0.62328166  1
  V  V65  1  0.24769902  0.12662240  0.87242402  1
  V  V66  1  0.51069520  0.75399828  0.24640722  1
  V  V67  1  0.87430039  0.75194030  0.12883442  1
  V  V68  1  0.62913569  0.12441826  0.50100751  1
  V  V69  1  0.50316403  0.13032631  0.62876966  1
  V  V70  1  0.00179130  0.75021019  0.25852451  1
  V  V71  1  0.86940085  0.87472306  0.50623966  1
  V  V72  1  0.12462153  0.62484073  -0.00085596  1
  V  V73  1  0.23925639  0.64258926  0.37923506  1
  V  V74  1  0.75270502  0.00116466  0.26424129  1
  V  V75  1  0.62017525  0.37743156  0.74558893  1
  V  V76  1  0.25024785  0.87695056  0.12385646  1
  V  V77  1  0.12636840  0.87309469  0.74951324  1
  V  V78  1  0.62126172  0.24937250  0.86760112  1
  V  V79  1  0.75090825  0.25278727  0.00560963  1
  V  V80  1  0.87650682  0.49185375  0.87265476  1
  V  V81  1  0.25137869  0.50205525  0.25231593  1
  V  V82  1  0.12821299  0.11807328  0.49560676  1
  V  V83  1  0.25598298  0.37636268  0.12257985  1
  V  V84  1  0.75032521  0.62165973  0.87518442  1
  Zn  Zn85  1  0.87514723  0.12643779  0.75349814  1
  Zn  Zn86  1  0.87138569  0.12405946  0.27634918  1
  Zn  Zn87  1  0.50259167  0.75457479  0.73751487  1
  Zn  Zn88  1  0.76233409  0.48912450  0.25604242  1
  Zn  Zn89  1  0.87229583  0.62100921  0.25919638  1
  Zn  Zn90  1  0.73394360  0.87185278  0.14009429  1
  Zn  Zn91  1  0.50032104  -0.00282457  0.00076428  1
  Zn  Zn92  1  0.00032460  0.24998700  0.26727161  1
  Zn  Zn93  1  0.25103589  0.62427717  0.87212705  1
  Zn  Zn94  1  0.87372601  0.87496897  0.00437824  1
  Zn  Zn95  1  0.09277523  0.46916785  0.57357140  1
  Zn  Zn96  1  0.75128829  0.61493610  0.37676845  1
  Zn  Zn97  1  0.62765673  -0.00538088  0.13249637  1
  Zn  Zn98  1  0.50391722  0.87735875  0.86755348  1
  Zn  Zn99  1  0.74316920  0.75531463  0.51128737  1
  Zn  Zn100  1  0.37777454  0.24890147  0.62621691  1
  Zn  Zn101  1  0.37942437  0.50266146  0.37649673  1
  Zn  Zn102  1  0.85436691  0.26356831  0.15134998  1
  Zn  Zn103  1  0.64191194  0.36533705  0.24618816  1
  Zn  Zn104  1  0.50385163  0.37932333  0.37550622  1
  Zn  Zn105  1  0.12332338  0.00232986  0.12096564  1
  Zn  Zn106  1  0.87251305  0.75541846  0.63602647  1
  Zn  Zn107  1  0.18554620  0.18756034  0.18310074  1
  Zn  Zn108  1  0.18340898  0.19069977  0.68504411  1
  Zn  Zn109  1  0.18745510  0.68912363  0.19001452  1
  Zn  Zn110  1  0.19892750  0.69057077  0.68895910  1
  Zn  Zn111  1  0.68851844  0.17685274  0.19186136  1
  Zn  Zn112  1  0.68679100  0.18666452  0.68746643  1
  Zn  Zn113  1  0.69115911  0.67677185  0.19080242  1
  Zn  Zn114  1  0.69308269  0.69157573  0.68736059  1
  Zn  Zn115  1  0.31220096  0.31218660  0.31517373  1
  Zn  Zn116  1  0.31447305  0.31141668  0.81456169  1
  Zn  Zn117  1  0.31780266  0.81509583  0.31093083  1
  Zn  Zn118  1  0.31252401  0.80929853  0.80545230  1
  Zn  Zn119  1  0.81851772  0.31919123  0.32014978  1
  Zn  Zn120  1  0.81281862  0.31408736  0.81391429  1
  Zn  Zn121  1  0.81874995  0.81828722  0.31718762  1
  Zn  Zn122  1  0.81289582  0.80717857  0.81967742  1
  Zn  Zn123  1  0.19534440  0.44199055  0.43494771  1
  Zn  Zn124  1  0.18928111  0.43858486  0.93775009  1
  Zn  Zn125  1  0.16402455  0.90257044  0.45847879  1
  Zn  Zn126  1  0.18762870  0.93857158  0.93456310  1
  Zn  Zn127  1  0.68728539  0.43826039  0.43781035  1
  Zn  Zn128  1  0.68724522  0.43431715  0.93705801  1
  Zn  Zn129  1  0.68754354  0.93764173  0.43590585  1
  Zn  Zn130  1  0.68787364  0.93499209  0.94394814  1
  Zn  Zn131  1  0.31303736  0.06404192  0.06036798  1
  Zn  Zn132  1  0.31370610  0.05804406  0.56254689  1
  Zn  Zn133  1  0.31383491  0.56232056  0.06105250  1
  Zn  Zn134  1  0.28081689  0.55379794  0.55133284  1
  Zn  Zn135  1  0.80994791  0.06035634  0.06914001  1
  Zn  Zn136  1  0.80408637  0.06754644  0.57547807  1
  Zn  Zn137  1  0.81464063  0.56467465  0.06383499  1
  Zn  Zn138  1  0.80617880  0.56983489  0.56509438  1
  Zn  Zn139  1  0.43971516  0.43559657  0.18868479  1
  Zn  Zn140  1  0.43278732  0.43614478  0.68651507  1
  Zn  Zn141  1  0.44158920  0.93643902  0.18538762  1
  Zn  Zn142  1  0.44269471  0.93532995  0.68651412  1
  Zn  Zn143  1  0.93723567  0.43880008  0.19361302  1
  Zn  Zn144  1  0.93473077  0.44228002  0.57541862  1
  Zn  Zn145  1  0.93050434  0.93921122  0.19301118  1
  Zn  Zn146  1  0.93563717  0.93895017  0.69238763  1
  Zn  Zn147  1  0.06538349  0.06158951  0.30586309  1
  Zn  Zn148  1  0.06160109  0.06327274  0.81396306  1
  Zn  Zn149  1  0.06166016  0.55915876  0.31798695  1
  Zn  Zn150  1  0.06149913  0.55563887  0.81261331  1
  Zn  Zn151  1  0.57061965  0.06394083  0.31326902  1
  Zn  Zn152  1  0.56192826  0.05812253  0.80991042  1
  Zn  Zn153  1  0.56336710  0.56031158  0.31553263  1
  Zn  Zn154  1  0.56306618  0.56236034  0.81044283  1
  Zn  Zn155  1  0.43792257  0.18810562  0.43905135  1
  Zn  Zn156  1  0.43700013  0.18742014  0.93547280  1
  Zn  Zn157  1  0.43767187  0.68803771  0.43648662  1
  Zn  Zn158  1  0.43860335  0.68172355  0.93588248  1
  Zn  Zn159  1  0.94785218  0.20670033  0.44494924  1
  Zn  Zn160  1  0.93633535  0.19157448  0.93533639  1
  Zn  Zn161  1  0.93499310  0.68559718  0.44106206  1
  Zn  Zn162  1  0.93670940  0.68387744  0.93848461  1
  Zn  Zn163  1  0.06619780  0.31527249  0.06447259  1
  Zn  Zn164  1  0.01365146  0.37291645  0.41492092  1
  Zn  Zn165  1  0.06185304  0.81257159  0.06341582  1
  Zn  Zn166  1  0.04874840  0.80623595  0.57753106  1
  Zn  Zn167  1  0.56347455  0.30973414  0.05873038  1
  Zn  Zn168  1  0.56154777  0.31480914  0.56242913  1
  Zn  Zn169  1  0.56163526  0.81185692  0.05699357  1
  Zn  Zn170  1  0.55148978  0.80593329  0.55856059  1
  O  O171  1  0.11690246  0.12580661  0.11103269  1
  O  O172  1  0.11722415  0.11796089  0.61756784  1
  O  O173  1  0.11957426  0.61929449  0.11958644  1
  O  O174  1  0.11837061  0.63908824  0.62923720  1
  O  O175  1  0.61601198  0.12460690  0.11454858  1
  O  O176  1  0.61818301  0.11947024  0.62074409  1
  O  O177  1  0.61854715  0.61278974  0.11906582  1
  O  O178  1  0.62237459  0.62956644  0.61263093  1
  O  O179  1  0.37555268  0.37515853  0.38858907  1
  O  O180  1  0.38765652  0.37980818  0.87217810  1
  O  O181  1  0.38740733  0.87917293  0.37856238  1
  O  O182  1  0.36918333  0.88238218  0.88040049  1
  O  O183  1  0.88395381  0.38743496  0.38741062  1
  O  O184  1  0.87054048  0.38722160  0.88521629  1
  O  O185  1  0.89570330  0.86722844  0.38945188  1
  O  O186  1  0.88315189  0.87867157  0.88066858  1
  O  O187  1  0.25830406  0.00670620  0.35809502  1
  O  O188  1  0.25789757  0.00711347  0.86791774  1
  O  O189  1  0.25983698  0.50981372  0.35918938  1
  O  O190  1  0.26098714  0.49753124  0.87034150  1
  O  O191  1  0.74717111  0.00199082  0.36450184  1
  O  O192  1  0.75103435  0.00544996  0.87189256  1
  O  O193  1  0.76492797  0.49536668  0.37936915  1
  O  O194  1  0.75568217  0.50350291  0.87160573  1
  O  O195  1  0.24902685  0.49397289  0.13195472  1
  O  O196  1  0.26846153  0.48144273  0.64097378  1
  O  O197  1  0.25259324  0.99606226  0.13283807  1
  O  O198  1  0.24226179  1.00418814  0.63785345  1
  O  O199  1  0.73555196  0.50241755  0.12145165  1
  O  O200  1  0.75342442  0.49082089  0.63586724  1
  O  O201  1  0.74738277  0.99276778  0.13031979  1
  O  O202  1  0.73802993  1.00160440  0.64099511  1
  O  O203  1  0.02083581  0.37262855  0.23993344  1
  O  O204  1  -0.00070174  0.36293647  0.74627602  1
  O  O205  1  0.00612009  0.86746365  0.25019399  1
  O  O206  1  0.00741862  0.88206412  0.76754130  1
  O  O207  1  0.50255584  0.35996165  0.24983202  1
  O  O208  1  0.50820991  0.38070466  0.75788803  1
  O  O209  1  0.49583905  0.86413726  0.25668406  1
  O  O210  1  0.49279159  0.86739292  0.75670034  1
  O  O211  1  0.49757896  0.13426820  0.24286826  1
  O  O212  1  0.49058810  0.11794184  0.74137782  1
  O  O213  1  0.49447826  0.63054969  0.24372848  1
  O  O214  1  0.48726116  0.62485029  0.75089131  1
  O  O215  1  1.00333405  0.12730878  0.23351930  1
  O  O216  1  0.99688969  0.12707588  0.74443266  1
  O  O217  1  1.00449723  0.63120901  0.23986366  1
  O  O218  1  0.98684607  0.62159844  0.75566838  1
  O  O219  1  0.36109584  0.24414482  0.00372666  1
  O  O220  1  0.36629592  0.25413015  0.50213816  1
  O  O221  1  0.37051051  0.75483667  0.00192637  1
  O  O222  1  0.37928797  0.76047725  0.50690233  1
  O  O223  1  0.86591348  0.26056243  -0.00486775  1
  O  O224  1  0.86507655  0.24477410  0.51429331  1
  O  O225  1  0.86522553  0.74648127  0.00830491  1
  O  O226  1  0.87887097  0.76705810  0.50462452  1
  O  O227  1  0.14208211  0.23045571  0.50625627  1
  O  O228  1  0.13240998  0.24564178  0.99378531  1
  O  O229  1  0.07904090  0.82349417  0.47275342  1
  O  O230  1  0.12980762  0.74623128  0.99197139  1
  O  O231  1  0.63002358  0.24418097  0.49623356  1
  O  O232  1  0.63040832  0.24106557  0.98995033  1
  O  O233  1  0.61923454  0.73736619  0.49209956  1
  O  O234  1  0.63107393  0.73863328  0.99450214  1
  O  O235  1  0.49659816  0.24183367  0.12884533  1
  O  O236  1  0.49944052  0.23440585  0.62010205  1
  O  O237  1  0.49586417  0.74258406  0.12885400  1
  O  O238  1  0.47540277  0.75301721  0.62430519  1
  O  O239  1  1.00169120  0.23955636  0.12366235  1
  O  O240  1  0.99152745  0.23869918  0.63911190  1
  O  O241  1  0.99382410  0.74145853  0.12846750  1
  O  O242  1  0.98903139  0.73503155  0.63666097  1
  O  O243  1  0.01182474  0.26496106  0.37938729  1
  O  O244  1  0.00613099  0.24784143  0.86197601  1
  O  O245  1  -0.00215531  0.75173442  0.36145340  1
  O  O246  1  0.00908879  0.75908006  0.88433731  1
  O  O247  1  0.50714187  0.25096085  0.36766185  1
  O  O248  1  0.50815278  0.25904920  0.88025537  1
  O  O249  1  0.50751400  0.75545769  0.36538176  1
  O  O250  1  0.51557051  0.74545317  0.87900512  1
  O  O251  1  0.24603673  0.12493365  0.49466973  1
  O  O252  1  0.24152338  0.13205803  0.99457220  1
  O  O253  1  0.26504092  0.63978263  0.47665872  1
  O  O254  1  0.24248778  0.62930658  0.99775288  1
  O  O255  1  0.73577037  0.13651160  0.51050477  1
  O  O256  1  0.74223004  0.12861409  0.98966258  1
  O  O257  1  0.73313686  0.62816877  0.49814626  1
  O  O258  1  0.74581287  0.63207782  0.99604163  1
  O  O259  1  0.24745283  0.36714823  0.00934119  1
  O  O260  1  0.25750885  0.36459419  0.50860983  1
  O  O261  1  0.25814882  0.87150220  0.00295220  1
  O  O262  1  0.26894430  0.87629555  0.48608316  1
  O  O263  1  0.75759911  0.36472512  -0.00302240  1
  O  O264  1  0.73740917  0.36600347  0.51713908  1
  O  O265  1  0.75290952  0.85898504  0.00146722  1
  O  O266  1  0.76579464  0.87482995  0.49275574  1
  O  O267  1  0.13453346  0.49396046  0.24340117  1
  O  O268  1  0.14240233  0.49980864  0.75776276  1
  O  O269  1  0.13538412  0.99742258  0.23899724  1
  O  O270  1  0.13212062  0.99514477  0.74634484  1
  O  O271  1  0.62086874  0.49461892  0.23535940  1
  O  O272  1  0.63629437  0.49006009  0.75747154  1
  O  O273  1  0.64182086  1.00756480  0.24832224  1
  O  O274  1  0.63205850  0.99794836  0.74281658  1
  O  O275  1  0.37081217  0.00560510  0.25175910  1
  O  O276  1  0.36711211  0.00619742  0.75499445  1
  O  O277  1  0.37040172  0.50902507  0.24753115  1
  O  O278  1  0.37323604  0.50332693  0.76193033  1
  O  O279  1  0.86423085  0.00999673  0.24880670  1
  O  O280  1  0.86339396  0.00194320  0.75952097  1
  O  O281  1  0.88154231  0.50145238  0.26732157  1
  O  O282  1  0.86327413  0.51057133  0.76220265  1
  O  O283  1  0.13139465  0.38406979  0.36033294  1
  O  O284  1  0.12598551  0.36346456  0.87932034  1
  O  O285  1  0.12121056  0.88993570  0.35157643  1
  O  O286  1  0.11869860  0.86942300  0.86974755  1
  O  O287  1  0.62341814  0.36089797  0.37428752  1
  O  O288  1  0.61695198  0.36792343  0.86782612  1
  O  O289  1  0.61209624  0.86526585  0.38331470  1
  O  O290  1  0.62385718  0.85705964  0.88406635  1
  O  O291  1  0.38103343  0.13223969  0.12910390  1
  O  O292  1  0.38312960  0.12215228  0.63262603  1
  O  O293  1  0.38088906  0.62909482  0.13186220  1
  O  O294  1  0.36388861  0.62944260  0.62734104  1
  O  O295  1  0.88804872  0.13476252  0.11592373  1
  O  O296  1  0.88201407  0.13370327  0.63092626  1
  O  O297  1  0.88399459  0.63309353  0.12795287  1
  O  O298  1  0.87706200  0.62166019  0.64222935  1
  O  O299  1  0.25387073  0.25694961  0.11654133  1
  O  O300  1  0.25455690  0.25758108  0.62128363  1
  O  O301  1  0.25687172  0.75630109  0.11824415  1
  O  O302  1  0.27008231  0.75951875  0.62865905  1
  O  O303  1  0.74699220  0.24035924  0.10983658  1
  O  O304  1  0.75794437  0.25570886  0.62345082  1
  O  O305  1  0.75603305  0.74880252  0.12149760  1
  O  O306  1  0.75945325  0.75020776  0.62337684  1
  O  O307  1  0.25414103  0.23863929  0.38355227  1
  O  O308  1  0.24300874  0.24623910  0.88047863  1
  O  O309  1  0.24667967  0.74121909  0.35648354  1
  O  O310  1  0.24206494  0.74830549  0.88171132  1
  O  O311  1  0.74592818  0.25409999  0.39144020  1
  O  O312  1  0.74252324  0.24283117  0.88214435  1
  O  O313  1  0.73658971  0.75288542  0.37592190  1
  O  O314  1  0.73938109  0.74169167  0.88414468  1
  O  O315  1  0.00544079  0.12234215  0.00514864  1
  O  O316  1  0.00492903  0.10787601  0.50770830  1
  O  O317  1  0.00435613  0.61685455  0.01108720  1
  O  O318  1  0.01108010  0.63740610  0.51122666  1
  O  O319  1  0.50621621  0.12619121  0.00706937  1
  O  O320  1  0.50840905  0.11839256  0.50611621  1
  O  O321  1  0.50437220  0.61133170  0.00472808  1
  O  O322  1  0.50530570  0.61397170  0.49726964  1
  O  O323  1  0.49465759  0.38453483  0.49947140  1
  O  O324  1  0.50384604  0.38409446  0.99106687  1
  O  O325  1  0.49037936  0.88167906  0.48973711  1
  O  O326  1  0.48477643  0.87535238  0.99172006  1
  O  O327  1  1.02148229  0.39347373  0.52423007  1
  O  O328  1  0.99480721  0.38625166  1.00522009  1
  O  O329  1  0.97434733  0.92299316  0.49402598  1
  O  O330  1  1.00145716  0.88521779  0.99281621  1
  O  O331  1  0.49646209  0.49681559  0.38400743  1
  O  O332  1  0.49581620  0.49226366  0.88204690  1
  O  O333  1  0.49889489  0.99355317  0.37750869  1
  O  O334  1  0.48562297  1.00032947  0.87725624  1
  O  O335  1  0.99165466  0.49590209  0.38115559  1
  O  O336  1  0.99002897  0.50442851  0.88733470  1
  O  O337  1  1.00175692  0.99067405  0.37157013  1
  O  O338  1  0.99512789  0.99625352  0.88612342  1
  O  O339  1  -0.00224611  0.01013248  0.11323558  1
  O  O340  1  0.00894973  0.01196369  0.63789816  1
  O  O341  1  0.00433470  0.50762226  0.11984460  1
  O  O342  1  0.00536288  0.52500406  0.62852414  1
  O  O343  1  0.49880513  0.01432268  0.12254599  1
  O  O344  1  0.50683301  0.00868554  0.61840772  1
  O  O345  1  0.50500367  0.50090887  0.11690167  1
  O  O346  1  0.49654245  0.49783777  0.61068472  1
  O  O347  1  0.24535035  0.38233690  0.24464535  1
  O  O348  1  0.25921429  0.37777521  0.74073311  1
  O  O349  1  0.24654502  0.88285651  0.24271250  1
  O  O350  1  0.23874407  0.88614967  0.75741803  1
  O  O351  1  0.75487551  0.37457640  0.24552475  1
  O  O352  1  0.74341454  0.38038659  0.74409521  1
  O  O353  1  0.76030896  0.89011277  0.25203758  1
  O  O354  1  0.75087533  0.88178091  0.75979581  1
  O  O355  1  0.25328300  0.12017246  0.25146226  1
  O  O356  1  0.25397406  0.11883295  0.75483091  1
  O  O357  1  0.25920097  0.61847359  0.24770069  1
  O  O358  1  0.26168043  0.61282888  0.75227131  1
  O  O359  1  0.75873374  0.11301371  0.24931011  1
  O  O360  1  0.74851959  0.12232772  0.76386672  1
  O  O361  1  0.75340179  0.61088122  0.25623775  1
  O  O362  1  0.75121616  0.61484614  0.75775366  1
  O  O363  1  0.37175127  0.11802357  0.36815551  1
  O  O364  1  0.36960466  0.11776090  0.86856016  1
  O  O365  1  0.37274850  0.62946193  0.35859427  1
  O  O366  1  0.37398968  0.61527064  0.86683310  1
  O  O367  1  0.90242438  0.10986590  0.39261822  1
  O  O368  1  0.86473690  0.11872665  0.87638767  1
  O  O369  1  0.87351056  0.61381743  0.37938816  1
  O  O370  1  0.86805061  0.61448952  0.87339808  1
  O  O371  1  0.13883745  0.38086681  0.13131285  1
  O  O372  1  0.14630060  0.37437311  0.63133724  1
  O  O373  1  0.13200144  0.87946114  0.12970041  1
  O  O374  1  0.11356699  0.88114119  0.64195264  1
  O  O375  1  0.62032162  0.38629754  0.12379039  1
  O  O376  1  0.63035602  0.36666633  0.64005350  1
  O  O377  1  0.62194721  0.88150745  0.11589385  1
  O  O378  1  0.61654041  0.88474946  0.61415374  1
  O  O379  1  0.13001020  0.26469901  0.24726112  1
  O  O380  1  0.11161029  0.24598208  0.75753606  1
  O  O381  1  0.11390091  0.76170403  0.23866274  1
  O  O382  1  0.13327422  0.75825887  0.76350229  1
  O  O383  1  0.61963155  0.24603876  0.25823975  1
  O  O384  1  0.62954609  0.25681450  0.76244521  1
  O  O385  1  0.61542954  0.74185875  0.25516186  1
  O  O386  1  0.62221493  0.74005845  0.76603401  1
  O  O387  1  0.38176350  0.24444005  0.24438175  1
  O  O388  1  0.37233455  0.23404705  0.75055620  1
  O  O389  1  0.38589478  0.74457462  0.24094504  1
  O  O390  1  0.37418052  0.73633553  0.74101942  1
  O  O391  1  0.88197351  0.24093635  0.25921649  1
  O  O392  1  0.88416622  0.25004441  0.74756552  1
  O  O393  1  0.88342732  0.74580608  0.24436827  1
  O  O394  1  0.87005075  0.72874130  0.76017681  1
  O  O395  1  0.38249144  0.49311925  0.49926684  1
  O  O396  1  0.38313339  0.50357702  0.98769276  1
  O  O397  1  0.38082098  0.99288221  0.49158518  1
  O  O398  1  0.37319726  0.99229989  0.99038857  1
  O  O399  1  0.87344318  0.50436778  0.49745130  1
  O  O400  1  0.88064324  0.49333295  0.99689290  1
  O  O401  1  0.85758759  1.00181385  0.49779687  1
  O  O402  1  0.88169301  0.99855960  0.99498413  1
  O  O403  1  0.11784296  0.00970678  -0.00143007  1
  O  O404  1  0.13545195  0.00022062  0.51880439  1
  O  O405  1  0.11780131  0.50350446  0.00489304  1
  O  O406  1  0.17606199  0.51356489  0.51561747  1
  O  O407  1  0.62073125  0.01400519  -0.00502691  1
  O  O408  1  0.62273205  0.00803349  0.50641474  1
  O  O409  1  0.61822828  0.50086467  0.00773791  1
  O  O410  1  0.61254815  0.51223519  0.49799434  1
  O  O411  1  0.36381459  0.36906280  0.12961822  1
  O  O412  1  0.37381092  0.36770909  0.61375264  1
  O  O413  1  0.37130638  0.87067448  0.11506696  1
  O  O414  1  0.37442940  0.88199082  0.60716632  1
  O  O415  1  0.88041360  0.37271221  0.11446420  1
  O  O416  1  0.86423702  0.36447138  0.62792674  1
  O  O417  1  0.87895239  0.85894624  0.12316022  1
  O  O418  1  0.88427572  0.87751520  0.61138610  1
  O  O419  1  0.13042291  0.11175196  0.38888415  1
  O  O420  1  0.12770848  0.13210386  0.88477539  1
  O  O421  1  0.14090932  0.62292461  0.36869612  1
  O  O422  1  0.12453774  0.63258453  0.88014463  1
  O  O423  1  0.61973075  0.13893254  0.38797588  1
  O  O424  1  0.62717711  0.13143881  0.87860156  1
  O  O425  1  0.62583455  0.63213445  0.38208038  1
  O  O426  1  0.63142790  0.62776552  0.88231535  1
