# generated using pymatgen
data_V85Zn86O256
_symmetry_space_group_name_H-M   'P 1'
_cell_length_a   16.92835679
_cell_length_b   16.92975553
_cell_length_c   16.91997650
_cell_angle_alpha   89.98487532
_cell_angle_beta   89.96706413
_cell_angle_gamma   90.01564267
_symmetry_Int_Tables_number   1
_chemical_formula_structural   V85Zn86O256
_chemical_formula_sum   'V85 Zn86 O256'
_cell_volume   4849.14469028
_cell_formula_units_Z   1
loop_
 _symmetry_equiv_pos_site_id
 _symmetry_equiv_pos_as_xyz
  1  'x, y, z'
loop_
 _atom_site_type_symbol
 _atom_site_label
 _atom_site_symmetry_multiplicity
 _atom_site_fract_x
 _atom_site_fract_y
 _atom_site_fract_z
 _atom_site_occupancy
  V  V0  1  0.26570766  0.00228587  0.25343839  1
  V  V1  1  0.25044812  0.89510195  0.63618219  1
  V  V2  1  0.49280677  0.12288159  0.12867946  1
  V  V3  1  0.12235618  0.24878066  0.37347248  1
  V  V4  1  0.37385782  0.62316053  0.25047271  1
  V  V5  1  -0.00251210  0.12589750  0.63378994  1
  V  V6  1  0.37356440  0.86845747  -0.00629306  1
  V  V7  1  0.86624539  0.49636001  0.38825088  1
  V  V8  1  0.12408816  -0.00030090  0.13264369  1
  V  V9  1  0.75550566  0.00409585  0.24383427  1
  V  V10  1  -0.00168526  0.37302108  0.86983535  1
  V  V11  1  0.62726527  0.37389061  0.74820245  1
  V  V12  1  0.48896282  -0.00084782  0.49542394  1
  V  V13  1  0.37716414  0.24954925  0.62694088  1
  V  V14  1  0.37493624  0.49995110  0.37457401  1
  V  V15  1  0.49931372  -0.00493522  -0.00586157  1
  V  V16  1  0.50252464  0.24862233  0.75095962  1
  V  V17  1  0.50261949  0.50163333  0.50006657  1
  V  V18  1  0.12514204  0.12126763  0.50437880  1
  V  V19  1  0.49983853  0.74990278  0.24911712  1
  V  V20  1  0.12701114  0.12378155  0.00658903  1
  V  V21  1  0.75102572  0.50321638  0.74925617  1
  V  V22  1  0.61469796  0.87497417  0.74430556  1
  V  V23  1  0.50326191  0.12122870  0.62520529  1
  V  V24  1  0.25124860  0.25040712  0.49818258  1
  V  V25  1  0.75048024  0.24958802  -0.00638544  1
  V  V26  1  0.00212299  0.50489995  0.00123214  1
  V  V27  1  0.62541634  0.50255528  0.62551417  1
  V  V28  1  0.37263782  0.74845755  0.12132947  1
  V  V29  1  0.62376746  0.62132246  0.00013930  1
  V  V30  1  0.62755208  -0.00100866  0.12203046  1
  V  V31  1  0.24413422  0.37995742  0.12328970  1
  V  V32  1  0.75077720  0.87320318  0.12667417  1
  V  V33  1  0.25239519  0.60471064  0.86998998  1
  V  V34  1  0.24890323  0.62463891  0.39118590  1
  V  V35  1  0.06516809  0.55843950  0.16919180  1
  V  V36  1  0.00690794  0.63018734  0.61734937  1
  V  V37  1  0.12225864  0.74799609  0.37889154  1
  V  V38  1  0.12448102  0.25210962  0.86997613  1
  V  V39  1  0.62492348  0.75341557  0.37316983  1
  V  V40  1  0.37381912  0.61979302  0.75244328  1
  V  V41  1  0.87744652  0.00199999  0.37357050  1
  V  V42  1  0.48589825  0.87838570  0.37620330  1
  V  V43  1  0.24961233  0.38071922  0.63361718  1
  V  V44  1  0.62684135  0.62816936  0.50018302  1
  V  V45  1  0.37710747  0.37421643  0.49982510  1
  V  V46  1  0.37550410  -0.00516186  0.86859252  1
  V  V47  1  0.87327206  0.75686084  0.62650871  1
  V  V48  1  0.37454921  0.37591657  -0.00296684  1
  V  V49  1  0.00432560  0.75095332  0.75281409  1
  V  V50  1  0.00197310  -0.00120743  0.50574789  1
  V  V51  1  0.87436029  0.50370361  0.87614162  1
  V  V52  1  0.00002206  0.87121910  0.37137633  1
  V  V53  1  0.62882288  0.12275732  0.50022028  1
  V  V54  1  0.00785227  0.49424811  0.50532488  1
  V  V55  1  0.60842703  0.75631586  0.87301336  1
  V  V56  1  0.50066668  0.63758413  0.63295495  1
  V  V57  1  0.25509759  0.76790179  0.50545549  1
  V  V58  1  0.74723268  0.50187793  0.23214085  1
  V  V59  1  0.75196611  0.74907361  -0.00288226  1
  V  V60  1  0.76032204  0.25399719  0.49998165  1
  V  V61  1  0.13957354  0.75019213  0.87577188  1
  V  V62  1  0.88989234  0.74573708  0.13322345  1
  V  V63  1  0.50041946  0.61748899  0.12444960  1
  V  V64  1  0.86836949  0.37857568  0.01178957  1
  V  V65  1  0.49839186  0.37752547  0.87277576  1
  V  V66  1  0.24597025  0.50180451  0.24937206  1
  V  V67  1  0.76226579  -0.00370348  0.75213806  1
  V  V68  1  0.62586981  0.37793439  0.23444245  1
  V  V69  1  0.37496797  0.12239669  0.75757769  1
  V  V70  1  0.63119479  0.12129379  -0.00941993  1
  V  V71  1  0.87863723  0.87959987  -0.00594463  1
  V  V72  1  0.11820946  0.37355432  0.24700494  1
  V  V73  1  0.75561043  0.12628592  0.36836946  1
  V  V74  1  0.25077805  0.24679010  -0.00198643  1
  V  V75  1  0.87989156  0.25770490  0.63346885  1
  V  V76  1  0.25130153  0.87212321  0.12314353  1
  V  V77  1  0.86889356  0.23606219  0.12974276  1
  V  V78  1  0.74931512  0.76136560  0.50415180  1
  V  V79  1  0.50257955  0.37522736  0.37204182  1
  V  V80  1  0.49879728  0.49819367  -0.00160253  1
  V  V81  1  0.19178815  0.06833355  0.81808850  1
  V  V82  1  0.13088342  0.62476388  0.00030246  1
  V  V83  1  0.62811289  0.25136484  0.37111317  1
  V  V84  1  0.26195615  0.12271571  0.37172722  1
  Zn  Zn85  1  0.87571873  0.62858860  0.74986278  1
  Zn  Zn86  1  0.00162713  0.87404345  0.87344772  1
  Zn  Zn87  1  0.87181917  0.87885427  0.50297784  1
  Zn  Zn88  1  0.75330907  0.62878282  0.37059836  1
  Zn  Zn89  1  0.62438287  0.87558877  0.24927849  1
  Zn  Zn90  1  0.12257992  0.87135150  0.25049150  1
  Zn  Zn91  1  0.49516989  0.24328679  0.25233390  1
  Zn  Zn92  1  0.12330773  0.38046133  0.75063410  1
  Zn  Zn93  1  0.12714401  0.88650878  0.75010163  1
  Zn  Zn94  1  0.37149591  0.24594078  0.13004745  1
  Zn  Zn95  1  0.88687891  0.62270289  0.24926245  1
  Zn  Zn96  1  0.63308206  0.24293889  0.86879860  1
  Zn  Zn97  1  0.13477318  0.51252115  0.62975569  1
  Zn  Zn98  1  0.74802197  0.62777237  0.87336549  1
  Zn  Zn99  1  -0.01152959  0.24282779  0.25424024  1
  Zn  Zn100  1  0.86332444  0.13376146  0.76198980  1
  Zn  Zn101  1  -0.00282833  0.00017226  0.00478262  1
  Zn  Zn102  1  0.37651149  0.75764747  0.62954904  1
  Zn  Zn103  1  -0.00710863  0.37066576  0.38214181  1
  Zn  Zn104  1  0.63454517  -0.00767338  0.62197489  1
  Zn  Zn105  1  -0.00425482  0.12103293  0.13520085  1
  Zn  Zn106  1  0.75704738  0.38047659  0.61746101  1
  Zn  Zn107  1  0.18947555  0.18802487  0.18897272  1
  Zn  Zn108  1  0.18518371  0.19450866  0.68301062  1
  Zn  Zn109  1  0.19130329  0.69337699  0.19583219  1
  Zn  Zn110  1  0.18974932  0.68883406  0.68968871  1
  Zn  Zn111  1  0.68664296  0.18785268  0.18076396  1
  Zn  Zn112  1  0.69478987  0.18179952  0.68705993  1
  Zn  Zn113  1  0.68773934  0.68510267  0.18474833  1
  Zn  Zn114  1  0.68758350  0.69259900  0.68939761  1
  Zn  Zn115  1  0.31209908  0.30994009  0.30902182  1
  Zn  Zn116  1  0.31345063  0.31066661  0.81590364  1
  Zn  Zn117  1  0.30892476  0.81037879  0.31060790  1
  Zn  Zn118  1  0.31429392  0.80768037  0.80671004  1
  Zn  Zn119  1  0.80841807  0.31955249  0.30898740  1
  Zn  Zn120  1  0.81282361  0.31879815  0.81486253  1
  Zn  Zn121  1  0.81360452  0.81395435  0.31284786  1
  Zn  Zn122  1  0.80831499  0.81619986  0.81028183  1
  Zn  Zn123  1  0.18641427  0.43475006  0.43993052  1
  Zn  Zn124  1  0.18218009  0.43812180  0.94116221  1
  Zn  Zn125  1  0.18711689  0.93900458  0.43646774  1
  Zn  Zn126  1  0.18150634  0.93377545  0.94317622  1
  Zn  Zn127  1  0.68710747  0.43666435  0.43498832  1
  Zn  Zn128  1  0.68647924  0.43663012  0.93748737  1
  Zn  Zn129  1  0.68435588  0.93902653  0.43301908  1
  Zn  Zn130  1  0.68796270  0.93213782  0.93296196  1
  Zn  Zn131  1  0.31053338  0.05788890  0.05922803  1
  Zn  Zn132  1  0.31386057  0.06530260  0.56360815  1
  Zn  Zn133  1  0.31194713  0.55974886  0.05858193  1
  Zn  Zn134  1  0.31939770  0.56218867  0.56660967  1
  Zn  Zn135  1  0.81598449  0.06258079  -0.06857984  1
  Zn  Zn136  1  0.81379202  0.06326118  0.56786204  1
  Zn  Zn137  1  0.81579485  0.56881611  0.06201890  1
  Zn  Zn138  1  0.81417418  0.57216087  0.56440269  1
  Zn  Zn139  1  0.43555847  0.43293879  0.18576956  1
  Zn  Zn140  1  0.43753319  0.44175784  0.68719041  1
  Zn  Zn141  1  0.43979059  0.93568099  0.18525222  1
  Zn  Zn142  1  0.43757638  0.93651284  0.68262078  1
  Zn  Zn143  1  0.92835183  0.43133842  0.19598540  1
  Zn  Zn144  1  0.93987962  0.43948776  0.68810852  1
  Zn  Zn145  1  0.93596251  0.93598904  0.18728384  1
  Zn  Zn146  1  0.93994706  0.93544417  0.68707762  1
  Zn  Zn147  1  0.06504156  0.06379879  0.31305753  1
  Zn  Zn148  1  0.00184812  0.06885322  0.83433045  1
  Zn  Zn149  1  0.06206323  0.56281918  0.33615274  1
  Zn  Zn150  1  0.06428840  0.56302880  0.80803879  1
  Zn  Zn151  1  0.56684272  0.05928457  0.31137598  1
  Zn  Zn152  1  0.56251469  0.05439420  0.81112197  1
  Zn  Zn153  1  0.56660251  0.56230010  0.31137318  1
  Zn  Zn154  1  0.56071619  0.56341639  0.81422689  1
  Zn  Zn155  1  0.44170399  0.18794451  0.43716553  1
  Zn  Zn156  1  0.44045134  0.18675484  0.93862021  1
  Zn  Zn157  1  0.43652827  0.69075967  0.44035987  1
  Zn  Zn158  1  0.43064689  0.68411557  0.93460966  1
  Zn  Zn159  1  0.93794367  0.18503275  0.43952803  1
  Zn  Zn160  1  0.94327825  0.19318664  0.94830585  1
  Zn  Zn161  1  0.93548445  0.68434913  0.43859176  1
  Zn  Zn162  1  0.94096913  0.68873504  0.93901969  1
  Zn  Zn163  1  0.05668724  0.31231721  0.06155898  1
  Zn  Zn164  1  0.06248571  0.31159009  0.56304407  1
  Zn  Zn165  1  0.06672386  0.80774044  0.06275641  1
  Zn  Zn166  1  0.06977878  0.81642895  0.56247709  1
  Zn  Zn167  1  0.56327364  0.30588405  0.05883937  1
  Zn  Zn168  1  0.56702765  0.30983142  0.56149251  1
  Zn  Zn169  1  0.56074139  0.81087603  0.06051478  1
  Zn  Zn170  1  0.56150392  0.81793234  0.56012636  1
  O  O171  1  0.12709428  0.11738005  0.12154280  1
  O  O172  1  0.11606204  0.13722791  0.61163683  1
  O  O173  1  0.13118142  0.62678232  0.12038639  1
  O  O174  1  0.11200009  0.62919971  0.62618623  1
  O  O175  1  0.61918790  0.11666498  0.11134673  1
  O  O176  1  0.62041633  0.12533762  0.61533651  1
  O  O177  1  0.61431673  0.63265065  0.10895583  1
  O  O178  1  0.61902696  0.62373525  0.62023896  1
  O  O179  1  0.38097717  0.38101754  0.38040695  1
  O  O180  1  0.38244434  0.37061998  0.88752240  1
  O  O181  1  0.38681144  0.86953033  0.37116629  1
  O  O182  1  0.36483485  0.88190827  0.88199599  1
  O  O183  1  0.87508083  0.39181556  0.37197777  1
  O  O184  1  0.87993965  0.38677825  0.88420053  1
  O  O185  1  0.87991689  0.88506291  0.37938736  1
  O  O186  1  0.87793701  0.86432825  0.89161606  1
  O  O187  1  0.24778194  0.00633288  0.36193277  1
  O  O188  1  0.25153091  0.00643945  0.87622972  1
  O  O189  1  0.25243029  0.50680276  0.37223818  1
  O  O190  1  0.24752767  0.50602825  0.87403553  1
  O  O191  1  0.75638103  0.00643462  0.36729837  1
  O  O192  1  0.74912315  -0.00201836  0.86385781  1
  O  O193  1  0.75899034  0.50531567  0.37711292  1
  O  O194  1  0.75675007  0.50194575  0.86772127  1
  O  O195  1  0.25341729  0.48755317  0.13063492  1
  O  O196  1  0.25020527  0.48421226  0.61560497  1
  O  O197  1  0.24750409  0.99449021  0.13679953  1
  O  O198  1  0.25064451  0.99418989  0.62568306  1
  O  O199  1  0.75225402  0.50288730  0.13339658  1
  O  O200  1  0.74575629  0.50092467  0.63094142  1
  O  O201  1  0.74671266  0.98614610  0.13088788  1
  O  O202  1  0.74957892  1.00177727  0.64079148  1
  O  O203  1  0.00958140  0.37144332  0.25392803  1
  O  O204  1  -0.00366059  0.37602300  0.76610089  1
  O  O205  1  0.00043207  0.88102822  0.26715948  1
  O  O206  1  0.00740195  0.86433404  0.74963260  1
  O  O207  1  0.50909425  0.37970584  0.25821063  1
  O  O208  1  0.50516434  0.37137362  0.75477901  1
  O  O209  1  0.50291581  0.86781814  0.25483076  1
  O  O210  1  0.51469872  0.87832778  0.74834557  1
  O  O211  1  0.50963752  0.12209629  0.23245862  1
  O  O212  1  0.49416129  0.12796701  0.74567808  1
  O  O213  1  0.49581383  0.62722478  0.24177601  1
  O  O214  1  0.49499744  0.62306402  0.74167774  1
  O  O215  1  1.00501387  0.13057908  0.24821628  1
  O  O216  1  0.99978403  0.12292243  0.73581420  1
  O  O217  1  1.00787522  0.60843764  0.24260064  1
  O  O218  1  0.99739813  0.63823436  0.74306088  1
  O  O219  1  0.36739144  0.25522450  0.00275358  1
  O  O220  1  0.37334107  0.25522177  0.50666604  1
  O  O221  1  0.37961821  0.76152592  0.00328710  1
  O  O222  1  0.35839717  0.74792193  0.50233174  1
  O  O223  1  0.86861022  0.25926505  0.00766025  1
  O  O224  1  0.86677757  0.24569903  0.50914311  1
  O  O225  1  0.86802671  0.75274054  0.01083006  1
  O  O226  1  0.86456235  0.75078467  0.50545062  1
  O  O227  1  0.12981168  0.24643402  0.48975924  1
  O  O228  1  0.13100846  0.24362955  0.99485168  1
  O  O229  1  0.14233594  0.75525390  0.49047208  1
  O  O230  1  0.11989704  0.73411189  0.99156089  1
  O  O231  1  0.63203231  0.23876392  0.49287352  1
  O  O232  1  0.63377484  0.23995493  0.99654863  1
  O  O233  1  0.62959533  0.74589313  0.49410130  1
  O  O234  1  0.63006230  0.74643676  0.98964082  1
  O  O235  1  0.50005075  0.23098708  0.12111914  1
  O  O236  1  0.49594078  0.24343319  0.63050356  1
  O  O237  1  0.49316722  0.73944160  0.12799418  1
  O  O238  1  0.49843289  0.74018914  0.61735711  1
  O  O239  1  0.98113356  0.25167522  0.12425142  1
  O  O240  1  0.98644019  0.24385614  0.61909878  1
  O  O241  1  0.98845805  0.75327663  0.12960096  1
  O  O242  1  0.99688586  0.74649113  0.62776725  1
  O  O243  1  0.00703234  0.25267949  0.37627167  1
  O  O244  1  0.01145616  0.26179494  0.88549502  1
  O  O245  1  0.00868339  0.75790731  0.38579039  1
  O  O246  1  0.00988727  0.74997313  0.86751066  1
  O  O247  1  0.50967988  0.25629746  0.37316928  1
  O  O248  1  0.50361099  0.26076193  0.86926320  1
  O  O249  1  0.50621450  0.75565923  0.37097917  1
  O  O250  1  0.51038420  0.74813511  0.87935304  1
  O  O251  1  0.24309956  0.13029672  0.49562485  1
  O  O252  1  0.24070772  0.13457061  1.00614915  1
  O  O253  1  0.25538819  0.62621241  0.49282641  1
  O  O254  1  0.24302444  0.61719625  0.98646052  1
  O  O255  1  0.74548833  0.13203220  0.49261530  1
  O  O256  1  0.74198996  0.13104733  0.99341715  1
  O  O257  1  0.73719357  0.63392947  0.49887661  1
  O  O258  1  0.74029811  0.63163586  0.99915660  1
  O  O259  1  0.25529490  0.37247695  0.00630420  1
  O  O260  1  0.25772394  0.36819081  0.50573714  1
  O  O261  1  0.25995547  0.88152763  0.01450754  1
  O  O262  1  0.25160809  0.87152105  0.50744491  1
  O  O263  1  0.75748653  0.36774622  -0.00401016  1
  O  O264  1  0.73959868  0.35869217  0.50158291  1
  O  O265  1  0.75959716  0.86781964  0.00584816  1
  O  O266  1  0.74792951  0.86500410  0.49667943  1
  O  O267  1  0.12371032  0.49719394  0.24569468  1
  O  O268  1  0.11687450  0.49315451  0.74008867  1
  O  O269  1  0.13416081  0.99579549  0.24210073  1
  O  O270  1  0.13227124  1.01173921  0.76361186  1
  O  O271  1  0.63783507  0.49389042  0.25219331  1
  O  O272  1  0.63140480  0.49494090  0.74624966  1
  O  O273  1  0.63795246  0.99686784  0.24226866  1
  O  O274  1  0.62924931  0.98600454  0.74900053  1
  O  O275  1  0.36445047  -0.00071530  0.24698326  1
  O  O276  1  0.37961768  0.00515082  0.76100546  1
  O  O277  1  0.36810725  0.50281638  0.25606827  1
  O  O278  1  0.37712809  0.51731648  0.74399228  1
  O  O279  1  0.86341732  -0.00450449  0.25737179  1
  O  O280  1  0.86661329  -0.00238925  0.75145055  1
  O  O281  1  0.85988937  0.50153440  0.25786255  1
  O  O282  1  0.86763813  0.50207903  0.75763445  1
  O  O283  1  0.12318316  0.36677507  0.36805649  1
  O  O284  1  0.11623608  0.36860355  0.87739618  1
  O  O285  1  0.11719736  0.86882073  0.37599647  1
  O  O286  1  0.13007334  0.86097798  0.87346641  1
  O  O287  1  0.61942644  0.36963441  0.36840045  1
  O  O288  1  0.61907161  0.37298326  0.86155149  1
  O  O289  1  0.61925587  0.86302166  0.37263133  1
  O  O290  1  0.62198905  0.86170532  0.86965420  1
  O  O291  1  0.39003387  0.12065344  0.11848798  1
  O  O292  1  0.38049660  0.12883637  0.63796581  1
  O  O293  1  0.37950472  0.62890882  0.12784855  1
  O  O294  1  0.38544075  0.62789659  0.63118212  1
  O  O295  1  0.87411484  0.13822387  0.12204005  1
  O  O296  1  0.88202283  0.13677276  0.62935670  1
  O  O297  1  0.87477671  0.64093377  0.12816454  1
  O  O298  1  0.88630050  0.63813162  0.62716886  1
  O  O299  1  0.24937766  0.26084154  0.11589223  1
  O  O300  1  0.25940554  0.25753428  0.61805901  1
  O  O301  1  0.25895137  0.76071335  0.13096272  1
  O  O302  1  0.24974648  0.75124595  0.61136786  1
  O  O303  1  0.75941695  0.24673533  0.11115166  1
  O  O304  1  0.76246126  0.25039397  0.61741196  1
  O  O305  1  0.74949509  0.75826097  0.11505277  1
  O  O306  1  0.75927643  0.74463554  0.61613613  1
  O  O307  1  0.24284594  0.24478572  0.37954168  1
  O  O308  1  0.24174347  0.25754143  0.89032950  1
  O  O309  1  0.24815087  0.74467275  0.38718465  1
  O  O310  1  0.24153949  0.73856154  0.87324884  1
  O  O311  1  0.75031417  0.24364523  0.37958890  1
  O  O312  1  0.75136558  0.25263047  0.88598751  1
  O  O313  1  0.74243878  0.74857323  0.38126705  1
  O  O314  1  0.74631384  0.74885804  0.88754084  1
  O  O315  1  0.01641121  0.12387502  0.01005155  1
  O  O316  1  0.00709725  0.11820916  0.50673211  1
  O  O317  1  0.00699416  0.61259875  -0.00078744  1
  O  O318  1  -0.00340749  0.61211523  0.50684019  1
  O  O319  1  0.50455454  0.11277875  0.00726174  1
  O  O320  1  0.51061744  0.12029137  0.50273933  1
  O  O321  1  0.50198135  0.61661134  0.00309377  1
  O  O322  1  0.51068973  0.62283538  0.50545386  1
  O  O323  1  0.49831025  0.37939317  0.49311147  1
  O  O324  1  0.49560595  0.37803603  0.99415533  1
  O  O325  1  0.50399195  0.88688898  0.48982418  1
  O  O326  1  0.48960271  0.88719563  1.00702915  1
  O  O327  1  0.99949832  0.38955197  0.50355478  1
  O  O328  1  0.99233042  0.38737234  0.99331067  1
  O  O329  1  1.00061494  0.88475987  0.49284597  1
  O  O330  1  0.98396441  0.86870666  1.00634384  1
  O  O331  1  0.49713732  0.49585787  0.38078211  1
  O  O332  1  0.50321996  0.48572537  0.88088842  1
  O  O333  1  0.50752331  0.99035903  0.38140411  1
  O  O334  1  0.48851984  0.99975648  0.88350688  1
  O  O335  1  0.98923810  0.49609647  0.39140096  1
  O  O336  1  0.99247068  0.49678040  0.88282848  1
  O  O337  1  0.99260306  0.99675402  0.38344335  1
  O  O338  1  1.02511648  0.98306431  0.89587584  1
  O  O339  1  0.00968941  -0.00190180  0.12400583  1
  O  O340  1  -0.00600895  0.00855973  0.61366590  1
  O  O341  1  -0.00312038  0.49460660  0.11955724  1
  O  O342  1  -0.00509511  0.50940747  0.61486563  1
  O  O343  1  0.50647777  0.00625703  0.11844960  1
  O  O344  1  0.50636957  0.00535108  0.61471636  1
  O  O345  1  0.49586672  0.51129067  0.11876253  1
  O  O346  1  0.50812842  0.50847646  0.61746855  1
  O  O347  1  0.23725940  0.38232484  0.24498493  1
  O  O348  1  0.25546665  0.37056325  0.73557165  1
  O  O349  1  0.25087480  0.88574382  0.24245392  1
  O  O350  1  0.24713029  0.87737306  0.74020018  1
  O  O351  1  0.73899848  0.39107797  0.25143631  1
  O  O352  1  0.74306612  0.38693028  0.74730165  1
  O  O353  1  0.74785596  0.88014896  0.24197664  1
  O  O354  1  0.73936935  0.88754544  0.75495230  1
  O  O355  1  0.24774655  0.11209915  0.25694081  1
  O  O356  1  0.25262405  0.12553622  0.75382916  1
  O  O357  1  0.25633286  0.61828573  0.25969883  1
  O  O358  1  0.25427463  0.62229662  0.76215017  1
  O  O359  1  0.74468938  0.11701126  0.25687882  1
  O  O360  1  0.74902505  0.10770712  0.75489429  1
  O  O361  1  0.74643299  0.61143236  0.25112266  1
  O  O362  1  0.75058593  0.61478653  0.75178702  1
  O  O363  1  0.36096272  0.13201040  0.37916816  1
  O  O364  1  0.37831921  0.11939221  0.86430807  1
  O  O365  1  0.37032264  0.61905078  0.37093409  1
  O  O366  1  0.36065804  0.62252800  0.86988425  1
  O  O367  1  0.86452382  0.11550400  0.37805879  1
  O  O368  1  0.89872835  0.11883737  0.87350079  1
  O  O369  1  0.87499316  0.61179100  0.36901949  1
  O  O370  1  0.87320874  0.61447028  0.87573213  1
  O  O371  1  0.13122904  0.36948837  0.13351160  1
  O  O372  1  0.14207459  0.36742215  0.62649333  1
  O  O373  1  0.13398404  0.87915912  0.12661638  1
  O  O374  1  0.14357297  0.87477516  0.62896986  1
  O  O375  1  0.61601490  0.37270731  0.13529062  1
  O  O376  1  0.62499911  0.38115553  0.63553824  1
  O  O377  1  0.63311566  0.87940803  0.12285441  1
  O  O378  1  0.62587729  0.87075554  0.63954224  1
  O  O379  1  0.12748121  0.25770227  0.26084046  1
  O  O380  1  0.13200136  0.25496497  0.76618196  1
  O  O381  1  0.13291999  0.75532971  0.27110215  1
  O  O382  1  0.11982360  0.74905942  0.76039474  1
  O  O383  1  0.62511609  0.25915204  0.25410615  1
  O  O384  1  0.62243052  0.25689324  0.74785365  1
  O  O385  1  0.61883000  0.74853689  0.25724677  1
  O  O386  1  0.63082266  0.76003971  0.76426202  1
  O  O387  1  0.38237451  0.25755980  0.24252210  1
  O  O388  1  0.38157189  0.24211581  0.74799484  1
  O  O389  1  0.38042273  0.74146907  0.24420023  1
  O  O390  1  0.37132689  0.73167613  0.74519540  1
  O  O391  1  0.86899686  0.25774723  0.23402217  1
  O  O392  1  0.86802263  0.25038925  0.73791511  1
  O  O393  1  0.87005984  0.74651113  0.23734795  1
  O  O394  1  0.88152149  0.75125998  0.74457033  1
  O  O395  1  0.38374856  0.49447181  0.49445831  1
  O  O396  1  0.38908654  0.49139211  1.00149308  1
  O  O397  1  0.38986676  1.01048563  0.49867014  1
  O  O398  1  0.37947757  0.99316695  0.98906224  1
  O  O399  1  0.87700736  0.50326148  0.49184809  1
  O  O400  1  0.87891136  0.49722626  0.99512914  1
  O  O401  1  0.88113772  1.00066401  0.49203928  1
  O  O402  1  0.87408499  0.98268038  1.00168149  1
  O  O403  1  0.13480559  0.00830894  0.01866920  1
  O  O404  1  0.11641788  0.01136872  0.49440116  1
  O  O405  1  0.11589396  0.51061939  0.00343178  1
  O  O406  1  0.11189724  0.49806355  0.50546901  1
  O  O407  1  0.61817894  0.00144006  0.00130085  1
  O  O408  1  0.62453559  0.01224738  0.49993753  1
  O  O409  1  0.61286138  0.50832442  -0.00578007  1
  O  O410  1  0.62292020  0.50934635  0.50404290  1
  O  O411  1  0.36812147  0.37329493  0.11190305  1
  O  O412  1  0.36901411  0.37105243  0.62002783  1
  O  O413  1  0.37030407  0.86926410  0.11733286  1
  O  O414  1  0.35868479  0.87418547  0.62866688  1
  O  O415  1  0.87344047  0.37330803  0.11362991  1
  O  O416  1  0.87537606  0.36226372  0.62756228  1
  O  O417  1  0.86774659  0.86405444  0.11968559  1
  O  O418  1  0.88070167  0.86155802  0.62049187  1
  O  O419  1  0.13310061  0.13316167  0.38462721  1
  O  O420  1  0.12783103  0.12927259  0.88058927  1
  O  O421  1  0.13745201  0.63380570  0.37807831  1
  O  O422  1  0.13534265  0.62584032  0.88083105  1
  O  O423  1  0.63652739  0.12987340  0.37943990  1
  O  O424  1  0.61325477  0.12529893  0.88712382  1
  O  O425  1  0.62345061  0.63723175  0.38309421  1
  O  O426  1  0.62441388  0.63568219  0.88371139  1
