# generated using pymatgen
data_V85Zn86O256
_symmetry_space_group_name_H-M   'P 1'
_cell_length_a   16.97754650
_cell_length_b   16.95215625
_cell_length_c   16.97975900
_cell_angle_alpha   90.05850835
_cell_angle_beta   89.92219606
_cell_angle_gamma   90.11717632
_symmetry_Int_Tables_number   1
_chemical_formula_structural   V85Zn86O256
_chemical_formula_sum   'V85 Zn86 O256'
_cell_volume   4886.85961440
_cell_formula_units_Z   1
loop_
 _symmetry_equiv_pos_site_id
 _symmetry_equiv_pos_as_xyz
  1  'x, y, z'
loop_
 _atom_site_type_symbol
 _atom_site_label
 _atom_site_symmetry_multiplicity
 _atom_site_fract_x
 _atom_site_fract_y
 _atom_site_fract_z
 _atom_site_occupancy
  V  V0  1  0.37714867  0.12541103  0.25187512  1
  V  V1  1  0.00050639  0.50030975  0.50028861  1
  V  V2  1  0.25138251  0.87476313  0.12291440  1
  V  V3  1  0.11980727  0.37587678  0.74785715  1
  V  V4  1  0.37666447  0.75645960  0.62518792  1
  V  V5  1  0.38084576  -0.00472979  0.87419318  1
  V  V6  1  0.61600946  0.00317003  0.62207033  1
  V  V7  1  0.24616707  0.62281184  0.87739036  1
  V  V8  1  0.00597396  0.87514146  0.37633218  1
  V  V9  1  0.49748072  0.26073557  0.75332894  1
  V  V10  1  0.87180048  0.86997160  -0.00042139  1
  V  V11  1  0.74808446  0.75130275  0.49529863  1
  V  V12  1  0.12651312  0.74918353  0.37081568  1
  V  V13  1  0.37944928  0.74458122  0.12438488  1
  V  V14  1  0.87622899  0.26072160  0.12423152  1
  V  V15  1  0.61898234  0.12513038  0.49134414  1
  V  V16  1  0.38290428  0.37949352  -0.00455896  1
  V  V17  1  0.50595463  0.37084177  0.38434429  1
  V  V18  1  0.00331813  0.25790655  0.25102500  1
  V  V19  1  0.74673910  0.25305226  0.49597130  1
  V  V20  1  0.74684641  0.88008243  0.11388123  1
  V  V21  1  0.87510369  0.01485484  0.87202685  1
  V  V22  1  0.49964177  0.75681885  0.75661868  1
  V  V23  1  0.75263660  0.01036534  0.74733398  1
  V  V24  1  0.25298896  -0.00296745  0.25176126  1
  V  V25  1  0.62060402  0.87636311  0.25041840  1
  V  V26  1  0.24403086  0.50070453  0.74672038  1
  V  V27  1  0.62698844  0.12864887  -0.00209983  1
  V  V28  1  -0.00138233  0.00208467  0.00213217  1
  V  V29  1  -0.00256235  0.88005483  0.87639210  1
  V  V30  1  0.75109460  -0.00358265  0.25240147  1
  V  V31  1  0.61913414  0.00320983  0.12467137  1
  V  V32  1  0.86792494  0.49992157  0.36870158  1
  V  V33  1  0.87717008  0.12136210  0.24917070  1
  V  V34  1  0.37631740  0.62478700  0.75095718  1
  V  V35  1  0.62117887  0.25839265  0.87548793  1
  V  V36  1  0.87501021  0.75325440  0.62003355  1
  V  V37  1  -0.00060553  0.00531395  0.50406393  1
  V  V38  1  -0.00189030  0.75488950  0.74487089  1
  V  V39  1  0.24882202  0.74696177  -0.00077973  1
  V  V40  1  0.49340581  0.87661401  0.39098439  1
  V  V41  1  0.37621126  0.25605488  0.62056329  1
  V  V42  1  0.12955789  0.12226574  0.00237708  1
  V  V43  1  0.75398074  0.26457858  -0.00084447  1
  V  V44  1  0.12434543  0.00673885  0.62628079  1
  V  V45  1  0.37534563  0.25444953  0.12968829  1
  V  V46  1  0.87403108  0.87708600  0.49566045  1
  V  V47  1  0.93690310  0.69621772  0.19735722  1
  V  V48  1  0.11550246  0.51557856  0.13119111  1
  V  V49  1  0.12014282  0.13011787  0.50045657  1
  V  V50  1  0.69395579  0.69412576  0.05429657  1
  V  V51  1  0.24904584  0.12682644  0.87642010  1
  V  V52  1  0.74146177  0.38304515  0.14147762  1
  V  V53  1  0.25574028  0.75116565  0.49946648  1
  V  V54  1  0.62371437  0.88065882  0.75494462  1
  V  V55  1  0.00184940  0.61877943  0.62533728  1
  V  V56  1  0.24819923  0.37934605  0.62214502  1
  V  V57  1  0.12240250  0.87486606  0.75089858  1
  V  V58  1  0.37650529  0.61490773  0.24915244  1
  V  V59  1  0.12806720  0.00016695  0.12555536  1
  V  V60  1  0.74525693  0.62665969  0.87587590  1
  V  V61  1  0.10842855  0.25685391  0.88580610  1
  V  V62  1  0.87153226  0.37799478  0.51616169  1
  V  V63  1  0.51074852  0.51625875  -0.00332740  1
  V  V64  1  0.48928527  0.49820726  0.50514851  1
  V  V65  1  0.37686726  -0.00219518  0.39043422  1
  V  V66  1  0.63272701  0.37550566  0.74544188  1
  V  V67  1  0.51503055  0.25704427  0.25329004  1
  V  V68  1  0.11013071  0.73768779  0.88811847  1
  V  V69  1  0.00150319  0.12299429  0.12699620  1
  V  V70  1  0.25283244  0.25519198  0.49808774  1
  V  V71  1  0.12708066  0.62116522  0.50477001  1
  V  V72  1  0.87006539  0.62659136  0.74864024  1
  V  V73  1  0.50076788  0.74863235  0.24840949  1
  V  V74  1  0.62790650  0.75220800  0.87593537  1
  V  V75  1  0.63187288  0.49827650  0.62236395  1
  V  V76  1  0.87225635  0.22976072  0.62416688  1
  V  V77  1  0.25333058  0.25461665  0.00040531  1
  V  V78  1  0.00170576  0.22519557  0.73605368  1
  V  V79  1  0.12619323  0.25752294  0.37120196  1
  V  V80  1  0.62259358  0.74964659  0.37790589  1
  V  V81  1  0.25253536  0.61416437  0.37291526  1
  V  V82  1  0.25063702  0.87732187  0.62137461  1
  V  V83  1  0.37565694  0.12918440  0.75131269  1
  V  V84  1  0.24056087  0.38514142  0.13755158  1
  Zn  Zn85  1  0.50200883  0.62548428  0.62677303  1
  Zn  Zn86  1  0.75427215  0.62166991  0.37627712  1
  Zn  Zn87  1  0.50065903  0.12864209  0.12383444  1
  Zn  Zn88  1  0.25026101  0.00062401  0.75099934  1
  Zn  Zn89  1  0.74592674  0.13191279  0.36938509  1
  Zn  Zn90  1  0.12060540  0.86842615  0.24441282  1
  Zn  Zn91  1  0.49636134  0.12489014  0.61964465  1
  Zn  Zn92  1  0.87213076  0.49401557  0.88684114  1
  Zn  Zn93  1  0.87658356  0.00148589  0.37434926  1
  Zn  Zn94  1  0.00085860  0.37772893  0.37614575  1
  Zn  Zn95  1  0.74831030  0.87799876  0.62468025  1
  Zn  Zn96  1  0.50377170  -0.00220763  -0.00777554  1
  Zn  Zn97  1  0.38097294  0.87251079  -0.00550310  1
  Zn  Zn98  1  0.37302480  0.49073897  0.37479007  1
  Zn  Zn99  1  -0.00784958  0.38029582  0.88076437  1
  Zn  Zn100  1  0.74764544  0.49981301  0.75026287  1
  Zn  Zn101  1  0.37764961  0.49297834  0.87118112  1
  Zn  Zn102  1  0.25117914  0.12603410  0.37586153  1
  Zn  Zn103  1  0.62305957  0.62439773  0.50430769  1
  Zn  Zn104  1  0.55174173  0.57605884  0.15972972  1
  Zn  Zn105  1  0.75355169  0.13192459  0.87163095  1
  Zn  Zn106  1  0.01281442  0.53203594  -0.01246873  1
  Zn  Zn107  1  0.19151937  0.18911581  0.18928955  1
  Zn  Zn108  1  0.18859675  0.19063052  0.68793786  1
  Zn  Zn109  1  0.19518055  0.68554848  0.19225308  1
  Zn  Zn110  1  0.18525474  0.68911895  0.69034283  1
  Zn  Zn111  1  0.69298305  0.18723515  0.18374836  1
  Zn  Zn112  1  0.68599425  0.18877223  0.68226726  1
  Zn  Zn113  1  0.71582375  0.54896430  0.21365808  1
  Zn  Zn114  1  0.68616975  0.68927880  0.68483970  1
  Zn  Zn115  1  0.31810218  0.31575094  0.31509498  1
  Zn  Zn116  1  0.30664303  0.31298160  0.81388567  1
  Zn  Zn117  1  0.31532505  0.81154874  0.31291431  1
  Zn  Zn118  1  0.30615351  0.81178458  0.81081537  1
  Zn  Zn119  1  0.81825961  0.31668015  0.31778465  1
  Zn  Zn120  1  0.81388860  0.30587155  0.80750301  1
  Zn  Zn121  1  0.76475512  0.74462073  0.23692844  1
  Zn  Zn122  1  0.80974045  0.81817511  0.81189516  1
  Zn  Zn123  1  0.18500908  0.43699443  0.44014120  1
  Zn  Zn124  1  0.18418372  0.44088062  0.94189940  1
  Zn  Zn125  1  0.19025772  0.93856403  0.43926166  1
  Zn  Zn126  1  0.19020621  0.93434253  0.93733093  1
  Zn  Zn127  1  0.68576441  0.43311948  0.43959946  1
  Zn  Zn128  1  0.68729155  0.43992648  0.93659231  1
  Zn  Zn129  1  0.68388131  0.93780598  0.43737080  1
  Zn  Zn130  1  0.68653483  0.94279400  0.93293097  1
  Zn  Zn131  1  0.31748286  0.06425613  0.06209069  1
  Zn  Zn132  1  0.30746570  0.07049036  0.56456807  1
  Zn  Zn133  1  0.31050984  0.56041979  0.06286682  1
  Zn  Zn134  1  0.31366613  0.56536851  0.56587154  1
  Zn  Zn135  1  0.81128846  0.06548963  0.06135839  1
  Zn  Zn136  1  0.80307229  0.06150732  0.55753488  1
  Zn  Zn137  1  0.83408215  0.56052958  0.06704058  1
  Zn  Zn138  1  0.81128733  0.56574364  0.56047712  1
  Zn  Zn139  1  0.44418594  0.43210613  0.18379866  1
  Zn  Zn140  1  0.43768058  0.43734970  0.68666731  1
  Zn  Zn141  1  0.43679733  0.93455436  0.18879139  1
  Zn  Zn142  1  0.43750574  0.93797536  0.69042849  1
  Zn  Zn143  1  0.94035414  0.44114214  0.18524794  1
  Zn  Zn144  1  0.91487008  0.41840831  0.71754245  1
  Zn  Zn145  1  0.91077928  0.88364356  0.21226156  1
  Zn  Zn146  1  0.93521666  0.94477576  0.68504216  1
  Zn  Zn147  1  0.06561220  0.06440032  0.31517878  1
  Zn  Zn148  1  0.06579672  0.06383505  0.81378793  1
  Zn  Zn149  1  0.05976721  0.56416790  0.30925665  1
  Zn  Zn150  1  0.06046028  0.56043928  0.80777311  1
  Zn  Zn151  1  0.55724665  0.06164019  0.31333951  1
  Zn  Zn152  1  0.56219805  0.07190459  0.80954104  1
  Zn  Zn153  1  0.56585375  0.55675148  0.32660761  1
  Zn  Zn154  1  0.56072066  0.56126302  0.81597073  1
  Zn  Zn155  1  0.43797254  0.18965888  0.43487288  1
  Zn  Zn156  1  0.44036521  0.18727155  0.93770700  1
  Zn  Zn157  1  0.43794415  0.68330863  0.43829313  1
  Zn  Zn158  1  0.43772238  0.68702057  0.93553364  1
  Zn  Zn159  1  0.93598726  0.18865076  0.43605803  1
  Zn  Zn160  1  0.94591747  0.20299383  0.94263374  1
  Zn  Zn161  1  0.93974331  0.68691057  0.42941959  1
  Zn  Zn162  1  0.92868578  0.69006648  0.93441873  1
  Zn  Zn163  1  0.06712135  0.31278732  0.06578758  1
  Zn  Zn164  1  0.06147333  0.31533207  0.56528893  1
  Zn  Zn165  1  0.06384902  0.69708931  0.06489805  1
  Zn  Zn166  1  0.06566388  0.81275285  0.55897974  1
  Zn  Zn167  1  0.56438502  0.31706636  0.06528917  1
  Zn  Zn168  1  0.56424763  0.31171812  0.56276976  1
  Zn  Zn169  1  0.55384755  0.81883980  0.05998598  1
  Zn  Zn170  1  0.56213795  0.81502105  0.56784440  1
  O  O171  1  0.12546497  0.11963717  0.12030915  1
  O  O172  1  0.13376497  0.11393775  0.61783109  1
  O  O173  1  0.13039215  0.62075430  0.12482163  1
  O  O174  1  0.11550782  0.63412792  0.61600063  1
  O  O175  1  0.62412309  0.11980646  0.11737320  1
  O  O176  1  0.62129432  0.11873081  0.61583566  1
  O  O177  1  0.64017663  0.63645949  0.11411031  1
  O  O178  1  0.62037295  0.61614696  0.62557352  1
  O  O179  1  0.39407265  0.37779176  0.36911135  1
  O  O180  1  0.36780619  0.37211522  0.89196376  1
  O  O181  1  0.38133965  0.88458732  0.37343542  1
  O  O182  1  0.36589401  0.89313676  0.86921731  1
  O  O183  1  0.88079123  0.38482314  0.39113767  1
  O  O184  1  0.88513278  0.38892815  0.83288481  1
  O  O185  1  0.88844914  0.88135645  0.38977435  1
  O  O186  1  0.87989236  0.88799302  0.87766740  1
  O  O187  1  0.25751120  0.00075435  0.36738518  1
  O  O188  1  0.25691169  0.00981195  0.87260298  1
  O  O189  1  0.25316480  0.51014997  0.38277203  1
  O  O190  1  0.25265484  0.50683954  0.86738041  1
  O  O191  1  0.74901013  -0.00374230  0.35947050  1
  O  O192  1  0.75874201  0.00693151  0.86686774  1
  O  O193  1  0.76284393  0.49753852  0.38104543  1
  O  O194  1  0.75226881  0.51137085  0.87215803  1
  O  O195  1  0.24072952  0.48962165  0.12283492  1
  O  O196  1  0.25671817  0.49077543  0.63310231  1
  O  O197  1  0.25241933  0.99408568  0.13098172  1
  O  O198  1  0.24414971  0.99323892  0.62641165  1
  O  O199  1  0.76330377  0.48737810  0.12784205  1
  O  O200  1  0.73558825  0.50560128  0.62644095  1
  O  O201  1  0.73828974  0.99862413  0.13238605  1
  O  O202  1  0.73830870  0.99952777  0.63161261  1
  O  O203  1  -0.00371734  0.36020631  0.25158748  1
  O  O204  1  0.01756199  0.37026901  0.73851563  1
  O  O205  1  0.00724371  0.88788503  0.27130357  1
  O  O206  1  0.00322114  0.87713487  0.75595975  1
  O  O207  1  0.50161235  0.36123555  0.25525237  1
  O  O208  1  0.50501148  0.36495229  0.74939168  1
  O  O209  1  0.50277805  0.86520977  0.25634154  1
  O  O210  1  0.50588409  0.86447628  0.74976854  1
  O  O211  1  0.48997062  0.13491893  0.25013647  1
  O  O212  1  0.48792041  0.13768950  0.74657308  1
  O  O213  1  0.49466827  0.63841825  0.24951023  1
  O  O214  1  0.49103736  0.63540218  0.75072286  1
  O  O215  1  0.99432434  0.12760332  0.24496451  1
  O  O216  1  1.00891986  0.12693843  0.73499442  1
  O  O217  1  0.98897847  0.64220815  0.26594440  1
  O  O218  1  0.99278314  0.63316320  0.74111431  1
  O  O219  1  0.36996854  0.25543902  0.00741044  1
  O  O220  1  0.36524418  0.24372132  0.50875470  1
  O  O221  1  0.36773004  0.74961241  0.00665590  1
  O  O222  1  0.36362827  0.74316073  0.51027677  1
  O  O223  1  0.86385817  0.24181172  0.01320837  1
  O  O224  1  0.87337037  0.25549268  0.51047288  1
  O  O225  1  0.87226399  0.77062843  -0.00775574  1
  O  O226  1  0.86783363  0.75815972  0.49930572  1
  O  O227  1  0.12915553  0.24546664  0.49571504  1
  O  O228  1  0.14415358  0.23960121  1.00620259  1
  O  O229  1  0.13813069  0.74194112  0.49497468  1
  O  O230  1  0.14310260  0.75775866  0.99931448  1
  O  O231  1  0.63508755  0.23765891  0.50763450  1
  O  O232  1  0.63049557  0.24887196  0.99317125  1
  O  O233  1  0.63095993  0.75351955  0.49729432  1
  O  O234  1  0.62791228  0.75070022  0.99546848  1
  O  O235  1  0.49293622  0.25302771  0.13646373  1
  O  O236  1  0.49023326  0.25002733  0.63218777  1
  O  O237  1  0.49111035  0.75380171  0.13441713  1
  O  O238  1  0.49085729  0.75021495  0.63416958  1
  O  O239  1  0.99456278  0.24353481  0.13261483  1
  O  O240  1  0.99096070  0.24869782  0.63003737  1
  O  O241  1  1.00192440  0.75175199  0.14044959  1
  O  O242  1  0.99471110  0.74627603  0.62645071  1
  O  O243  1  0.00738634  0.25036238  0.36765186  1
  O  O244  1  -0.00352663  0.23846503  0.84265067  1
  O  O245  1  0.01532624  0.76230680  0.38906626  1
  O  O246  1  -0.00443251  0.76572625  0.86265678  1
  O  O247  1  0.49844175  0.25857234  0.36393574  1
  O  O248  1  0.50907999  0.24657401  0.86593850  1
  O  O249  1  0.50115978  0.75710649  0.36993659  1
  O  O250  1  0.51430512  0.74472575  0.86820717  1
  O  O251  1  0.23855279  0.13881613  0.49904647  1
  O  O252  1  0.25027491  0.13291284  0.99555535  1
  O  O253  1  0.24445315  0.63059291  0.49703853  1
  O  O254  1  0.25578456  0.63216389  0.98782010  1
  O  O255  1  0.73907563  0.13150488  0.49318981  1
  O  O256  1  0.73813917  0.13607333  1.00066438  1
  O  O257  1  0.74546871  0.63675115  0.49584680  1
  O  O258  1  0.75524190  0.63256909  0.99668501  1
  O  O259  1  0.25776707  0.36811588  0.00911041  1
  O  O260  1  0.24588735  0.36462661  0.50759783  1
  O  O261  1  0.25932115  0.86884978  0.00685520  1
  O  O262  1  0.24570881  0.86655089  0.51316208  1
  O  O263  1  0.74998693  0.36697369  0.00432311  1
  O  O264  1  0.75842532  0.36586708  0.50171939  1
  O  O265  1  0.75395815  0.88652906  0.00726329  1
  O  O266  1  0.75907722  0.87290320  0.50075572  1
  O  O267  1  0.12198809  0.50492612  0.23294920  1
  O  O268  1  0.13760888  0.49280643  0.74791429  1
  O  O269  1  0.14106412  1.00344351  0.24650628  1
  O  O270  1  0.12753845  0.99517228  0.74207268  1
  O  O271  1  0.61178525  0.51570053  0.23599128  1
  O  O272  1  0.62266639  0.49139418  0.74424829  1
  O  O273  1  0.62868727  0.99726725  0.24298348  1
  O  O274  1  0.62826990  0.99712856  0.74638335  1
  O  O275  1  0.36742122  0.00719025  0.25256177  1
  O  O276  1  0.37248025  0.01072844  0.75698997  1
  O  O277  1  0.38686370  0.51271516  0.24758878  1
  O  O278  1  0.36757756  0.50813741  0.75121779  1
  O  O279  1  0.86543039  0.00036372  0.24940782  1
  O  O280  1  0.86486148  -0.00129155  0.75745369  1
  O  O281  1  0.88200459  0.49165530  0.27046735  1
  O  O282  1  0.86836922  0.52178351  0.73930018  1
  O  O283  1  0.12123348  0.36206543  0.37978194  1
  O  O284  1  0.12863062  0.36999076  0.86290073  1
  O  O285  1  0.12253098  0.86725176  0.37846508  1
  O  O286  1  0.11352738  0.86967226  0.87318742  1
  O  O287  1  0.60663297  0.37917580  0.37500497  1
  O  O288  1  0.62814634  0.36389909  0.86733112  1
  O  O289  1  0.61442257  0.86858333  0.37287968  1
  O  O290  1  0.62871221  0.87083971  0.86263235  1
  O  O291  1  0.37796669  0.13704188  0.13129290  1
  O  O292  1  0.37350523  0.13666669  0.63409201  1
  O  O293  1  0.36527816  0.63710706  0.13316472  1
  O  O294  1  0.37357799  0.63850219  0.63752196  1
  O  O295  1  0.87861746  0.13003362  0.13572877  1
  O  O296  1  0.87644687  0.13160758  0.61617693  1
  O  O297  1  0.87822987  0.64002175  0.13631862  1
  O  O298  1  0.88139899  0.63623049  0.62674992  1
  O  O299  1  0.25897641  0.25747442  0.12026284  1
  O  O300  1  0.25652435  0.25646180  0.61787795  1
  O  O301  1  0.25635417  0.75661320  0.11868263  1
  O  O302  1  0.25537963  0.75700304  0.62060216  1
  O  O303  1  0.75823292  0.25923886  0.11941429  1
  O  O304  1  0.76523707  0.24287288  0.61545724  1
  O  O305  1  0.74170493  0.76236303  0.11816546  1
  O  O306  1  0.75488155  0.75532753  0.61279794  1
  O  O307  1  0.24520872  0.25155051  0.38154576  1
  O  O308  1  0.24013321  0.24643781  0.88524979  1
  O  O309  1  0.24892240  0.74334195  0.38528585  1
  O  O310  1  0.24212103  0.74398258  0.88253615  1
  O  O311  1  0.75994339  0.24837249  0.39089133  1
  O  O312  1  0.74620796  0.25027068  0.88237150  1
  O  O313  1  0.73723847  0.75671302  0.38773497  1
  O  O314  1  0.73609051  0.74799960  0.87040541  1
  O  O315  1  0.00914983  0.12256605  0.00727636  1
  O  O316  1  0.01195122  0.12097519  0.49660135  1
  O  O317  1  0.02783641  0.65143030  -0.03199570  1
  O  O318  1  0.00891361  0.62268672  0.50511698  1
  O  O319  1  0.51343564  0.12465888  0.00290359  1
  O  O320  1  0.51457682  0.13286826  0.50073123  1
  O  O321  1  0.49964404  0.61669970  0.00057964  1
  O  O322  1  0.50069891  0.61454869  0.50537732  1
  O  O323  1  0.50039386  0.37779365  0.49178257  1
  O  O324  1  0.48432269  0.37399645  1.00334933  1
  O  O325  1  0.49912138  0.87088837  0.49013806  1
  O  O326  1  0.49255108  0.88474524  0.99754391  1
  O  O327  1  0.99496933  0.38642382  0.50356424  1
  O  O328  1  1.01966544  0.30689162  0.96447580  1
  O  O329  1  0.99736782  0.88449162  0.49558927  1
  O  O330  1  0.98963111  0.88633176  0.98522004  1
  O  O331  1  0.49660595  0.49054711  0.38912621  1
  O  O332  1  0.49213854  0.50441658  0.88877572  1
  O  O333  1  0.48815157  0.98903209  0.37009577  1
  O  O334  1  0.48381469  1.00976267  0.87003818  1
  O  O335  1  0.99599296  0.49995544  0.38833944  1
  O  O336  1  1.00103350  0.49536923  0.87482580  1
  O  O337  1  1.00487714  0.99634900  0.39004153  1
  O  O338  1  0.99434201  0.99780963  0.87763353  1
  O  O339  1  0.01234973  0.00739234  0.11687319  1
  O  O340  1  0.00998830  -0.00346357  0.61223352  1
  O  O341  1  0.01283128  0.50279679  0.12390691  1
  O  O342  1  -0.00428457  0.51670850  0.61477483  1
  O  O343  1  0.51080946  0.00384152  0.12819325  1
  O  O344  1  0.51134531  0.00354650  0.63110974  1
  O  O345  1  0.49026826  0.49910358  0.10352350  1
  O  O346  1  0.50619015  0.50079259  0.61965702  1
  O  O347  1  0.25712111  0.37270519  0.23446128  1
  O  O348  1  0.24272030  0.38102184  0.74346229  1
  O  O349  1  0.25180206  0.88269827  0.24341232  1
  O  O350  1  0.24032965  0.87491610  0.73824483  1
  O  O351  1  0.75254774  0.36908368  0.23994974  1
  O  O352  1  0.73561509  0.37380717  0.74878735  1
  O  O353  1  0.73875476  0.87885693  0.23210544  1
  O  O354  1  0.74103971  0.88826270  0.74719956  1
  O  O355  1  0.26327981  0.11920196  0.25122019  1
  O  O356  1  0.26037642  0.12878641  0.75686622  1
  O  O357  1  0.26306813  0.62888173  0.26342001  1
  O  O358  1  0.25647176  0.61802154  0.75112700  1
  O  O359  1  0.75791570  0.11604390  0.25015549  1
  O  O360  1  0.74342472  0.11469389  0.75114218  1
  O  O361  1  0.75393778  0.63801245  0.26511058  1
  O  O362  1  0.75515416  0.62929578  0.75685415  1
  O  O363  1  0.37392057  0.11813959  0.36728078  1
  O  O364  1  0.36912290  0.12240875  0.86824767  1
  O  O365  1  0.36887622  0.62074040  0.36755830  1
  O  O366  1  0.36344197  0.62905772  0.86226013  1
  O  O367  1  0.87502606  0.12068176  0.36108999  1
  O  O368  1  0.87704475  0.11707236  0.88105731  1
  O  O369  1  0.87466804  0.60400917  0.38907370  1
  O  O370  1  0.86067737  0.63105338  0.86347911  1
  O  O371  1  0.13742466  0.37539742  0.12832550  1
  O  O372  1  0.14062101  0.36831875  0.63218583  1
  O  O373  1  0.14385178  0.88401841  0.12897732  1
  O  O374  1  0.13098429  0.88527550  0.62767530  1
  O  O375  1  0.64345614  0.37314059  0.12506740  1
  O  O376  1  0.61888857  0.38424686  0.63430690  1
  O  O377  1  0.62750761  0.88611286  0.12622871  1
  O  O378  1  0.62503797  0.88370257  0.63708182  1
  O  O379  1  0.11642057  0.24047407  0.25987393  1
  O  O380  1  0.11387629  0.25331434  0.75270712  1
  O  O381  1  0.13660497  0.75241285  0.26717757  1
  O  O382  1  0.11538219  0.75701260  0.75707788  1
  O  O383  1  0.61203309  0.24078848  0.24717685  1
  O  O384  1  0.61766981  0.25555638  0.75373703  1
  O  O385  1  0.61710263  0.75983209  0.26198365  1
  O  O386  1  0.61831990  0.75958313  0.75490488  1
  O  O387  1  0.37957589  0.24307813  0.24348446  1
  O  O388  1  0.37904328  0.24739271  0.74680231  1
  O  O389  1  0.38287352  0.74351463  0.24374289  1
  O  O390  1  0.38074466  0.74661487  0.74714170  1
  O  O391  1  0.88283419  0.24038068  0.24497175  1
  O  O392  1  0.88535197  0.24521082  0.73121206  1
  O  O393  1  0.87785210  0.77193986  0.24282832  1
  O  O394  1  0.87763087  0.74594797  0.74152974  1
  O  O395  1  0.38606006  0.50127903  0.50387678  1
  O  O396  1  0.37542822  0.48778152  0.99706011  1
  O  O397  1  0.36778372  1.00870240  0.48916581  1
  O  O398  1  0.37650511  1.00440624  0.98341060  1
  O  O399  1  0.88193092  0.49299917  0.50157526  1
  O  O400  1  0.89965497  0.51124048  0.99520515  1
  O  O401  1  0.88264391  0.99620668  0.50010044  1
  O  O402  1  0.87957279  0.99912887  0.99140209  1
  O  O403  1  0.12281481  0.00517296  0.00363629  1
  O  O404  1  0.12159503  0.00954441  0.50630308  1
  O  O405  1  0.12046784  0.49401262  0.01876955  1
  O  O406  1  0.11788376  0.51294034  0.49829007  1
  O  O407  1  0.62538986  0.01106504  0.00558302  1
  O  O408  1  0.62997265  0.01334343  0.50867806  1
  O  O409  1  0.60928693  0.49845096  -0.00444008  1
  O  O410  1  0.61570796  0.49927726  0.50885813  1
  O  O411  1  0.36724084  0.36806148  0.11645171  1
  O  O412  1  0.36400524  0.36305199  0.63225782  1
  O  O413  1  0.36611511  0.86371540  0.12709868  1
  O  O414  1  0.36651205  0.86489388  0.63244646  1
  O  O415  1  0.87185124  0.36342947  0.12933931  1
  O  O416  1  0.87802354  0.36924341  0.61855230  1
  O  O417  1  0.85984557  0.88735367  0.11169987  1
  O  O418  1  0.87613800  0.87153692  0.61242684  1
  O  O419  1  0.12974054  0.13558360  0.38450696  1
  O  O420  1  0.12865680  0.13282941  0.88426273  1
  O  O421  1  0.13365124  0.63084093  0.38285256  1
  O  O422  1  0.14143367  0.62978882  0.85653563  1
  O  O423  1  0.62552884  0.11874484  0.38762387  1
  O  O424  1  0.62800312  0.13806456  0.88109768  1
  O  O425  1  0.61992478  0.64190520  0.38318692  1
  O  O426  1  0.63764102  0.63433834  0.86915733  1
