# generated using pymatgen
data_V85Zn86O256
_symmetry_space_group_name_H-M   'P 1'
_cell_length_a   16.93976048
_cell_length_b   16.93891520
_cell_length_c   16.93628994
_cell_angle_alpha   90.03054434
_cell_angle_beta   90.02586909
_cell_angle_gamma   90.02589734
_symmetry_Int_Tables_number   1
_chemical_formula_structural   V85Zn86O256
_chemical_formula_sum   'V85 Zn86 O256'
_cell_volume   4859.71710416
_cell_formula_units_Z   1
loop_
 _symmetry_equiv_pos_site_id
 _symmetry_equiv_pos_as_xyz
  1  'x, y, z'
loop_
 _atom_site_type_symbol
 _atom_site_label
 _atom_site_symmetry_multiplicity
 _atom_site_fract_x
 _atom_site_fract_y
 _atom_site_fract_z
 _atom_site_occupancy
  V  V0  1  0.50028784  0.38854162  0.38037022  1
  V  V1  1  0.37545592  0.37111463  0.49897499  1
  V  V2  1  0.74313917  0.62071168  0.37964620  1
  V  V3  1  0.36341637  0.62618677  0.24943025  1
  V  V4  1  0.00209018  0.12387126  0.62802714  1
  V  V5  1  0.87099170  0.87426872  0.00427403  1
  V  V6  1  0.24151609  -0.00595010  0.26171112  1
  V  V7  1  0.37615122  0.00076185  0.87473468  1
  V  V8  1  0.25950015  0.86834674  0.62352309  1
  V  V9  1  0.87282511  0.36726816  0.49387134  1
  V  V10  1  0.74978526  0.25209798  -0.00398516  1
  V  V11  1  0.00299362  0.62354384  0.62281277  1
  V  V12  1  0.37857358  0.13468476  0.75063417  1
  V  V13  1  0.74862606  0.12608641  0.87429753  1
  V  V14  1  0.86900674  0.12584225  0.25436079  1
  V  V15  1  0.12958942  0.62686306  0.49547799  1
  V  V16  1  0.37643199  0.37574368  -0.00619144  1
  V  V17  1  0.50059705  0.49836508  -0.00211548  1
  V  V18  1  0.37417827  0.11747170  0.25747280  1
  V  V19  1  0.62033302  0.12269996  0.50193156  1
  V  V20  1  0.24963540  0.36813994  0.62357120  1
  V  V21  1  0.12539114  0.12715264  0.00017770  1
  V  V22  1  0.62260561  0.50583886  0.61235004  1
  V  V23  1  0.37763669  0.62773456  0.73965468  1
  V  V24  1  0.62330943  0.37417280  0.25175179  1
  V  V25  1  0.00128556  -0.00019144  -0.00407201  1
  V  V26  1  0.62537631  0.75103396  0.86951324  1
  V  V27  1  0.62415777  0.12558232  0.00174039  1
  V  V28  1  0.00569556  0.87046012  0.87399247  1
  V  V29  1  0.74094254  0.74327192  0.50360164  1
  V  V30  1  0.63621659  -0.01080959  0.13528171  1
  V  V31  1  0.75118113  0.12956525  0.38205846  1
  V  V32  1  -0.00040980  0.12453116  0.12817582  1
  V  V33  1  0.62489905  0.25169551  0.38450816  1
  V  V34  1  0.25144969  0.00121395  0.74841213  1
  V  V35  1  0.61454698  -0.00388165  0.62640955  1
  V  V36  1  0.37465673  0.25160769  0.12670381  1
  V  V37  1  0.86732007  0.24945181  0.62491805  1
  V  V38  1  0.49936369  0.75074826  0.74060257  1
  V  V39  1  0.81461148  -0.04699369  0.31923113  1
  V  V40  1  0.24876226  0.49692049  0.74910838  1
  V  V41  1  0.11943699  0.62069517  -0.01200553  1
  V  V42  1  0.24479486  0.74927457  -0.00789110  1
  V  V43  1  0.87216116  0.25005515  0.12666875  1
  V  V44  1  0.26088525  0.74509621  0.49827782  1
  V  V45  1  0.62288063  0.50287226  0.12594008  1
  V  V46  1  0.74992067  0.62284478  0.87616695  1
  V  V47  1  0.24105742  0.87614588  0.12697384  1
  V  V48  1  0.74237337  -0.00349857  0.75140844  1
  V  V49  1  0.50525151  0.87425662  0.87040148  1
  V  V50  1  0.25076540  0.38658548  0.13230648  1
  V  V51  1  0.49944730  0.25003155  0.25350128  1
  V  V52  1  0.00247698  0.00048258  0.49331583  1
  V  V53  1  0.00086093  0.37744021  0.89097255  1
  V  V54  1  0.12025186  0.50392630  0.13179130  1
  V  V55  1  0.37932495  0.50196350  0.87248085  1
  V  V56  1  0.00502392  0.74912948  0.74948639  1
  V  V57  1  0.88493753  0.62339280  0.25088627  1
  V  V58  1  0.12517758  0.25322270  0.87212763  1
  V  V59  1  0.12606852  0.49016706  0.62598727  1
  V  V60  1  0.87427636  0.88055745  0.50374554  1
  V  V61  1  0.87399176  -0.00185852  0.87294303  1
  V  V62  1  0.24903062  0.25080755  0.00161393  1
  V  V63  1  0.50056578  -0.00070694  0.00228507  1
  V  V64  1  0.38055371  0.88982870  0.49185664  1
  V  V65  1  0.61198581  0.25541557  0.87097578  1
  V  V66  1  0.74365357  0.87321494  0.63134521  1
  V  V67  1  0.75096654  0.50046807  0.25118188  1
  V  V68  1  0.00076090  0.49262392  0.49236022  1
  V  V69  1  0.00165025  0.26058770  0.74769409  1
  V  V70  1  0.74822339  0.37454577  0.12492634  1
  V  V71  1  0.37466125  0.87219507  0.00226136  1
  V  V72  1  0.12989069  0.86748933  0.75042587  1
  V  V73  1  0.50011373  0.12352726  0.12798117  1
  V  V74  1  0.74694130  0.75220195  0.00895559  1
  V  V75  1  0.87543878  0.62156776  0.74945973  1
  V  V76  1  0.12750797  0.75675662  0.36889157  1
  V  V77  1  0.12729422  0.13869401  0.49924036  1
  V  V78  1  0.35948898  0.51025797  0.37528623  1
  V  V79  1  0.24961102  0.14191471  0.38103095  1
  V  V80  1  0.87561295  0.12415020  0.74999268  1
  V  V81  1  0.87639702  0.74854977  0.62301836  1
  V  V82  1  0.61198563  0.37767028  0.75156514  1
  V  V83  1  0.50325860  0.88721382  0.36661567  1
  V  V84  1  0.50074154  0.13543793  0.62699929  1
  Zn  Zn85  1  -0.00385675  0.62463599  0.11408985  1
  Zn  Zn86  1  0.74833381  0.37325793  0.62749743  1
  Zn  Zn87  1  0.50715763  0.75202388  0.24763388  1
  Zn  Zn88  1  0.37556617  0.74925005  0.12726612  1
  Zn  Zn89  1  0.12532955  0.37330941  0.27096061  1
  Zn  Zn90  1  0.00446958  0.25783831  0.27410977  1
  Zn  Zn91  1  0.00398709  0.88031990  0.36951674  1
  Zn  Zn92  1  0.00815269  0.76001390  0.24269267  1
  Zn  Zn93  1  0.74998772  0.49492530  0.75053220  1
  Zn  Zn94  1  0.50226694  0.62449753  0.60769197  1
  Zn  Zn95  1  0.62134824  0.62611633  -0.00082273  1
  Zn  Zn96  1  0.12654107  -0.00167530  0.62366416  1
  Zn  Zn97  1  0.62076662  0.75416843  0.37163749  1
  Zn  Zn98  1  0.87592508  0.75201389  0.12686733  1
  Zn  Zn99  1  0.12319923  -0.00204022  0.12946590  1
  Zn  Zn100  1  0.87917998  0.49497547  0.37404780  1
  Zn  Zn101  1  0.25002521  0.12562959  0.87450008  1
  Zn  Zn102  1  0.87644613  0.38589736  0.00378602  1
  Zn  Zn103  1  0.24982453  0.62998774  0.87004779  1
  Zn  Zn104  1  0.88462391  0.50458347  0.88184988  1
  Zn  Zn105  1  0.37516616  0.25201663  0.62326865  1
  Zn  Zn106  1  0.49789231  0.62817255  0.12841741  1
  Zn  Zn107  1  0.19040829  0.18694048  0.19000678  1
  Zn  Zn108  1  0.18527433  0.18776173  0.68786170  1
  Zn  Zn109  1  0.19070041  0.68667103  0.18208969  1
  Zn  Zn110  1  0.19112816  0.68459187  0.68241201  1
  Zn  Zn111  1  0.68632166  0.18252178  0.19142954  1
  Zn  Zn112  1  0.68403719  0.18930892  0.69170161  1
  Zn  Zn113  1  0.68661562  0.68697348  0.19183146  1
  Zn  Zn114  1  0.68526320  0.68456466  0.68975157  1
  Zn  Zn115  1  0.31470256  0.31597874  0.31146138  1
  Zn  Zn116  1  0.31092706  0.31560995  0.81269811  1
  Zn  Zn117  1  0.31468755  0.81070740  0.31655553  1
  Zn  Zn118  1  0.31794642  0.81158405  0.81295997  1
  Zn  Zn119  1  0.81141259  0.30960289  0.31347451  1
  Zn  Zn120  1  0.81219468  0.31609307  0.81137745  1
  Zn  Zn121  1  0.81187944  0.79293443  0.31425280  1
  Zn  Zn122  1  0.81471664  0.80929910  0.81390444  1
  Zn  Zn123  1  0.19240733  0.43990687  0.44349834  1
  Zn  Zn124  1  0.18839389  0.43783026  0.93909285  1
  Zn  Zn125  1  0.18830787  0.93837117  0.44090047  1
  Zn  Zn126  1  0.18765280  0.93774870  0.93615783  1
  Zn  Zn127  1  0.69442427  0.43382341  0.43930033  1
  Zn  Zn128  1  0.68784268  0.43753724  0.93449731  1
  Zn  Zn129  1  0.67928269  0.93500250  0.44732122  1
  Zn  Zn130  1  0.68454409  0.93708520  0.94200521  1
  Zn  Zn131  1  0.31098492  0.06051174  0.06686903  1
  Zn  Zn132  1  0.31162408  0.06485744  0.56380142  1
  Zn  Zn133  1  0.31027396  0.56519183  0.06188998  1
  Zn  Zn134  1  0.31867089  0.55925449  0.55713778  1
  Zn  Zn135  1  0.81254900  0.06190475  0.06173387  1
  Zn  Zn136  1  0.80840685  0.06169493  0.56256504  1
  Zn  Zn137  1  0.81242019  0.56314973  0.06160073  1
  Zn  Zn138  1  0.81054757  0.55565868  0.56408204  1
  Zn  Zn139  1  0.43559733  0.44249137  0.19085519  1
  Zn  Zn140  1  0.43974095  0.43952444  0.68430736  1
  Zn  Zn141  1  0.43478313  0.93975238  0.18698515  1
  Zn  Zn142  1  0.43473013  0.93740688  0.68668851  1
  Zn  Zn143  1  0.93941756  0.44115286  0.18478526  1
  Zn  Zn144  1  0.93834825  0.43690703  0.68419683  1
  Zn  Zn145  1  0.94303624  0.93532189  0.18412883  1
  Zn  Zn146  1  0.93758312  0.93824661  0.68648261  1
  Zn  Zn147  1  0.06347380  0.07184415  0.31554357  1
  Zn  Zn148  1  0.06585457  0.06072628  0.81170209  1
  Zn  Zn149  1  0.07029157  0.56174111  0.31515599  1
  Zn  Zn150  1  0.06467034  0.55880984  0.81130037  1
  Zn  Zn151  1  0.56335548  0.05820776  0.31442748  1
  Zn  Zn152  1  0.56149183  0.06518693  0.81212993  1
  Zn  Zn153  1  0.55852266  0.57088312  0.31197047  1
  Zn  Zn154  1  0.56111336  0.56253057  0.80959368  1
  Zn  Zn155  1  0.43806703  0.18807988  0.43910939  1
  Zn  Zn156  1  0.43522572  0.18637506  0.93898289  1
  Zn  Zn157  1  0.44289829  0.69283595  0.43437045  1
  Zn  Zn158  1  0.43676165  0.68534240  0.93610014  1
  Zn  Zn159  1  0.93207911  0.18047451  0.44289202  1
  Zn  Zn160  1  0.93758291  0.19031755  0.93841026  1
  Zn  Zn161  1  0.93932016  0.68744487  0.43519048  1
  Zn  Zn162  1  0.93679207  0.69051749  0.93594287  1
  Zn  Zn163  1  0.06192552  0.31404496  0.12842696  1
  Zn  Zn164  1  0.06201413  0.31177222  0.44475791  1
  Zn  Zn165  1  0.06193667  0.80628101  0.06095054  1
  Zn  Zn166  1  0.06714374  0.81331090  0.56033742  1
  Zn  Zn167  1  0.56066832  0.31416465  0.06157321  1
  Zn  Zn168  1  0.56227400  0.31775673  0.56330883  1
  Zn  Zn169  1  0.56177726  0.81106188  0.06464518  1
  Zn  Zn170  1  0.55889526  0.81423382  0.55783915  1
  O  O171  1  0.11512948  0.12346743  0.11704848  1
  O  O172  1  0.11760795  0.12053075  0.62155538  1
  O  O173  1  0.12683351  0.61481905  0.11522186  1
  O  O174  1  0.11982266  0.61923881  0.61554056  1
  O  O175  1  0.61694712  0.12318741  0.11910151  1
  O  O176  1  0.61951401  0.12079159  0.62126594  1
  O  O177  1  0.62629656  0.61107089  0.12155128  1
  O  O178  1  0.62504521  0.61030865  0.62798150  1
  O  O179  1  0.38152020  0.38322348  0.37836253  1
  O  O180  1  0.37219360  0.38130547  0.88721598  1
  O  O181  1  0.38011561  0.87841845  0.38616867  1
  O  O182  1  0.38205052  0.88092666  0.88518956  1
  O  O183  1  0.87299917  0.37216650  0.38898303  1
  O  O184  1  0.89054764  0.37172577  0.87782134  1
  O  O185  1  0.86759812  0.88397755  0.38248065  1
  O  O186  1  0.88319087  0.88029923  0.87972054  1
  O  O187  1  0.24832300  0.00353235  0.36349161  1
  O  O188  1  0.25607187  -0.00032140  0.86340483  1
  O  O189  1  0.26133665  0.50279366  0.37439770  1
  O  O190  1  0.26072717  0.49909029  0.86654207  1
  O  O191  1  0.74642953  0.00567036  0.37734345  1
  O  O192  1  0.75188012  0.00333422  0.86837301  1
  O  O193  1  0.75581994  0.50321342  0.36964711  1
  O  O194  1  0.74933017  0.51449616  0.87290462  1
  O  O195  1  0.24212623  0.49442047  0.12113605  1
  O  O196  1  0.24589677  0.49522756  0.63088544  1
  O  O197  1  0.24635428  0.99370653  0.13561500  1
  O  O198  1  0.25153723  0.99285819  0.63680854  1
  O  O199  1  0.74119284  0.49414686  0.13066565  1
  O  O200  1  0.73784719  0.49759053  0.63102644  1
  O  O201  1  0.73506483  1.00474353  0.11928869  1
  O  O202  1  0.74126146  0.99250396  0.63344056  1
  O  O203  1  0.00944522  0.36517385  0.22629331  1
  O  O204  1  -0.00214781  0.36232949  0.75273560  1
  O  O205  1  -0.00653287  0.87239915  0.25765356  1
  O  O206  1  0.00972359  0.87151366  0.75332176  1
  O  O207  1  0.50498268  0.36917609  0.25688599  1
  O  O208  1  0.51243233  0.37427117  0.74903903  1
  O  O209  1  0.48929045  0.87654893  0.26321891  1
  O  O210  1  0.49019664  0.86673035  0.76144649  1
  O  O211  1  0.49130389  0.12917549  0.24974535  1
  O  O212  1  0.49026476  0.12121592  0.74160164  1
  O  O213  1  0.48620620  0.62767677  0.24763890  1
  O  O214  1  0.49338559  0.63458404  0.74895785  1
  O  O215  1  0.98893511  0.12532864  0.24214999  1
  O  O216  1  0.99407722  0.12631058  0.74593030  1
  O  O217  1  0.98910987  0.62178974  0.25297155  1
  O  O218  1  0.99621288  0.62982675  0.74542859  1
  O  O219  1  0.37178013  0.25826054  0.00528578  1
  O  O220  1  0.37702934  0.26510602  0.50065333  1
  O  O221  1  0.36889730  0.75840676  -0.00018240  1
  O  O222  1  0.36253709  0.76041782  0.49232651  1
  O  O223  1  0.86069798  0.24887349  0.00583527  1
  O  O224  1  0.87953335  0.25974475  0.51041960  1
  O  O225  1  0.86584776  0.75791246  -0.00157172  1
  O  O226  1  0.87019487  0.76176311  0.50459958  1
  O  O227  1  0.12326668  0.23669147  0.51197378  1
  O  O228  1  0.12895735  0.23649857  0.99328644  1
  O  O229  1  0.13397676  0.74371874  0.49463016  1
  O  O230  1  0.13426210  0.73505836  1.00364372  1
  O  O231  1  0.62183999  0.24493588  0.49033385  1
  O  O232  1  0.63370943  0.24711564  0.99583228  1
  O  O233  1  0.63888941  0.75380984  0.49991550  1
  O  O234  1  0.63089708  0.75010260  0.98872940  1
  O  O235  1  0.49527875  0.24442098  0.13179462  1
  O  O236  1  0.50005751  0.23857097  0.62465658  1
  O  O237  1  0.49333860  0.74772402  0.12645991  1
  O  O238  1  0.50895357  0.74896434  0.63808479  1
  O  O239  1  0.98136620  0.23418140  0.10981279  1
  O  O240  1  0.98895991  0.23344371  0.63591149  1
  O  O241  1  0.99570079  0.74248739  0.12667195  1
  O  O242  1  0.99648868  0.74513624  0.62926451  1
  O  O243  1  0.00540971  0.23649721  0.38239986  1
  O  O244  1  0.00586990  0.25656090  0.86891164  1
  O  O245  1  0.01587958  0.75227636  0.37728982  1
  O  O246  1  -0.00392081  0.76349233  0.86584563  1
  O  O247  1  0.50707278  0.25696805  0.37001026  1
  O  O248  1  0.51352667  0.24821836  0.88381889  1
  O  O249  1  0.49974365  0.76755719  0.37136768  1
  O  O250  1  0.50719275  0.75606104  0.87025526  1
  O  O251  1  0.24490117  0.12281225  0.48874195  1
  O  O252  1  0.24280347  0.12970416  0.99954366  1
  O  O253  1  0.24381720  0.63476039  0.50843748  1
  O  O254  1  0.24449296  0.63446909  0.99516143  1
  O  O255  1  0.73853443  0.12233549  0.49176994  1
  O  O256  1  0.74441462  0.13215181  0.99371668  1
  O  O257  1  0.76169929  0.63316855  0.49333540  1
  O  O258  1  0.74718809  0.63497755  0.99121134  1
  O  O259  1  0.25948962  0.36971539  0.00619207  1
  O  O260  1  0.26157998  0.38110211  0.51319967  1
  O  O261  1  0.25561195  0.87139710  0.00487852  1
  O  O262  1  0.25828081  0.87037736  0.50680302  1
  O  O263  1  0.74855958  0.36619702  0.00602168  1
  O  O264  1  0.76836656  0.37605217  0.50729027  1
  O  O265  1  0.75983292  0.86470744  -0.01161495  1
  O  O266  1  0.75611895  0.86979293  0.51273833  1
  O  O267  1  0.12532465  0.49888004  0.23538915  1
  O  O268  1  0.13740778  0.50703402  0.73926823  1
  O  O269  1  0.13852419  1.00679349  0.24933840  1
  O  O270  1  0.13485977  0.98900859  0.74870272  1
  O  O271  1  0.62846338  0.49426232  0.24300589  1
  O  O272  1  0.62611884  0.48751100  0.75014784  1
  O  O273  1  0.62393502  1.00581935  0.23435209  1
  O  O274  1  0.63657206  1.00384284  0.74574967  1
  O  O275  1  0.36254050  0.01402891  0.24481239  1
  O  O276  1  0.36847280  0.00724203  0.75533589  1
  O  O277  1  0.37804584  0.50827845  0.26515608  1
  O  O278  1  0.37250248  0.50581783  0.75651981  1
  O  O279  1  0.87442874  0.00745585  0.25293698  1
  O  O280  1  0.86415572  0.00346015  0.75363723  1
  O  O281  1  0.87097908  0.50636126  0.25179895  1
  O  O282  1  0.87682855  0.51186975  0.75280888  1
  O  O283  1  0.12214372  0.38213600  0.38220085  1
  O  O284  1  0.11638429  0.36230104  0.88149957  1
  O  O285  1  0.12462704  0.86062383  0.38199996  1
  O  O286  1  0.11693059  0.87898256  0.86493272  1
  O  O287  1  0.61992884  0.36875724  0.37378650  1
  O  O288  1  0.62688361  0.36802636  0.86367427  1
  O  O289  1  0.60754629  0.87663208  0.38273726  1
  O  O290  1  0.61287923  0.86893646  0.87834338  1
  O  O291  1  0.38066770  0.13072107  0.13315000  1
  O  O292  1  0.38288996  0.12738467  0.63122764  1
  O  O293  1  0.37536093  0.62223837  0.13751139  1
  O  O294  1  0.37987888  0.61673051  0.63678999  1
  O  O295  1  0.87727433  0.12855632  0.13368045  1
  O  O296  1  0.87981323  0.12793368  0.62939455  1
  O  O297  1  0.87528332  0.62370570  0.13925519  1
  O  O298  1  0.88183497  0.62828600  0.63106073  1
  O  O299  1  0.25850729  0.25550537  0.11776944  1
  O  O300  1  0.25135196  0.26498051  0.63440923  1
  O  O301  1  0.25417943  0.75995433  0.11498931  1
  O  O302  1  0.24761232  0.75905716  0.61396680  1
  O  O303  1  0.75624243  0.25060963  0.11949486  1
  O  O304  1  0.76407263  0.24553430  0.63066037  1
  O  O305  1  0.75166361  0.74532578  0.11151482  1
  O  O306  1  0.75397397  0.75494997  0.62278121  1
  O  O307  1  0.24935271  0.24025357  0.37105757  1
  O  O308  1  0.24143656  0.24982110  0.88092290  1
  O  O309  1  0.23860980  0.75378594  0.38553182  1
  O  O310  1  0.25286964  0.75333375  0.88777024  1
  O  O311  1  0.73859758  0.24003842  0.37241378  1
  O  O312  1  0.74457545  0.24576552  0.88230442  1
  O  O313  1  0.74739647  0.73947435  0.38794974  1
  O  O314  1  0.74298617  0.74194883  0.87787634  1
  O  O315  1  0.00535588  0.11864123  0.00322686  1
  O  O316  1  0.00580681  0.11687923  0.51069747  1
  O  O317  1  0.01522174  0.62998329  -0.00603197  1
  O  O318  1  0.00572699  0.61916666  0.50701336  1
  O  O319  1  0.50358465  0.11958432  0.00704363  1
  O  O320  1  0.51143182  0.12722484  0.50821121  1
  O  O321  1  0.49980916  0.61176056  0.00305709  1
  O  O322  1  0.49530464  0.62300364  0.49772718  1
  O  O323  1  0.49236770  0.37324270  0.49036430  1
  O  O324  1  0.49024351  0.38746559  1.00555405  1
  O  O325  1  0.48493836  0.87447899  0.49524489  1
  O  O326  1  0.49150796  0.87918346  0.99238763  1
  O  O327  1  0.98744555  0.38327580  0.50493970  1
  O  O328  1  0.99916097  0.36783409  0.98953705  1
  O  O329  1  0.99229840  0.88267738  0.49893991  1
  O  O330  1  0.99682018  0.87929142  0.99039575  1
  O  O331  1  0.49912090  0.48901391  0.37014419  1
  O  O332  1  0.48808480  0.50281850  0.88185528  1
  O  O333  1  0.49792708  0.98829535  0.37556902  1
  O  O334  1  0.49738224  0.99250601  0.87994403  1
  O  O335  1  0.99863774  0.50665160  0.38915864  1
  O  O336  1  1.00463042  0.48053920  0.87008528  1
  O  O337  1  1.00256830  1.00359182  0.38942584  1
  O  O338  1  0.99504725  0.99025417  0.87580332  1
  O  O339  1  0.00081824  0.01106569  0.11649050  1
  O  O340  1  0.00007980  0.00974671  0.62000880  1
  O  O341  1  0.01593711  0.50593499  0.12066410  1
  O  O342  1  0.00882356  0.50441563  0.61920217  1
  O  O343  1  0.50398371  0.00710813  0.11960048  1
  O  O344  1  0.51150138  0.00707466  0.63403366  1
  O  O345  1  0.50838761  0.49951380  0.11853072  1
  O  O346  1  0.51787314  0.50207729  0.63002862  1
  O  O347  1  0.24734169  0.37068462  0.23501720  1
  O  O348  1  0.25803703  0.38939152  0.74129726  1
  O  O349  1  0.25760561  0.88807930  0.24382646  1
  O  O350  1  0.24819344  0.87794666  0.74436581  1
  O  O351  1  0.74386163  0.37985661  0.24578687  1
  O  O352  1  0.74141527  0.37670337  0.74776341  1
  O  O353  1  0.76523448  0.88806671  0.26375495  1
  O  O354  1  0.75559235  0.88042755  0.73986935  1
  O  O355  1  0.25419627  0.11879987  0.26145280  1
  O  O356  1  0.25660824  0.11602643  0.75011284  1
  O  O357  1  0.26353850  0.62432030  0.24671799  1
  O  O358  1  0.25893288  0.61708923  0.74939389  1
  O  O359  1  0.76122491  0.12694819  0.25996163  1
  O  O360  1  0.75469494  0.11653096  0.75554134  1
  O  O361  1  0.75999530  0.61662903  0.25772268  1
  O  O362  1  0.76022734  0.62524556  0.75754714  1
  O  O363  1  0.36290178  0.12945424  0.37003691  1
  O  O364  1  0.37377741  0.11852889  0.86847986  1
  O  O365  1  0.37389296  0.61569718  0.36638871  1
  O  O366  1  0.37210751  0.61685519  0.86525516  1
  O  O367  1  0.86151159  0.12444162  0.37060751  1
  O  O368  1  0.86915307  0.11881285  0.87077705  1
  O  O369  1  0.86821555  0.62350269  0.36465491  1
  O  O370  1  0.86887973  0.62692540  0.86600880  1
  O  O371  1  0.13741280  0.39594980  0.10715602  1
  O  O372  1  0.13490013  0.38921552  0.62099971  1
  O  O373  1  0.13722283  0.87743660  0.11737435  1
  O  O374  1  0.13739525  0.87734674  0.63202290  1
  O  O375  1  0.62914480  0.38194310  0.13032291  1
  O  O376  1  0.62661169  0.37976113  0.63632797  1
  O  O377  1  0.62284539  0.89082409  0.11841078  1
  O  O378  1  0.63196583  0.88330367  0.62128817  1
  O  O379  1  0.11425395  0.26031633  0.22370559  1
  O  O380  1  0.11443712  0.24239352  0.76140775  1
  O  O381  1  0.12788958  0.74030600  0.26560804  1
  O  O382  1  0.12393567  0.76049773  0.74522798  1
  O  O383  1  0.61970567  0.25419003  0.26015063  1
  O  O384  1  0.62650145  0.26141806  0.75982458  1
  O  O385  1  0.62305545  0.74665932  0.25728587  1
  O  O386  1  0.61835124  0.74812334  0.76252463  1
  O  O387  1  0.37953180  0.24166951  0.24532226  1
  O  O388  1  0.37036708  0.23761915  0.75099488  1
  O  O389  1  0.37303706  0.73675786  0.25017250  1
  O  O390  1  0.38540392  0.73982032  0.75429840  1
  O  O391  1  0.87689948  0.24261606  0.24211713  1
  O  O392  1  0.88240967  0.24251951  0.74660250  1
  O  O393  1  0.87831020  0.73445990  0.24666302  1
  O  O394  1  0.88192413  0.73991801  0.74329281  1
  O  O395  1  0.37454880  0.49104765  0.48301158  1
  O  O396  1  0.37922561  0.49509484  0.99273232  1
  O  O397  1  0.37055405  0.98789108  0.50196865  1
  O  O398  1  0.37952747  0.99436489  0.99470676  1
  O  O399  1  0.88417986  0.48754822  0.50197603  1
  O  O400  1  0.87229874  0.49864160  0.99470244  1
  O  O401  1  0.88143420  0.98755057  0.50932099  1
  O  O402  1  0.87995966  0.99456580  0.99150796  1
  O  O403  1  0.12013616  0.01144538  -0.00174377  1
  O  O404  1  0.11744758  0.00603584  0.50468217  1
  O  O405  1  0.13313982  0.51734424  0.00348352  1
  O  O406  1  0.11917763  0.50897160  0.50791867  1
  O  O407  1  0.61754158  0.00855028  0.00437717  1
  O  O408  1  0.62730753  0.01063646  0.51509299  1
  O  O409  1  0.61669900  0.49792908  0.00627921  1
  O  O410  1  0.62938312  0.49127529  0.51415934  1
  O  O411  1  0.36869183  0.37427734  0.11780630  1
  O  O412  1  0.37051882  0.37580570  0.61701781  1
  O  O413  1  0.36583649  0.87912328  0.11222962  1
  O  O414  1  0.36606734  0.87725424  0.61542645  1
  O  O415  1  0.86642947  0.36515865  0.12355037  1
  O  O416  1  0.87473023  0.36443814  0.61961552  1
  O  O417  1  0.87757779  0.87672870  0.10737260  1
  O  O418  1  0.86820751  0.86869712  0.62057991  1
  O  O419  1  0.14030324  0.12380794  0.38427361  1
  O  O420  1  0.12567257  0.13306008  0.88169021  1
  O  O421  1  0.12379321  0.63296850  0.38969252  1
  O  O422  1  0.12987972  0.62227525  0.88379927  1
  O  O423  1  0.62828354  0.13036898  0.38319266  1
  O  O424  1  0.63004771  0.13274763  0.88032280  1
  O  O425  1  0.64077355  0.62101739  0.37413816  1
  O  O426  1  0.63173309  0.63258240  0.87588029  1
