# generated using pymatgen
data_V85Zn86O256
_symmetry_space_group_name_H-M   'P 1'
_cell_length_a   16.92782854
_cell_length_b   16.93983116
_cell_length_c   16.93154630
_cell_angle_alpha   89.98549980
_cell_angle_beta   90.06474869
_cell_angle_gamma   89.99102683
_symmetry_Int_Tables_number   1
_chemical_formula_structural   V85Zn86O256
_chemical_formula_sum   'V85 Zn86 O256'
_cell_volume   4855.19474996
_cell_formula_units_Z   1
loop_
 _symmetry_equiv_pos_site_id
 _symmetry_equiv_pos_as_xyz
  1  'x, y, z'
loop_
 _atom_site_type_symbol
 _atom_site_label
 _atom_site_symmetry_multiplicity
 _atom_site_fract_x
 _atom_site_fract_y
 _atom_site_fract_z
 _atom_site_occupancy
  V  V0  1  0.87166355  -0.00419888  0.87699167  1
  V  V1  1  -0.00571524  -0.00353638  0.00080083  1
  V  V2  1  0.74854124  -0.00037653  0.74750573  1
  V  V3  1  0.36788016  0.25535479  0.12474816  1
  V  V4  1  0.12660937  0.62329641  0.49747733  1
  V  V5  1  0.49733636  0.50112165  0.00166071  1
  V  V6  1  0.62488306  0.37380285  0.25809085  1
  V  V7  1  0.14020324  0.74990138  0.87858656  1
  V  V8  1  0.74319567  0.62573551  0.86925349  1
  V  V9  1  0.24502634  0.13232742  0.37337540  1
  V  V10  1  0.12506754  0.37432340  0.75090109  1
  V  V11  1  0.74895000  0.86868126  0.62538841  1
  V  V12  1  0.25193985  0.62172526  0.37098483  1
  V  V13  1  0.74992509  0.62447096  0.37303145  1
  V  V14  1  -0.00433077  0.12334181  0.12758348  1
  V  V15  1  0.37148756  0.13490015  0.74465424  1
  V  V16  1  0.49995163  0.12373319  0.12388332  1
  V  V17  1  0.62723760  0.00270923  0.61678405  1
  V  V18  1  0.87414883  0.12523748  0.74721260  1
  V  V19  1  0.63447620  -0.00119759  0.12318221  1
  V  V20  1  0.62634872  0.62665398  0.00322984  1
  V  V21  1  0.61028590  0.75728544  0.87300885  1
  V  V22  1  0.00146823  0.87294804  0.37227371  1
  V  V23  1  0.23968725  0.88094786  0.62525120  1
  V  V24  1  0.38422903  0.62753300  0.25118158  1
  V  V25  1  0.87477037  0.62615374  0.75195465  1
  V  V26  1  0.12444361  -0.00800496  0.12770327  1
  V  V27  1  0.13044804  0.48765028  0.12388405  1
  V  V28  1  0.00210532  0.62342129  0.12300374  1
  V  V29  1  0.87524909  0.37511343  0.00661926  1
  V  V30  1  0.75360292  0.14111315  0.37011471  1
  V  V31  1  0.63219645  0.14321279  0.49398450  1
  V  V32  1  0.87074030  0.00039132  0.36781566  1
  V  V33  1  0.00924638  0.24502890  0.25905301  1
  V  V34  1  0.37102603  0.87194876  -0.00928181  1
  V  V35  1  0.38527734  0.75281547  0.12715646  1
  V  V36  1  0.00353839  0.62465243  0.62482193  1
  V  V37  1  0.49781843  0.50214532  0.50374176  1
  V  V38  1  0.12630350  0.49610771  0.62385519  1
  V  V39  1  0.62995746  0.50064043  0.13220070  1
  V  V40  1  0.24626211  -0.00851680  0.25072027  1
  V  V41  1  0.25703852  0.36772018  0.62890916  1
  V  V42  1  0.50933332  0.36801715  0.88111937  1
  V  V43  1  0.00431405  0.75010787  0.75377780  1
  V  V44  1  0.00089595  0.50343272  0.00049614  1
  V  V45  1  0.13262041  0.36826703  0.26685225  1
  V  V46  1  0.87207468  0.76085700  0.12183278  1
  V  V47  1  0.37644105  0.87388540  0.50127779  1
  V  V48  1  0.62315220  0.50019793  0.63620062  1
  V  V49  1  0.75140362  0.37780243  0.12783293  1
  V  V50  1  -0.00246958  0.37532152  0.87570958  1
  V  V51  1  0.12321038  0.13272489  0.49746000  1
  V  V52  1  0.00404897  0.11945150  0.62642884  1
  V  V53  1  0.24891022  0.86656083  0.12135372  1
  V  V54  1  0.12655146  0.75422262  0.36944065  1
  V  V55  1  0.74551273  0.13328760  0.87278931  1
  V  V56  1  0.87346822  0.50148026  0.87702322  1
  V  V57  1  0.14093076  0.62951265  -0.00107145  1
  V  V58  1  0.36897309  0.37793695  -0.00153299  1
  V  V59  1  0.50752000  0.24990150  0.75412925  1
  V  V60  1  0.62171677  0.62958631  0.51173251  1
  V  V61  1  0.49699492  0.13264250  0.62077414  1
  V  V62  1  0.12750907  0.12439111  -0.00099935  1
  V  V63  1  0.25540712  0.50605235  0.76549908  1
  V  V64  1  0.00220338  0.75284279  0.24751198  1
  V  V65  1  0.60779297  0.87364248  0.74877980  1
  V  V66  1  -0.00341127  0.25131105  0.74895327  1
  V  V67  1  0.87438036  0.24591052  0.13468148  1
  V  V68  1  0.50297625  0.24927908  0.25572548  1
  V  V69  1  0.62219640  0.13390150  -0.00449135  1
  V  V70  1  0.75656902  0.37073633  0.61337818  1
  V  V71  1  0.62618597  0.86852032  0.24134162  1
  V  V72  1  0.37672823  0.36529279  0.50229009  1
  V  V73  1  -0.00460138  0.87155154  0.88043205  1
  V  V74  1  0.87688684  0.75073197  0.62512496  1
  V  V75  1  0.75236388  0.76442304  0.00053285  1
  V  V76  1  -0.00986245  0.49142433  0.48475139  1
  V  V77  1  0.61586935  0.74928109  0.37179677  1
  V  V78  1  0.37431932  0.00263016  0.86914202  1
  V  V79  1  0.00790789  -0.00414103  0.50268738  1
  V  V80  1  0.37468481  0.12361077  0.24800752  1
  V  V81  1  0.87565079  0.87446024  0.49850759  1
  V  V82  1  0.87216925  0.61664035  0.24974932  1
  V  V83  1  0.37745772  -0.00076041  0.37281541  1
  V  V84  1  0.49923404  -0.00465597  -0.00507317  1
  Zn  Zn85  1  0.49764848  0.87251267  0.36782870  1
  Zn  Zn86  1  0.87391157  0.25147539  0.60886046  1
  Zn  Zn87  1  0.50197624  0.00438491  0.49415935  1
  Zn  Zn88  1  0.25248428  0.75073893  0.49914452  1
  Zn  Zn89  1  0.25657385  0.49308209  0.24487235  1
  Zn  Zn90  1  0.63185125  0.36859815  0.75612698  1
  Zn  Zn91  1  0.24751875  0.25132475  0.50023223  1
  Zn  Zn92  1  0.50540267  0.62934947  0.13157788  1
  Zn  Zn93  1  0.24859760  0.12858199  0.87222030  1
  Zn  Zn94  1  0.37759397  0.49727802  0.37334581  1
  Zn  Zn95  1  0.75215376  0.00074876  0.24817668  1
  Zn  Zn96  1  0.12250617  0.88196487  0.74838767  1
  Zn  Zn97  1  0.38746143  0.74907294  0.63218845  1
  Zn  Zn98  1  0.38772954  0.62801851  0.75347307  1
  Zn  Zn99  1  0.74830446  0.25202119  -0.00114505  1
  Zn  Zn100  1  0.12613152  0.24993202  0.87729220  1
  Zn  Zn101  1  0.79033690  0.45747802  0.30452931  1
  Zn  Zn102  1  0.24683228  0.25445491  0.00084197  1
  Zn  Zn103  1  0.75110613  0.75035439  0.49583761  1
  Zn  Zn104  1  0.75244423  0.49549551  0.74834776  1
  Zn  Zn105  1  0.24164692  0.00697233  0.74306469  1
  Zn  Zn106  1  0.50162226  0.37130922  0.37830950  1
  Zn  Zn107  1  0.18682286  0.18217907  0.18533632  1
  Zn  Zn108  1  0.18206755  0.18776678  0.68592349  1
  Zn  Zn109  1  0.19081365  0.68531088  0.18798326  1
  Zn  Zn110  1  0.22784428  0.67150774  0.66849857  1
  Zn  Zn111  1  0.68784755  0.18792836  0.18903845  1
  Zn  Zn112  1  0.68844366  0.19056128  0.68239782  1
  Zn  Zn113  1  0.69213692  0.69050252  0.18754297  1
  Zn  Zn114  1  0.55281252  0.68898889  0.68812794  1
  Zn  Zn115  1  0.31476555  0.31310249  0.31339041  1
  Zn  Zn116  1  0.31547187  0.31327631  0.81854911  1
  Zn  Zn117  1  0.31296335  0.81057460  0.31048076  1
  Zn  Zn118  1  0.31966851  0.81396128  0.80272361  1
  Zn  Zn119  1  0.84165090  0.33004673  0.43054985  1
  Zn  Zn120  1  0.81337511  0.31474884  0.80843114  1
  Zn  Zn121  1  0.80841797  0.81018091  0.30827673  1
  Zn  Zn122  1  0.80712323  0.81206318  0.81208411  1
  Zn  Zn123  1  0.19092057  0.43958416  0.44063290  1
  Zn  Zn124  1  0.18436610  0.43490780  0.94049112  1
  Zn  Zn125  1  0.18855148  0.93891569  0.43768247  1
  Zn  Zn126  1  0.18783657  0.93895758  0.93279143  1
  Zn  Zn127  1  0.68045011  0.43940296  0.44612282  1
  Zn  Zn128  1  0.68492777  0.43858228  0.94022150  1
  Zn  Zn129  1  0.68846652  0.93520309  0.43357730  1
  Zn  Zn130  1  0.68314637  0.94091813  0.93288724  1
  Zn  Zn131  1  0.31203100  0.05937063  0.06259645  1
  Zn  Zn132  1  0.31231520  0.06209732  0.56010199  1
  Zn  Zn133  1  0.31520134  0.56389543  0.06442237  1
  Zn  Zn134  1  0.31577217  0.55687000  0.56476145  1
  Zn  Zn135  1  0.81217889  0.06542267  0.05955715  1
  Zn  Zn136  1  0.81513104  0.06344223  0.55624355  1
  Zn  Zn137  1  0.81149184  0.56644337  0.06378626  1
  Zn  Zn138  1  0.80896644  0.56329325  0.56177794  1
  Zn  Zn139  1  0.43957967  0.43874328  0.18591997  1
  Zn  Zn140  1  0.43964785  0.44246850  0.69294865  1
  Zn  Zn141  1  0.44179093  0.93615996  0.18523494  1
  Zn  Zn142  1  0.43273999  0.94637713  0.67975207  1
  Zn  Zn143  1  0.91798643  0.40091782  0.24099878  1
  Zn  Zn144  1  0.93666369  0.44049571  0.68466408  1
  Zn  Zn145  1  0.93719206  0.93503427  0.18907383  1
  Zn  Zn146  1  0.93874073  0.93743394  0.68947523  1
  Zn  Zn147  1  0.06342312  0.05917354  0.31270912  1
  Zn  Zn148  1  0.06303843  0.06105817  0.81364385  1
  Zn  Zn149  1  0.06480022  0.56144974  0.30709483  1
  Zn  Zn150  1  0.06904756  0.56465537  0.81319879  1
  Zn  Zn151  1  0.56836426  0.06338561  0.31060334  1
  Zn  Zn152  1  0.56011812  0.06152274  0.80945706  1
  Zn  Zn153  1  0.56362762  0.55997088  0.31833881  1
  Zn  Zn154  1  0.52380100  0.58050371  0.83601149  1
  Zn  Zn155  1  0.43634537  0.18662664  0.43691871  1
  Zn  Zn156  1  0.43479256  0.18847068  0.93570429  1
  Zn  Zn157  1  0.43894986  0.68738474  0.44257459  1
  Zn  Zn158  1  0.42408184  0.69129231  0.93757100  1
  Zn  Zn159  1  0.93785040  0.18029754  0.43523129  1
  Zn  Zn160  1  0.93538733  0.18716678  0.93994194  1
  Zn  Zn161  1  0.93749765  0.68185809  0.43613540  1
  Zn  Zn162  1  0.93522289  0.68703759  0.94024562  1
  Zn  Zn163  1  0.05901120  0.31034532  0.06311103  1
  Zn  Zn164  1  0.05507218  0.31213887  0.55995509  1
  Zn  Zn165  1  0.06250079  0.81132413  0.05915849  1
  Zn  Zn166  1  0.06637569  0.80890381  0.56081445  1
  Zn  Zn167  1  0.55863817  0.31271542  0.07001827  1
  Zn  Zn168  1  0.56249140  0.31663348  0.56775089  1
  Zn  Zn169  1  0.56190367  0.81524969  0.05889975  1
  Zn  Zn170  1  0.56233325  0.81971292  0.55309672  1
  O  O171  1  0.11851676  0.11067283  0.11764523  1
  O  O172  1  0.11120672  0.12520721  0.61688755  1
  O  O173  1  0.11924710  0.62549339  0.11647607  1
  O  O174  1  0.12755158  0.61812033  0.61496411  1
  O  O175  1  0.62014103  0.11747557  0.11663891  1
  O  O176  1  0.62401671  0.12093291  0.61122920  1
  O  O177  1  0.62767772  0.61958736  0.12125736  1
  O  O178  1  0.63086723  0.61907140  0.61422082  1
  O  O179  1  0.37588098  0.37773298  0.38575389  1
  O  O180  1  0.39107731  0.37047260  0.88928687  1
  O  O181  1  0.37450766  0.88334082  0.37749631  1
  O  O182  1  0.36778847  0.88428423  0.88433437  1
  O  O183  1  0.87026143  0.39062781  0.34457965  1
  O  O184  1  0.87893924  0.38194666  0.88238089  1
  O  O185  1  0.88008942  0.87721609  0.37970284  1
  O  O186  1  0.87825901  0.88799984  0.86975716  1
  O  O187  1  0.25802815  0.00418598  0.36681398  1
  O  O188  1  0.26263598  0.00594399  0.87359622  1
  O  O189  1  0.25014367  0.51216795  0.37102563  1
  O  O190  1  0.24647193  0.49061346  0.86342077  1
  O  O191  1  0.75901766  0.00384757  0.37470087  1
  O  O192  1  0.75631639  0.00846092  0.87011801  1
  O  O193  1  0.73420659  0.51869720  0.37892656  1
  O  O194  1  0.75409847  0.50861310  0.87677447  1
  O  O195  1  0.23324710  0.50814920  0.12787407  1
  O  O196  1  0.23669096  0.48891716  0.63064427  1
  O  O197  1  0.24231803  0.99225182  0.13170041  1
  O  O198  1  0.25399254  0.98598654  0.62286527  1
  O  O199  1  0.74211987  0.49204725  0.11995761  1
  O  O200  1  0.74205088  0.49221521  0.62448799  1
  O  O201  1  0.73827104  1.00491383  0.12311827  1
  O  O202  1  0.74569565  0.99354856  0.62619458  1
  O  O203  1  0.02115092  0.35509595  0.24222974  1
  O  O204  1  0.00200742  0.36830023  0.75373907  1
  O  O205  1  -0.00178255  0.86026857  0.25455583  1
  O  O206  1  -0.00124905  0.86776423  0.76124044  1
  O  O207  1  0.50672232  0.36667443  0.25043328  1
  O  O208  1  0.50180565  0.36723632  0.76130899  1
  O  O209  1  0.51833991  0.88122298  0.25173641  1
  O  O210  1  0.50988418  0.88821067  0.74360527  1
  O  O211  1  0.49708195  0.13023375  0.24391347  1
  O  O212  1  0.49517990  0.13134701  0.74095711  1
  O  O213  1  0.48859484  0.62098590  0.25120158  1
  O  O214  1  0.50203839  0.59913916  0.72912028  1
  O  O215  1  1.01178498  0.13202694  0.23706454  1
  O  O216  1  0.99575227  0.13049998  0.74355908  1
  O  O217  1  0.99527132  0.63353979  0.24224211  1
  O  O218  1  0.99740808  0.63255654  0.74541442  1
  O  O219  1  0.37561789  0.25799264  0.00867937  1
  O  O220  1  0.37297021  0.26100315  0.49905937  1
  O  O221  1  0.37490926  0.76226735  0.00874137  1
  O  O222  1  0.37246301  0.76532597  0.49450038  1
  O  O223  1  0.87682661  0.25795650  0.01355489  1
  O  O224  1  0.88867412  0.25662128  0.49715316  1
  O  O225  1  0.86012331  0.74661774  0.00487419  1
  O  O226  1  0.87756145  0.75613298  0.50711209  1
  O  O227  1  0.12228882  0.23639888  0.50056792  1
  O  O228  1  0.12561023  0.23887331  1.00294673  1
  O  O229  1  0.12537545  0.73904136  0.48905179  1
  O  O230  1  0.12384000  0.74414768  0.98768533  1
  O  O231  1  0.62426333  0.24108246  0.49987088  1
  O  O232  1  0.62372764  0.23634356  1.00698353  1
  O  O233  1  0.62824473  0.74480079  0.48939703  1
  O  O234  1  0.63532459  0.74635034  0.99801097  1
  O  O235  1  0.48999410  0.24149284  0.13337246  1
  O  O236  1  0.50395259  0.23896911  0.63196115  1
  O  O237  1  0.48942616  0.75069948  0.12225032  1
  O  O238  1  0.50022519  0.74982067  0.61126893  1
  O  O239  1  0.99726233  0.23740984  0.12770250  1
  O  O240  1  0.99684973  0.24175910  0.63374457  1
  O  O241  1  0.99608923  0.74279046  0.12851690  1
  O  O242  1  0.99925590  0.74511474  0.63471507  1
  O  O243  1  0.00488363  0.23546739  0.35689621  1
  O  O244  1  -0.00253758  0.25704490  0.86815395  1
  O  O245  1  0.00619907  0.75157402  0.36635521  1
  O  O246  1  -0.00439764  0.75812938  0.87096271  1
  O  O247  1  0.49583667  0.24907586  0.35978484  1
  O  O248  1  0.50045247  0.25481679  0.86744896  1
  O  O249  1  0.51218822  0.74977476  0.37551728  1
  O  O250  1  0.51365086  0.75849372  0.89359791  1
  O  O251  1  0.24078407  0.12527329  0.49299580  1
  O  O252  1  0.23577035  0.12053020  1.00143308  1
  O  O253  1  0.23946517  0.62359597  0.49045820  1
  O  O254  1  0.24041772  0.62287783  0.99980128  1
  O  O255  1  0.73864226  0.12403178  0.49147446  1
  O  O256  1  0.74048552  0.12662956  0.99040321  1
  O  O257  1  0.74116163  0.62982526  0.49305606  1
  O  O258  1  0.73987807  0.63073633  0.99173250  1
  O  O259  1  0.26459299  0.37664824  -0.00118206  1
  O  O260  1  0.25719596  0.37392314  0.50885622  1
  O  O261  1  0.25980945  0.88535165  0.00999402  1
  O  O262  1  0.25703307  0.87695577  0.50573655  1
  O  O263  1  0.75524243  0.37194486  0.01066774  1
  O  O264  1  0.75448838  0.37765812  0.50808260  1
  O  O265  1  0.74648467  0.86288939  -0.00652033  1
  O  O266  1  0.75807121  0.87433954  0.50691197  1
  O  O267  1  0.12407713  0.48378477  0.24088271  1
  O  O268  1  0.12850256  0.49129083  0.74355643  1
  O  O269  1  0.13272632  0.99963213  0.23990064  1
  O  O270  1  0.12845154  0.99490830  0.75611904  1
  O  O271  1  0.61803077  0.49242534  0.23929083  1
  O  O272  1  0.62874994  0.49610041  0.73833075  1
  O  O273  1  0.62701350  0.99328722  0.23833621  1
  O  O274  1  0.63058522  0.99781580  0.73665993  1
  O  O275  1  0.36812108  0.00456388  0.25241861  1
  O  O276  1  0.37393292  0.01327713  0.75545392  1
  O  O277  1  0.37376986  0.50809589  0.25056008  1
  O  O278  1  0.35708162  0.50099336  0.74595345  1
  O  O279  1  0.87481157  -0.00451711  0.26282656  1
  O  O280  1  0.86900745  0.00616964  0.75661639  1
  O  O281  1  0.87689634  0.51431955  0.23969902  1
  O  O282  1  0.87506576  0.50970951  0.75770700  1
  O  O283  1  0.12949885  0.37460743  0.36512246  1
  O  O284  1  0.11335180  0.37352264  0.87021875  1
  O  O285  1  0.12022807  0.86159501  0.37968384  1
  O  O286  1  0.11505614  0.86324743  0.87816217  1
  O  O287  1  0.62642179  0.37896368  0.36149021  1
  O  O288  1  0.61611231  0.37014389  0.87794248  1
  O  O289  1  0.62325864  0.86634584  0.36597323  1
  O  O290  1  0.62995388  0.86952341  0.86037121  1
  O  O291  1  0.38090329  0.12748553  0.13018587  1
  O  O292  1  0.38533622  0.12111944  0.62976457  1
  O  O293  1  0.37714384  0.63553644  0.13233621  1
  O  O294  1  0.33978274  0.63765805  0.63634549  1
  O  O295  1  0.88525711  0.12998647  0.12173141  1
  O  O296  1  0.88393127  0.12607530  0.62905442  1
  O  O297  1  0.88413228  0.63336753  0.12818422  1
  O  O298  1  0.88019739  0.63242435  0.63212458  1
  O  O299  1  0.26432891  0.24106367  0.12254722  1
  O  O300  1  0.24251828  0.26430774  0.62333103  1
  O  O301  1  0.25532376  0.76360380  0.12959011  1
  O  O302  1  0.25028591  0.77014135  0.61641246  1
  O  O303  1  0.75938984  0.25489508  0.12497044  1
  O  O304  1  0.75357540  0.26528371  0.62477350  1
  O  O305  1  0.75713139  0.74743540  0.10949386  1
  O  O306  1  0.75661177  0.76494084  0.62317459  1
  O  O307  1  0.25292221  0.23514210  0.37542444  1
  O  O308  1  0.24570368  0.24721505  0.88126230  1
  O  O309  1  0.24212534  0.74071471  0.37428747  1
  O  O310  1  0.23745532  0.75838976  0.87085176  1
  O  O311  1  0.75948624  0.23806117  0.37264976  1
  O  O312  1  0.75820622  0.23657959  0.87636906  1
  O  O313  1  0.73952851  0.74122907  0.37426467  1
  O  O314  1  0.74344305  0.74429372  0.88443923  1
  O  O315  1  0.00652007  0.11704643  0.00833163  1
  O  O316  1  0.00604167  0.11506017  0.50569407  1
  O  O317  1  0.00566996  0.62162407  0.00694514  1
  O  O318  1  0.01195330  0.62102310  0.50583235  1
  O  O319  1  0.50476625  0.11676525  0.00263777  1
  O  O320  1  0.51204653  0.12595235  0.50280723  1
  O  O321  1  0.51431684  0.61867503  0.00671433  1
  O  O322  1  0.50893722  0.61505549  0.49760120  1
  O  O323  1  0.49310333  0.37752164  0.49857879  1
  O  O324  1  0.49560728  0.37886672  0.99862198  1
  O  O325  1  0.49073733  0.88534552  0.48970816  1
  O  O326  1  0.49001130  0.88926381  1.00444656  1
  O  O327  1  1.00217735  0.39207098  0.50044818  1
  O  O328  1  0.99413780  0.38289168  0.99663812  1
  O  O329  1  0.99615627  0.87891753  0.49520653  1
  O  O330  1  0.99872804  0.88077022  0.98898429  1
  O  O331  1  0.50024445  0.49426582  0.39001060  1
  O  O332  1  0.51483772  0.48461728  0.89758809  1
  O  O333  1  0.48614545  1.00504600  0.37078679  1
  O  O334  1  0.48738641  1.00534630  0.88229438  1
  O  O335  1  1.00394443  0.50702422  0.38600048  1
  O  O336  1  0.99524153  0.49617810  0.88012619  1
  O  O337  1  0.99406414  0.99209159  0.37964506  1
  O  O338  1  0.99118225  0.99344630  0.88257813  1
  O  O339  1  0.00408986  0.00165659  0.12000056  1
  O  O340  1  -0.00662061  0.00690398  0.61505986  1
  O  O341  1  0.01420993  0.51494791  0.12107907  1
  O  O342  1  0.01212959  0.50727734  0.62386488  1
  O  O343  1  0.50770051  0.00687204  0.11572817  1
  O  O344  1  0.51069839  0.01482932  0.62086298  1
  O  O345  1  0.51186038  0.50168472  0.11685765  1
  O  O346  1  0.51088510  0.48608310  0.61235466  1
  O  O347  1  0.23735602  0.37334797  0.25031128  1
  O  O348  1  0.24459809  0.37855130  0.74549121  1
  O  O349  1  0.25412370  0.88596674  0.24158050  1
  O  O350  1  0.24854807  0.87925956  0.73490961  1
  O  O351  1  0.73788521  0.37838387  0.23556369  1
  O  O352  1  0.74783599  0.37717167  0.74080411  1
  O  O353  1  0.73307568  0.88020252  0.25256205  1
  O  O354  1  0.74408823  0.88172438  0.74104815  1
  O  O355  1  0.25281124  0.11341179  0.25546607  1
  O  O356  1  0.25805645  0.12703480  0.74669853  1
  O  O357  1  0.26014114  0.62223007  0.25646150  1
  O  O358  1  0.23621714  0.60647360  0.76155449  1
  O  O359  1  0.74196745  0.12129224  0.26598820  1
  O  O360  1  0.75287107  0.12029344  0.75374424  1
  O  O361  1  0.75973350  0.62840604  0.25697046  1
  O  O362  1  0.75545110  0.62463776  0.76552259  1
  O  O363  1  0.36671147  0.11779652  0.36893715  1
  O  O364  1  0.37314895  0.11974409  0.86469672  1
  O  O365  1  0.36792845  0.62548591  0.36933597  1
  O  O366  1  0.41268937  0.61092432  0.86709050  1
  O  O367  1  0.86100947  0.11403264  0.37990933  1
  O  O368  1  0.86955128  0.11478698  0.86973296  1
  O  O369  1  0.86427355  0.63115615  0.36353996  1
  O  O370  1  0.86619553  0.62059466  0.87277139  1
  O  O371  1  0.12528176  0.38671777  0.11992313  1
  O  O372  1  0.12733820  0.38073380  0.63103104  1
  O  O373  1  0.13159224  0.88433268  0.11698038  1
  O  O374  1  0.13512153  0.87582135  0.62351903  1
  O  O375  1  0.63160156  0.38248727  0.12928617  1
  O  O376  1  0.63816858  0.38282403  0.62480749  1
  O  O377  1  0.62277334  0.88179995  0.13284095  1
  O  O378  1  0.63262004  0.88353966  0.62759206  1
  O  O379  1  0.12249616  0.25758968  0.24438670  1
  O  O380  1  0.11151920  0.25549657  0.75200561  1
  O  O381  1  0.11551757  0.74262527  0.25773056  1
  O  O382  1  0.11142289  0.75411697  0.76462777  1
  O  O383  1  0.61428420  0.26104350  0.23967044  1
  O  O384  1  0.61239605  0.24818640  0.74690557  1
  O  O385  1  0.62705640  0.76078703  0.25272971  1
  O  O386  1  0.61632545  0.76037203  0.76006112  1
  O  O387  1  0.38020630  0.24379735  0.24291131  1
  O  O388  1  0.38569929  0.23950569  0.75358949  1
  O  O389  1  0.37227579  0.74223206  0.23978390  1
  O  O390  1  0.38212567  0.74406496  0.74820710  1
  O  O391  1  0.89787585  0.25204203  0.23666563  1
  O  O392  1  0.88549234  0.24331632  0.74866527  1
  O  O393  1  0.88089738  0.74229394  0.24030919  1
  O  O394  1  0.88412578  0.74623428  0.74691013  1
  O  O395  1  0.38225055  0.49092706  0.49994576  1
  O  O396  1  0.38649166  0.49092895  1.01197398  1
  O  O397  1  0.37560582  0.99339059  0.48833253  1
  O  O398  1  0.38168226  0.99607831  0.99276978  1
  O  O399  1  0.89247707  0.51069696  0.50336206  1
  O  O400  1  0.88102601  0.49606243  0.99783364  1
  O  O401  1  0.88506938  0.99294219  0.48982266  1
  O  O402  1  0.88605695  1.00461173  0.99314860  1
  O  O403  1  0.11228987  0.00389092  0.00369818  1
  O  O404  1  0.11191436  0.00594304  0.49511332  1
  O  O405  1  0.12070622  0.50726998  0.00765088  1
  O  O406  1  0.11920321  0.50591641  0.50662093  1
  O  O407  1  0.61709283  0.00505935  0.00408920  1
  O  O408  1  0.62534687  0.00185913  0.50860127  1
  O  O409  1  0.62329853  0.50921003  0.01199364  1
  O  O410  1  0.61686046  0.50963904  0.51003583  1
  O  O411  1  0.38210961  0.36447859  0.11583677  1
  O  O412  1  0.36559695  0.38011841  0.61867045  1
  O  O413  1  0.36903520  0.87066327  0.11816511  1
  O  O414  1  0.36849873  0.87709586  0.61385573  1
  O  O415  1  0.86756147  0.36830413  0.12946413  1
  O  O416  1  0.86027626  0.37690146  0.62842222  1
  O  O417  1  0.87946248  0.86046514  0.12512594  1
  O  O418  1  0.86958251  0.87112918  0.62042113  1
  O  O419  1  0.13418595  0.11615835  0.38397799  1
  O  O420  1  0.12177365  0.12786468  0.88740101  1
  O  O421  1  0.13101394  0.63132526  0.37779857  1
  O  O422  1  0.11835267  0.64152234  0.88456943  1
  O  O423  1  0.63573330  0.12220090  0.38709196  1
  O  O424  1  0.63388227  0.11689082  0.88241556  1
  O  O425  1  0.62915545  0.63412074  0.37986305  1
  O  O426  1  0.62702182  0.63489264  0.88374659  1
