# generated using pymatgen
data_V85Zn86O256
_symmetry_space_group_name_H-M   'P 1'
_cell_length_a   16.95057497
_cell_length_b   16.96522871
_cell_length_c   16.96179848
_cell_angle_alpha   89.93979101
_cell_angle_beta   90.00209404
_cell_angle_gamma   89.96275914
_symmetry_Int_Tables_number   1
_chemical_formula_structural   V85Zn86O256
_chemical_formula_sum   'V85 Zn86 O256'
_cell_volume   4877.70712601
_cell_formula_units_Z   1
loop_
 _symmetry_equiv_pos_site_id
 _symmetry_equiv_pos_as_xyz
  1  'x, y, z'
loop_
 _atom_site_type_symbol
 _atom_site_label
 _atom_site_symmetry_multiplicity
 _atom_site_fract_x
 _atom_site_fract_y
 _atom_site_fract_z
 _atom_site_occupancy
  V  V0  1  0.49680380  0.00437688  0.00268406  1
  V  V1  1  0.75216628  0.74507167  0.00525728  1
  V  V2  1  0.12325076  0.00481213  0.12492112  1
  V  V3  1  0.25932653  0.86643274  0.62399091  1
  V  V4  1  0.12418023  0.62434529  0.50025458  1
  V  V5  1  0.50151053  0.25817951  0.75285107  1
  V  V6  1  0.24785358  -0.00003996  0.74960929  1
  V  V7  1  0.62630287  0.74861017  0.37433240  1
  V  V8  1  0.87522749  0.37189859  0.49685554  1
  V  V9  1  0.51150191  0.49516895  0.51009131  1
  V  V10  1  0.62327884  0.00212911  0.12636197  1
  V  V11  1  0.25412869  0.49568128  0.23860133  1
  V  V12  1  0.73743774  0.49804990  0.24524119  1
  V  V13  1  0.62752251  0.25037286  0.87331392  1
  V  V14  1  0.61965545  0.25055337  0.36243566  1
  V  V15  1  -0.00003623  0.50145111  0.49865052  1
  V  V16  1  -0.00343993  0.75028279  0.24527179  1
  V  V17  1  0.49811237  0.63909027  0.62432635  1
  V  V18  1  0.37675352  0.25079956  0.62714317  1
  V  V19  1  0.87282700  0.62516206  0.24620186  1
  V  V20  1  0.74162404  0.37528452  0.12990689  1
  V  V21  1  -0.00060190  0.49967165  0.00388607  1
  V  V22  1  0.87652486  0.37138846  0.00739222  1
  V  V23  1  0.88105917  0.23417076  0.13094125  1
  V  V24  1  0.12997578  0.24753101  0.37616502  1
  V  V25  1  0.37253041  0.00186221  0.87408608  1
  V  V26  1  0.74994557  0.62412912  0.37262341  1
  V  V27  1  0.49478758  0.13344499  0.13158831  1
  V  V28  1  0.13363758  0.12177329  0.49696596  1
  V  V29  1  0.26314351  0.74967490  0.50110595  1
  V  V30  1  0.50536223  0.37445329  0.36120830  1
  V  V31  1  0.51421451  0.11884968  0.62645057  1
  V  V32  1  0.73560482  0.88183962  0.62356038  1
  V  V33  1  0.12633868  -0.00279672  0.62644508  1
  V  V34  1  0.51232680  0.61661786  0.10698255  1
  V  V35  1  0.37781133  0.37697261  0.49950097  1
  V  V36  1  0.12422019  0.87229441  0.75442322  1
  V  V37  1  -0.00229938  0.63394442  0.63360093  1
  V  V38  1  0.50754729  0.88268297  0.85883479  1
  V  V39  1  0.48440365  0.87738961  0.37679156  1
  V  V40  1  0.75259390  0.75233833  0.50256564  1
  V  V41  1  0.00399089  0.37396890  0.37227386  1
  V  V42  1  0.37672478  0.12287010  0.26619597  1
  V  V43  1  0.73458472  0.00273580  0.74738439  1
  V  V44  1  0.18447579  0.43297591  0.79368600  1
  V  V45  1  0.00075723  0.26118162  0.74803413  1
  V  V46  1  0.50117100  0.74784748  0.24415582  1
  V  V47  1  0.87641268  0.00599870  0.36652796  1
  V  V48  1  -0.00424105  -0.01521581  -0.00355740  1
  V  V49  1  0.13057256  0.37241360  0.24211010  1
  V  V50  1  0.37691979  0.62369095  0.24561104  1
  V  V51  1  0.24843245  0.38155283  0.62481540  1
  V  V52  1  0.12599570  0.62622843  0.00095611  1
  V  V53  1  0.86573138  0.50202710  0.87838292  1
  V  V54  1  0.25454333  0.00052735  0.26390664  1
  V  V55  1  0.12005649  0.49566936  0.62716091  1
  V  V56  1  0.75256534  0.12699257  0.36837058  1
  V  V57  1  -0.00452181  0.62529275  0.12495489  1
  V  V58  1  -0.00155020  0.87382763  0.37519592  1
  V  V59  1  0.37835214  0.49861287  0.37486314  1
  V  V60  1  0.00027846  -0.00013276  0.49805494  1
  V  V61  1  0.12538110  0.75026980  0.87094957  1
  V  V62  1  0.37027066  0.25480816  0.13194194  1
  V  V63  1  0.25113705  0.87875660  0.12194781  1
  V  V64  1  0.75192881  0.24704918  0.00024148  1
  V  V65  1  0.00374966  0.12577836  0.62500325  1
  V  V66  1  0.11699665  0.12524485  0.00194363  1
  V  V67  1  0.87903360  0.12079836  0.75276019  1
  V  V68  1  0.87186797  0.24776806  0.62181337  1
  V  V69  1  0.12917446  0.24989864  0.86838930  1
  V  V70  1  0.37387595  0.12558439  0.74928756  1
  V  V71  1  0.25151367  0.74859210  -0.00523430  1
  V  V72  1  0.36855390  0.62374018  0.75477441  1
  V  V73  1  -0.00071058  0.37713176  0.87384299  1
  V  V74  1  0.25148314  0.62191194  0.37434968  1
  V  V75  1  0.76454707  0.87492363  0.11783497  1
  V  V76  1  0.25424579  0.24616266  0.49728703  1
  V  V77  1  -0.05218694  0.81189663  0.81246161  1
  V  V78  1  0.73377267  0.62391888  0.87753745  1
  V  V79  1  0.00090398  0.23492365  0.24868747  1
  V  V80  1  0.62793407  0.87529822  0.24694787  1
  V  V81  1  0.12486610  0.74809403  0.37390742  1
  V  V82  1  0.37617531  0.74974285  0.12056298  1
  V  V83  1  0.24877650  0.25425513  0.01156346  1
  V  V84  1  0.45325004  0.43442663  -0.05622903  1
  Zn  Zn85  1  0.87354232  0.49740258  0.37058109  1
  Zn  Zn86  1  0.75466276  0.12084517  0.87847868  1
  Zn  Zn87  1  0.73987954  0.38722274  0.61849591  1
  Zn  Zn88  1  0.12765609  0.49931534  0.12644794  1
  Zn  Zn89  1  0.73555572  0.50660305  0.73608608  1
  Zn  Zn90  1  0.50158208  0.75925946  0.74363202  1
  Zn  Zn91  1  0.75680677  0.00332621  0.24646138  1
  Zn  Zn92  1  0.37620129  0.87660848  -0.00480103  1
  Zn  Zn93  1  0.87118555  0.63032839  0.75682148  1
  Zn  Zn94  1  0.87453908  0.75607680  0.62875193  1
  Zn  Zn95  1  0.25129917  0.60815092  0.87133731  1
  Zn  Zn96  1  0.74367344  0.24953784  0.49696429  1
  Zn  Zn97  1  0.62634678  0.37802621  0.74013034  1
  Zn  Zn98  1  0.49711383  -0.00522713  0.49663187  1
  Zn  Zn99  1  0.87812631  -0.00803546  0.87655520  1
  Zn  Zn100  1  0.62289660  0.13055638  0.00394445  1
  Zn  Zn101  1  0.63208950  0.61901662  0.51219408  1
  Zn  Zn102  1  0.61875021  0.75107868  0.87800881  1
  Zn  Zn103  1  0.62816443  0.11993794  0.49734786  1
  Zn  Zn104  1  0.87190629  0.87814538  0.49959528  1
  Zn  Zn105  1  0.25044369  0.12650485  0.87817883  1
  Zn  Zn106  1  0.12654174  0.87477818  0.24962309  1
  Zn  Zn107  1  0.18872280  0.17957037  0.19234325  1
  Zn  Zn108  1  0.18964021  0.19002644  0.68558797  1
  Zn  Zn109  1  0.18758747  0.68585685  0.18572113  1
  Zn  Zn110  1  0.18693859  0.68569883  0.68750605  1
  Zn  Zn111  1  0.68890958  0.18788986  0.18797464  1
  Zn  Zn112  1  0.69193904  0.18959223  0.68966143  1
  Zn  Zn113  1  0.68711359  0.68848553  0.18178515  1
  Zn  Zn114  1  0.67740682  0.69128440  0.69325848  1
  Zn  Zn115  1  0.31585165  0.31158109  0.31254671  1
  Zn  Zn116  1  0.32331908  0.31263016  0.82421083  1
  Zn  Zn117  1  0.30961647  0.80926929  0.30792215  1
  Zn  Zn118  1  0.31922020  0.80999429  0.80552185  1
  Zn  Zn119  1  0.81311188  0.30799098  0.30963908  1
  Zn  Zn120  1  0.80720806  0.31717436  0.81228866  1
  Zn  Zn121  1  0.81368401  0.81436195  0.31052370  1
  Zn  Zn122  1  0.77942837  0.81328678  0.80933848  1
  Zn  Zn123  1  0.18930266  0.43710973  0.43611564  1
  Zn  Zn124  1  0.18968924  0.43500611  0.95783250  1
  Zn  Zn125  1  0.18820775  0.93000448  0.44069130  1
  Zn  Zn126  1  0.18525810  0.93689460  0.93650942  1
  Zn  Zn127  1  0.68862568  0.43371885  0.43251660  1
  Zn  Zn128  1  0.64588495  0.46235723  0.89822136  1
  Zn  Zn129  1  0.68298624  0.94142104  0.43769766  1
  Zn  Zn130  1  0.68818428  0.94231736  0.93943007  1
  Zn  Zn131  1  0.31048840  0.06988992  0.06303314  1
  Zn  Zn132  1  0.31885341  0.05856243  0.55927995  1
  Zn  Zn133  1  0.32500636  0.56152799  0.05514054  1
  Zn  Zn134  1  0.31726986  0.56317497  0.56609174  1
  Zn  Zn135  1  0.81539896  0.05943286  0.06392451  1
  Zn  Zn136  1  0.81046071  0.06254676  0.55831454  1
  Zn  Zn137  1  0.80880880  0.56114275  0.06174290  1
  Zn  Zn138  1  0.81851618  0.56866561  0.55824332  1
  Zn  Zn139  1  0.44024000  0.43877513  0.17811216  1
  Zn  Zn140  1  0.43574253  0.44079290  0.69216610  1
  Zn  Zn141  1  0.43595917  0.93818971  0.18953934  1
  Zn  Zn142  1  0.42402077  0.94975622  0.65830175  1
  Zn  Zn143  1  0.93653358  0.43654480  0.18984674  1
  Zn  Zn144  1  0.90231752  0.45428567  0.67368187  1
  Zn  Zn145  1  0.94364557  0.94083596  0.18691765  1
  Zn  Zn146  1  0.92967172  0.94061108  0.67741162  1
  Zn  Zn147  1  0.07086413  0.05956166  0.31594115  1
  Zn  Zn148  1  0.06022830  0.06320090  0.81608078  1
  Zn  Zn149  1  0.06417470  0.56001675  0.31004359  1
  Zn  Zn150  1  0.05443932  0.56870529  0.81761726  1
  Zn  Zn151  1  0.56231659  0.05922462  0.31655182  1
  Zn  Zn152  1  0.55965068  0.07535810  0.81884164  1
  Zn  Zn153  1  0.56104475  0.56326718  0.31185481  1
  Zn  Zn154  1  0.55087669  0.56491821  0.80847934  1
  Zn  Zn155  1  0.44447464  0.19033196  0.44044114  1
  Zn  Zn156  1  0.45274482  0.23393011  0.95941403  1
  Zn  Zn157  1  0.44331827  0.68324601  0.43559409  1
  Zn  Zn158  1  0.43550237  0.68927945  0.92967911  1
  Zn  Zn159  1  0.94007760  0.18483338  0.43493266  1
  Zn  Zn160  1  0.93993735  0.18593607  0.93742406  1
  Zn  Zn161  1  0.93515475  0.68630880  0.43512710  1
  Zn  Zn162  1  0.92598685  0.68709693  0.94904905  1
  Zn  Zn163  1  0.06140934  0.30835700  0.06447478  1
  Zn  Zn164  1  0.06432965  0.31301391  0.56274182  1
  Zn  Zn165  1  0.06536231  0.81224827  0.06477384  1
  Zn  Zn166  1  0.06765957  0.81282598  0.56098878  1
  Zn  Zn167  1  0.58065678  0.35243302  0.03616711  1
  Zn  Zn168  1  0.56779641  0.30704821  0.55998369  1
  Zn  Zn169  1  0.56433460  0.81497447  0.05714785  1
  Zn  Zn170  1  0.56621565  0.81291459  0.55594020  1
  O  O171  1  0.12902361  0.11338162  0.11823809  1
  O  O172  1  0.12278077  0.11944767  0.61696190  1
  O  O173  1  0.11370250  0.62468811  0.11963297  1
  O  O174  1  0.11387715  0.61792986  0.62187421  1
  O  O175  1  0.61553450  0.11792366  0.12892348  1
  O  O176  1  0.61550768  0.13560582  0.62150269  1
  O  O177  1  0.61113333  0.63152326  0.12169537  1
  O  O178  1  0.60733895  0.62339227  0.62610759  1
  O  O179  1  0.38376022  0.37875609  0.38074207  1
  O  O180  1  0.39111719  0.37313604  0.88514260  1
  O  O181  1  0.38619571  0.86671088  0.36917466  1
  O  O182  1  0.38105323  0.89020350  0.87313525  1
  O  O183  1  0.88541161  0.37150360  0.38203804  1
  O  O184  1  0.87807091  0.37905785  0.89033335  1
  O  O185  1  0.88269962  0.88214733  0.37680146  1
  O  O186  1  0.88171066  0.86976643  0.86211150  1
  O  O187  1  0.24582890  -0.00931065  0.36208897  1
  O  O188  1  0.25584890  0.00147808  0.86864455  1
  O  O189  1  0.25851003  0.50526671  0.36925523  1
  O  O190  1  0.23485472  0.49001748  0.86719342  1
  O  O191  1  0.76057525  0.00587306  0.37144187  1
  O  O192  1  0.75743919  -0.00051831  0.86261151  1
  O  O193  1  0.75170314  0.50552799  0.36470004  1
  O  O194  1  0.75486612  0.51065077  0.89365778  1
  O  O195  1  0.25201100  0.50672099  0.13605232  1
  O  O196  1  0.24349674  0.48771641  0.62014748  1
  O  O197  1  0.24334249  0.99297090  0.12795082  1
  O  O198  1  0.24166806  0.98891880  0.63106236  1
  O  O199  1  0.75463014  0.48413144  0.12863113  1
  O  O200  1  0.79098563  0.49251898  0.63487702  1
  O  O201  1  0.74256343  0.99145408  0.12615948  1
  O  O202  1  0.75401107  0.99711251  0.63675990  1
  O  O203  1  0.00899084  0.37159999  0.26069396  1
  O  O204  1  -0.01030646  0.36298443  0.75530343  1
  O  O205  1  0.00333753  0.86509660  0.25473489  1
  O  O206  1  0.00191505  0.87190967  0.74720926  1
  O  O207  1  0.49812548  0.38472552  0.26289621  1
  O  O208  1  0.49851529  0.36086256  0.74515481  1
  O  O209  1  0.50518977  0.86429664  0.25414469  1
  O  O210  1  0.49414113  0.88466315  0.75928460  1
  O  O211  1  0.48325947  0.11242485  0.24613525  1
  O  O212  1  0.49215224  0.13443637  0.74244588  1
  O  O213  1  0.49651924  0.63688993  0.24564286  1
  O  O214  1  0.49253902  0.62962540  0.73536587  1
  O  O215  1  1.00999503  0.13627653  0.25679411  1
  O  O216  1  0.99677186  0.13368933  0.74498008  1
  O  O217  1  0.99456536  0.62912567  0.24404891  1
  O  O218  1  0.99508046  0.62494332  0.73707350  1
  O  O219  1  0.35378551  0.23128526  0.01617670  1
  O  O220  1  0.37034805  0.25588849  0.50565951  1
  O  O221  1  0.36548357  0.75403660  0.00204890  1
  O  O222  1  0.36154711  0.74085742  0.49222807  1
  O  O223  1  0.87457060  0.25416009  0.00835849  1
  O  O224  1  0.87854700  0.25468653  0.50558168  1
  O  O225  1  0.85333078  0.75848294  -0.00089906  1
  O  O226  1  0.86101515  0.75131606  0.49629707  1
  O  O227  1  0.13411712  0.24119283  0.49856582  1
  O  O228  1  0.13021060  0.24416364  0.99429367  1
  O  O229  1  0.12753896  0.74283094  0.48625931  1
  O  O230  1  0.13017350  0.74656821  0.99076142  1
  O  O231  1  0.62552698  0.24104349  0.48511684  1
  O  O232  1  0.63711009  0.25202131  0.99408792  1
  O  O233  1  0.63639844  0.74582950  0.48897472  1
  O  O234  1  0.64334039  0.76486611  0.99328088  1
  O  O235  1  0.48830150  0.23394004  0.12956882  1
  O  O236  1  0.49231445  0.24267191  0.63294304  1
  O  O237  1  0.49533265  0.74923826  0.12913720  1
  O  O238  1  0.50003677  0.74148174  0.61779989  1
  O  O239  1  0.99417808  0.25095843  0.13675153  1
  O  O240  1  0.99715303  0.24518971  0.63206895  1
  O  O241  1  1.00602172  0.74365513  0.13805390  1
  O  O242  1  1.00126609  0.73657038  0.61724970  1
  O  O243  1  0.00949163  0.25638288  0.37007924  1
  O  O244  1  0.01042621  0.25762078  0.87021792  1
  O  O245  1  0.00604484  0.75111113  0.36551787  1
  O  O246  1  0.00171318  0.74989125  0.87655672  1
  O  O247  1  0.51037536  0.25862326  0.37451166  1
  O  O248  1  0.51379755  0.23641592  0.86410305  1
  O  O249  1  0.50805172  0.75344148  0.36479140  1
  O  O250  1  0.49727082  0.77570700  0.88035658  1
  O  O251  1  0.24647643  0.13257918  0.50936391  1
  O  O252  1  0.23432923  0.13033413  0.99738894  1
  O  O253  1  0.24270249  0.62809655  0.49500889  1
  O  O254  1  0.24683421  0.63133505  0.99615577  1
  O  O255  1  0.75000615  0.12714534  0.48502224  1
  O  O256  1  0.75063266  0.13697873  1.00603177  1
  O  O257  1  0.74902764  0.63148691  0.49252914  1
  O  O258  1  0.74953517  0.63793592  0.99991309  1
  O  O259  1  0.24506675  0.35415592  0.00961665  1
  O  O260  1  0.25587794  0.36890259  0.50708301  1
  O  O261  1  0.25096262  0.86844734  0.00588980  1
  O  O262  1  0.24622065  0.86223200  0.51053137  1
  O  O263  1  0.76153581  0.36163898  0.01577247  1
  O  O264  1  0.76283069  0.37177771  0.49892834  1
  O  O265  1  0.75018009  0.87667996  0.01397503  1
  O  O266  1  0.74926642  0.86935283  0.50329088  1
  O  O267  1  0.13565760  0.49103581  0.24947340  1
  O  O268  1  0.11807033  0.49952105  0.74525941  1
  O  O269  1  0.13675595  0.99895294  0.24247300  1
  O  O270  1  0.12769906  0.99256567  0.74789809  1
  O  O271  1  0.63841889  0.50540476  0.25052199  1
  O  O272  1  0.63084866  0.48952710  0.78036173  1
  O  O273  1  0.62576853  0.99175618  0.24117875  1
  O  O274  1  0.63804234  1.01399115  0.75455393  1
  O  O275  1  0.36178273  0.00658575  0.24862142  1
  O  O276  1  0.36680347  0.00750974  0.75145223  1
  O  O277  1  0.37010797  0.50378734  0.25376100  1
  O  O278  1  0.37524777  0.52281406  0.73871086  1
  O  O279  1  0.87918429  -0.00220973  0.26238077  1
  O  O280  1  0.87935844  0.01321311  0.75118840  1
  O  O281  1  0.87086149  0.51224817  0.25008897  1
  O  O282  1  0.87884360  0.50297371  0.77444223  1
  O  O283  1  0.12021278  0.36840925  0.36911598  1
  O  O284  1  0.12413304  0.37225421  0.86812918  1
  O  O285  1  0.11836800  0.86406412  0.37225856  1
  O  O286  1  0.12366813  0.86869815  0.86288839  1
  O  O287  1  0.61870210  0.36133358  0.37662907  1
  O  O288  1  0.63973833  0.35143223  0.86389368  1
  O  O289  1  0.62406541  0.86424722  0.36029557  1
  O  O290  1  0.60841163  0.88836380  0.87558907  1
  O  O291  1  0.37875512  0.12673013  0.13788117  1
  O  O292  1  0.37837846  0.13246253  0.63752610  1
  O  O293  1  0.38232189  0.63314748  0.12948507  1
  O  O294  1  0.39031419  0.62529686  0.62690938  1
  O  O295  1  0.87433468  0.13512855  0.12700200  1
  O  O296  1  0.88467992  0.13113033  0.62824874  1
  O  O297  1  0.88685776  0.62266594  0.12954057  1
  O  O298  1  0.88628991  0.63630463  0.62893460  1
  O  O299  1  0.25135305  0.24159546  0.11844062  1
  O  O300  1  0.25415726  0.26048382  0.61656845  1
  O  O301  1  0.25198729  0.75615164  0.11411124  1
  O  O302  1  0.23639019  0.75502855  0.61080207  1
  O  O303  1  0.76136746  0.25732936  0.12476116  1
  O  O304  1  0.76619059  0.24712783  0.62059398  1
  O  O305  1  0.74677387  0.76416312  0.11706843  1
  O  O306  1  0.74850708  0.75725940  0.61732778  1
  O  O307  1  0.24659265  0.25555237  0.39085277  1
  O  O308  1  0.24221628  0.25016922  0.88628708  1
  O  O309  1  0.24170696  0.74326696  0.37797896  1
  O  O310  1  0.24209924  0.75468121  0.88522567  1
  O  O311  1  0.74184339  0.24456759  0.37349711  1
  O  O312  1  0.75298047  0.24416777  0.88610883  1
  O  O313  1  0.74365694  0.74616553  0.37808214  1
  O  O314  1  0.74630930  0.73994120  0.88588605  1
  O  O315  1  0.01301519  0.11958481  -0.00208422  1
  O  O316  1  0.01171248  0.11952975  0.50497499  1
  O  O317  1  0.00277760  0.62250752  0.00875451  1
  O  O318  1  0.00459249  0.61977467  0.50436776  1
  O  O319  1  0.49930837  0.11826418  0.01149261  1
  O  O320  1  0.49428439  0.12410847  0.52005128  1
  O  O321  1  0.49584814  0.63243788  0.00899170  1
  O  O322  1  0.50288341  0.61379259  0.50794117  1
  O  O323  1  0.49668930  0.38465697  0.49343728  1
  O  O324  1  0.47516152  0.33785887  1.00380737  1
  O  O325  1  0.50312501  0.86694573  0.47782879  1
  O  O326  1  0.49549921  0.89392906  0.99925648  1
  O  O327  1  0.99960266  0.37830131  0.48781597  1
  O  O328  1  0.99620678  0.37796036  0.99487769  1
  O  O329  1  1.00150747  0.88222211  0.49337489  1
  O  O330  1  1.00491177  0.88597346  1.00101899  1
  O  O331  1  0.49571357  0.49608900  0.38265688  1
  O  O332  1  0.48006102  0.49945482  0.86820640  1
  O  O333  1  0.49526802  0.98063064  0.36889648  1
  O  O334  1  0.49253226  0.99893427  0.88147840  1
  O  O335  1  1.00107855  0.49052250  0.37923572  1
  O  O336  1  0.99363833  0.49486552  0.88555737  1
  O  O337  1  0.99766621  0.99490557  0.37903054  1
  O  O338  1  1.00090396  0.99943802  0.89128310  1
  O  O339  1  0.01410692  -0.00546779  0.11490696  1
  O  O340  1  0.00745880  0.00519779  0.61780949  1
  O  O341  1  0.00205091  0.50795375  0.12207611  1
  O  O342  1  -0.00273363  0.51122293  0.61720583  1
  O  O343  1  0.50437679  0.00485158  0.12045084  1
  O  O344  1  0.51418230  0.02043720  0.64438999  1
  O  O345  1  0.49990031  0.51827733  0.12726052  1
  O  O346  1  0.49706279  0.50147486  0.61058504  1
  O  O347  1  0.24209763  0.38417708  0.25826993  1
  O  O348  1  0.25279877  0.36917111  0.74391183  1
  O  O349  1  0.24952214  0.88385839  0.24132110  1
  O  O350  1  0.23917332  0.87781985  0.74740431  1
  O  O351  1  0.76227601  0.38398854  0.23707031  1
  O  O352  1  0.75401709  0.38097848  0.73898102  1
  O  O353  1  0.74273178  0.87542396  0.23878616  1
  O  O354  1  0.74899946  0.89397150  0.73945678  1
  O  O355  1  0.25855905  0.10826432  0.25311480  1
  O  O356  1  0.25639777  0.12091320  0.75134247  1
  O  O357  1  0.25559313  0.61770277  0.25481740  1
  O  O358  1  0.26145889  0.63034153  0.75130927  1
  O  O359  1  0.74859801  0.12150505  0.26219765  1
  O  O360  1  0.76151202  0.11571592  0.74855493  1
  O  O361  1  0.75709648  0.62043162  0.24847467  1
  O  O362  1  0.75159436  0.62346012  0.76211364  1
  O  O363  1  0.38112773  0.12677541  0.36553240  1
  O  O364  1  0.37347785  0.11353183  0.86162603  1
  O  O365  1  0.37280081  0.61859043  0.36546849  1
  O  O366  1  0.36851958  0.62562499  0.86246839  1
  O  O367  1  0.86860224  0.11760456  0.37634773  1
  O  O368  1  0.87631925  0.12344231  0.86498362  1
  O  O369  1  0.86737438  0.62214593  0.36492257  1
  O  O370  1  0.86510556  0.61660065  0.87994507  1
  O  O371  1  0.12122724  0.37563061  0.13908099  1
  O  O372  1  0.13285974  0.38218796  0.62436353  1
  O  O373  1  0.13736164  0.88057685  0.12727358  1
  O  O374  1  0.12755412  0.87742186  0.63818339  1
  O  O375  1  0.64345317  0.36600702  0.13067210  1
  O  O376  1  0.62759626  0.37351398  0.62506566  1
  O  O377  1  0.62661247  0.88259511  0.13461358  1
  O  O378  1  0.63585675  0.87667354  0.61865751  1
  O  O379  1  0.12412540  0.25491447  0.25640244  1
  O  O380  1  0.11754337  0.24590777  0.76003264  1
  O  O381  1  0.11940638  0.74769752  0.26013230  1
  O  O382  1  0.12580847  0.75436717  0.76299921  1
  O  O383  1  0.62659778  0.24926040  0.26301651  1
  O  O384  1  0.61673407  0.24465858  0.75556839  1
  O  O385  1  0.61879332  0.75561959  0.25237596  1
  O  O386  1  0.61613132  0.75398710  0.76308608  1
  O  O387  1  0.36172720  0.22940895  0.24685370  1
  O  O388  1  0.38024050  0.24258947  0.74875769  1
  O  O389  1  0.38171842  0.74446017  0.24137644  1
  O  O390  1  0.38545002  0.73555417  0.75257601  1
  O  O391  1  0.88956770  0.25395950  0.24258403  1
  O  O392  1  0.88266957  0.24072144  0.74208304  1
  O  O393  1  0.88381996  0.73692335  0.25403705  1
  O  O394  1  0.87904604  0.75505728  0.75647621  1
  O  O395  1  0.38350164  0.49467272  0.49336856  1
  O  O396  1  0.38715884  0.48471056  1.00367005  1
  O  O397  1  0.39553345  0.98207992  0.54564033  1
  O  O398  1  0.37887440  1.00428555  0.99019422  1
  O  O399  1  0.88514378  0.49055729  0.49240671  1
  O  O400  1  0.88060778  0.49115590  0.99732709  1
  O  O401  1  0.88598040  1.00127334  0.48936219  1
  O  O402  1  0.89169587  1.00176336  0.99982232  1
  O  O403  1  0.11882080  0.00540896  0.00547350  1
  O  O404  1  0.12259956  0.00521130  0.50447450  1
  O  O405  1  0.11786120  0.50791572  0.00653392  1
  O  O406  1  0.11834956  0.50441207  0.50548959  1
  O  O407  1  0.61801046  0.00415139  0.01301271  1
  O  O408  1  0.61013201  0.00787976  0.48757624  1
  O  O409  1  0.56719492  0.44964467  -0.02235905  1
  O  O410  1  0.61407591  0.50163214  0.49213152  1
  O  O411  1  0.37302417  0.35386483  0.14402511  1
  O  O412  1  0.36793486  0.37063969  0.62025572  1
  O  O413  1  0.36434795  0.87021010  0.12316921  1
  O  O414  1  0.35593503  0.85862277  0.64518791  1
  O  O415  1  0.87771687  0.36822203  0.11595784  1
  O  O416  1  0.88852922  0.36120437  0.60705571  1
  O  O417  1  0.86197128  0.88029902  0.13087131  1
  O  O418  1  0.86295407  0.87165305  0.61808652  1
  O  O419  1  0.12741035  0.12955869  0.38992121  1
  O  O420  1  0.12630872  0.13568522  0.88105398  1
  O  O421  1  0.13030011  0.62933344  0.37830865  1
  O  O422  1  0.12760521  0.63348748  0.88116782  1
  O  O423  1  0.62971126  0.13498970  0.37124414  1
  O  O424  1  0.63491654  0.13359931  0.88315865  1
  O  O425  1  0.63051459  0.63781565  0.37156102  1
  O  O426  1  0.63087248  0.62350069  0.87995718  1
