# generated using pymatgen
data_V85Zn86O256
_symmetry_space_group_name_H-M   'P 1'
_cell_length_a   16.97651614
_cell_length_b   16.96276458
_cell_length_c   16.96477987
_cell_angle_alpha   90.00171129
_cell_angle_beta   90.07828909
_cell_angle_gamma   89.95983314
_symmetry_Int_Tables_number   1
_chemical_formula_structural   V85Zn86O256
_chemical_formula_sum   'V85 Zn86 O256'
_cell_volume   4885.31893716
_cell_formula_units_Z   1
loop_
 _symmetry_equiv_pos_site_id
 _symmetry_equiv_pos_as_xyz
  1  'x, y, z'
loop_
 _atom_site_type_symbol
 _atom_site_label
 _atom_site_symmetry_multiplicity
 _atom_site_fract_x
 _atom_site_fract_y
 _atom_site_fract_z
 _atom_site_occupancy
  V  V0  1  0.49608794  0.14097419  0.12636624  1
  V  V1  1  0.49933246  0.36872541  0.37045589  1
  V  V2  1  0.62763208  0.24772313  0.37484765  1
  V  V3  1  0.62302929  0.50162070  0.62598718  1
  V  V4  1  0.12593608  0.37831274  0.24694427  1
  V  V5  1  0.74870794  0.75166327  -0.00178470  1
  V  V6  1  0.49971288  -0.00173570  -0.00992035  1
  V  V7  1  0.13013469  0.75929809  0.36890932  1
  V  V8  1  0.88945484  0.12672312  0.75398394  1
  V  V9  1  0.88175887  0.24859370  0.13180648  1
  V  V10  1  0.87775668  0.49616986  0.87973594  1
  V  V11  1  0.62529634  0.87153585  0.25791832  1
  V  V12  1  0.49636962  0.88581917  0.37283289  1
  V  V13  1  0.87541624  0.87354400  0.00078066  1
  V  V14  1  0.88138753  0.25027413  0.63045095  1
  V  V15  1  0.36990811  0.37204572  0.50694457  1
  V  V16  1  0.00364297  0.12230191  0.60612526  1
  V  V17  1  0.00076709  0.11471587  0.13112002  1
  V  V18  1  0.24772973  0.11805084  0.37961926  1
  V  V19  1  0.12271816  0.37156362  0.74220189  1
  V  V20  1  0.50084521  0.74903872  0.25707326  1
  V  V21  1  0.62472271  0.25071608  0.87366682  1
  V  V22  1  0.87211771  0.75158558  0.62471464  1
  V  V23  1  0.00681974  0.74161351  0.24303471  1
  V  V24  1  0.49458634  0.49999599  0.50092957  1
  V  V25  1  0.62071172  -0.00013228  0.12778852  1
  V  V26  1  -0.00169925  0.36630313  0.88496032  1
  V  V27  1  0.63962044  0.37634809  0.25380435  1
  V  V28  1  0.49787174  0.75726451  0.75391557  1
  V  V29  1  0.24712161  0.62274778  0.87275788  1
  V  V30  1  0.62758343  0.12652298  0.00271902  1
  V  V31  1  0.75181917  0.37647113  0.62869297  1
  V  V32  1  0.38340829  0.13434213  0.25764434  1
  V  V33  1  0.62106988  0.88023813  0.75493354  1
  V  V34  1  0.62317983  0.62457273  -0.00076148  1
  V  V35  1  0.12471822  0.11797839  0.00573198  1
  V  V36  1  0.36884168  0.62636141  0.24603214  1
  V  V37  1  0.25557373  0.00063698  0.23848523  1
  V  V38  1  0.24801465  0.74536348  0.49709290  1
  V  V39  1  0.74819915  0.24663337  0.50571358  1
  V  V40  1  0.12490325  0.51696353  0.61679552  1
  V  V41  1  0.24016019  0.61837478  0.37337956  1
  V  V42  1  0.37403945  0.75109717  0.62245218  1
  V  V43  1  0.25182406  0.00089397  0.75009592  1
  V  V44  1  0.12455828  0.74905750  0.87336860  1
  V  V45  1  0.24836279  0.87652847  0.62223742  1
  V  V46  1  0.37049775  0.25291099  0.63947938  1
  V  V47  1  0.88017712  0.73693118  0.12164686  1
  V  V48  1  0.86281973  0.62513307  0.26834424  1
  V  V49  1  0.37474055  0.88442265  0.49542654  1
  V  V50  1  0.29781637  0.44179199  0.18889164  1
  V  V51  1  0.24576797  0.24764047  0.50260825  1
  V  V52  1  0.75052045  0.62362205  0.87031543  1
  V  V53  1  0.74797551  0.87589607  0.62780712  1
  V  V54  1  0.75834470  0.00499266  0.25508648  1
  V  V55  1  0.00391808  0.24839187  0.25446888  1
  V  V56  1  0.75989444  0.25687206  0.00283057  1
  V  V57  1  0.11695873  0.62179658  -0.00035061  1
  V  V58  1  0.73811585  0.75192998  0.48709435  1
  V  V59  1  0.25198982  0.12103496  0.87756889  1
  V  V60  1  0.36914557  0.49723789  0.37445794  1
  V  V61  1  0.37480712  0.75755139  0.12251245  1
  V  V62  1  0.00198157  0.39013494  0.37710545  1
  V  V63  1  0.49861935  0.62641807  0.62505206  1
  V  V64  1  0.00062375  0.87541842  0.87366955  1
  V  V65  1  0.11935003  0.24343854  0.87029981  1
  V  V66  1  0.00123424  0.74723039  0.74275332  1
  V  V67  1  0.61927328  0.63017565  0.48620582  1
  V  V68  1  0.37848056  0.12525340  0.75638290  1
  V  V69  1  0.76192412  0.38077931  0.12772410  1
  V  V70  1  0.37888319  0.87977304  -0.01485554  1
  V  V71  1  0.62199694  0.75286080  0.87461039  1
  V  V72  1  0.74932553  0.87491536  0.12435901  1
  V  V73  1  0.87973249  0.62142417  0.74224893  1
  V  V74  1  0.49972581  0.12901378  0.62698310  1
  V  V75  1  0.49901449  0.37075167  0.87657391  1
  V  V76  1  0.37424291  0.62536518  0.74991429  1
  V  V77  1  0.61935073  0.37424970  0.74889238  1
  V  V78  1  0.37640721  0.49966413  0.87728031  1
  V  V79  1  0.63133791  0.50291556  0.13020029  1
  V  V80  1  0.88267932  0.38233844  0.50258363  1
  V  V81  1  0.87559043  0.00002989  0.87747705  1
  V  V82  1  0.75458743  0.12781500  0.87583341  1
  V  V83  1  0.11459287  0.50845681  0.13630802  1
  V  V84  1  0.12247605  0.00261406  0.60991480  1
  Zn  Zn85  1  0.81600439  0.45801284  0.32868353  1
  Zn  Zn86  1  0.37550527  0.36703487  0.01362637  1
  Zn  Zn87  1  0.00597702  -0.00771740  0.01106113  1
  Zn  Zn88  1  0.75247742  0.50177255  0.74653116  1
  Zn  Zn89  1  0.12411543  0.87718430  0.74700207  1
  Zn  Zn90  1  0.11773159  0.88669423  0.23805596  1
  Zn  Zn91  1  0.75419641  0.11356640  0.38132377  1
  Zn  Zn92  1  0.24530082  0.88280345  0.11654584  1
  Zn  Zn93  1  -0.03531280  0.57382323  0.55728768  1
  Zn  Zn94  1  0.24907024  0.75384123  -0.00168981  1
  Zn  Zn95  1  0.12335712  0.25042955  0.37979694  1
  Zn  Zn96  1  0.88045481  0.89583215  0.49376541  1
  Zn  Zn97  1  0.26281313  0.24973960  0.01808030  1
  Zn  Zn98  1  0.50034925  0.00447742  0.49874158  1
  Zn  Zn99  1  0.25047010  0.48911051  0.74531932  1
  Zn  Zn100  1  0.62173700  0.12347838  0.50190116  1
  Zn  Zn101  1  -0.00589769  0.89011621  0.37490271  1
  Zn  Zn102  1  0.49976998  0.62602151  0.12441350  1
  Zn  Zn103  1  -0.00246146  0.49555357  0.00446625  1
  Zn  Zn104  1  0.50191883  0.49925676  -0.00062186  1
  Zn  Zn105  1  0.62256739  0.00280179  0.62527331  1
  Zn  Zn106  1  0.74937287  0.00332510  0.75139475  1
  Zn  Zn107  1  0.19064895  0.18645391  0.18955670  1
  Zn  Zn108  1  0.18519249  0.18848341  0.68862619  1
  Zn  Zn109  1  0.19078383  0.68849227  0.18368143  1
  Zn  Zn110  1  0.18721441  0.68645971  0.68700825  1
  Zn  Zn111  1  0.68959216  0.18960435  0.19001331  1
  Zn  Zn112  1  0.68969049  0.18703749  0.69235617  1
  Zn  Zn113  1  0.68877053  0.69000094  0.18766831  1
  Zn  Zn114  1  0.68514818  0.68718242  0.68586686  1
  Zn  Zn115  1  0.31595312  0.30277448  0.31730370  1
  Zn  Zn116  1  0.29214816  0.32616065  0.84952948  1
  Zn  Zn117  1  0.31439165  0.81487107  0.31126191  1
  Zn  Zn118  1  0.30990627  0.81311158  0.81125108  1
  Zn  Zn119  1  0.85806816  0.25819997  0.35403630  1
  Zn  Zn120  1  0.81492553  0.31343709  0.81089865  1
  Zn  Zn121  1  0.81317326  0.81054461  0.30814973  1
  Zn  Zn122  1  0.81094452  0.81242179  0.81035853  1
  Zn  Zn123  1  0.18545210  0.43674983  0.44069642  1
  Zn  Zn124  1  0.18507750  0.43486116  0.94329530  1
  Zn  Zn125  1  0.19097445  0.93885898  0.43017420  1
  Zn  Zn126  1  0.18877050  0.93810276  0.93674820  1
  Zn  Zn127  1  0.67897412  0.43120894  0.44627414  1
  Zn  Zn128  1  0.69094294  0.43868683  0.93908981  1
  Zn  Zn129  1  0.68475512  0.93801555  0.44035204  1
  Zn  Zn130  1  0.68637581  0.93987897  0.93619650  1
  Zn  Zn131  1  0.32039861  0.06712339  0.05994252  1
  Zn  Zn132  1  0.31334753  0.06499927  0.56590033  1
  Zn  Zn133  1  0.31320958  0.56866743  0.05378970  1
  Zn  Zn134  1  0.30504566  0.56008154  0.56309370  1
  Zn  Zn135  1  0.81547692  0.06379924  0.06629248  1
  Zn  Zn136  1  0.81138945  0.06303257  0.56914623  1
  Zn  Zn137  1  0.81005955  0.56214672  0.05864481  1
  Zn  Zn138  1  0.78823381  0.54543458  0.51037317  1
  Zn  Zn139  1  0.46151771  0.43715531  0.18918012  1
  Zn  Zn140  1  0.43586483  0.43627582  0.69086629  1
  Zn  Zn141  1  0.43353550  0.94350442  0.18658107  1
  Zn  Zn142  1  0.43537504  0.94108721  0.68681069  1
  Zn  Zn143  1  0.94138053  0.44490009  0.19231996  1
  Zn  Zn144  1  0.94620849  0.43668356  0.69317601  1
  Zn  Zn145  1  0.93738669  0.92846107  0.19137330  1
  Zn  Zn146  1  0.93697334  0.93971588  0.68594185  1
  Zn  Zn147  1  0.07201434  0.06271831  0.31013831  1
  Zn  Zn148  1  0.06682977  0.05559260  0.81041172  1
  Zn  Zn149  1  0.02073380  0.60276717  0.37508451  1
  Zn  Zn150  1  0.06118306  0.55473304  0.80845443  1
  Zn  Zn151  1  0.56663941  0.06528902  0.31124017  1
  Zn  Zn152  1  0.56299398  0.06777960  0.81030895  1
  Zn  Zn153  1  0.55807441  0.55882118  0.31098343  1
  Zn  Zn154  1  0.56135468  0.56252472  0.81132840  1
  Zn  Zn155  1  0.43691000  0.19023744  0.44134826  1
  Zn  Zn156  1  0.43634028  0.19011395  0.94013598  1
  Zn  Zn157  1  0.43225376  0.68878560  0.43378902  1
  Zn  Zn158  1  0.43767224  0.69022961  0.93675301  1
  Zn  Zn159  1  0.92675561  0.06862215  0.42004355  1
  Zn  Zn160  1  0.94138734  0.18800527  0.94635152  1
  Zn  Zn161  1  0.93763969  0.74119022  0.44287630  1
  Zn  Zn162  1  0.93739460  0.68639294  0.93221271  1
  Zn  Zn163  1  0.09590715  0.29532671  0.07766936  1
  Zn  Zn164  1  0.06041513  0.30818392  0.56296718  1
  Zn  Zn165  1  0.06581277  0.81098733  0.06372973  1
  Zn  Zn166  1  0.06560234  0.81237646  0.55980480  1
  Zn  Zn167  1  0.56897292  0.31683040  0.05948816  1
  Zn  Zn168  1  0.55639148  0.30878661  0.56391289  1
  Zn  Zn169  1  0.55818323  0.81391009  0.06543786  1
  Zn  Zn170  1  0.56071977  0.81668265  0.56482201  1
  O  O171  1  0.11412129  0.12545539  0.11597862  1
  O  O172  1  0.11004438  0.11981105  0.62764771  1
  O  O173  1  0.13267637  0.61485974  0.11497630  1
  O  O174  1  0.12424586  0.61780261  0.62205464  1
  O  O175  1  0.61807283  0.11917199  0.12406778  1
  O  O176  1  0.61281131  0.12821757  0.63135188  1
  O  O177  1  0.62646515  0.61968081  0.11700639  1
  O  O178  1  0.61283053  0.62122546  0.62271628  1
  O  O179  1  0.38289285  0.37661553  0.37991283  1
  O  O180  1  0.39258073  0.38375478  0.86098828  1
  O  O181  1  0.38399272  0.87164364  0.38378281  1
  O  O182  1  0.37704166  0.87041241  0.88647712  1
  O  O183  1  0.88062226  0.37143456  0.38702279  1
  O  O184  1  0.88824236  0.38145116  0.86806323  1
  O  O185  1  0.88404591  0.84037742  0.38760259  1
  O  O186  1  0.88034890  0.87848123  0.88009885  1
  O  O187  1  0.25649798  0.01486902  0.36861088  1
  O  O188  1  0.24478005  0.01117435  0.86470514  1
  O  O189  1  0.25617715  0.50760766  0.38066529  1
  O  O190  1  0.25790682  0.50805914  0.87110422  1
  O  O191  1  0.74302347  -0.00347519  0.35934027  1
  O  O192  1  0.75875194  0.00951500  0.87731130  1
  O  O193  1  0.75392659  0.50283288  0.40828703  1
  O  O194  1  0.75851430  0.50422069  0.87149314  1
  O  O195  1  0.24519671  0.49959080  0.12310545  1
  O  O196  1  0.23463605  0.50360200  0.63094717  1
  O  O197  1  0.25776726  1.00500775  0.13507984  1
  O  O198  1  0.24305668  0.99717758  0.62967639  1
  O  O199  1  0.74052844  0.49317339  0.11803880  1
  O  O200  1  0.73993011  0.49113678  0.62060513  1
  O  O201  1  0.73925543  0.99502238  0.12983591  1
  O  O202  1  0.74716172  0.98717154  0.63073972  1
  O  O203  1  0.00949162  0.37405698  0.25562914  1
  O  O204  1  0.01538208  0.37654874  0.76451829  1
  O  O205  1  0.00110343  0.85816763  0.25295869  1
  O  O206  1  -0.00056911  0.86732031  0.75692597  1
  O  O207  1  0.51376501  0.37435965  0.26524903  1
  O  O208  1  0.51424341  0.37727273  0.75569897  1
  O  O209  1  0.50274476  0.87047197  0.25500231  1
  O  O210  1  0.50601458  0.86772725  0.74513763  1
  O  O211  1  0.49263353  0.12333957  0.24094026  1
  O  O212  1  0.48498868  0.12362765  0.74719865  1
  O  O213  1  0.48806570  0.63147755  0.24916070  1
  O  O214  1  0.49330528  0.63275048  0.74429782  1
  O  O215  1  1.01264238  0.13775259  0.24107388  1
  O  O216  1  0.99037319  0.12167330  0.75211491  1
  O  O217  1  0.98827036  0.63908188  0.25985223  1
  O  O218  1  0.99115857  0.63623144  0.76086482  1
  O  O219  1  0.37573070  0.25214257  0.00803583  1
  O  O220  1  0.36808138  0.25658818  0.50995948  1
  O  O221  1  0.37831741  0.76255229  0.00492249  1
  O  O222  1  0.36708614  0.75826815  0.50344199  1
  O  O223  1  0.86588477  0.24959782  0.01197551  1
  O  O224  1  0.86319495  0.26513460  0.51979288  1
  O  O225  1  0.87012632  0.75373161  0.00197874  1
  O  O226  1  0.84874937  0.74137123  0.52094298  1
  O  O227  1  0.14197753  0.25730633  0.49935434  1
  O  O228  1  0.11590351  0.23138146  0.98148334  1
  O  O229  1  0.14290068  0.75754271  0.48792479  1
  O  O230  1  0.12646557  0.74017389  0.99038843  1
  O  O231  1  0.63219488  0.25206575  0.49691284  1
  O  O232  1  0.63712017  0.24637954  0.99260569  1
  O  O233  1  0.62975498  0.74482414  0.50538423  1
  O  O234  1  0.62697733  0.74581150  0.99523794  1
  O  O235  1  0.51203557  0.23838637  0.12355720  1
  O  O236  1  0.48663401  0.23936415  0.62492630  1
  O  O237  1  0.48903253  0.74882365  0.13431102  1
  O  O238  1  0.49375496  0.74620867  0.63424169  1
  O  O239  1  0.99733103  0.24645013  0.13208691  1
  O  O240  1  0.99256092  0.23487905  0.62322040  1
  O  O241  1  0.99127828  0.74877641  0.12945256  1
  O  O242  1  0.99042686  0.75519700  0.63714498  1
  O  O243  1  0.00186727  0.26260592  0.35892993  1
  O  O244  1  -0.00006651  0.25913694  0.87540948  1
  O  O245  1  0.02441166  0.74644438  0.36159199  1
  O  O246  1  0.00255062  0.75979442  0.86576285  1
  O  O247  1  0.51457168  0.25762110  0.38362400  1
  O  O248  1  0.51339832  0.25808640  0.88023280  1
  O  O249  1  0.49300878  0.75813189  0.36068226  1
  O  O250  1  0.50505293  0.74546533  0.86081674  1
  O  O251  1  0.26245906  0.13081214  0.48580549  1
  O  O252  1  0.24416820  0.12411460  0.99370221  1
  O  O253  1  0.26126956  0.63578968  0.48639081  1
  O  O254  1  0.24190244  0.62825558  0.98562565  1
  O  O255  1  0.74350684  0.13961599  0.51043440  1
  O  O256  1  0.74593470  0.13349624  0.99699988  1
  O  O257  1  0.73010848  0.64289943  0.51164833  1
  O  O258  1  0.73907547  0.63160320  0.99204682  1
  O  O259  1  0.26682429  0.36142444  -0.03603640  1
  O  O260  1  0.26449280  0.36596338  0.49322967  1
  O  O261  1  0.26476181  0.87563744  -0.00262792  1
  O  O262  1  0.25871058  0.86945958  0.50188234  1
  O  O263  1  0.74485589  0.36629845  0.01321544  1
  O  O264  1  0.75355064  0.36766990  0.51709882  1
  O  O265  1  0.75452284  0.87048463  0.00357325  1
  O  O266  1  0.74280587  0.86259877  0.51028636  1
  O  O267  1  0.12922728  0.50007994  0.23614485  1
  O  O268  1  0.12709833  0.48876208  0.74103599  1
  O  O269  1  0.15054626  1.00280815  0.25119079  1
  O  O270  1  0.13772536  0.99805837  0.73967045  1
  O  O271  1  0.62062323  0.49362500  0.24066990  1
  O  O272  1  0.62771043  0.49267977  0.74389667  1
  O  O273  1  0.62914556  0.99050392  0.24243150  1
  O  O274  1  0.62629725  0.99276191  0.75013409  1
  O  O275  1  0.36795942  0.01841237  0.24647839  1
  O  O276  1  0.36110746  0.00941847  0.74483063  1
  O  O277  1  0.36849927  0.50154034  0.24671473  1
  O  O278  1  0.37266847  0.50703627  0.75910516  1
  O  O279  1  0.85564403  -0.00991881  0.24402829  1
  O  O280  1  0.87360138  0.00782000  0.76026585  1
  O  O281  1  0.87604752  0.51774577  0.25193094  1
  O  O282  1  0.87583621  0.50730472  0.75822716  1
  O  O283  1  0.11989404  0.37724433  0.36483178  1
  O  O284  1  0.11342863  0.36414177  0.87284357  1
  O  O285  1  0.13073135  0.86925131  0.36211157  1
  O  O286  1  0.11663539  0.86883769  0.87267551  1
  O  O287  1  0.61858624  0.37057518  0.37085321  1
  O  O288  1  0.61786671  0.37231490  0.87043062  1
  O  O289  1  0.61582458  0.87524885  0.36274184  1
  O  O290  1  0.62928356  0.86900312  0.86322327  1
  O  O291  1  0.39220025  0.12512194  0.13152019  1
  O  O292  1  0.37988866  0.13239532  0.63503892  1
  O  O293  1  0.37711182  0.63112351  0.12932750  1
  O  O294  1  0.37899982  0.63113132  0.62935771  1
  O  O295  1  0.88634505  0.13720212  0.12259794  1
  O  O296  1  0.88555496  0.13001367  0.63382376  1
  O  O297  1  0.87086046  0.63570192  0.12065097  1
  O  O298  1  0.87873007  0.63063621  0.63750029  1
  O  O299  1  0.20483385  0.26446030  0.11221595  1
  O  O300  1  0.25898731  0.23949298  0.61547707  1
  O  O301  1  0.26551652  0.75016938  0.11943435  1
  O  O302  1  0.25350860  0.75413946  0.61563953  1
  O  O303  1  0.75979060  0.25800398  0.12301968  1
  O  O304  1  0.75497107  0.25785244  0.62543291  1
  O  O305  1  0.75562782  0.75709164  0.11551889  1
  O  O306  1  0.75434695  0.76310360  0.63314768  1
  O  O307  1  0.25113037  0.23901514  0.38492097  1
  O  O308  1  0.23488884  0.22974908  0.87220321  1
  O  O309  1  0.24695363  0.74423761  0.37702621  1
  O  O310  1  0.24170733  0.74262275  0.87388662  1
  O  O311  1  0.73887403  0.25881989  0.39284869  1
  O  O312  1  0.74896992  0.24937049  0.88553157  1
  O  O313  1  0.74111375  0.75432987  0.38965682  1
  O  O314  1  0.74348027  0.74415727  0.87912994  1
  O  O315  1  0.00611485  0.11842872  0.01186244  1
  O  O316  1  -0.00205667  0.12398452  0.50938666  1
  O  O317  1  0.01440791  0.62122752  -0.01121187  1
  O  O318  1  -0.00938314  0.64305354  0.47797438  1
  O  O319  1  0.50709596  0.11999094  0.01230341  1
  O  O320  1  0.49949612  0.12472446  0.51137401  1
  O  O321  1  0.51296049  0.62629820  -0.00045169  1
  O  O322  1  0.49995848  0.62332014  0.50625788  1
  O  O323  1  0.49045387  0.37866537  0.49235308  1
  O  O324  1  0.49849891  0.37878087  0.99103877  1
  O  O325  1  0.49235883  0.87412604  0.49029439  1
  O  O326  1  0.48982962  0.88396717  1.00221270  1
  O  O327  1  0.99231491  0.36516148  0.48979969  1
  O  O328  1  1.00619196  0.37487203  0.98586139  1
  O  O329  1  0.98865715  0.84955486  0.49006885  1
  O  O330  1  0.99324999  0.87357930  0.99103668  1
  O  O331  1  0.49027453  0.49080528  0.38121352  1
  O  O332  1  0.49375056  0.49381399  0.87587201  1
  O  O333  1  0.50285623  0.98906201  0.37359640  1
  O  O334  1  0.50884301  1.00813756  0.89155625  1
  O  O335  1  0.99996779  0.48939039  0.37421578  1
  O  O336  1  0.99402830  0.48817020  0.87758235  1
  O  O337  1  0.99908034  1.00260193  0.36572209  1
  O  O338  1  0.99492039  0.98586289  0.87355050  1
  O  O339  1  -0.00804889  0.01081503  0.13068664  1
  O  O340  1  0.00740059  0.01244102  0.62843824  1
  O  O341  1  0.01095161  0.50593908  0.12286681  1
  O  O342  1  0.01521906  0.50452912  0.63194000  1
  O  O343  1  0.51157569  0.00575468  0.11967954  1
  O  O344  1  0.49852764  0.01545451  0.62579220  1
  O  O345  1  0.51643193  0.50510601  0.11868914  1
  O  O346  1  0.50164341  0.50591365  0.62070923  1
  O  O347  1  0.24762332  0.37789631  0.25338195  1
  O  O348  1  0.22850832  0.37383951  0.76361864  1
  O  O349  1  0.26246661  0.89428643  0.24729678  1
  O  O350  1  0.25059229  0.88258546  0.74084096  1
  O  O351  1  0.74352838  0.38761423  0.24742715  1
  O  O352  1  0.74156533  0.37783788  0.74186788  1
  O  O353  1  0.74067449  0.87700414  0.24363704  1
  O  O354  1  0.74056509  0.87794773  0.74561556  1
  O  O355  1  0.26049597  0.12135088  0.25773131  1
  O  O356  1  0.25665885  0.11812547  0.75499637  1
  O  O357  1  0.26287331  0.62892311  0.25659530  1
  O  O358  1  0.25674172  0.62731091  0.76053138  1
  O  O359  1  0.74547653  0.10705199  0.24756315  1
  O  O360  1  0.76103202  0.12454885  0.76091102  1
  O  O361  1  0.76349737  0.63292344  0.24866769  1
  O  O362  1  0.75783002  0.62374008  0.75377425  1
  O  O363  1  0.37205027  0.13167361  0.36297073  1
  O  O364  1  0.36648178  0.12988334  0.86678575  1
  O  O365  1  0.36943904  0.61607044  0.36406928  1
  O  O366  1  0.36930012  0.61868681  0.87200475  1
  O  O367  1  0.86041959  0.14972831  0.37958888  1
  O  O368  1  0.87479473  0.12116295  0.87283539  1
  O  O369  1  0.86902420  0.63720000  0.36529021  1
  O  O370  1  0.86872245  0.61901785  0.86522176  1
  O  O371  1  0.11963541  0.39355232  0.13934241  1
  O  O372  1  0.11913794  0.37085622  0.64079907  1
  O  O373  1  0.13300775  0.87296752  0.12581848  1
  O  O374  1  0.13167994  0.88215690  0.62540566  1
  O  O375  1  0.63440583  0.38149559  0.13506144  1
  O  O376  1  0.62905391  0.37664344  0.63295158  1
  O  O377  1  0.62803328  0.88285508  0.13143151  1
  O  O378  1  0.62974699  0.87540749  0.63876150  1
  O  O379  1  0.12030650  0.26367235  0.25386598  1
  O  O380  1  0.12317555  0.25648980  0.76011752  1
  O  O381  1  0.12214310  0.74972776  0.25078062  1
  O  O382  1  0.11624430  0.75169997  0.75410243  1
  O  O383  1  0.63625219  0.26172682  0.26289327  1
  O  O384  1  0.63424301  0.25980690  0.76610730  1
  O  O385  1  0.61287293  0.75988205  0.24002532  1
  O  O386  1  0.61551492  0.75660994  0.75466672  1
  O  O387  1  0.37144395  0.23356195  0.24392360  1
  O  O388  1  0.36502059  0.24280096  0.74138953  1
  O  O389  1  0.37979454  0.74363327  0.24219592  1
  O  O390  1  0.38090242  0.74659000  0.74446676  1
  O  O391  1  0.88782030  0.25750717  0.23791025  1
  O  O392  1  0.87057316  0.24154163  0.73942747  1
  O  O393  1  0.88022222  0.74142719  0.23726449  1
  O  O394  1  0.87960448  0.74425315  0.74233318  1
  O  O395  1  0.37716040  0.49124097  0.49772952  1
  O  O396  1  0.37780668  0.49722703  0.98684773  1
  O  O397  1  0.37725445  0.98715589  0.50579461  1
  O  O398  1  0.38475554  0.98853151  1.00191358  1
  O  O399  1  0.88461230  0.48543687  0.52217573  1
  O  O400  1  0.87767677  0.50660559  0.98418994  1
  O  O401  1  0.86293350  1.00508203  0.49123220  1
  O  O402  1  0.87789777  0.99208828  0.99397871  1
  O  O403  1  0.12154807  0.01270798  -0.00764023  1
  O  O404  1  0.13321809  -0.00290426  0.51095888  1
  O  O405  1  0.12504974  0.50511012  0.01139604  1
  O  O406  1  0.12574153  0.49428046  0.51837189  1
  O  O407  1  0.62181905  0.00663527  0.00852708  1
  O  O408  1  0.61967522  0.00384470  0.50623919  1
  O  O409  1  0.62623728  0.51029603  0.00513574  1
  O  O410  1  0.61169939  0.50884317  0.50835949  1
  O  O411  1  0.36815647  0.39089723  0.13387484  1
  O  O412  1  0.37979595  0.36624505  0.61863549  1
  O  O413  1  0.37396801  0.86954192  0.11652465  1
  O  O414  1  0.36918270  0.86841805  0.61770470  1
  O  O415  1  0.86544700  0.37482436  0.13146382  1
  O  O416  1  0.87037028  0.36850192  0.63084383  1
  O  O417  1  0.86934432  0.86507021  0.11624965  1
  O  O418  1  0.86596334  0.86840765  0.62443984  1
  O  O419  1  0.14535564  0.13093718  0.37226831  1
  O  O420  1  0.12789674  0.12712309  0.87721562  1
  O  O421  1  0.13884270  0.63237618  0.36923426  1
  O  O422  1  0.13169213  0.62572304  0.87687614  1
  O  O423  1  0.63193309  0.13422367  0.37737260  1
  O  O424  1  0.63268093  0.13528410  0.87950189  1
  O  O425  1  0.61205226  0.62428114  0.38724756  1
  O  O426  1  0.63041125  0.63030956  0.87963212  1
