# generated using pymatgen
data_V85Zn86O256
_symmetry_space_group_name_H-M   'P 1'
_cell_length_a   16.92954449
_cell_length_b   16.92973506
_cell_length_c   16.91462469
_cell_angle_alpha   89.98149427
_cell_angle_beta   90.00213272
_cell_angle_gamma   90.03334365
_symmetry_Int_Tables_number   1
_chemical_formula_structural   V85Zn86O256
_chemical_formula_sum   'V85 Zn86 O256'
_cell_volume   4847.94522413
_cell_formula_units_Z   1
loop_
 _symmetry_equiv_pos_site_id
 _symmetry_equiv_pos_as_xyz
  1  'x, y, z'
loop_
 _atom_site_type_symbol
 _atom_site_label
 _atom_site_symmetry_multiplicity
 _atom_site_fract_x
 _atom_site_fract_y
 _atom_site_fract_z
 _atom_site_occupancy
  V  V0  1  0.74886315  0.75383005  0.49756495  1
  V  V1  1  0.88713137  0.74534454  0.12706406  1
  V  V2  1  0.00285155  0.49440389  0.49896171  1
  V  V3  1  0.75676040  0.87320093  0.12250877  1
  V  V4  1  0.12145612  0.37244703  0.75145459  1
  V  V5  1  0.10598120  0.00438931  0.12349851  1
  V  V6  1  0.48114790  0.50037322  0.00368987  1
  V  V7  1  0.11242998  0.12314690  0.00210350  1
  V  V8  1  0.62826694  0.00018882  0.12266738  1
  V  V9  1  0.49942579  0.62252552  0.62654783  1
  V  V10  1  0.37731422  0.24094259  0.62917988  1
  V  V11  1  0.88056709  0.24856737  0.11936065  1
  V  V12  1  0.00368387  0.36933688  0.36254071  1
  V  V13  1  0.74963926  0.14117484  0.87769139  1
  V  V14  1  0.49690386  -0.00229221  0.00078045  1
  V  V15  1  0.12489436  0.62519282  0.49823835  1
  V  V16  1  0.25118033  0.37300574  0.62664989  1
  V  V17  1  0.00338440  0.62526236  0.62704383  1
  V  V18  1  0.24899052  0.61962766  0.87915035  1
  V  V19  1  0.25395300  0.49778316  0.75456593  1
  V  V20  1  0.11720762  0.74915202  0.36662705  1
  V  V21  1  0.12431379  0.24946634  0.36012182  1
  V  V22  1  0.63003632  0.13758750  -0.00118630  1
  V  V23  1  0.61537213  0.75535312  0.37731979  1
  V  V24  1  0.75430154  0.00220937  0.24944161  1
  V  V25  1  0.89027089  0.13398204  0.24871929  1
  V  V26  1  0.50789199  -0.00102029  0.49096292  1
  V  V27  1  0.37565160  0.00110340  0.86959584  1
  V  V28  1  0.74977060  0.24615006  0.51005771  1
  V  V29  1  0.87141917  -0.00449605  0.88807266  1
  V  V30  1  0.24252135  0.37365269  0.13260776  1
  V  V31  1  0.12495586  0.75283579  0.87513254  1
  V  V32  1  0.49761278  0.75128462  0.75081398  1
  V  V33  1  0.85773163  0.37447262  -0.00100511  1
  V  V34  1  0.24933037  0.62289590  0.37481489  1
  V  V35  1  0.37556108  0.62620828  0.25035048  1
  V  V36  1  0.51028715  0.25513655  0.24764235  1
  V  V37  1  0.25217528  0.25569603  0.00027396  1
  V  V38  1  -0.00363040  0.88000272  0.88892153  1
  V  V39  1  0.00600509  -0.00269042  0.50457142  1
  V  V40  1  0.87578801  0.75357873  0.62467774  1
  V  V41  1  0.25291650  0.88870035  0.12406497  1
  V  V42  1  0.62565397  0.00806848  0.62320423  1
  V  V43  1  0.51166544  0.37629061  0.37327101  1
  V  V44  1  0.62671822  0.24678089  0.38085805  1
  V  V45  1  0.25036830  0.75316167  0.50053461  1
  V  V46  1  0.25082853  0.24779424  0.49787193  1
  V  V47  1  0.74981366  0.12512881  0.37634743  1
  V  V48  1  0.12199929  0.87531640  0.24565393  1
  V  V49  1  0.62483494  0.75129596  0.87891235  1
  V  V50  1  0.50319472  0.12778187  0.12368891  1
  V  V51  1  0.62573394  0.62506979  0.50511422  1
  V  V52  1  0.62202042  0.87587825  0.25358380  1
  V  V53  1  0.49241944  0.38879660  0.87381817  1
  V  V54  1  0.37757050  0.25947074  0.12314003  1
  V  V55  1  0.37431124  0.49687716  0.37467601  1
  V  V56  1  0.49494809  0.87419880  0.88037245  1
  V  V57  1  0.74349279  0.49451831  0.25958399  1
  V  V58  1  0.37246394  0.62447618  0.75439299  1
  V  V59  1  -0.00259155  0.37051761  0.87697322  1
  V  V60  1  0.62526530  0.61723995  0.00295415  1
  V  V61  1  0.62575613  0.87797015  0.74883384  1
  V  V62  1  0.25071291  0.11876029  0.36874615  1
  V  V63  1  0.75436358  0.75020108  0.00305496  1
  V  V64  1  0.88430035  0.62506054  0.24872075  1
  V  V65  1  -0.00219037  0.75499730  0.75181778  1
  V  V66  1  0.25376728  0.75752577  -0.00053507  1
  V  V67  1  0.49825006  0.23266198  0.76170139  1
  V  V68  1  0.87808197  0.87687130  0.49695473  1
  V  V69  1  0.24570858  0.00380725  0.74298770  1
  V  V70  1  0.62435457  0.49395464  0.12967690  1
  V  V71  1  -0.00059258  0.50478718  0.00155706  1
  V  V72  1  0.12288569  0.24905048  0.87297143  1
  V  V73  1  0.37522499  0.12179051  0.24757440  1
  V  V74  1  0.87641365  0.36940511  0.50652015  1
  V  V75  1  0.37545955  0.37205056  0.49882471  1
  V  V76  1  0.74874362  0.62291431  0.86694474  1
  V  V77  1  0.50164760  0.49691799  0.50581294  1
  V  V78  1  0.11775381  0.50184190  0.13270982  1
  V  V79  1  0.25498241  0.12581627  0.87497451  1
  V  V80  1  0.37554504  0.75593868  0.12300727  1
  V  V81  1  0.00351089  0.12926394  0.63239733  1
  V  V82  1  0.87270178  0.49973648  0.86818965  1
  V  V83  1  0.12711350  0.11996051  0.50260819  1
  V  V84  1  0.37695947  -0.00948340  0.37023342  1
  Zn  Zn85  1  0.50141441  0.62910531  0.12806112  1
  Zn  Zn86  1  0.49989238  0.12347749  0.62188021  1
  Zn  Zn87  1  0.24645441  0.49321311  0.25254635  1
  Zn  Zn88  1  0.74420742  0.36930599  0.12849324  1
  Zn  Zn89  1  0.37315530  0.75450173  0.62472575  1
  Zn  Zn90  1  0.61392904  0.36338099  0.73528265  1
  Zn  Zn91  1  0.87918446  0.25075095  0.63337623  1
  Zn  Zn92  1  0.11957910  0.62794102  0.00609021  1
  Zn  Zn93  1  0.37865169  0.87394366  0.50016135  1
  Zn  Zn94  1  0.75486964  0.00239878  0.74997363  1
  Zn  Zn95  1  0.69790834  0.46473264  0.67880581  1
  Zn  Zn96  1  0.87141507  0.62301462  0.74798255  1
  Zn  Zn97  1  0.88030443  0.12703103  0.75479572  1
  Zn  Zn98  1  0.24787487  0.88202187  0.62147566  1
  Zn  Zn99  1  0.12276432  0.88218934  0.74470896  1
  Zn  Zn100  1  0.75007760  0.62329114  0.37440631  1
  Zn  Zn101  1  0.75016172  0.87924689  0.62481383  1
  Zn  Zn102  1  0.88020531  0.00233831  0.37315874  1
  Zn  Zn103  1  0.12650164  0.49813339  0.62704738  1
  Zn  Zn104  1  0.49644968  0.75634149  0.25304053  1
  Zn  Zn105  1  -0.00087572  0.87421588  0.36825531  1
  Zn  Zn106  1  0.87317367  0.49759127  0.37383921  1
  Zn  Zn107  1  0.18873784  0.18139080  0.18479182  1
  Zn  Zn108  1  0.18749864  0.18442422  0.68848821  1
  Zn  Zn109  1  0.18847156  0.68710351  0.18642117  1
  Zn  Zn110  1  0.18579585  0.69137845  0.68838954  1
  Zn  Zn111  1  0.69334048  0.19025876  0.18731005  1
  Zn  Zn112  1  0.68550242  0.18602913  0.69453772  1
  Zn  Zn113  1  0.69115095  0.68339088  0.19102369  1
  Zn  Zn114  1  0.68548050  0.69168222  0.68577498  1
  Zn  Zn115  1  0.31622427  0.30747788  0.31087084  1
  Zn  Zn116  1  0.31859695  0.31287908  0.81488874  1
  Zn  Zn117  1  0.30272385  0.81183098  0.30720449  1
  Zn  Zn118  1  0.31264074  0.81626535  0.81203729  1
  Zn  Zn119  1  0.81509373  0.31253319  0.31486527  1
  Zn  Zn120  1  0.81159912  0.31167059  0.79950454  1
  Zn  Zn121  1  0.81085225  0.80994450  0.31162175  1
  Zn  Zn122  1  0.81279885  0.81492493  0.81470228  1
  Zn  Zn123  1  0.18512265  0.43425011  0.43587822  1
  Zn  Zn124  1  0.18717989  0.43701495  0.94368317  1
  Zn  Zn125  1  0.18906163  0.93682425  0.43269851  1
  Zn  Zn126  1  0.18453522  0.93859664  0.93838201  1
  Zn  Zn127  1  0.70463859  0.45135777  0.48743315  1
  Zn  Zn128  1  0.68358751  0.43260514  0.86029420  1
  Zn  Zn129  1  0.68986783  0.93959782  0.43647823  1
  Zn  Zn130  1  0.68747055  0.93938621  0.93954678  1
  Zn  Zn131  1  0.31510079  0.06893452  0.05610036  1
  Zn  Zn132  1  0.31755482  0.06065962  0.55596135  1
  Zn  Zn133  1  0.30281814  0.56887460  0.06962070  1
  Zn  Zn134  1  0.31325376  0.56246804  0.56543564  1
  Zn  Zn135  1  0.81604774  0.06772346  0.06288495  1
  Zn  Zn136  1  0.81614437  0.06220304  0.56313685  1
  Zn  Zn137  1  0.80929289  0.55964934  0.06409199  1
  Zn  Zn138  1  0.82217294  0.56910183  0.55840596  1
  Zn  Zn139  1  0.43699922  0.43820328  0.18807709  1
  Zn  Zn140  1  0.43747633  0.43541338  0.68840125  1
  Zn  Zn141  1  0.43853905  0.93754485  0.18609482  1
  Zn  Zn142  1  0.43555694  0.93855898  0.68456455  1
  Zn  Zn143  1  0.93131036  0.43765068  0.18550747  1
  Zn  Zn144  1  0.93902798  0.43666506  0.68828176  1
  Zn  Zn145  1  0.93580942  0.93607991  0.18729520  1
  Zn  Zn146  1  0.93727347  0.94385537  0.68933475  1
  Zn  Zn147  1  0.06596594  0.05585643  0.31299400  1
  Zn  Zn148  1  0.06267275  0.05972548  0.81892701  1
  Zn  Zn149  1  0.06073937  0.55889169  0.31153253  1
  Zn  Zn150  1  0.06381272  0.56223511  0.81411102  1
  Zn  Zn151  1  0.56463290  0.06454594  0.31150918  1
  Zn  Zn152  1  0.56807600  0.06356020  0.81436229  1
  Zn  Zn153  1  0.56264877  0.56510438  0.31656873  1
  Zn  Zn154  1  0.55959660  0.56247540  0.81482326  1
  Zn  Zn155  1  0.44014052  0.18267432  0.43767824  1
  Zn  Zn156  1  0.43593022  0.18600811  0.94153164  1
  Zn  Zn157  1  0.43684754  0.68767050  0.43756206  1
  Zn  Zn158  1  0.43479413  0.68532648  0.93966071  1
  Zn  Zn159  1  0.93940247  0.18731886  0.43795841  1
  Zn  Zn160  1  0.93234164  0.18966891  0.93605948  1
  Zn  Zn161  1  0.93716575  0.68582006  0.43479730  1
  Zn  Zn162  1  0.93507175  0.68759034  0.93879655  1
  Zn  Zn163  1  0.05907533  0.31484073  0.06321068  1
  Zn  Zn164  1  0.06737994  0.30775691  0.55865775  1
  Zn  Zn165  1  0.06590243  0.81384515  0.06270473  1
  Zn  Zn166  1  0.06813015  0.81514209  0.56383219  1
  Zn  Zn167  1  0.56218943  0.32200789  0.05216908  1
  Zn  Zn168  1  0.56634738  0.31134554  0.56603629  1
  Zn  Zn169  1  0.56543829  0.81202414  0.06495725  1
  Zn  Zn170  1  0.55854479  0.81764800  0.56397758  1
  O  O171  1  0.12729212  0.11176156  0.11841664  1
  O  O172  1  0.11869461  0.12733350  0.61367513  1
  O  O173  1  0.13154112  0.60786948  0.12322312  1
  O  O174  1  0.11499650  0.62512410  0.62066341  1
  O  O175  1  0.62281417  0.11871311  0.12134934  1
  O  O176  1  0.62341698  0.11124659  0.62929114  1
  O  O177  1  0.62263945  0.61962455  0.11931453  1
  O  O178  1  0.61649706  0.63022278  0.61419704  1
  O  O179  1  0.38053188  0.37719374  0.38110861  1
  O  O180  1  0.39273725  0.36505320  0.88338880  1
  O  O181  1  0.36824095  0.88855626  0.36610025  1
  O  O182  1  0.38815217  0.88198157  0.87414813  1
  O  O183  1  0.89077784  0.37191091  0.38569598  1
  O  O184  1  0.88122539  0.38110389  0.87960306  1
  O  O185  1  0.87751371  0.87321690  0.38482995  1
  O  O186  1  0.88122134  0.88584448  0.87429976  1
  O  O187  1  0.25973418  0.01204040  0.37616175  1
  O  O188  1  0.25794691  0.00705232  0.87403605  1
  O  O189  1  0.25466614  0.50388779  0.37381583  1
  O  O190  1  0.24463347  0.51147774  0.87216798  1
  O  O191  1  0.75451363  0.00796073  0.36791622  1
  O  O192  1  0.76210682  -0.00256438  0.87396546  1
  O  O193  1  0.75062640  0.50137316  0.37478723  1
  O  O194  1  0.76138808  0.51273843  0.88529769  1
  O  O195  1  0.23935093  0.49002809  0.12565639  1
  O  O196  1  0.24833885  0.49213002  0.63442766  1
  O  O197  1  0.25575412  0.98982719  0.11601270  1
  O  O198  1  0.25735480  1.00746026  0.64061698  1
  O  O199  1  0.73916581  0.49749110  0.13443092  1
  O  O200  1  0.75027561  0.49274278  0.58828973  1
  O  O201  1  0.74955104  0.99283551  0.12900948  1
  O  O202  1  0.74264983  0.99872908  0.62662316  1
  O  O203  1  -0.00507525  0.37907370  0.26466992  1
  O  O204  1  0.01496484  0.38164847  0.75853344  1
  O  O205  1  0.01449458  0.87860457  0.24903213  1
  O  O206  1  -0.00040071  0.86415038  0.75498838  1
  O  O207  1  0.49239185  0.36517480  0.25992980  1
  O  O208  1  0.49618521  0.37284150  0.76417620  1
  O  O209  1  0.51761111  0.87623818  0.24433259  1
  O  O210  1  0.50844313  0.87206587  0.75747099  1
  O  O211  1  0.49733101  0.13405217  0.24230009  1
  O  O212  1  0.49636581  0.12997788  0.74971949  1
  O  O213  1  0.48647195  0.62854841  0.25176861  1
  O  O214  1  0.49151613  0.62871975  0.74707792  1
  O  O215  1  0.98785638  0.12018178  0.25430070  1
  O  O216  1  1.00911404  0.11878378  0.73458978  1
  O  O217  1  0.98387981  0.61934977  0.25092004  1
  O  O218  1  1.00049103  0.63544852  0.74397806  1
  O  O219  1  0.36570882  0.24212862  0.01275591  1
  O  O220  1  0.37039689  0.25385610  0.50401267  1
  O  O221  1  0.36587720  0.74726394  0.00919198  1
  O  O222  1  0.36514083  0.75219860  0.49812212  1
  O  O223  1  0.87640535  0.25819961  0.01047878  1
  O  O224  1  0.86984936  0.25366542  0.50481467  1
  O  O225  1  0.86131258  0.74139951  0.00977728  1
  O  O226  1  0.86863981  0.75557570  0.50291565  1
  O  O227  1  0.13370343  0.23787678  0.48988857  1
  O  O228  1  0.13093161  0.24608171  0.99217353  1
  O  O229  1  0.13134561  0.74244898  0.49097541  1
  O  O230  1  0.13062174  0.74793039  0.99040244  1
  O  O231  1  0.63282740  0.25068181  0.48900923  1
  O  O232  1  0.62093529  0.23648339  1.00807724  1
  O  O233  1  0.63013128  0.74987769  0.49647677  1
  O  O234  1  0.63200951  0.73993391  0.99790657  1
  O  O235  1  0.49531463  0.25130828  0.12994101  1
  O  O236  1  0.49149057  0.24502629  0.63119452  1
  O  O237  1  0.49033268  0.74973453  0.12754272  1
  O  O238  1  0.49816178  0.73990640  0.63169882  1
  O  O239  1  0.98180404  0.25901017  0.12728170  1
  O  O240  1  1.00369958  0.23266662  0.61853554  1
  O  O241  1  0.98636517  0.75238939  0.11754041  1
  O  O242  1  0.99728645  0.74421628  0.63210499  1
  O  O243  1  0.01005985  0.26040738  0.37885612  1
  O  O244  1  0.00745858  0.26218759  0.87936432  1
  O  O245  1  0.01415717  0.75185000  0.37935766  1
  O  O246  1  0.00423911  0.75466624  0.86974203  1
  O  O247  1  0.50714274  0.25270336  0.36907118  1
  O  O248  1  0.49346891  0.24564568  0.86299883  1
  O  O249  1  0.51118902  0.75164622  0.37530464  1
  O  O250  1  0.50323177  0.75725639  0.87331017  1
  O  O251  1  0.24544525  0.12766979  0.49122640  1
  O  O252  1  0.24144973  0.13641845  0.99376313  1
  O  O253  1  0.24442612  0.62776894  0.49328944  1
  O  O254  1  0.24685947  0.63678692  0.99251005  1
  O  O255  1  0.76073486  0.13102490  0.48450091  1
  O  O256  1  0.74239217  0.11961587  0.98934587  1
  O  O257  1  0.74174497  0.63745301  0.49851190  1
  O  O258  1  0.74171325  0.63038387  0.99404559  1
  O  O259  1  0.24699615  0.36197963  0.00942077  1
  O  O260  1  0.25486859  0.36810914  0.50474473  1
  O  O261  1  0.24539728  0.86431149  0.00539193  1
  O  O262  1  0.25260306  0.86529574  0.49713535  1
  O  O263  1  0.75935465  0.38120844  -0.00130765  1
  O  O264  1  0.76616277  0.35645175  0.48715464  1
  O  O265  1  0.74221200  0.86285514  0.01001143  1
  O  O266  1  0.75935659  0.87014614  0.50118302  1
  O  O267  1  0.12648776  0.49985877  0.23717005  1
  O  O268  1  0.13643323  0.49266427  0.75061183  1
  O  O269  1  0.12487822  0.99560231  0.23202364  1
  O  O270  1  0.14208376  1.00113365  0.75778458  1
  O  O271  1  0.63012883  0.50728293  0.24306016  1
  O  O272  1  0.62976949  0.49134142  0.76796926  1
  O  O273  1  0.63381459  0.99543556  0.24376691  1
  O  O274  1  0.62636563  0.99226151  0.74316137  1
  O  O275  1  0.38630806  0.01385985  0.25482182  1
  O  O276  1  0.36817444  -0.00062044  0.76366876  1
  O  O277  1  0.37138766  0.50803707  0.25558289  1
  O  O278  1  0.36167696  0.50630496  0.74907427  1
  O  O279  1  0.86947306  0.01036943  0.24926855  1
  O  O280  1  0.87304331  0.00674488  0.76037867  1
  O  O281  1  0.86739989  0.50981480  0.25146025  1
  O  O282  1  0.87882883  0.50189554  0.76271918  1
  O  O283  1  0.11451828  0.36429360  0.37672750  1
  O  O284  1  0.11963859  0.36863000  0.87209427  1
  O  O285  1  0.12725655  0.86728391  0.36283709  1
  O  O286  1  0.11630111  0.86908552  0.87153424  1
  O  O287  1  0.61242086  0.36628333  0.37837738  1
  O  O288  1  0.59356345  0.36716729  0.88975509  1
  O  O289  1  0.63280690  0.86780366  0.36586165  1
  O  O290  1  0.61602800  0.87104446  0.87009537  1
  O  O291  1  0.38239528  0.13315528  0.13046274  1
  O  O292  1  0.37369921  0.13819358  0.62023674  1
  O  O293  1  0.37202719  0.63773325  0.13461787  1
  O  O294  1  0.37975804  0.62868768  0.63761073  1
  O  O295  1  0.87396191  0.13636164  0.13529925  1
  O  O296  1  0.89357457  0.12392974  0.62409413  1
  O  O297  1  0.86862100  0.63127712  0.13730330  1
  O  O298  1  0.88794303  0.63329490  0.62617696  1
  O  O299  1  0.25503599  0.25456515  0.11958548  1
  O  O300  1  0.25653161  0.25433295  0.62104554  1
  O  O301  1  0.25467991  0.75829397  0.11644323  1
  O  O302  1  0.25055196  0.74322775  0.60910101  1
  O  O303  1  0.76774952  0.25607283  0.13374818  1
  O  O304  1  0.74897986  0.23873001  0.61265980  1
  O  O305  1  0.75352203  0.75552812  0.11993837  1
  O  O306  1  0.75530096  0.75344988  0.61402641  1
  O  O307  1  0.24646121  0.23990748  0.37837288  1
  O  O308  1  0.24605050  0.24489643  0.88151831  1
  O  O309  1  0.24120269  0.74265016  0.38266241  1
  O  O310  1  0.24315236  0.74666553  0.87970560  1
  O  O311  1  0.74275173  0.24327714  0.37747781  1
  O  O312  1  0.75516640  0.23877757  0.87974433  1
  O  O313  1  0.74122516  0.74953905  0.38625110  1
  O  O314  1  0.74640396  0.74480175  0.88434812  1
  O  O315  1  0.01352657  0.13064563  -0.00675640  1
  O  O316  1  0.00976632  0.11767698  0.50420715  1
  O  O317  1  0.00006221  0.60968140  -0.00632959  1
  O  O318  1  0.00492559  0.61748293  0.50602607  1
  O  O319  1  0.50822368  0.11822425  0.00529086  1
  O  O320  1  0.49633038  0.10626301  0.50225096  1
  O  O321  1  0.50589473  0.61707140  0.00092456  1
  O  O322  1  0.50392224  0.62207203  0.50939794  1
  O  O323  1  0.49253634  0.37776801  0.49243515  1
  O  O324  1  0.49119958  0.39485312  0.99901634  1
  O  O325  1  0.49654950  0.89153638  0.50082988  1
  O  O326  1  0.50838159  0.88428223  0.99211054  1
  O  O327  1  1.00019674  0.37998848  0.49527562  1
  O  O328  1  0.99440856  0.38524584  0.99066474  1
  O  O329  1  0.99542687  0.88043624  0.49835420  1
  O  O330  1  1.00124393  0.87110192  0.98771778  1
  O  O331  1  0.49361067  0.49192977  0.38002023  1
  O  O332  1  0.49257293  0.49744050  0.88866170  1
  O  O333  1  0.49510393  1.00375348  0.38255388  1
  O  O334  1  0.49545530  0.99488184  0.87970138  1
  O  O335  1  1.00329777  0.48651443  0.38258315  1
  O  O336  1  0.99474075  0.49188919  0.88050074  1
  O  O337  1  0.99995281  0.99621187  0.38778030  1
  O  O338  1  0.98730332  0.99190485  0.87240754  1
  O  O339  1  0.00777612  -0.00150685  0.12025649  1
  O  O340  1  0.00077755  0.00833370  0.61178961  1
  O  O341  1  0.01069304  0.49316473  0.11873232  1
  O  O342  1  0.00358176  0.50815980  0.61935961  1
  O  O343  1  0.50499713  0.00514414  0.11679470  1
  O  O344  1  0.50669893  0.00188658  0.61598379  1
  O  O345  1  0.50286604  0.50462920  0.11778920  1
  O  O346  1  0.49090524  0.51480021  0.62194151  1
  O  O347  1  0.25365234  0.37188218  0.23734354  1
  O  O348  1  0.24396449  0.38105856  0.75076021  1
  O  O349  1  0.23640799  0.87360469  0.23529244  1
  O  O350  1  0.24992868  0.89307595  0.75414680  1
  O  O351  1  0.75744543  0.39065358  0.25211882  1
  O  O352  1  0.73069818  0.37931545  0.76475758  1
  O  O353  1  0.74368342  0.88202668  0.24424436  1
  O  O354  1  0.73564957  0.87278707  0.74951565  1
  O  O355  1  0.26319035  0.12878184  0.25623788  1
  O  O356  1  0.24783855  0.11577302  0.76165434  1
  O  O357  1  0.26003004  0.62391913  0.25749722  1
  O  O358  1  0.25374916  0.61900928  0.75613208  1
  O  O359  1  0.75767465  0.11927779  0.25852264  1
  O  O360  1  0.74764661  0.12272961  0.76823564  1
  O  O361  1  0.75604519  0.61261978  0.25494506  1
  O  O362  1  0.74922696  0.63191586  0.76203817  1
  O  O363  1  0.36974589  0.11945911  0.36594756  1
  O  O364  1  0.36251377  0.11822569  0.88085928  1
  O  O365  1  0.36951507  0.61869254  0.37013636  1
  O  O366  1  0.36375853  0.63078358  0.86347640  1
  O  O367  1  0.87106019  0.12717883  0.36278655  1
  O  O368  1  0.86395977  0.11596030  0.87878382  1
  O  O369  1  0.87275602  0.62354250  0.36367897  1
  O  O370  1  0.86657526  0.61834952  0.87322055  1
  O  O371  1  0.13148104  0.38642204  0.12052512  1
  O  O372  1  0.13179993  0.37187150  0.63493265  1
  O  O373  1  0.13084582  0.88737044  0.12533724  1
  O  O374  1  0.13508870  0.86984400  0.63220232  1
  O  O375  1  0.62387840  0.38964465  0.12212880  1
  O  O376  1  0.61663385  0.39088312  0.62341473  1
  O  O377  1  0.63689067  0.87984704  0.13160969  1
  O  O378  1  0.62484286  0.88356327  0.63416819  1
  O  O379  1  0.12928800  0.24328823  0.26067477  1
  O  O380  1  0.13293767  0.25730810  0.76467574  1
  O  O381  1  0.12917291  0.75754202  0.25548792  1
  O  O382  1  0.11829173  0.75024933  0.76290613  1
  O  O383  1  0.61523761  0.24754623  0.25726156  1
  O  O384  1  0.60237469  0.24730196  0.74584676  1
  O  O385  1  0.62615876  0.75694940  0.25980904  1
  O  O386  1  0.61701925  0.75626215  0.75768277  1
  O  O387  1  0.38652210  0.23977498  0.24369593  1
  O  O388  1  0.38700542  0.25358950  0.74076189  1
  O  O389  1  0.37473834  0.74425212  0.24488666  1
  O  O390  1  0.37986732  0.74303418  0.75001679  1
  O  O391  1  0.87685659  0.23893719  0.24524722  1
  O  O392  1  0.87747378  0.24150524  0.74643765  1
  O  O393  1  0.86830084  0.73538912  0.24255796  1
  O  O394  1  0.88186970  0.74888742  0.74442809  1
  O  O395  1  0.38120782  0.49416784  0.49546599  1
  O  O396  1  0.38337516  0.51265941  1.00842444  1
  O  O397  1  0.38344662  0.99651533  0.48675748  1
  O  O398  1  0.38948591  1.00573740  0.98955028  1
  O  O399  1  0.89149308  0.49310985  0.49489492  1
  O  O400  1  0.88112040  0.49393743  0.99366869  1
  O  O401  1  0.88391998  0.99118321  0.49699647  1
  O  O402  1  0.87341576  1.00102834  0.98794100  1
  O  O403  1  0.12932950  0.00870414  0.01301707  1
  O  O404  1  0.12191066  0.01095935  0.49317723  1
  O  O405  1  0.11649880  0.50207771  0.00922860  1
  O  O406  1  0.11722643  0.50497057  0.50231398  1
  O  O407  1  0.61573137  0.00631402  0.00562198  1
  O  O408  1  0.61590338  -0.00449392  0.50551994  1
  O  O409  1  0.61526610  0.51291837  0.00993978  1
  O  O410  1  0.61032498  0.51514216  0.48965232  1
  O  O411  1  0.36796103  0.36374641  0.12850155  1
  O  O412  1  0.37047999  0.36594689  0.61823012  1
  O  O413  1  0.36767947  0.86463980  0.13155553  1
  O  O414  1  0.36677138  0.87213983  0.62218209  1
  O  O415  1  0.87109919  0.36916355  0.11503375  1
  O  O416  1  0.88577197  0.37105600  0.61169540  1
  O  O417  1  0.86294234  0.86383307  0.13353439  1
  O  O418  1  0.87616461  0.87097640  0.61382098  1
  O  O419  1  0.13391478  0.12811017  0.37760957  1
  O  O420  1  0.13263562  0.13175711  0.88151952  1
  O  O421  1  0.12939790  0.62983989  0.37624463  1
  O  O422  1  0.13344647  0.63378475  0.87693731  1
  O  O423  1  0.63577528  0.13478174  0.37018286  1
  O  O424  1  0.63954051  0.12053501  0.88492390  1
  O  O425  1  0.62384338  0.63714890  0.38826579  1
  O  O426  1  0.63024362  0.63197129  0.88354104  1
