# generated using pymatgen
data_V85Zn86O256
_symmetry_space_group_name_H-M   'P 1'
_cell_length_a   16.96834894
_cell_length_b   16.96309628
_cell_length_c   16.95450984
_cell_angle_alpha   89.95995986
_cell_angle_beta   89.95712473
_cell_angle_gamma   90.06174660
_symmetry_Int_Tables_number   1
_chemical_formula_structural   V85Zn86O256
_chemical_formula_sum   'V85 Zn86 O256'
_cell_volume   4880.10843883
_cell_formula_units_Z   1
loop_
 _symmetry_equiv_pos_site_id
 _symmetry_equiv_pos_as_xyz
  1  'x, y, z'
loop_
 _atom_site_type_symbol
 _atom_site_label
 _atom_site_symmetry_multiplicity
 _atom_site_fract_x
 _atom_site_fract_y
 _atom_site_fract_z
 _atom_site_occupancy
  V  V0  1  -0.01076989  0.36859738  0.87609108  1
  V  V1  1  0.37109797  0.75278766  0.12430543  1
  V  V2  1  0.37595042  0.62642878  0.74758795  1
  V  V3  1  0.62308719  0.13557863  0.49817287  1
  V  V4  1  0.24987329  0.24971313  -0.00202048  1
  V  V5  1  0.11192817  0.00004045  0.62886997  1
  V  V6  1  0.11520753  0.37309781  0.74746387  1
  V  V7  1  0.63123149  0.87902959  0.75162134  1
  V  V8  1  0.87388148  0.87176747  0.00458662  1
  V  V9  1  0.62204316  0.00653483  0.12761809  1
  V  V10  1  0.74865306  0.62341224  0.87654579  1
  V  V11  1  0.00299731  0.24665959  0.24994342  1
  V  V12  1  0.74534317  0.87654074  0.62302696  1
  V  V13  1  0.12890853  -0.01468165  0.12450390  1
  V  V14  1  0.01075381  0.49552024  0.00446451  1
  V  V15  1  0.24855725  0.62414939  0.87778469  1
  V  V16  1  0.37707442  0.24447545  0.12277895  1
  V  V17  1  0.50122782  0.24599433  0.24929830  1
  V  V18  1  0.00379259  0.12312542  0.12862910  1
  V  V19  1  0.37986984  0.12565936  0.74791041  1
  V  V20  1  0.49662043  0.75234615  0.74945830  1
  V  V21  1  -0.00317815  0.74717825  0.75574140  1
  V  V22  1  0.12947456  0.87278016  0.74806782  1
  V  V23  1  0.62119557  0.01173500  0.62993423  1
  V  V24  1  0.25040276  0.37470144  0.62639702  1
  V  V25  1  0.49940331  0.87765991  0.87796598  1
  V  V26  1  0.74810318  0.74597296  0.00898537  1
  V  V27  1  0.87402177  0.49702038  0.87911721  1
  V  V28  1  0.38448703  0.50083766  0.87696824  1
  V  V29  1  0.24800228  0.12608563  0.87232025  1
  V  V30  1  0.88406418  0.00015743  0.38725016  1
  V  V31  1  0.37461487  0.37613572  0.50048860  1
  V  V32  1  0.24487186  0.50385442  0.24806963  1
  V  V33  1  0.36861073  0.76341802  0.61529381  1
  V  V34  1  0.25163031  0.24809520  0.49963939  1
  V  V35  1  0.50371776  0.62738311  0.61742322  1
  V  V36  1  0.50127059  0.88310465  0.37690566  1
  V  V37  1  0.37063505  0.87728537  0.00399394  1
  V  V38  1  0.62296238  0.74838251  0.87994937  1
  V  V39  1  0.37584349  0.62354340  0.24939462  1
  V  V40  1  0.12678248  0.24323880  0.37307347  1
  V  V41  1  0.67046803  0.44145389  0.10438660  1
  V  V42  1  0.75199364  0.00163884  0.25722210  1
  V  V43  1  0.74969594  0.13249449  0.38712986  1
  V  V44  1  0.51215458  0.50361156  0.49493141  1
  V  V45  1  0.87152846  0.74529262  0.62381184  1
  V  V46  1  0.74478065  0.37484021  0.62119911  1
  V  V47  1  0.63773379  0.24870698  0.87223435  1
  V  V48  1  0.85779736  0.00280100  0.86786010  1
  V  V49  1  -0.00074585  0.00056418  -0.00300551  1
  V  V50  1  0.00582905  0.37875247  0.37866661  1
  V  V51  1  0.12607590  0.37579107  0.24441960  1
  V  V52  1  0.11882007  0.24851166  0.86938620  1
  V  V53  1  0.64216833  0.12255707  -0.00653130  1
  V  V54  1  0.38272356  0.24865626  0.62526275  1
  V  V55  1  -0.00081409  0.14273261  0.62392172  1
  V  V56  1  0.50024678  0.37094005  0.37018999  1
  V  V57  1  0.50578366  0.24954489  0.75104118  1
  V  V58  1  0.37671875  0.50207600  0.37677307  1
  V  V59  1  0.62517953  0.87696249  0.25258615  1
  V  V60  1  0.50040733  0.61673674  0.11628138  1
  V  V61  1  0.61925254  0.74082669  0.38347537  1
  V  V62  1  0.24897178  0.37918086  0.12340482  1
  V  V63  1  0.87226913  0.25715426  0.11849429  1
  V  V64  1  0.49980984  0.75137361  0.24706847  1
  V  V65  1  0.25046670  0.49869418  0.75022661  1
  V  V66  1  0.12406335  0.50860466  0.61888182  1
  V  V67  1  0.75271327  0.87574589  0.12925368  1
  V  V68  1  -0.01795524  0.75779905  0.25190757  1
  V  V69  1  0.38209519  0.37915731  0.00005788  1
  V  V70  1  0.25162445  -0.00352069  0.74591562  1
  V  V71  1  0.25045905  -0.01497606  0.24256831  1
  V  V72  1  0.23775059  0.62856659  0.38220850  1
  V  V73  1  0.87812014  0.12268903  0.25515746  1
  V  V74  1  0.37630047  0.11876282  0.24593883  1
  V  V75  1  0.24493051  0.75409876  0.00866752  1
  V  V76  1  0.12361266  0.74808525  0.87835312  1
  V  V77  1  0.32826203  -0.05362331  0.42964592  1
  V  V78  1  0.49917719  0.01096492  0.00324709  1
  V  V79  1  0.87830359  0.51372820  0.36880176  1
  V  V80  1  0.87166794  0.37426466  0.49803955  1
  V  V81  1  -0.00132726  0.87397152  0.87707153  1
  V  V82  1  0.50184846  0.00182813  0.50253410  1
  V  V83  1  0.88523396  0.88166121  0.50250876  1
  V  V84  1  0.25558845  0.12297201  0.37215071  1
  Zn  Zn85  1  0.86987352  0.13572528  0.75664663  1
  Zn  Zn86  1  0.12730980  0.11582477  0.49718619  1
  Zn  Zn87  1  0.13034843  0.61331141  0.01406149  1
  Zn  Zn88  1  0.75001899  0.27319969  0.00746299  1
  Zn  Zn89  1  0.63316129  0.51120691  0.61933647  1
  Zn  Zn90  1  0.24054102  0.74697308  0.50247194  1
  Zn  Zn91  1  0.62137340  0.60935036  0.00560292  1
  Zn  Zn92  1  0.00721091  0.51665680  0.49166784  1
  Zn  Zn93  1  0.74437810  0.74576452  0.50214926  1
  Zn  Zn94  1  0.74680744  0.62568987  0.37646252  1
  Zn  Zn95  1  0.00184870  0.62768331  0.62340476  1
  Zn  Zn96  1  0.12431383  0.12500733  -0.00178955  1
  Zn  Zn97  1  0.50431479  0.37710247  0.87569367  1
  Zn  Zn98  1  0.62386484  0.38363784  0.74838859  1
  Zn  Zn99  1  0.74885541  0.48754103  0.24820978  1
  Zn  Zn100  1  0.10180444  0.80437859  0.36013474  1
  Zn  Zn101  1  0.87584257  0.25706165  0.62968673  1
  Zn  Zn102  1  0.66242251  0.29709952  0.31881455  1
  Zn  Zn103  1  0.37330125  0.00170535  0.87563044  1
  Zn  Zn104  1  -0.00389220  0.63121727  0.13532312  1
  Zn  Zn105  1  0.75038911  0.50313159  0.74487771  1
  Zn  Zn106  1  0.87537372  0.62492956  0.75384722  1
  Zn  Zn107  1  0.18929298  0.18353382  0.18640563  1
  Zn  Zn108  1  0.18798349  0.18688441  0.68783061  1
  Zn  Zn109  1  0.16868982  0.69053204  0.19050073  1
  Zn  Zn110  1  0.19212273  0.68958289  0.69004665  1
  Zn  Zn111  1  0.69082309  0.18055937  0.18383673  1
  Zn  Zn112  1  0.69580402  0.19172693  0.68631395  1
  Zn  Zn113  1  0.69381261  0.68888375  0.19149189  1
  Zn  Zn114  1  0.68520522  0.68995361  0.69097312  1
  Zn  Zn115  1  0.31544907  0.31047991  0.31025781  1
  Zn  Zn116  1  0.31218905  0.31343492  0.81167898  1
  Zn  Zn117  1  0.30686162  0.80501270  0.30996895  1
  Zn  Zn118  1  0.31290471  0.81180978  0.81580159  1
  Zn  Zn119  1  0.82641693  0.31441058  0.31110232  1
  Zn  Zn120  1  0.81080649  0.31255550  0.80388485  1
  Zn  Zn121  1  0.81322547  0.81301466  0.32071157  1
  Zn  Zn122  1  0.81193325  0.81171016  0.81793065  1
  Zn  Zn123  1  0.18959792  0.43756752  0.43551616  1
  Zn  Zn124  1  0.18955118  0.43252480  0.93286809  1
  Zn  Zn125  1  0.15615077  0.90362342  0.47187646  1
  Zn  Zn126  1  0.18635630  0.93819087  0.93547274  1
  Zn  Zn127  1  0.69665978  0.43096501  0.42014216  1
  Zn  Zn128  1  0.68551692  0.43574567  0.93420523  1
  Zn  Zn129  1  0.69008832  0.93974166  0.44255174  1
  Zn  Zn130  1  0.68574576  0.93492625  0.94109753  1
  Zn  Zn131  1  0.30993044  0.06283666  0.06125713  1
  Zn  Zn132  1  0.30782183  0.06584715  0.56954654  1
  Zn  Zn133  1  0.31362006  0.56275964  0.06281097  1
  Zn  Zn134  1  0.31527785  0.56525320  0.56237691  1
  Zn  Zn135  1  0.81731612  0.05994052  0.06631045  1
  Zn  Zn136  1  0.79785251  0.07686431  0.59262959  1
  Zn  Zn137  1  0.82191606  0.55501334  0.06544592  1
  Zn  Zn138  1  0.81280607  0.56372676  0.55045707  1
  Zn  Zn139  1  0.43848498  0.43551513  0.18904957  1
  Zn  Zn140  1  0.44210557  0.43905859  0.68565971  1
  Zn  Zn141  1  0.43769142  0.93736844  0.18566667  1
  Zn  Zn142  1  0.44097894  0.93945631  0.68844451  1
  Zn  Zn143  1  0.93792747  0.43811212  0.18889920  1
  Zn  Zn144  1  0.93502840  0.44075226  0.68869536  1
  Zn  Zn145  1  0.93899981  0.93470575  0.19163243  1
  Zn  Zn146  1  0.93595334  0.93312460  0.68913304  1
  Zn  Zn147  1  0.08765319  0.01214554  0.33610114  1
  Zn  Zn148  1  0.05535778  0.06566740  0.80728883  1
  Zn  Zn149  1  0.05985039  0.57227703  0.30325861  1
  Zn  Zn150  1  0.06173367  0.55947348  0.81481764  1
  Zn  Zn151  1  0.56198113  0.06656735  0.31584061  1
  Zn  Zn152  1  0.56428688  0.06501076  0.81448645  1
  Zn  Zn153  1  0.59923617  0.57394833  0.26082703  1
  Zn  Zn154  1  0.56643019  0.56487840  0.80774263  1
  Zn  Zn155  1  0.43813540  0.18361846  0.43556282  1
  Zn  Zn156  1  0.43988661  0.18950327  0.93236790  1
  Zn  Zn157  1  0.43609425  0.68958170  0.43623697  1
  Zn  Zn158  1  0.43456289  0.68941796  0.93866053  1
  Zn  Zn159  1  0.94313617  0.18359718  0.44552188  1
  Zn  Zn160  1  0.93304989  0.18452491  0.93819027  1
  Zn  Zn161  1  0.94661801  0.69343879  0.44000286  1
  Zn  Zn162  1  0.92215307  0.66698547  0.97127507  1
  Zn  Zn163  1  0.06106702  0.31131519  0.05869336  1
  Zn  Zn164  1  0.06762148  0.31535121  0.55678481  1
  Zn  Zn165  1  0.05883355  0.80658030  0.06921405  1
  Zn  Zn166  1  0.05866878  0.80473294  0.56701151  1
  Zn  Zn167  1  0.55770757  0.29987422  0.05700702  1
  Zn  Zn168  1  0.56115234  0.31729616  0.56030599  1
  Zn  Zn169  1  0.56202759  0.81452802  0.06501980  1
  Zn  Zn170  1  0.55518254  0.81813187  0.56255870  1
  O  O171  1  0.11376762  0.12396218  0.12024855  1
  O  O172  1  0.11765703  0.11456317  0.63116211  1
  O  O173  1  0.11316209  0.62056482  0.12446120  1
  O  O174  1  0.13021027  0.61029523  0.63308193  1
  O  O175  1  0.62722873  0.11185428  0.11513132  1
  O  O176  1  0.62471153  0.11472158  0.61862610  1
  O  O177  1  0.60467543  0.63571717  0.12352741  1
  O  O178  1  0.60791291  0.63146792  0.62777396  1
  O  O179  1  0.37753391  0.38146607  0.38045734  1
  O  O180  1  0.37467761  0.38397158  0.88166422  1
  O  O181  1  0.38096185  0.87779161  0.37176158  1
  O  O182  1  0.38308046  0.87718523  0.88519560  1
  O  O183  1  0.88979646  0.38062010  0.38406453  1
  O  O184  1  0.88424560  0.37869944  0.86847809  1
  O  O185  1  0.86639034  0.88439005  0.39514217  1
  O  O186  1  0.87942764  0.88469971  0.88362083  1
  O  O187  1  0.26795072  0.00490616  0.36611029  1
  O  O188  1  0.25000463  0.00895359  0.86575074  1
  O  O189  1  0.25948055  0.50554374  0.36924342  1
  O  O190  1  0.25769687  0.50654548  0.86942699  1
  O  O191  1  0.75703276  0.00770734  0.37211074  1
  O  O192  1  0.75921348  -0.00439930  0.87703963  1
  O  O193  1  0.77087491  0.50759303  0.37995785  1
  O  O194  1  0.75600234  0.50741432  0.87498407  1
  O  O195  1  0.25644533  0.48770900  0.13323666  1
  O  O196  1  0.24360414  0.49569898  0.63000075  1
  O  O197  1  0.23650009  1.00275018  0.12654481  1
  O  O198  1  0.24073268  1.00575815  0.64252389  1
  O  O199  1  0.76675311  0.48578664  0.13162776  1
  O  O200  1  0.75180117  0.49183718  0.62067114  1
  O  O201  1  0.74349600  0.99660334  0.13542999  1
  O  O202  1  0.73350316  0.98226598  0.61964194  1
  O  O203  1  0.01007594  0.37014328  0.25772575  1
  O  O204  1  0.01134036  0.37789912  0.75569213  1
  O  O205  1  -0.00241946  0.86354017  0.25122507  1
  O  O206  1  0.00665718  0.86445323  0.75660841  1
  O  O207  1  0.49146731  0.36208643  0.25855752  1
  O  O208  1  0.50121578  0.36198679  0.74961438  1
  O  O209  1  0.50417747  0.87260677  0.25638575  1
  O  O210  1  0.50492603  0.87126576  0.76083363  1
  O  O211  1  0.48422098  0.12885387  0.25635695  1
  O  O212  1  0.49174023  0.13719804  0.75443664  1
  O  O213  1  0.49595512  0.63148956  0.23882765  1
  O  O214  1  0.49293052  0.63386089  0.74406779  1
  O  O215  1  0.99599210  0.13075829  0.24233273  1
  O  O216  1  0.99106733  0.11794718  0.72923667  1
  O  O217  1  0.99373543  0.64131722  0.25004872  1
  O  O218  1  1.00088833  0.63753616  0.75015495  1
  O  O219  1  0.36970653  0.25419199  0.00442117  1
  O  O220  1  0.37258536  0.25305220  0.50845252  1
  O  O221  1  0.36584694  0.75854382  0.00387653  1
  O  O222  1  0.37211064  0.75062391  0.51251131  1
  O  O223  1  0.87087680  0.24543982  0.01368602  1
  O  O224  1  0.88870120  0.27244099  0.50187913  1
  O  O225  1  0.86181226  0.76678295  -0.01071089  1
  O  O226  1  0.87331582  0.76341242  0.51130528  1
  O  O227  1  0.13671556  0.24976809  0.48980485  1
  O  O228  1  0.13242539  0.24939698  0.98765235  1
  O  O229  1  0.13421375  0.78956210  0.48622886  1
  O  O230  1  0.13090724  0.75076044  0.99414990  1
  O  O231  1  0.61306248  0.23453378  0.50303076  1
  O  O232  1  0.62876230  0.23719823  0.99117338  1
  O  O233  1  0.61598229  0.75608339  0.48559356  1
  O  O234  1  0.63336633  0.75489361  0.99437516  1
  O  O235  1  0.48358554  0.24986734  0.13179872  1
  O  O236  1  0.48815654  0.25483920  0.63068716  1
  O  O237  1  0.48907086  0.74855320  0.12898182  1
  O  O238  1  0.48846985  0.74607510  0.62748296  1
  O  O239  1  0.99502929  0.24058897  0.12715234  1
  O  O240  1  1.01080807  0.24405184  0.62701080  1
  O  O241  1  0.99714098  0.75166908  0.14103620  1
  O  O242  1  0.98924744  0.75115984  0.63795629  1
  O  O243  1  0.00903650  0.25607814  0.37053085  1
  O  O244  1  0.00793364  0.25522709  0.88167729  1
  O  O245  1  -0.00356527  0.75757694  0.36340026  1
  O  O246  1  0.00617281  0.75532152  0.87106760  1
  O  O247  1  0.48721492  0.25799144  0.36251377  1
  O  O248  1  0.51076755  0.25261104  0.86595585  1
  O  O249  1  0.50238177  0.76354230  0.36993261  1
  O  O250  1  0.50222687  0.76049752  0.87348192  1
  O  O251  1  0.25055467  0.13040672  0.49162741  1
  O  O252  1  0.24813911  0.13089268  0.98895620  1
  O  O253  1  0.25277588  0.62476273  0.48624701  1
  O  O254  1  0.24832204  0.63166190  0.99330682  1
  O  O255  1  0.73777149  0.12063894  0.49685160  1
  O  O256  1  0.74243982  0.12128319  1.00284020  1
  O  O257  1  0.75007484  0.63404235  0.49117157  1
  O  O258  1  0.74366918  0.63206764  0.99348064  1
  O  O259  1  0.25756715  0.36937624  0.00653991  1
  O  O260  1  0.25651152  0.36856975  0.50487447  1
  O  O261  1  0.25888259  0.86658589  -0.00793499  1
  O  O262  1  0.27210482  0.89060589  0.48970717  1
  O  O263  1  0.73214303  0.38480920  0.02295534  1
  O  O264  1  0.76539013  0.37973066  0.50211055  1
  O  O265  1  0.75444218  0.86954899  0.00844218  1
  O  O266  1  0.75025887  0.86599097  0.51089249  1
  O  O267  1  0.13829698  0.49079376  0.25537608  1
  O  O268  1  0.13178867  0.49133888  0.74384028  1
  O  O269  1  0.13603232  1.00671364  0.23009568  1
  O  O270  1  0.13048249  0.99305357  0.74673738  1
  O  O271  1  0.63252747  0.48276246  0.19825259  1
  O  O272  1  0.62927157  0.50093514  0.74045443  1
  O  O273  1  0.62920491  0.99882325  0.24407843  1
  O  O274  1  0.61471794  0.99114546  0.74185699  1
  O  O275  1  0.36520010  0.01009542  0.23558633  1
  O  O276  1  0.36984298  0.00756524  0.75116202  1
  O  O277  1  0.36445981  0.50183403  0.25743876  1
  O  O278  1  0.37022572  0.50532066  0.75540618  1
  O  O279  1  0.87022232  0.00497495  0.26145122  1
  O  O280  1  0.87733414  -0.00843436  0.76825116  1
  O  O281  1  0.87530637  0.49379047  0.26587162  1
  O  O282  1  0.87333292  0.50546490  0.76199115  1
  O  O283  1  0.12375293  0.36897059  0.36437088  1
  O  O284  1  0.11873436  0.36663493  0.86524214  1
  O  O285  1  0.13571654  0.91312781  0.36300765  1
  O  O286  1  0.11809887  0.87006638  0.86717629  1
  O  O287  1  0.60306194  0.37049946  0.38790513  1
  O  O288  1  0.62123869  0.36632350  0.86891028  1
  O  O289  1  0.61666653  0.87392236  0.37008565  1
  O  O290  1  0.61697768  0.87144912  0.87092237  1
  O  O291  1  0.36668432  0.13444931  0.13144500  1
  O  O292  1  0.37064472  0.13435430  0.63894073  1
  O  O293  1  0.37968832  0.63378393  0.12917121  1
  O  O294  1  0.38354045  0.63185966  0.63127092  1
  O  O295  1  0.88843490  0.12543055  0.13210486  1
  O  O296  1  0.89609810  0.13840756  0.60343243  1
  O  O297  1  0.89555884  0.63474495  0.07921413  1
  O  O298  1  0.87199636  0.63800349  0.63047327  1
  O  O299  1  0.25736927  0.25916395  0.12081206  1
  O  O300  1  0.26007956  0.25451907  0.62165716  1
  O  O301  1  0.25274815  0.74446761  0.11358130  1
  O  O302  1  0.26280749  0.74722375  0.62120370  1
  O  O303  1  0.76877977  0.24191865  0.12787866  1
  O  O304  1  0.75230055  0.27125077  0.61764442  1
  O  O305  1  0.74513091  0.75634270  0.11573083  1
  O  O306  1  0.75489709  0.75938724  0.62906009  1
  O  O307  1  0.24620089  0.24110168  0.37642200  1
  O  O308  1  0.24337917  0.24450502  0.87760580  1
  O  O309  1  0.25145756  0.73362147  0.37750495  1
  O  O310  1  0.24614943  0.74167483  0.88473474  1
  O  O311  1  0.75234593  0.23414033  0.36895787  1
  O  O312  1  0.74027756  0.25965626  0.88121662  1
  O  O313  1  0.72846179  0.74995283  0.37319214  1
  O  O314  1  0.74298722  0.74404044  0.88565443  1
  O  O315  1  -0.00033305  0.11369296  0.00717292  1
  O  O316  1  0.01515235  0.12764457  0.51513060  1
  O  O317  1  0.01657496  0.59948935  -0.02282831  1
  O  O318  1  0.00329188  0.62813542  0.51012565  1
  O  O319  1  0.50469866  0.11299898  -0.00668576  1
  O  O320  1  0.50724929  0.11088582  0.49050877  1
  O  O321  1  0.49827460  0.62966981  0.01166094  1
  O  O322  1  0.49091589  0.61565360  0.50629009  1
  O  O323  1  0.48950928  0.38371964  0.49562210  1
  O  O324  1  0.48506278  0.36836141  0.99685879  1
  O  O325  1  0.49815531  0.88909679  0.49061502  1
  O  O326  1  0.49403306  0.88287985  0.99337326  1
  O  O327  1  1.00291080  0.38164746  0.48696944  1
  O  O328  1  1.00529021  0.38170413  0.98623378  1
  O  O329  1  0.98366645  0.87915119  0.51133390  1
  O  O330  1  0.99132471  0.88086697  0.99895491  1
  O  O331  1  0.48543936  0.49137282  0.37898319  1
  O  O332  1  0.48733853  0.50089875  0.86945954  1
  O  O333  1  0.50030590  0.99006934  0.37975739  1
  O  O334  1  0.49866145  0.99069778  0.88243384  1
  O  O335  1  0.99749385  0.49397710  0.37173365  1
  O  O336  1  0.99527430  0.48568709  0.87534336  1
  O  O337  1  0.98280269  1.01074390  0.38050831  1
  O  O338  1  1.00249812  0.99362489  0.88645323  1
  O  O339  1  0.00972221  0.00387398  0.11815110  1
  O  O340  1  0.01068215  0.00142931  0.63083122  1
  O  O341  1  -0.00546204  0.49378680  0.10569568  1
  O  O342  1  0.01678985  0.50136519  0.62846866  1
  O  O343  1  0.51031065  -0.00581129  0.11479602  1
  O  O344  1  0.50835850  -0.00454268  0.61512352  1
  O  O345  1  0.48493898  0.51840390  0.12569414  1
  O  O346  1  0.50042674  0.50956251  0.61253174  1
  O  O347  1  0.24580641  0.37989821  0.24283987  1
  O  O348  1  0.24266008  0.38030149  0.74522375  1
  O  O349  1  0.26100200  0.88626854  0.24533583  1
  O  O350  1  0.24129563  0.88367596  0.75984002  1
  O  O351  1  0.73658615  0.37984578  0.29894473  1
  O  O352  1  0.74706799  0.38070986  0.73239899  1
  O  O353  1  0.74507623  0.88332546  0.24884522  1
  O  O354  1  0.73527999  0.86904065  0.74794008  1
  O  O355  1  0.25721601  0.11691209  0.25486217  1
  O  O356  1  0.25745640  0.12006845  0.75656005  1
  O  O357  1  0.25553361  0.61699017  0.25749164  1
  O  O358  1  0.25827102  0.62059784  0.75813415  1
  O  O359  1  0.75778561  0.11664060  0.25859901  1
  O  O360  1  0.77127972  0.11308519  0.70197495  1
  O  O361  1  0.71609043  0.60615260  0.26352994  1
  O  O362  1  0.74912501  0.62875319  0.76653912  1
  O  O363  1  0.36298433  0.13067271  0.36357192  1
  O  O364  1  0.36848482  0.12563308  0.86371571  1
  O  O365  1  0.37180556  0.61719118  0.36733689  1
  O  O366  1  0.36662687  0.61982382  0.87121590  1
  O  O367  1  0.86846623  0.12000305  0.37888952  1
  O  O368  1  0.87789467  0.10719386  0.87361723  1
  O  O369  1  0.88127824  0.61406971  0.37767847  1
  O  O370  1  0.86446546  0.61749799  0.87838151  1
  O  O371  1  0.13310771  0.36687258  0.13638148  1
  O  O372  1  0.13168867  0.38135412  0.63195854  1
  O  O373  1  0.12629540  0.88762697  0.11799215  1
  O  O374  1  0.11999847  0.88427424  0.64093986  1
  O  O375  1  0.62661012  0.35246089  0.12821458  1
  O  O376  1  0.63606332  0.38099481  0.61937354  1
  O  O377  1  0.63216450  0.88601317  0.13106074  1
  O  O378  1  0.62660336  0.87730584  0.63476654  1
  O  O379  1  0.12301157  0.25491181  0.25441597  1
  O  O380  1  0.13138237  0.25859041  0.76061415  1
  O  O381  1  0.11257273  0.75227258  0.26069683  1
  O  O382  1  0.12120780  0.75653923  0.75574367  1
  O  O383  1  0.60643749  0.23078239  0.24665140  1
  O  O384  1  0.62066971  0.24822648  0.75411904  1
  O  O385  1  0.61618903  0.76012688  0.25638895  1
  O  O386  1  0.61500720  0.75855098  0.75936114  1
  O  O387  1  0.37797169  0.24097803  0.24000314  1
  O  O388  1  0.38196506  0.24481938  0.74502832  1
  O  O389  1  0.37965978  0.74386491  0.24343675  1
  O  O390  1  0.37832370  0.74538802  0.74440016  1
  O  O391  1  0.88499800  0.24139341  0.24443918  1
  O  O392  1  0.87666718  0.24893991  0.74320451  1
  O  O393  1  0.87909205  0.75394265  0.25285019  1
  O  O394  1  0.88232321  0.75124971  0.74678412  1
  O  O395  1  0.37761642  0.49451792  0.49215820  1
  O  O396  1  0.36771940  0.49078026  0.98927313  1
  O  O397  1  0.38003693  1.00731970  0.49711491  1
  O  O398  1  0.38144639  0.99478958  0.99923696  1
  O  O399  1  0.88662697  0.49012129  0.48889317  1
  O  O400  1  0.88932193  0.49465320  0.98311176  1
  O  O401  1  0.86503213  0.98698547  0.50121080  1
  O  O402  1  0.88146771  0.99284787  0.99121328  1
  O  O403  1  0.11834178  0.00196916  0.00800742  1
  O  O404  1  0.13504986  0.00002882  0.52713849  1
  O  O405  1  0.11619022  0.49168549  -0.00382760  1
  O  O406  1  0.12758726  0.49336510  0.51603298  1
  O  O407  1  0.61845548  0.00471765  0.00572682  1
  O  O408  1  0.61663190  0.00448063  0.50960294  1
  O  O409  1  0.62617569  0.49362734  0.02300560  1
  O  O410  1  0.61318904  0.49650789  0.49372727  1
  O  O411  1  0.36780781  0.36884530  0.11789073  1
  O  O412  1  0.36930224  0.36900191  0.62127792  1
  O  O413  1  0.37806862  0.86946938  0.11098637  1
  O  O414  1  0.37812569  0.86098972  0.63130401  1
  O  O415  1  0.88461167  0.35433155  0.13090660  1
  O  O416  1  0.87100842  0.38082166  0.61199213  1
  O  O417  1  0.86439110  0.88844945  0.11428858  1
  O  O418  1  0.86410766  0.87009465  0.62150409  1
  O  O419  1  0.14087878  0.11857818  0.37480268  1
  O  O420  1  0.12760899  0.13243416  0.87245405  1
  O  O421  1  0.14059781  0.61381109  0.37580178  1
  O  O422  1  0.14013241  0.62772096  0.87142033  1
  O  O423  1  0.63574282  0.11862140  0.38708085  1
  O  O424  1  0.62673782  0.13301683  0.88169599  1
  O  O425  1  0.60470123  0.64291284  0.37181553  1
  O  O426  1  0.62843446  0.62949680  0.88371792  1
