# generated using pymatgen
data_V85Zn86O256
_symmetry_space_group_name_H-M   'P 1'
_cell_length_a   16.94123390
_cell_length_b   16.93267945
_cell_length_c   16.93602877
_cell_angle_alpha   90.04726599
_cell_angle_beta   90.03025160
_cell_angle_gamma   89.98447040
_symmetry_Int_Tables_number   1
_chemical_formula_structural   V85Zn86O256
_chemical_formula_sum   'V85 Zn86 O256'
_cell_volume   4858.27488806
_cell_formula_units_Z   1
loop_
 _symmetry_equiv_pos_site_id
 _symmetry_equiv_pos_as_xyz
  1  'x, y, z'
loop_
 _atom_site_type_symbol
 _atom_site_label
 _atom_site_symmetry_multiplicity
 _atom_site_fract_x
 _atom_site_fract_y
 _atom_site_fract_z
 _atom_site_occupancy
  V  V0  1  0.50069522  0.25123307  0.25280411  1
  V  V1  1  0.37185485  0.38284382  0.50024120  1
  V  V2  1  0.37668550  0.12578367  0.74877059  1
  V  V3  1  0.74640661  0.63212410  0.37521405  1
  V  V4  1  0.24529491  0.63229158  0.88033720  1
  V  V5  1  0.75177441  0.12064754  0.36046662  1
  V  V6  1  0.49543338  0.38374502  0.37704661  1
  V  V7  1  0.74131710  0.61730512  0.87211123  1
  V  V8  1  0.00127641  0.49482808  0.50054300  1
  V  V9  1  -0.00479232  0.12671829  0.15053746  1
  V  V10  1  -0.00015196  0.87258125  0.37237259  1
  V  V11  1  0.74618564  0.87742392  0.62573953  1
  V  V12  1  0.37606953  0.61826043  0.25396893  1
  V  V13  1  0.37481559  -0.00370391  0.38800704  1
  V  V14  1  0.37519217  0.12131988  0.25246373  1
  V  V15  1  0.25385086  0.24909788  0.00007302  1
  V  V16  1  0.12690587  0.87116287  0.75446218  1
  V  V17  1  0.51711410  0.00174881  0.50284108  1
  V  V18  1  0.50615175  0.50256611  0.00073715  1
  V  V19  1  0.87403562  0.74876334  0.62729784  1
  V  V20  1  -0.00037912  0.12506996  0.62519024  1
  V  V21  1  0.37449160  0.49870125  0.87525383  1
  V  V22  1  0.13788734  0.86882702  0.24610897  1
  V  V23  1  0.87773039  0.62202447  0.25744156  1
  V  V24  1  0.87293588  0.37821411  0.49090581  1
  V  V25  1  0.24929858  0.49607327  0.73975607  1
  V  V26  1  -0.00427883  0.62190415  0.62646546  1
  V  V27  1  0.12469400  0.74566519  0.37539675  1
  V  V28  1  0.87445475  0.87570976  -0.00186200  1
  V  V29  1  0.37850953  0.24999000  0.12538153  1
  V  V30  1  0.50069148  0.62854365  0.62609800  1
  V  V31  1  0.62998140  0.24972206  0.87414686  1
  V  V32  1  0.62399578  0.63706098  0.49763222  1
  V  V33  1  0.62715476  0.37887177  0.25139735  1
  V  V34  1  0.25165638  0.12494893  0.87465966  1
  V  V35  1  0.24724344  0.25650920  0.50260632  1
  V  V36  1  0.12438592  0.61844536  0.50489786  1
  V  V37  1  0.62853485  0.00222855  0.13573837  1
  V  V38  1  0.63026076  0.12496955  -0.00216403  1
  V  V39  1  0.37506852  0.75959092  0.62283042  1
  V  V40  1  0.37443938  0.62586035  0.74996624  1
  V  V41  1  0.50109380  0.62836522  0.12341858  1
  V  V42  1  0.00082855  0.25518655  0.75662508  1
  V  V43  1  0.87783280  0.12788297  0.75414657  1
  V  V44  1  0.11725520  0.49246514  0.11824900  1
  V  V45  1  0.62573643  0.50329870  0.62254433  1
  V  V46  1  0.25326688  0.61538170  0.37623218  1
  V  V47  1  0.63131881  0.50385679  0.12339837  1
  V  V48  1  0.50357859  -0.00731383  -0.00432705  1
  V  V49  1  0.74178121  0.74534262  -0.00085853  1
  V  V50  1  0.25121237  0.75607616  0.50037887  1
  V  V51  1  0.87362875  0.74898015  0.12719688  1
  V  V52  1  0.24447040  0.49204587  0.24923936  1
  V  V53  1  0.75041237  0.37754571  0.62077221  1
  V  V54  1  0.62621186  0.37845720  0.75127146  1
  V  V55  1  0.13408550  -0.00542286  0.12418849  1
  V  V56  1  0.37935886  -0.00916000  0.87142609  1
  V  V57  1  0.75285445  0.88258707  0.13098324  1
  V  V58  1  0.89266878  0.50319431  0.87235338  1
  V  V59  1  0.75297626  0.50150989  0.25535377  1
  V  V60  1  -0.00180620  -0.00062501  0.49970652  1
  V  V61  1  0.50135062  0.86840663  0.38064599  1
  V  V62  1  0.79745725  0.29460957  0.09031048  1
  V  V63  1  0.62405992  0.24431944  0.38015840  1
  V  V64  1  0.37208253  0.25446650  0.62456812  1
  V  V65  1  0.87618873  0.25304417  0.62466274  1
  V  V66  1  0.36959486  0.87335873  0.00943210  1
  V  V67  1  0.11920560  0.12420614  -0.00022979  1
  V  V68  1  0.49958795  0.75643555  0.75950065  1
  V  V69  1  0.37889306  0.37457223  0.00274860  1
  V  V70  1  0.74949667  0.23947649  0.49826182  1
  V  V71  1  0.12462825  0.26370694  0.87875551  1
  V  V72  1  -0.00265382  0.37325113  0.36024539  1
  V  V73  1  0.12591088  0.12751258  0.50005799  1
  V  V74  1  0.88031484  0.00410390  0.87550836  1
  V  V75  1  0.12258802  0.25302517  0.36067925  1
  V  V76  1  0.74876067  0.00287958  0.74728340  1
  V  V77  1  0.62798263  0.86623385  0.25610585  1
  V  V78  1  0.87400939  0.00380323  0.36086896  1
  V  V79  1  0.51219260  0.12535472  0.62019685  1
  V  V80  1  0.50299839  0.12429583  0.12459965  1
  V  V81  1  -0.00287379  0.62121476  0.11654675  1
  V  V82  1  0.62332670  0.87993015  0.75872534  1
  V  V83  1  0.12822717  0.37721388  0.73005779  1
  V  V84  1  -0.00042461  0.74682056  0.75750896  1
  Zn  Zn85  1  0.25880744  -0.00901419  0.24883977  1
  Zn  Zn86  1  0.50024091  0.74747416  0.25433060  1
  Zn  Zn87  1  0.24876409  -0.00051166  0.74559776  1
  Zn  Zn88  1  0.24374707  0.37080865  0.12992466  1
  Zn  Zn89  1  0.24986127  0.87961771  0.62170667  1
  Zn  Zn90  1  0.75727329  0.13222048  0.87986628  1
  Zn  Zn91  1  -0.00086766  0.00102657  0.00413348  1
  Zn  Zn92  1  0.50333125  0.37322895  0.87552854  1
  Zn  Zn93  1  0.36884776  0.75205410  0.13172307  1
  Zn  Zn94  1  0.76044453  0.50769373  0.74601479  1
  Zn  Zn95  1  0.87295278  0.87561991  0.49947989  1
  Zn  Zn96  1  0.49588409  0.50450813  0.49771462  1
  Zn  Zn97  1  0.62099501  0.75056555  0.88106946  1
  Zn  Zn98  1  0.12669524  -0.00248096  0.62543174  1
  Zn  Zn99  1  0.11383332  0.62856400  -0.00637057  1
  Zn  Zn100  1  0.50115131  0.25256299  0.74644399  1
  Zn  Zn101  1  0.25090513  0.12378733  0.37461080  1
  Zn  Zn102  1  0.23214615  0.76103703  0.00765033  1
  Zn  Zn103  1  0.00192954  0.74504065  0.25046578  1
  Zn  Zn104  1  0.88911335  0.38886946  -0.00366913  1
  Zn  Zn105  1  0.00505134  0.86765983  0.88136863  1
  Zn  Zn106  1  0.74961255  0.75502762  0.49736309  1
  Zn  Zn107  1  0.19041895  0.18138013  0.18311450  1
  Zn  Zn108  1  0.18914298  0.18891649  0.68661306  1
  Zn  Zn109  1  0.18755780  0.68317585  0.18269831  1
  Zn  Zn110  1  0.18551612  0.68725970  0.68834551  1
  Zn  Zn111  1  0.70121524  0.19668135  0.19157551  1
  Zn  Zn112  1  0.69120147  0.19057516  0.68984594  1
  Zn  Zn113  1  0.68745527  0.68852477  0.18547159  1
  Zn  Zn114  1  0.68694426  0.69163945  0.69074601  1
  Zn  Zn115  1  0.31231836  0.31089313  0.31575437  1
  Zn  Zn116  1  0.31142593  0.31420398  0.81193776  1
  Zn  Zn117  1  0.31787497  0.80647450  0.31811853  1
  Zn  Zn118  1  0.31180080  0.81286706  0.81306324  1
  Zn  Zn119  1  0.81388455  0.30637466  0.29837444  1
  Zn  Zn120  1  0.81153563  0.32058076  0.81558218  1
  Zn  Zn121  1  0.81442233  0.81277315  0.31221625  1
  Zn  Zn122  1  0.81343511  0.81023039  0.81293212  1
  Zn  Zn123  1  0.18258952  0.43459926  0.43721305  1
  Zn  Zn124  1  0.19137808  0.44191020  0.94082379  1
  Zn  Zn125  1  0.18629131  0.93818974  0.43423107  1
  Zn  Zn126  1  0.18936483  0.93939968  0.93280838  1
  Zn  Zn127  1  0.68693642  0.44109290  0.43475278  1
  Zn  Zn128  1  0.69831324  0.42800078  0.94645535  1
  Zn  Zn129  1  0.68918463  0.93893793  0.43623422  1
  Zn  Zn130  1  0.69296821  0.94015529  0.93699969  1
  Zn  Zn131  1  0.31358281  0.06074379  0.06163487  1
  Zn  Zn132  1  0.31239158  0.06608172  0.56415222  1
  Zn  Zn133  1  0.31139076  0.56384836  0.06689635  1
  Zn  Zn134  1  0.31347562  0.56819341  0.56320232  1
  Zn  Zn135  1  0.81712187  0.07057446  0.06433727  1
  Zn  Zn136  1  0.81485190  0.06128993  0.56253404  1
  Zn  Zn137  1  0.81346007  0.56155792  0.05832053  1
  Zn  Zn138  1  0.81443013  0.56207776  0.55725167  1
  Zn  Zn139  1  0.43764135  0.44025540  0.18738021  1
  Zn  Zn140  1  0.43974917  0.43847289  0.68548835  1
  Zn  Zn141  1  0.44362800  0.93768191  0.19054772  1
  Zn  Zn142  1  0.44066735  0.93956718  0.68425217  1
  Zn  Zn143  1  0.93134683  0.43559981  0.18267505  1
  Zn  Zn144  1  0.93790625  0.43951983  0.69025784  1
  Zn  Zn145  1  0.94631092  0.93911910  0.18504919  1
  Zn  Zn146  1  0.93820106  0.93439931  0.68850021  1
  Zn  Zn147  1  0.07063871  0.05533011  0.31532746  1
  Zn  Zn148  1  0.06352418  0.06121467  0.81373180  1
  Zn  Zn149  1  0.06341916  0.55537209  0.31118025  1
  Zn  Zn150  1  0.06684758  0.56146601  0.80488472  1
  Zn  Zn151  1  0.56288430  0.06206234  0.31655066  1
  Zn  Zn152  1  0.56244531  0.06341681  0.81043942  1
  Zn  Zn153  1  0.56417304  0.56510998  0.31441201  1
  Zn  Zn154  1  0.56511989  0.56524144  0.81338477  1
  Zn  Zn155  1  0.43762317  0.18749822  0.43981163  1
  Zn  Zn156  1  0.44692247  0.18660598  0.93408747  1
  Zn  Zn157  1  0.43418910  0.68651345  0.43832462  1
  Zn  Zn158  1  0.43539908  0.68606836  0.93906194  1
  Zn  Zn159  1  0.93659033  0.18788372  0.43054691  1
  Zn  Zn160  1  0.94207637  0.21554510  0.96770403  1
  Zn  Zn161  1  0.93458026  0.68765805  0.43983091  1
  Zn  Zn162  1  0.92395694  0.68207154  0.93609699  1
  Zn  Zn163  1  0.05517964  0.30880265  0.06809267  1
  Zn  Zn164  1  0.05898766  0.31058242  0.55945318  1
  Zn  Zn165  1  0.06116308  0.80681735  0.06337776  1
  Zn  Zn166  1  0.06401945  0.81086720  0.56510209  1
  Zn  Zn167  1  0.58204426  0.30822146  0.06872575  1
  Zn  Zn168  1  0.56163738  0.31278721  0.56172132  1
  Zn  Zn169  1  0.56035748  0.81545905  0.06723935  1
  Zn  Zn170  1  0.56279547  0.81874101  0.56864249  1
  O  O171  1  0.12143281  0.11499350  0.11765028  1
  O  O172  1  0.11922295  0.12646665  0.61367948  1
  O  O173  1  0.11126633  0.61385779  0.12450435  1
  O  O174  1  0.11448151  0.63023816  0.61136445  1
  O  O175  1  0.62146009  0.11701116  0.11845032  1
  O  O176  1  0.61108485  0.13209000  0.63146237  1
  O  O177  1  0.61117130  0.61828367  0.13101553  1
  O  O178  1  0.62162089  0.62042268  0.62064143  1
  O  O179  1  0.38454483  0.36727328  0.38704733  1
  O  O180  1  0.37895490  0.38203507  0.88167106  1
  O  O181  1  0.38636511  0.88554241  0.37138449  1
  O  O182  1  0.37376945  0.88763874  0.87988613  1
  O  O183  1  0.88752637  0.35889125  0.37693952  1
  O  O184  1  0.87085849  0.39739779  0.87306411  1
  O  O185  1  0.88388245  0.88023905  0.37849214  1
  O  O186  1  0.87575986  0.88224803  0.88365058  1
  O  O187  1  0.26017796  0.00222755  0.37333888  1
  O  O188  1  0.26085103  0.00952957  0.87053400  1
  O  O189  1  0.23967812  0.50846434  0.36776882  1
  O  O190  1  0.26259683  0.50421778  0.86821751  1
  O  O191  1  0.76305493  0.01054786  0.38559649  1
  O  O192  1  0.76311694  0.00209512  0.86392554  1
  O  O193  1  0.74536685  0.51562343  0.36604338  1
  O  O194  1  0.74059529  0.51184428  0.87483918  1
  O  O195  1  0.23874704  0.49804602  0.13194141  1
  O  O196  1  0.25655903  0.50661007  0.64086782  1
  O  O197  1  0.23934558  1.00266203  0.12796536  1
  O  O198  1  0.24700297  0.99801018  0.62632139  1
  O  O199  1  0.73657719  0.51045894  0.13272241  1
  O  O200  1  0.74408306  0.49644239  0.62450683  1
  O  O201  1  0.74339537  0.98971364  0.11951588  1
  O  O202  1  0.75861713  0.99351925  0.63825713  1
  O  O203  1  -0.00611780  0.37792068  0.26174571  1
  O  O204  1  0.01598217  0.36787766  0.74371379  1
  O  O205  1  0.00919147  0.87263367  0.26235676  1
  O  O206  1  0.00880656  0.86532592  0.75182555  1
  O  O207  1  0.50172165  0.37131532  0.26009245  1
  O  O208  1  0.51482299  0.37727340  0.74998167  1
  O  O209  1  0.50866878  0.87232625  0.26092093  1
  O  O210  1  0.51031840  0.86942174  0.74418161  1
  O  O211  1  0.49281230  0.12932484  0.24685413  1
  O  O212  1  0.48907551  0.12491893  0.74092156  1
  O  O213  1  0.49271226  0.62441323  0.24622948  1
  O  O214  1  0.49504952  0.63363224  0.74503967  1
  O  O215  1  1.00614425  0.12123528  0.25027227  1
  O  O216  1  0.99752716  0.13158791  0.74262974  1
  O  O217  1  0.99049250  0.62082519  0.24607532  1
  O  O218  1  1.00967768  0.63241161  0.73545962  1
  O  O219  1  0.37630677  0.25537696  0.00324871  1
  O  O220  1  0.36635812  0.25644466  0.50563658  1
  O  O221  1  0.38096735  0.76994978  -0.00265098  1
  O  O222  1  0.36343857  0.74264875  0.51042023  1
  O  O223  1  0.84319090  0.22356059  0.03296760  1
  O  O224  1  0.86930920  0.25861001  0.50332705  1
  O  O225  1  0.86485176  0.75793553  0.00679832  1
  O  O226  1  0.87363912  0.75406316  0.51252699  1
  O  O227  1  0.13057488  0.24515906  0.49471578  1
  O  O228  1  0.13418132  0.24247822  0.99397365  1
  O  O229  1  0.13005563  0.74013362  0.49445725  1
  O  O230  1  0.12123107  0.74283414  0.99602943  1
  O  O231  1  0.63697367  0.25964601  0.49055101  1
  O  O232  1  0.60737110  0.23497580  0.98359785  1
  O  O233  1  0.62662832  0.73963163  0.50939790  1
  O  O234  1  0.63810286  0.76250887  1.00026502  1
  O  O235  1  0.49870558  0.24398225  0.13281993  1
  O  O236  1  0.49243791  0.24220966  0.62371256  1
  O  O237  1  0.49449648  0.74175747  0.12705174  1
  O  O238  1  0.49303148  0.74709775  0.63237930  1
  O  O239  1  1.00796333  0.22535424  0.13139323  1
  O  O240  1  0.99547428  0.24483817  0.63332205  1
  O  O241  1  0.99041753  0.73960262  0.13074084  1
  O  O242  1  0.99278206  0.74215773  0.62942651  1
  O  O243  1  0.01271458  0.25851453  0.37713798  1
  O  O244  1  0.01270121  0.23786997  0.85872699  1
  O  O245  1  0.00524240  0.75654740  0.37550982  1
  O  O246  1  -0.01225746  0.74569325  0.86048498  1
  O  O247  1  0.50752934  0.25644935  0.37297891  1
  O  O248  1  0.51101994  0.25303996  0.86499979  1
  O  O249  1  0.49618046  0.76483131  0.38031978  1
  O  O250  1  0.49898840  0.74663143  0.86303378  1
  O  O251  1  0.24178717  0.13576213  0.49759980  1
  O  O252  1  0.24416951  0.12960212  0.99453248  1
  O  O253  1  0.24175174  0.62740849  0.49417797  1
  O  O254  1  0.25518774  0.62060650  0.98392472  1
  O  O255  1  0.75507314  0.13711248  0.49743152  1
  O  O256  1  0.73334759  0.11268274  0.99684122  1
  O  O257  1  0.74231927  0.62682749  0.49226844  1
  O  O258  1  0.75165885  0.63608077  0.99081490  1
  O  O259  1  0.26480666  0.36945108  0.00166066  1
  O  O260  1  0.25589478  0.36514699  0.49456246  1
  O  O261  1  0.26568919  0.87670666  -0.00519595  1
  O  O262  1  0.24189520  0.85950104  0.49944657  1
  O  O263  1  0.76728569  0.36468580  0.00973397  1
  O  O264  1  0.75727637  0.36960750  0.49921211  1
  O  O265  1  0.76018257  0.87152557  0.00742485  1
  O  O266  1  0.74999042  0.87523562  0.51030434  1
  O  O267  1  0.13416348  0.50261171  0.23574157  1
  O  O268  1  0.13297499  0.48400742  0.75027931  1
  O  O269  1  0.13339102  0.98772850  0.24467667  1
  O  O270  1  0.12451618  0.98757591  0.74755512  1
  O  O271  1  0.63217736  0.49796024  0.24619304  1
  O  O272  1  0.62657256  0.49679603  0.73781659  1
  O  O273  1  0.61739466  0.99250667  0.23877095  1
  O  O274  1  0.63676606  0.99501920  0.75420251  1
  O  O275  1  0.37837270  0.00655069  0.25839274  1
  O  O276  1  0.37598779  0.00713803  0.75577829  1
  O  O277  1  0.36527094  0.51079238  0.24522690  1
  O  O278  1  0.37147220  0.50250772  0.75773325  1
  O  O279  1  0.87919863  -0.00875109  0.26262180  1
  O  O280  1  0.87267487  0.00598930  0.75661406  1
  O  O281  1  0.86069831  0.50656611  0.24441128  1
  O  O282  1  0.87503556  0.50151930  0.76169473  1
  O  O283  1  0.11320312  0.36109851  0.37590882  1
  O  O284  1  0.13083744  0.36514860  0.87540554  1
  O  O285  1  0.11906785  0.86718100  0.36785527  1
  O  O286  1  0.12221410  0.87800317  0.86096797  1
  O  O287  1  0.61606845  0.36976108  0.36990900  1
  O  O288  1  0.62705960  0.37010006  0.86812850  1
  O  O289  1  0.61747261  0.88341328  0.36581005  1
  O  O290  1  0.63252882  0.87280549  0.86295985  1
  O  O291  1  0.38314019  0.12850763  0.13100520  1
  O  O292  1  0.38123763  0.13556458  0.63126898  1
  O  O293  1  0.38743521  0.62178324  0.13356477  1
  O  O294  1  0.38141219  0.63470372  0.63201199  1
  O  O295  1  0.89705785  0.10616309  0.13436564  1
  O  O296  1  0.88066989  0.13345930  0.63182184  1
  O  O297  1  0.87865451  0.62696195  0.13529465  1
  O  O298  1  0.88639202  0.63215715  0.61758142  1
  O  O299  1  0.25894940  0.25086442  0.11825022  1
  O  O300  1  0.25910369  0.24670601  0.61492682  1
  O  O301  1  0.25815535  0.73642510  0.11598750  1
  O  O302  1  0.25748856  0.74763967  0.61740140  1
  O  O303  1  0.69446298  0.26637609  0.10275211  1
  O  O304  1  0.75540087  0.25727455  0.61624123  1
  O  O305  1  0.75426355  0.75919246  0.11846231  1
  O  O306  1  0.75786674  0.75749003  0.62599564  1
  O  O307  1  0.23804502  0.24864064  0.38227439  1
  O  O308  1  0.24430645  0.24422372  0.87990474  1
  O  O309  1  0.24582366  0.73714565  0.38318576  1
  O  O310  1  0.25721713  0.73435847  0.87808434  1
  O  O311  1  0.74508374  0.24103047  0.37875078  1
  O  O312  1  0.73642083  0.24884426  0.86798633  1
  O  O313  1  0.75423514  0.73821968  0.37774174  1
  O  O314  1  0.75106293  0.74133048  0.88336819  1
  O  O315  1  0.01408743  0.12533221  -0.00367040  1
  O  O316  1  0.00588061  0.12058484  0.50310455  1
  O  O317  1  -0.00845689  0.62726388  0.01346510  1
  O  O318  1  0.00505495  0.61473889  0.50171661  1
  O  O319  1  0.50714488  0.11267750  0.00517399  1
  O  O320  1  0.49807701  0.11501260  0.50749510  1
  O  O321  1  0.49388527  0.61198587  0.00775108  1
  O  O322  1  0.50685083  0.62446569  0.50567181  1
  O  O323  1  0.49095507  0.37685541  0.49375305  1
  O  O324  1  0.49217011  0.38387473  1.00119570  1
  O  O325  1  0.50769854  0.88983046  0.49584167  1
  O  O326  1  0.49258321  0.88724702  1.00284222  1
  O  O327  1  0.99214807  0.37846398  0.49353400  1
  O  O328  1  0.98096013  0.32188358  0.98641995  1
  O  O329  1  1.00368733  0.88263144  0.48968228  1
  O  O330  1  0.98554828  0.87583957  1.00151435  1
  O  O331  1  0.50396039  0.48773815  0.37809646  1
  O  O332  1  0.49174514  0.50053915  0.88228906  1
  O  O333  1  0.49600226  0.99583383  0.38777650  1
  O  O334  1  0.49124765  1.00695336  0.88366668  1
  O  O335  1  1.00494197  0.48138005  0.38353514  1
  O  O336  1  0.99201461  0.51036203  0.87380242  1
  O  O337  1  0.99600855  0.99277928  0.38147763  1
  O  O338  1  0.98911472  0.99674397  0.87730277  1
  O  O339  1  0.01712377  0.00742007  0.12405637  1
  O  O340  1  0.00079036  0.00602335  0.61640594  1
  O  O341  1  0.01007064  0.50337165  0.12841209  1
  O  O342  1  -0.00654489  0.50687561  0.61070520  1
  O  O343  1  0.50949983  0.00513195  0.11838668  1
  O  O344  1  0.49552495  0.00843543  0.60975576  1
  O  O345  1  0.50685709  0.50742602  0.11848529  1
  O  O346  1  0.50787200  0.51017285  0.62271153  1
  O  O347  1  0.25771127  0.38796904  0.25025103  1
  O  O348  1  0.23816541  0.38101968  0.75177180  1
  O  O349  1  0.24122195  0.86961364  0.25649443  1
  O  O350  1  0.23800965  0.87352690  0.74860588  1
  O  O351  1  0.73667127  0.38976221  0.26499441  1
  O  O352  1  0.73936391  0.37990017  0.74024520  1
  O  O353  1  0.74341699  0.87238402  0.24169279  1
  O  O354  1  0.74621563  0.88287397  0.74576669  1
  O  O355  1  0.26596306  0.12321906  0.25129781  1
  O  O356  1  0.26168989  0.12592814  0.75444771  1
  O  O357  1  0.25554919  0.61524826  0.25886491  1
  O  O358  1  0.25446076  0.61881932  0.75896044  1
  O  O359  1  0.73585464  0.11441245  0.26213372  1
  O  O360  1  0.75979869  0.11913465  0.75045225  1
  O  O361  1  0.75395094  0.62196244  0.25635590  1
  O  O362  1  0.74472276  0.62596351  0.76619922  1
  O  O363  1  0.37642094  0.11781612  0.36791357  1
  O  O364  1  0.37230729  0.12080153  0.86664190  1
  O  O365  1  0.36431763  0.62254546  0.37036183  1
  O  O366  1  0.36923008  0.61675601  0.86893082  1
  O  O367  1  0.86589441  0.11827355  0.37278215  1
  O  O368  1  0.87642753  0.11993400  0.87084285  1
  O  O369  1  0.86923454  0.62678171  0.36359052  1
  O  O370  1  0.85836117  0.61235141  0.87397321  1
  O  O371  1  0.12390885  0.38650987  0.11862536  1
  O  O372  1  0.12850079  0.36992930  0.63183682  1
  O  O373  1  0.11821118  0.88030948  0.13611586  1
  O  O374  1  0.12637442  0.87593065  0.63707091  1
  O  O375  1  0.60994270  0.39148803  0.14517860  1
  O  O376  1  0.62934553  0.38377836  0.62871962  1
  O  O377  1  0.63262281  0.88287525  0.13350348  1
  O  O378  1  0.63991087  0.87208927  0.63793240  1
  O  O379  1  0.13395514  0.24517539  0.26299409  1
  O  O380  1  0.12343500  0.26109154  0.75497768  1
  O  O381  1  0.12377871  0.75190019  0.25698462  1
  O  O382  1  0.11582568  0.76063431  0.74668056  1
  O  O383  1  0.62000148  0.26127470  0.26077454  1
  O  O384  1  0.62438960  0.26124116  0.75353814  1
  O  O385  1  0.62156537  0.76240502  0.24677166  1
  O  O386  1  0.61514063  0.75968492  0.75256994  1
  O  O387  1  0.38175046  0.24258338  0.24711056  1
  O  O388  1  0.37605739  0.24498878  0.74232677  1
  O  O389  1  0.37811023  0.73424507  0.25167703  1
  O  O390  1  0.38104491  0.74690833  0.74408402  1
  O  O391  1  0.80747048  0.25685230  0.19646401  1
  O  O392  1  0.88400437  0.25087638  0.74749306  1
  O  O393  1  0.87620545  0.74051073  0.24397290  1
  O  O394  1  0.88377051  0.75545478  0.73612902  1
  O  O395  1  0.37351099  0.48665960  0.50700033  1
  O  O396  1  0.38072788  0.49223027  0.99481075  1
  O  O397  1  0.38073984  1.00573138  0.49004308  1
  O  O398  1  0.38180076  0.99197209  0.99387307  1
  O  O399  1  0.88022596  0.48482898  0.49634614  1
  O  O400  1  0.87301925  0.50333959  0.98161020  1
  O  O401  1  0.88890734  1.00005906  0.49435080  1
  O  O402  1  0.87536999  0.99449342  0.99237269  1
  O  O403  1  0.12534997  0.00577959  0.00517646  1
  O  O404  1  0.11525107  0.00955325  0.49732205  1
  O  O405  1  0.12948506  0.50681018  0.01444121  1
  O  O406  1  0.11530199  0.50591000  0.49871749  1
  O  O407  1  0.61866131  0.00146606  0.00591193  1
  O  O408  1  0.61542335  0.00579095  0.49909929  1
  O  O409  1  0.61729129  0.48947912  0.01085400  1
  O  O410  1  0.62412135  0.50754451  0.51141899  1
  O  O411  1  0.37607350  0.36763732  0.11809228  1
  O  O412  1  0.38192773  0.36225798  0.61789722  1
  O  O413  1  0.37848629  0.87756694  0.11286537  1
  O  O414  1  0.37185565  0.86313846  0.62896388  1
  O  O415  1  0.87227145  0.37036101  0.11401546  1
  O  O416  1  0.87042564  0.37069981  0.61556341  1
  O  O417  1  0.86933449  0.87276346  0.12154357  1
  O  O418  1  0.86536610  0.86904307  0.62343168  1
  O  O419  1  0.12528979  0.13510897  0.38494512  1
  O  O420  1  0.13379282  0.13030572  0.88061452  1
  O  O421  1  0.12904280  0.62739709  0.38384286  1
  O  O422  1  0.14263839  0.61542718  0.87471218  1
  O  O423  1  0.62866468  0.13780362  0.37524777  1
  O  O424  1  0.62754014  0.13108013  0.87950740  1
  O  O425  1  0.63112770  0.62537749  0.38608842  1
  O  O426  1  0.63503962  0.63103816  0.87764994  1
