# generated using pymatgen
data_V85Zn86O256
_symmetry_space_group_name_H-M   'P 1'
_cell_length_a   16.95161620
_cell_length_b   16.93086284
_cell_length_c   16.94395395
_cell_angle_alpha   90.05282835
_cell_angle_beta   90.07873119
_cell_angle_gamma   90.03429387
_symmetry_Int_Tables_number   1
_chemical_formula_structural   V85Zn86O256
_chemical_formula_sum   'V85 Zn86 O256'
_cell_volume   4863.00025388
_cell_formula_units_Z   1
loop_
 _symmetry_equiv_pos_site_id
 _symmetry_equiv_pos_as_xyz
  1  'x, y, z'
loop_
 _atom_site_type_symbol
 _atom_site_label
 _atom_site_symmetry_multiplicity
 _atom_site_fract_x
 _atom_site_fract_y
 _atom_site_fract_z
 _atom_site_occupancy
  V  V0  1  0.74760414  0.75187711  -0.00482942  1
  V  V1  1  0.37202665  0.37804126  0.50042112  1
  V  V2  1  0.75160481  0.00090253  0.74657670  1
  V  V3  1  0.87590632  0.87858210  0.00022583  1
  V  V4  1  -0.00625103  0.73935306  0.75033671  1
  V  V5  1  0.87107306  0.24871494  0.12026857  1
  V  V6  1  0.37484314  0.00113089  0.87796990  1
  V  V7  1  -0.00182616  0.38557090  0.37747493  1
  V  V8  1  0.50132776  0.63042854  0.12985442  1
  V  V9  1  0.87435257  0.74483470  0.12296653  1
  V  V10  1  0.24807033  0.00466065  0.74977010  1
  V  V11  1  0.62008551  0.86408416  0.24911729  1
  V  V12  1  0.23686351  0.13007636  0.87905579  1
  V  V13  1  0.00901991  0.25127911  0.75616730  1
  V  V14  1  0.74877271  0.37632340  0.62428842  1
  V  V15  1  0.61832510  0.36077166  0.75555489  1
  V  V16  1  0.75033358  0.49955036  0.75167698  1
  V  V17  1  0.49646010  0.86415581  0.37254238  1
  V  V18  1  0.00345260  0.12345960  0.62362789  1
  V  V19  1  0.24487307  0.01034487  0.26316211  1
  V  V20  1  0.42152236  0.05685237  0.32180827  1
  V  V21  1  0.13295848  0.12310452  0.49826717  1
  V  V22  1  0.63521595  0.62727307  0.49708913  1
  V  V23  1  0.37851053  0.61944819  0.25354879  1
  V  V24  1  0.75513093  0.12665700  0.37662477  1
  V  V25  1  0.25212919  0.61903501  0.86900038  1
  V  V26  1  0.24954996  0.74959048  0.00204098  1
  V  V27  1  0.87127500  0.74246077  0.62768488  1
  V  V28  1  0.38252953  0.63143345  0.75214844  1
  V  V29  1  0.50534796  0.87839661  0.86420858  1
  V  V30  1  0.12623115  0.62347422  0.00001510  1
  V  V31  1  0.62311874  0.62739617  -0.00323113  1
  V  V32  1  0.87097401  0.86752330  0.50092759  1
  V  V33  1  0.13482718  0.37932054  0.75944586  1
  V  V34  1  0.88017803  0.39033299  0.49688206  1
  V  V35  1  0.38644062  0.24807243  0.62960707  1
  V  V36  1  0.74528554  0.87101279  0.62302167  1
  V  V37  1  0.37727024  0.49552447  0.86960335  1
  V  V38  1  0.88136564  0.25122888  0.62117237  1
  V  V39  1  0.37606814  0.74974930  0.13024594  1
  V  V40  1  0.12767077  0.74797560  0.37481400  1
  V  V41  1  -0.00112518  0.49680181  -0.00088317  1
  V  V42  1  0.61911484  0.75704328  0.86093307  1
  V  V43  1  0.12589458  0.87640977  0.24605113  1
  V  V44  1  0.62166779  0.25179494  0.36717515  1
  V  V45  1  0.25450537  0.61557298  0.37596312  1
  V  V46  1  0.86436219  0.37319138  -0.00205697  1
  V  V47  1  0.12480833  0.87253564  0.74836545  1
  V  V48  1  0.00075400  0.87401399  0.37654101  1
  V  V49  1  0.87234476  0.62264839  0.26494770  1
  V  V50  1  0.87964154  0.12357141  0.24390108  1
  V  V51  1  0.00052562  0.87617422  0.87737082  1
  V  V52  1  0.62237525  -0.00218123  0.63309127  1
  V  V53  1  0.50159619  0.49686740  -0.00245261  1
  V  V54  1  0.23707778  0.24968159  0.00360950  1
  V  V55  1  0.62372594  0.12593917  0.50660144  1
  V  V56  1  0.62921330  0.50136491  0.12440342  1
  V  V57  1  0.75192333  0.50182411  0.26637335  1
  V  V58  1  0.24810946  0.88529791  0.12447877  1
  V  V59  1  -0.00034315  0.24885842  0.24919503  1
  V  V60  1  0.13041327  0.24608854  0.37485747  1
  V  V61  1  0.75034914  0.62615920  0.86691662  1
  V  V62  1  0.25352847  0.74690392  0.50139305  1
  V  V63  1  0.87606227  0.50494151  0.86946392  1
  V  V64  1  0.50074303  0.63184115  0.62599239  1
  V  V65  1  0.63749203  0.74784822  0.37943010  1
  V  V66  1  0.49570796  0.00146929  0.00443176  1
  V  V67  1  0.75253429  0.25185140  0.49793217  1
  V  V68  1  0.12882306  0.49663202  0.12759605  1
  V  V69  1  0.87574439  -0.00153294  0.37644732  1
  V  V70  1  0.49376415  0.50375830  0.49537178  1
  V  V71  1  0.05904018  0.05805765  0.06170983  1
  V  V72  1  0.37897770  0.24298153  0.13640161  1
  V  V73  1  0.37286424  0.88137614  0.49565474  1
  V  V74  1  0.38988871  0.12843462  0.74999187  1
  V  V75  1  0.12602106  0.74810203  0.87405831  1
  V  V76  1  0.75270977  -0.00459578  0.25017832  1
  V  V77  1  0.62414461  0.00096370  0.12298226  1
  V  V78  1  0.12767483  0.49761224  0.61898574  1
  V  V79  1  0.24925555  0.87461944  0.62526065  1
  V  V80  1  -0.00230793  0.62375914  0.12522542  1
  V  V81  1  0.49686319  0.00513553  0.50500126  1
  V  V82  1  0.74883943  0.87101222  0.12352011  1
  V  V83  1  0.87502987  0.00089593  0.87305259  1
  V  V84  1  0.49422064  0.37586898  0.36820543  1
  Zn  Zn85  1  0.25457148  0.37527538  0.63258223  1
  Zn  Zn86  1  0.00086846  -0.00299212  0.50357909  1
  Zn  Zn87  1  0.25280120  0.24732042  0.50123595  1
  Zn  Zn88  1  0.12610580  0.37393733  0.25038474  1
  Zn  Zn89  1  0.00323371  0.36999313  0.87736900  1
  Zn  Zn90  1  0.49999259  0.35639036  0.87547094  1
  Zn  Zn91  1  -0.00554992  0.61403914  0.62081254  1
  Zn  Zn92  1  0.12113410  0.61571648  0.49821832  1
  Zn  Zn93  1  0.37885526  0.75392780  0.63155216  1
  Zn  Zn94  1  -0.00047202  0.74795792  0.24840262  1
  Zn  Zn95  1  0.12389064  -0.00236303  0.62298385  1
  Zn  Zn96  1  0.37381830  0.87288555  -0.00129699  1
  Zn  Zn97  1  0.49683650  0.12481204  0.13915597  1
  Zn  Zn98  1  0.75157924  0.14772447  0.88594289  1
  Zn  Zn99  1  0.37437971  0.36891653  0.00061776  1
  Zn  Zn100  1  0.62199633  0.49887630  0.62567773  1
  Zn  Zn101  1  0.25463944  0.49686072  0.25147166  1
  Zn  Zn102  1  0.25356249  0.37266455  0.12945768  1
  Zn  Zn103  1  0.62383797  0.37551640  0.25112358  1
  Zn  Zn104  1  0.87605327  0.12764338  0.75124431  1
  Zn  Zn105  1  0.74335851  0.37098449  0.12347321  1
  Zn  Zn106  1  0.62502467  0.14767409  -0.00335531  1
  Zn  Zn107  1  0.18191256  0.18446683  0.18245191  1
  Zn  Zn108  1  0.19274699  0.19250702  0.68497677  1
  Zn  Zn109  1  0.19014659  0.68570546  0.18865889  1
  Zn  Zn110  1  0.18870539  0.68374786  0.68815310  1
  Zn  Zn111  1  0.69017375  0.18521431  0.18444600  1
  Zn  Zn112  1  0.69358621  0.18548645  0.68580519  1
  Zn  Zn113  1  0.68941545  0.68464646  0.19064700  1
  Zn  Zn114  1  0.68588790  0.68798689  0.68487002  1
  Zn  Zn115  1  0.30950797  0.31444456  0.31321218  1
  Zn  Zn116  1  0.31694589  0.30704777  0.81641377  1
  Zn  Zn117  1  0.31191749  0.81056691  0.31090228  1
  Zn  Zn118  1  0.31343893  0.81290707  0.81373703  1
  Zn  Zn119  1  0.81348671  0.31646596  0.31083933  1
  Zn  Zn120  1  0.82201392  0.31863784  0.80546203  1
  Zn  Zn121  1  0.81373888  0.80823337  0.31098927  1
  Zn  Zn122  1  0.80892410  0.81671711  0.80796462  1
  Zn  Zn123  1  0.18532165  0.43268849  0.43781919  1
  Zn  Zn124  1  0.19039275  0.43581376  0.93931830  1
  Zn  Zn125  1  0.18620802  0.93884954  0.43699572  1
  Zn  Zn126  1  0.18595450  0.94037290  0.93862089  1
  Zn  Zn127  1  0.68254570  0.43828955  0.44091132  1
  Zn  Zn128  1  0.68734319  0.31449446  0.93705102  1
  Zn  Zn129  1  0.68658641  0.93586367  0.44017136  1
  Zn  Zn130  1  0.67330128  1.00665945  0.92273315  1
  Zn  Zn131  1  0.30813597  0.06798007  0.06477378  1
  Zn  Zn132  1  0.31424603  0.06519728  0.56538054  1
  Zn  Zn133  1  0.31508924  0.56144035  0.05908294  1
  Zn  Zn134  1  0.30940993  0.55960954  0.56915394  1
  Zn  Zn135  1  0.81437696  0.06138865  0.06111222  1
  Zn  Zn136  1  0.81529692  0.06073836  0.56201683  1
  Zn  Zn137  1  0.80957830  0.56179137  0.05794963  1
  Zn  Zn138  1  0.81136191  0.56217191  0.56290483  1
  Zn  Zn139  1  0.43625851  0.43626554  0.18313072  1
  Zn  Zn140  1  0.43889234  0.44289432  0.68518723  1
  Zn  Zn141  1  0.43645051  0.93198497  0.18621793  1
  Zn  Zn142  1  0.43464894  0.94184999  0.68606713  1
  Zn  Zn143  1  0.93476652  0.43608181  0.18828508  1
  Zn  Zn144  1  0.94195588  0.43612987  0.68772099  1
  Zn  Zn145  1  0.94062989  0.93514208  0.18717566  1
  Zn  Zn146  1  0.93749779  0.93335388  0.68818955  1
  Zn  Zn147  1  0.06356136  0.06224145  0.30997881  1
  Zn  Zn148  1  0.05945927  0.06081456  0.81218383  1
  Zn  Zn149  1  0.06250064  0.56500562  0.31123475  1
  Zn  Zn150  1  0.06544259  0.55803498  0.80858602  1
  Zn  Zn151  1  0.58295102  0.05616831  0.31744246  1
  Zn  Zn152  1  0.56541675  0.17682970  0.82019814  1
  Zn  Zn153  1  0.56233116  0.56284686  0.31389388  1
  Zn  Zn154  1  0.56527888  0.55841502  0.81103294  1
  Zn  Zn155  1  0.44125383  0.19539430  0.44398024  1
  Zn  Zn156  1  0.43063548  0.18532441  0.94731775  1
  Zn  Zn157  1  0.43788215  0.68851949  0.43849564  1
  Zn  Zn158  1  0.43843623  0.69003130  0.93941387  1
  Zn  Zn159  1  0.94359090  0.19021205  0.43717959  1
  Zn  Zn160  1  0.93868758  0.18376941  0.93928900  1
  Zn  Zn161  1  0.94019042  0.68832502  0.44253678  1
  Zn  Zn162  1  0.93687368  0.68623522  0.93656560  1
  Zn  Zn163  1  0.05818490  0.31130710  0.06580909  1
  Zn  Zn164  1  0.06641449  0.31489881  0.56277779  1
  Zn  Zn165  1  0.06204314  0.81496048  0.06215672  1
  Zn  Zn166  1  0.06003273  0.80121691  0.56090942  1
  Zn  Zn167  1  0.55402921  0.31426362  0.07107644  1
  Zn  Zn168  1  0.56204255  0.31452652  0.55939768  1
  Zn  Zn169  1  0.56001442  0.81493080  0.05521528  1
  Zn  Zn170  1  0.56154677  0.81263627  0.56026886  1
  O  O171  1  0.11076118  0.11844252  0.12608120  1
  O  O172  1  0.11882576  0.12456257  0.61849777  1
  O  O173  1  0.11887314  0.62057431  0.11860374  1
  O  O174  1  0.12887731  0.60828862  0.62775872  1
  O  O175  1  0.61901608  0.11155229  0.13160989  1
  O  O176  1  0.63237990  0.11766676  0.61172971  1
  O  O177  1  0.61733501  0.62454855  0.12027634  1
  O  O178  1  0.61841291  0.62466009  0.61438415  1
  O  O179  1  0.38393958  0.36674740  0.38581023  1
  O  O180  1  0.38017008  0.38235620  0.87664013  1
  O  O181  1  0.38150922  0.86823167  0.38534274  1
  O  O182  1  0.37629192  0.88689921  0.87681946  1
  O  O183  1  0.88818866  0.37098406  0.38292875  1
  O  O184  1  0.88118640  0.38908715  0.88117690  1
  O  O185  1  0.88209515  0.87493251  0.38044257  1
  O  O186  1  0.88241854  0.87595753  0.88129856  1
  O  O187  1  0.25146139  -0.00288295  0.36231004  1
  O  O188  1  0.25461108  0.00752227  0.87045214  1
  O  O189  1  0.24351045  0.51295528  0.37619903  1
  O  O190  1  0.26246778  0.50931613  0.88418194  1
  O  O191  1  0.75545989  0.00316682  0.36966585  1
  O  O192  1  0.76424339  -0.01736609  0.85877355  1
  O  O193  1  0.74694475  0.49854369  0.36485232  1
  O  O194  1  0.75840765  0.51020085  0.86563123  1
  O  O195  1  0.24061640  0.49961448  0.12171150  1
  O  O196  1  0.23642577  0.49312944  0.62791102  1
  O  O197  1  0.25742066  0.98773895  0.13519836  1
  O  O198  1  0.24860435  0.99470250  0.63479604  1
  O  O199  1  0.73625001  0.50334751  0.12560576  1
  O  O200  1  0.75009157  0.48952097  0.63091118  1
  O  O201  1  0.74256580  0.99032306  0.13169471  1
  O  O202  1  0.74509230  0.99334191  0.62643146  1
  O  O203  1  -0.00111305  0.36864660  0.26121987  1
  O  O204  1  0.01062942  0.36659718  0.75242135  1
  O  O205  1  0.00859104  0.87071963  0.25647377  1
  O  O206  1  0.00475484  0.86590518  0.76080842  1
  O  O207  1  0.50173781  0.38577381  0.26497808  1
  O  O208  1  0.51804831  0.38065402  0.74645398  1
  O  O209  1  0.50806256  0.87896445  0.26047603  1
  O  O210  1  0.49204180  0.88080889  0.76544261  1
  O  O211  1  0.49038315  0.10687157  0.26425918  1
  O  O212  1  0.48795179  0.11693727  0.75214307  1
  O  O213  1  0.49542431  0.62363249  0.23853987  1
  O  O214  1  0.49479993  0.62023695  0.74028994  1
  O  O215  1  0.98600301  0.13139064  0.25721607  1
  O  O216  1  1.00136366  0.13264749  0.73913725  1
  O  O217  1  0.99011295  0.62541981  0.24282834  1
  O  O218  1  1.00376424  0.63665697  0.74821550  1
  O  O219  1  0.36176211  0.24890695  0.01323477  1
  O  O220  1  0.37382118  0.25746369  0.51200587  1
  O  O221  1  0.36563916  0.74909000  0.01063912  1
  O  O222  1  0.36456719  0.75794419  0.50139179  1
  O  O223  1  0.88483935  0.25990060  0.00897267  1
  O  O224  1  0.87236064  0.25577570  0.50834737  1
  O  O225  1  0.86922362  0.75600628  0.00279777  1
  O  O226  1  0.87552572  0.76150612  0.50887619  1
  O  O227  1  0.12506527  0.24197429  0.49311073  1
  O  O228  1  0.13689934  0.25268816  1.00478718  1
  O  O229  1  0.14007979  0.75713828  0.48778705  1
  O  O230  1  0.12957429  0.74335402  0.99400433  1
  O  O231  1  0.63191493  0.24349050  0.49411668  1
  O  O232  1  0.63157266  0.25770535  1.01519996  1
  O  O233  1  0.62160971  0.73664353  0.49420854  1
  O  O234  1  0.63059013  0.74625181  0.99085241  1
  O  O235  1  0.48542070  0.24451344  0.13139123  1
  O  O236  1  0.48600722  0.25152432  0.61911920  1
  O  O237  1  0.49004607  0.74209054  0.11755390  1
  O  O238  1  0.49671403  0.73738736  0.61859068  1
  O  O239  1  0.98847002  0.25742061  0.14160146  1
  O  O240  1  0.99622471  0.24451974  0.62915502  1
  O  O241  1  0.99311697  0.74230326  0.12493865  1
  O  O242  1  0.98854471  0.75524214  0.63768811  1
  O  O243  1  0.00548269  0.25736546  0.36505955  1
  O  O244  1  -0.00748584  0.24883900  0.85899254  1
  O  O245  1  0.00941655  0.76005805  0.37207227  1
  O  O246  1  0.00534394  0.75322549  0.86872388  1
  O  O247  1  0.51105022  0.26153075  0.38138820  1
  O  O248  1  0.49478312  0.24328818  0.87685340  1
  O  O249  1  0.50903360  0.76151154  0.38011987  1
  O  O250  1  0.50520851  0.76697237  0.88256006  1
  O  O251  1  0.23659316  0.12435654  0.50407989  1
  O  O252  1  0.24913209  0.13230089  0.98783996  1
  O  O253  1  0.24888364  0.63252582  0.49477258  1
  O  O254  1  0.24540627  0.63133649  0.99221749  1
  O  O255  1  0.74645893  0.13039832  0.49490336  1
  O  O256  1  0.73478340  0.09597952  0.99135546  1
  O  O257  1  0.73369577  0.62069018  0.50211275  1
  O  O258  1  0.74386883  0.63066721  0.98595761  1
  O  O259  1  0.25173393  0.36002578  0.00066689  1
  O  O260  1  0.26456842  0.37543755  0.49911739  1
  O  O261  1  0.24976243  0.86810404  0.00863424  1
  O  O262  1  0.25715926  0.87148633  0.50311733  1
  O  O263  1  0.76281798  0.38291954  0.00207270  1
  O  O264  1  0.75683128  0.37244378  0.50617157  1
  O  O265  1  0.76045437  0.86576987  0.00803928  1
  O  O266  1  0.75936816  0.87993253  0.50980448  1
  O  O267  1  0.12512596  0.50397335  0.23545048  1
  O  O268  1  0.12633522  0.48438387  0.74477127  1
  O  O269  1  0.13461336  0.98924199  0.25475181  1
  O  O270  1  0.13555311  0.99338171  0.75018338  1
  O  O271  1  0.63753420  0.50525361  0.24455729  1
  O  O272  1  0.63777743  0.49070487  0.74712523  1
  O  O273  1  0.63191627  0.98540288  0.24244187  1
  O  O274  1  0.63510889  1.00154534  0.73332800  1
  O  O275  1  0.36510276  -0.00201523  0.25578793  1
  O  O276  1  0.36370851  0.00658239  0.75560888  1
  O  O277  1  0.37416488  0.51549921  0.24298585  1
  O  O278  1  0.38086240  0.51020895  0.76325348  1
  O  O279  1  0.87215576  0.00417710  0.25527122  1
  O  O280  1  0.87002157  0.00082990  0.75477724  1
  O  O281  1  0.86089399  0.50836582  0.24514986  1
  O  O282  1  0.86321928  0.49207043  0.75654422  1
  O  O283  1  0.11303306  0.36604397  0.37498900  1
  O  O284  1  0.12176676  0.38040040  0.86378672  1
  O  O285  1  0.11951842  0.86884081  0.36751176  1
  O  O286  1  0.11822817  0.86966608  0.87042732  1
  O  O287  1  0.61791457  0.36713560  0.37531607  1
  O  O288  1  0.62166855  0.37389820  0.85830570  1
  O  O289  1  0.61753424  0.87003368  0.36995289  1
  O  O290  1  0.60909864  0.87381507  0.87605655  1
  O  O291  1  0.37743933  0.13570057  0.12588896  1
  O  O292  1  0.37246827  0.13772968  0.63479972  1
  O  O293  1  0.38208013  0.63087074  0.12942426  1
  O  O294  1  0.38115783  0.62572124  0.63549567  1
  O  O295  1  0.87066106  0.13166256  0.13365895  1
  O  O296  1  0.88434339  0.13382545  0.62343007  1
  O  O297  1  0.87878710  0.63046600  0.12507904  1
  O  O298  1  0.87394982  0.63808691  0.62198134  1
  O  O299  1  0.25192665  0.24691679  0.11469590  1
  O  O300  1  0.26288581  0.25622782  0.62081091  1
  O  O301  1  0.25549136  0.75566631  0.11998955  1
  O  O302  1  0.25162159  0.75487405  0.61703944  1
  O  O303  1  0.76593870  0.25392255  0.13323022  1
  O  O304  1  0.75985500  0.25947664  0.62000391  1
  O  O305  1  0.75499823  0.75158191  0.11822619  1
  O  O306  1  0.75758734  0.75900260  0.63061866  1
  O  O307  1  0.23367582  0.25356142  0.37864676  1
  O  O308  1  0.25340903  0.23700294  0.88644736  1
  O  O309  1  0.24484985  0.74247460  0.38099237  1
  O  O310  1  0.24478630  0.74424598  0.88237130  1
  O  O311  1  0.74634390  0.24771744  0.38108458  1
  O  O312  1  0.76000370  0.25773347  0.87307126  1
  O  O313  1  0.73688537  0.75674967  0.37719681  1
  O  O314  1  0.74281613  0.74672235  0.87533282  1
  O  O315  1  0.00552242  0.11449002  -0.00454916  1
  O  O316  1  0.00669059  0.12435117  0.51167919  1
  O  O317  1  0.00430416  0.61451957  0.00370989  1
  O  O318  1  0.01395611  0.64763870  0.51295883  1
  O  O319  1  0.50451550  0.10916927  0.00395578  1
  O  O320  1  0.51035087  0.11482189  0.49405415  1
  O  O321  1  0.50308374  0.61922546  0.00895157  1
  O  O322  1  0.50299658  0.61920799  0.50511300  1
  O  O323  1  0.49238074  0.38455008  0.49461862  1
  O  O324  1  0.49862118  0.38843370  0.99888376  1
  O  O325  1  0.49347437  0.88450283  0.49124132  1
  O  O326  1  0.49186053  0.88539930  0.99455469  1
  O  O327  1  0.99312440  0.36905540  0.48698435  1
  O  O328  1  0.99492398  0.38620120  0.99834142  1
  O  O329  1  0.99383278  0.87348355  0.49188470  1
  O  O330  1  0.99220737  0.86544009  0.98537012  1
  O  O331  1  0.50411839  0.49363432  0.38773903  1
  O  O332  1  0.49451748  0.50076860  0.88355345  1
  O  O333  1  0.49236051  0.99661100  0.37875403  1
  O  O334  1  0.48903016  0.98966318  0.88588872  1
  O  O335  1  1.00598776  0.48477629  0.37153285  1
  O  O336  1  0.99298422  0.50321552  0.88226464  1
  O  O337  1  0.99512801  0.98628803  0.37394276  1
  O  O338  1  0.98707440  0.98848485  0.86633534  1
  O  O339  1  -0.00522746  -0.00144282  0.11512753  1
  O  O340  1  0.00181737  0.00878796  0.62638735  1
  O  O341  1  0.00434455  0.50458346  0.11743566  1
  O  O342  1  0.01747703  0.50045567  0.63346814  1
  O  O343  1  0.50462691  -0.00031762  0.12214731  1
  O  O344  1  0.50830449  -0.00544643  0.61438160  1
  O  O345  1  0.50812491  0.50912220  0.11943487  1
  O  O346  1  0.50256750  0.51146966  0.61450269  1
  O  O347  1  0.24381411  0.38157133  0.24860970  1
  O  O348  1  0.23736585  0.36744612  0.75528868  1
  O  O349  1  0.24315635  0.88000202  0.24487080  1
  O  O350  1  0.24605118  0.88258786  0.74628295  1
  O  O351  1  0.74942760  0.39065018  0.24720232  1
  O  O352  1  0.74164135  0.37966470  0.74092645  1
  O  O353  1  0.74423042  0.87674893  0.24370827  1
  O  O354  1  0.75443681  0.88633145  0.73244689  1
  O  O355  1  0.24161277  0.10842858  0.24864314  1
  O  O356  1  0.25373972  0.11998679  0.76025322  1
  O  O357  1  0.25881601  0.62289886  0.25895882  1
  O  O358  1  0.25826696  0.62803948  0.76441809  1
  O  O359  1  0.76028285  0.11690641  0.25680736  1
  O  O360  1  0.75670225  0.11082391  0.74617797  1
  O  O361  1  0.75851318  0.61261228  0.24853326  1
  O  O362  1  0.74398559  0.61728336  0.75929081  1
  O  O363  1  0.37485731  0.12263515  0.37917469  1
  O  O364  1  0.36610692  0.11334416  0.86934925  1
  O  O365  1  0.36782777  0.63309162  0.36542275  1
  O  O366  1  0.37142711  0.62094623  0.87092549  1
  O  O367  1  0.87226566  0.11940344  0.37108986  1
  O  O368  1  0.87142512  0.11299802  0.87300391  1
  O  O369  1  0.87937762  0.63291996  0.36394243  1
  O  O370  1  0.86607659  0.61433974  0.87855034  1
  O  O371  1  0.12498036  0.38459069  0.12753341  1
  O  O372  1  0.12806939  0.38242788  0.63393937  1
  O  O373  1  0.13296307  0.86530369  0.13847370  1
  O  O374  1  0.13045071  0.87350591  0.63085292  1
  O  O375  1  0.62322953  0.38818194  0.13309452  1
  O  O376  1  0.63430171  0.37471765  0.62983554  1
  O  O377  1  0.62704042  0.87506411  0.13368444  1
  O  O378  1  0.63388231  0.88386876  0.61397462  1
  O  O379  1  0.11562420  0.24849641  0.25648182  1
  O  O380  1  0.11819125  0.26310550  0.74296881  1
  O  O381  1  0.12706710  0.75566253  0.26130460  1
  O  O382  1  0.11958950  0.75386097  0.75601188  1
  O  O383  1  0.63196833  0.24931467  0.26389660  1
  O  O384  1  0.62492020  0.25600331  0.74540987  1
  O  O385  1  0.62820385  0.75846717  0.25767886  1
  O  O386  1  0.62518887  0.74935027  0.76189397  1
  O  O387  1  0.36149944  0.24945926  0.23442275  1
  O  O388  1  0.37435154  0.24308633  0.73929968  1
  O  O389  1  0.36992484  0.74036468  0.23668176  1
  O  O390  1  0.37332568  0.73669280  0.75157081  1
  O  O391  1  0.87960959  0.24157303  0.24656544  1
  O  O392  1  0.88597789  0.25188427  0.73374299  1
  O  O393  1  0.87449711  0.74036717  0.24037999  1
  O  O394  1  0.88273560  0.75472536  0.74222636  1
  O  O395  1  0.38303689  0.49290875  0.50654053  1
  O  O396  1  0.38515873  0.50046785  0.98987134  1
  O  O397  1  0.38326022  0.99350057  0.50506509  1
  O  O398  1  0.37740132  1.00046541  0.99437594  1
  O  O399  1  0.87617473  0.48981486  0.50381220  1
  O  O400  1  0.88211432  0.49491908  0.99329928  1
  O  O401  1  0.87900842  0.98889927  0.49301056  1
  O  O402  1  0.87114776  0.98370158  0.99096525  1
  O  O403  1  0.12376020  -0.00417412  0.01148936  1
  O  O404  1  0.12045395  0.00703363  0.50144487  1
  O  O405  1  0.11777611  0.50354180  0.00721528  1
  O  O406  1  0.12548547  0.49657337  0.51366131  1
  O  O407  1  0.61273436  -0.01575128  0.01733357  1
  O  O408  1  0.61681673  0.00773191  0.50315614  1
  O  O409  1  0.61551398  0.51279717  0.00947177  1
  O  O410  1  0.61683830  0.51165741  0.50245425  1
  O  O411  1  0.37328005  0.36354624  0.12164057  1
  O  O412  1  0.37661165  0.36772969  0.62158227  1
  O  O413  1  0.36563247  0.86570332  0.12480255  1
  O  O414  1  0.36928208  0.87352189  0.61480440  1
  O  O415  1  0.87288897  0.36871473  0.11566595  1
  O  O416  1  0.87113787  0.36951354  0.61773359  1
  O  O417  1  0.87238810  0.86491770  0.11831942  1
  O  O418  1  0.86882736  0.86849710  0.61708132  1
  O  O419  1  0.11340746  0.13366471  0.38624765  1
  O  O420  1  0.13891453  0.12130263  0.86984596  1
  O  O421  1  0.13274985  0.63329386  0.37565400  1
  O  O422  1  0.13406677  0.62588777  0.87909763  1
  O  O423  1  0.63464061  0.13185276  0.38550565  1
  O  O424  1  0.63583899  0.11183889  0.87953670  1
  O  O425  1  0.61894987  0.63359575  0.38779771  1
  O  O426  1  0.62966362  0.63343682  0.87821647  1
