# generated using pymatgen
data_V85Zn86O256
_symmetry_space_group_name_H-M   'P 1'
_cell_length_a   16.92606926
_cell_length_b   16.93017797
_cell_length_c   16.93169133
_cell_angle_alpha   89.98682630
_cell_angle_beta   89.94279134
_cell_angle_gamma   90.08891716
_symmetry_Int_Tables_number   1
_chemical_formula_structural   V85Zn86O256
_chemical_formula_sum   'V85 Zn86 O256'
_cell_volume   4851.96018645
_cell_formula_units_Z   1
loop_
 _symmetry_equiv_pos_site_id
 _symmetry_equiv_pos_as_xyz
  1  'x, y, z'
loop_
 _atom_site_type_symbol
 _atom_site_label
 _atom_site_symmetry_multiplicity
 _atom_site_fract_x
 _atom_site_fract_y
 _atom_site_fract_z
 _atom_site_occupancy
  V  V0  1  0.12659189  0.00718026  0.62885464  1
  V  V1  1  0.00354503  0.48312274  0.49683770  1
  V  V2  1  0.88578721  0.62832473  0.74985478  1
  V  V3  1  0.50237024  0.50625416  0.49831716  1
  V  V4  1  0.12398445  0.63150947  -0.00276832  1
  V  V5  1  0.36735411  0.61926513  0.74829762  1
  V  V6  1  0.36723209  -0.00486079  0.35971260  1
  V  V7  1  0.12939951  0.87745033  0.25176640  1
  V  V8  1  0.88027862  0.75033460  0.62664150  1
  V  V9  1  0.11961098  0.24711704  0.38481934  1
  V  V10  1  0.87502995  0.75199501  0.12777930  1
  V  V11  1  0.50078342  0.62568338  0.12539769  1
  V  V12  1  0.62232692  0.74868689  0.87540360  1
  V  V13  1  0.74390065  0.49649031  0.25086930  1
  V  V14  1  0.73803482  0.62567348  0.37902505  1
  V  V15  1  0.73700325  0.74504421  0.49835052  1
  V  V16  1  0.12271975  0.01110598  0.12806230  1
  V  V17  1  0.36241465  0.36582054  0.01208666  1
  V  V18  1  0.87532979  0.37309978  -0.00028038  1
  V  V19  1  0.87760787  0.48466059  0.37961393  1
  V  V20  1  0.00596206  0.62825857  0.61068319  1
  V  V21  1  0.87938672  0.12590683  0.74583141  1
  V  V22  1  0.75251699  0.25424738  0.50573419  1
  V  V23  1  0.89061475  0.24396566  0.12191361  1
  V  V24  1  0.51363138  0.75463039  0.25448285  1
  V  V25  1  0.14598503  0.35069503  0.24036763  1
  V  V26  1  0.88296050  0.12141565  0.24727038  1
  V  V27  1  0.00224679  -0.00113623  0.00063526  1
  V  V28  1  0.37168568  0.37448109  0.50166304  1
  V  V29  1  0.49565221  0.50133827  -0.00163065  1
  V  V30  1  0.87597795  0.62168165  0.25592076  1
  V  V31  1  0.57216276  0.31694202  0.20918957  1
  V  V32  1  0.24745660  0.50175937  0.24932358  1
  V  V33  1  0.37498986  0.24339812  0.62796322  1
  V  V34  1  0.74809095  0.12135835  0.37717940  1
  V  V35  1  0.25471365  0.00628217  0.75269866  1
  V  V36  1  0.02530972  0.85862784  0.85841183  1
  V  V37  1  0.87468840  0.50033245  0.87530031  1
  V  V38  1  0.88072797  -0.00773567  0.87354227  1
  V  V39  1  0.50009202  0.62698765  0.62147639  1
  V  V40  1  0.37293622  0.62926170  0.25398243  1
  V  V41  1  0.63169228  0.24460598  0.87565618  1
  V  V42  1  0.49844470  0.24181682  0.74938191  1
  V  V43  1  0.61999708  0.00427689  0.12820354  1
  V  V44  1  0.49734115  0.37676308  0.87059462  1
  V  V45  1  0.75430109  0.37007212  0.12869951  1
  V  V46  1  0.24658276  0.12054846  0.36061026  1
  V  V47  1  0.25819613  0.13152064  0.87973897  1
  V  V48  1  0.12643664  0.49628318  0.12647299  1
  V  V49  1  0.24842347  0.75246468  -0.00511150  1
  V  V50  1  0.74837607  0.50090170  0.74806376  1
  V  V51  1  0.74950904  0.62479864  0.87465633  1
  V  V52  1  0.23956381  0.75271080  0.50381936  1
  V  V53  1  0.50264613  0.37421877  0.37527243  1
  V  V54  1  0.50511269  0.01957558  0.00062414  1
  V  V55  1  0.74940837  0.87242115  0.62504136  1
  V  V56  1  -0.00002868  0.62615286  0.12712700  1
  V  V57  1  0.12618104  0.24794568  0.88085213  1
  V  V58  1  -0.00088788  0.50096456  -0.00033846  1
  V  V59  1  -0.00393841  0.26003843  0.26341579  1
  V  V60  1  0.48724882  -0.00317166  0.50001189  1
  V  V61  1  0.61771443  0.12050472  0.50312424  1
  V  V62  1  0.24496386  0.87573085  0.63058473  1
  V  V63  1  0.25064773  0.38012972  0.63416628  1
  V  V64  1  0.87465213  0.87397432  0.50106402  1
  V  V65  1  0.24992120  0.88253538  0.12900226  1
  V  V66  1  0.62132324  0.24931655  0.37453729  1
  V  V67  1  0.62308499  0.87316484  0.75028582  1
  V  V68  1  0.24460921  0.62172181  0.86956612  1
  V  V69  1  0.24890579  0.23920612  0.50332290  1
  V  V70  1  0.87558806  -0.00180716  0.37694175  1
  V  V71  1  0.74924970  0.00029097  0.75004709  1
  V  V72  1  0.37128487  0.75553468  0.62001155  1
  V  V73  1  0.37478046  0.75246951  0.12663972  1
  V  V74  1  0.00108843  0.37329779  0.87343378  1
  V  V75  1  0.62599797  0.50472715  0.61909323  1
  V  V76  1  0.24027421  0.62605715  0.38242995  1
  V  V77  1  0.38093191  0.87724393  -0.00228232  1
  V  V78  1  0.12911202  0.50618331  0.62946545  1
  V  V79  1  0.74823997  -0.01066449  0.24899676  1
  V  V80  1  0.50878467  0.87330178  0.37524863  1
  V  V81  1  0.00294496  0.87352148  0.37676518  1
  V  V82  1  0.49614839  0.74975856  0.74946612  1
  V  V83  1  0.00804189  0.00713710  0.50066522  1
  V  V84  1  0.74774636  0.75094851  0.00150909  1
  Zn  Zn85  1  0.12087339  0.74730866  0.37969576  1
  Zn  Zn86  1  0.74389936  0.87174367  0.12825073  1
  Zn  Zn87  1  0.00317026  0.24905465  0.74867382  1
  Zn  Zn88  1  0.75428631  0.38169183  0.61779203  1
  Zn  Zn89  1  0.00182880  0.74834149  0.25356666  1
  Zn  Zn90  1  0.62235417  0.49358049  0.12598514  1
  Zn  Zn91  1  0.74991349  0.11841642  0.87982092  1
  Zn  Zn92  1  0.49660213  0.12009860  0.62851327  1
  Zn  Zn93  1  0.62415154  0.37545385  0.74610965  1
  Zn  Zn94  1  0.36757609  0.49663251  0.87187022  1
  Zn  Zn95  1  0.61974197  -0.00191941  0.62551498  1
  Zn  Zn96  1  0.12472610  0.12367072  0.00007068  1
  Zn  Zn97  1  0.37224098  0.50248387  0.37794280  1
  Zn  Zn98  1  0.62400893  0.62192814  0.00055010  1
  Zn  Zn99  1  0.88438225  0.26130965  0.62241265  1
  Zn  Zn100  1  0.12952166  0.37950453  0.75455818  1
  Zn  Zn101  1  0.87998151  0.87072093  -0.00339321  1
  Zn  Zn102  1  0.49814348  0.87688347  0.87570011  1
  Zn  Zn103  1  0.00620472  0.12975213  0.62301875  1
  Zn  Zn104  1  0.38011207  0.00373820  0.87023652  1
  Zn  Zn105  1  0.74733484  0.23983841  0.00705516  1
  Zn  Zn106  1  0.44784930  0.17193373  0.17216497  1
  Zn  Zn107  1  0.27994046  0.20748991  0.18209623  1
  Zn  Zn108  1  0.18693120  0.18888420  0.69465195  1
  Zn  Zn109  1  0.18618170  0.69192555  0.18727391  1
  Zn  Zn110  1  0.17243782  0.69899843  0.69996483  1
  Zn  Zn111  1  0.69740560  0.17696875  0.18370390  1
  Zn  Zn112  1  0.68478708  0.18451394  0.68954897  1
  Zn  Zn113  1  0.68772225  0.68304671  0.18882735  1
  Zn  Zn114  1  0.68831408  0.68538954  0.68543781  1
  Zn  Zn115  1  0.31203525  0.31554275  0.31919824  1
  Zn  Zn116  1  0.31524435  0.31118376  0.81347971  1
  Zn  Zn117  1  0.31267172  0.81377199  0.31633268  1
  Zn  Zn118  1  0.30603147  0.81332860  0.81137639  1
  Zn  Zn119  1  0.80705487  0.30777607  0.31228969  1
  Zn  Zn120  1  0.81461478  0.31548916  0.80496546  1
  Zn  Zn121  1  0.81264512  0.80842394  0.31647247  1
  Zn  Zn122  1  0.81345961  0.81154739  0.81159474  1
  Zn  Zn123  1  0.18420438  0.43357943  0.43630510  1
  Zn  Zn124  1  0.18543811  0.44073910  0.93906743  1
  Zn  Zn125  1  0.19063146  0.93601367  0.44330314  1
  Zn  Zn126  1  0.19053643  0.94097022  0.93891218  1
  Zn  Zn127  1  0.68401982  0.43787682  0.43410972  1
  Zn  Zn128  1  0.68451346  0.43374910  0.93917576  1
  Zn  Zn129  1  0.68484198  0.93577715  0.43978460  1
  Zn  Zn130  1  0.68632445  0.93604649  0.93937324  1
  Zn  Zn131  1  0.31503146  0.06202972  0.06183112  1
  Zn  Zn132  1  0.31348303  0.06114800  0.56102644  1
  Zn  Zn133  1  0.31203938  0.56101292  0.06178289  1
  Zn  Zn134  1  0.31172581  0.56493050  0.56141373  1
  Zn  Zn135  1  0.81275209  0.06035277  0.06145691  1
  Zn  Zn136  1  0.81239159  0.06298509  0.56419082  1
  Zn  Zn137  1  0.81097778  0.56333022  0.06515787  1
  Zn  Zn138  1  0.81761653  0.56244104  0.55909731  1
  Zn  Zn139  1  0.42881717  0.44133359  0.18580897  1
  Zn  Zn140  1  0.43793386  0.43689959  0.68669684  1
  Zn  Zn141  1  0.44161179  0.93876875  0.18698404  1
  Zn  Zn142  1  0.43337835  0.93577420  0.68728314  1
  Zn  Zn143  1  0.94101168  0.43490069  0.18998793  1
  Zn  Zn144  1  0.93727330  0.43853275  0.68446930  1
  Zn  Zn145  1  0.94037020  0.93584332  0.18808761  1
  Zn  Zn146  1  0.94123972  0.93755369  0.68855007  1
  Zn  Zn147  1  0.06779684  0.06425219  0.31360676  1
  Zn  Zn148  1  0.06567981  0.05852664  0.81208224  1
  Zn  Zn149  1  0.06264661  0.55637598  0.31452799  1
  Zn  Zn150  1  0.06375650  0.56655662  0.81036881  1
  Zn  Zn151  1  0.56222441  0.05749382  0.30981265  1
  Zn  Zn152  1  0.56250408  0.06262744  0.81394263  1
  Zn  Zn153  1  0.56105880  0.56111633  0.31126215  1
  Zn  Zn154  1  0.56038454  0.56406173  0.80978842  1
  Zn  Zn155  1  0.42997782  0.18773818  0.33486700  1
  Zn  Zn156  1  0.43448274  0.19274197  0.93718114  1
  Zn  Zn157  1  0.43235823  0.69158641  0.43844631  1
  Zn  Zn158  1  0.43325913  0.68757889  0.93569659  1
  Zn  Zn159  1  0.93386150  0.18648067  0.43896677  1
  Zn  Zn160  1  0.93706545  0.18188108  0.93516305  1
  Zn  Zn161  1  0.93179119  0.68668732  0.43809868  1
  Zn  Zn162  1  0.93747039  0.68977645  0.93806420  1
  Zn  Zn163  1  0.10322705  0.28001820  0.09199099  1
  Zn  Zn164  1  0.06646170  0.31417371  0.56816658  1
  Zn  Zn165  1  0.06142202  0.81760958  0.06075338  1
  Zn  Zn166  1  0.06391154  0.81898294  0.56961162  1
  Zn  Zn167  1  0.55871825  0.31259063  0.04430725  1
  Zn  Zn168  1  0.56384873  0.31470273  0.56150633  1
  Zn  Zn169  1  0.56530916  0.81580317  0.06710539  1
  Zn  Zn170  1  0.55859692  0.81648326  0.56084770  1
  O  O171  1  0.12920500  0.11050414  0.12358693  1
  O  O172  1  0.12744596  0.11289574  0.62863165  1
  O  O173  1  0.11819276  0.61854356  0.12139498  1
  O  O174  1  0.11612890  0.62162211  0.62967526  1
  O  O175  1  0.63641500  0.10498390  0.12021748  1
  O  O176  1  0.62072801  0.12016789  0.61710603  1
  O  O177  1  0.61101152  0.62296400  0.12403796  1
  O  O178  1  0.61503726  0.61483594  0.62880037  1
  O  O179  1  0.38172127  0.38060716  0.38581382  1
  O  O180  1  0.38547265  0.37804104  0.87748208  1
  O  O181  1  0.37650458  0.89032158  0.37415953  1
  O  O182  1  0.37493300  0.87827461  0.88428226  1
  O  O183  1  0.87000522  0.38580169  0.36937309  1
  O  O184  1  0.87922659  0.38069637  0.87937664  1
  O  O185  1  0.88317295  0.87948628  0.38028162  1
  O  O186  1  0.87720199  0.88425842  0.87238258  1
  O  O187  1  0.25682519  0.00702794  0.37893709  1
  O  O188  1  0.25245616  0.00804896  0.86525775  1
  O  O189  1  0.24918309  0.50991553  0.37075869  1
  O  O190  1  0.24963632  0.51679598  0.87792241  1
  O  O191  1  0.75323609  0.00384129  0.37097185  1
  O  O192  1  0.75712539  -0.00516670  0.86416211  1
  O  O193  1  0.75736695  0.50386455  0.36976655  1
  O  O194  1  0.75260675  0.50563919  0.86980309  1
  O  O195  1  0.23876890  0.51067621  0.13610831  1
  O  O196  1  0.24001127  0.49379373  0.61647926  1
  O  O197  1  0.24232916  0.98659963  0.11820107  1
  O  O198  1  0.24788095  0.99639798  0.63199635  1
  O  O199  1  0.74871845  0.49116185  0.13267233  1
  O  O200  1  0.74305089  0.50611566  0.63010019  1
  O  O201  1  0.74711695  0.99412121  0.13373841  1
  O  O202  1  0.74920906  0.99197799  0.63637986  1
  O  O203  1  0.01121934  0.36264449  0.24956889  1
  O  O204  1  -0.00024598  0.37895027  0.76487349  1
  O  O205  1  0.00451618  0.87328070  0.26426041  1
  O  O206  1  0.00302728  0.87712109  0.76122147  1
  O  O207  1  0.50175628  0.38272987  0.25702274  1
  O  O208  1  0.50166968  0.36894399  0.75628834  1
  O  O209  1  0.49399947  0.86684118  0.26232465  1
  O  O210  1  0.50555425  0.86824279  0.75166238  1
  O  O211  1  0.50389152  0.13814687  0.26302596  1
  O  O212  1  0.50217920  0.13694775  0.74833191  1
  O  O213  1  0.49196430  0.63088925  0.24625292  1
  O  O214  1  0.49066058  0.63263178  0.74300021  1
  O  O215  1  0.98610444  0.13114765  0.26289236  1
  O  O216  1  0.99237452  0.12216236  0.74719554  1
  O  O217  1  0.99218438  0.62426284  0.24684991  1
  O  O218  1  0.98877475  0.62027707  0.73891872  1
  O  O219  1  0.37605728  0.26677023  -0.00178144  1
  O  O220  1  0.36554288  0.26511466  0.51020095  1
  O  O221  1  0.36847506  0.75686160  0.00667130  1
  O  O222  1  0.36273329  0.74465582  0.51476529  1
  O  O223  1  0.88133031  0.25505469  0.00841465  1
  O  O224  1  0.85574615  0.24029119  0.50391087  1
  O  O225  1  0.86645185  0.74767294  0.01055388  1
  O  O226  1  0.86736501  0.75608399  0.50860633  1
  O  O227  1  0.13480544  0.25959297  0.49226884  1
  O  O228  1  0.12104892  0.24381311  0.98722747  1
  O  O229  1  0.13514867  0.75337572  0.50240484  1
  O  O230  1  0.13327048  0.73920543  1.00971676  1
  O  O231  1  0.62985986  0.23971576  0.49380056  1
  O  O232  1  0.62959621  0.25282320  0.98083051  1
  O  O233  1  0.63769140  0.75195107  0.50774594  1
  O  O234  1  0.63088689  0.74772842  0.99462106  1
  O  O235  1  0.51773620  0.26072408  0.13724758  1
  O  O236  1  0.49307845  0.25210797  0.63164514  1
  O  O237  1  0.49465851  0.74543151  0.13349574  1
  O  O238  1  0.49009438  0.74713493  0.62747941  1
  O  O239  1  0.99419117  0.25004474  0.13853658  1
  O  O240  1  1.00088293  0.24657243  0.62926230  1
  O  O241  1  0.99170664  0.74434740  0.12673758  1
  O  O242  1  0.98907481  0.74450662  0.61762053  1
  O  O243  1  0.00585726  0.24875488  0.37746559  1
  O  O244  1  0.00594020  0.25807845  0.87394604  1
  O  O245  1  0.00026607  0.75893874  0.37712912  1
  O  O246  1  -0.00246286  0.76269487  0.87758534  1
  O  O247  1  0.50468613  0.26634518  0.38114781  1
  O  O248  1  0.50715882  0.25656807  0.86793416  1
  O  O249  1  0.49154820  0.76431343  0.37019775  1
  O  O250  1  0.50574935  0.74959085  0.86818387  1
  O  O251  1  0.25049795  0.13761493  0.50153769  1
  O  O252  1  0.24498118  0.11466579  0.98101525  1
  O  O253  1  0.25208755  0.63428940  0.49127011  1
  O  O254  1  0.24317322  0.63273307  0.99558153  1
  O  O255  1  0.73991860  0.12736278  0.49485749  1
  O  O256  1  0.76236703  0.12939677  0.99086303  1
  O  O257  1  0.75531445  0.63252704  0.49084613  1
  O  O258  1  0.74773738  0.63427319  0.99585289  1
  O  O259  1  0.26386814  0.38205194  -0.00482567  1
  O  O260  1  0.25690259  0.37019877  0.50732459  1
  O  O261  1  0.25982997  0.86955981  0.00544126  1
  O  O262  1  0.25028292  0.86630536  0.51489948  1
  O  O263  1  0.75567698  0.37223705  0.01281504  1
  O  O264  1  0.74274071  0.35698405  0.49600266  1
  O  O265  1  0.75415218  0.86045924  -0.00063131  1
  O  O266  1  0.75462322  0.86866857  0.50580259  1
  O  O267  1  0.13180819  0.49220122  0.24472700  1
  O  O268  1  0.12017556  0.49928850  0.73437907  1
  O  O269  1  0.11768408  0.98685058  0.24316295  1
  O  O270  1  0.14112349  1.00094594  0.74247161  1
  O  O271  1  0.63957073  0.50211791  0.24764825  1
  O  O272  1  0.63241491  0.50208700  0.74179014  1
  O  O273  1  0.63361335  1.00065925  0.23918702  1
  O  O274  1  0.63177706  0.99223757  0.75077166  1
  O  O275  1  0.37618850  0.00075848  0.26083313  1
  O  O276  1  0.36115324  -0.00021030  0.75074577  1
  O  O277  1  0.36767526  0.51484594  0.25200086  1
  O  O278  1  0.37847626  0.51551118  0.74898010  1
  O  O279  1  0.87156781  0.00418659  0.25602967  1
  O  O280  1  0.86801398  0.00265042  0.75383659  1
  O  O281  1  0.86917810  0.50499114  0.25582421  1
  O  O282  1  0.86805923  0.50983239  0.75577305  1
  O  O283  1  0.14122220  0.35667401  0.35607806  1
  O  O284  1  0.11798174  0.37074233  0.87625712  1
  O  O285  1  0.11956207  0.87476352  0.37013020  1
  O  O286  1  0.12349103  0.87256559  0.87734269  1
  O  O287  1  0.61522013  0.36796711  0.37338424  1
  O  O288  1  0.61254991  0.36876136  0.87265522  1
  O  O289  1  0.60805749  0.87942446  0.37355947  1
  O  O290  1  0.62366299  0.86544150  0.86755873  1
  O  O291  1  0.35309392  0.14464339  0.12258495  1
  O  O292  1  0.37713846  0.13997881  0.61905312  1
  O  O293  1  0.38362483  0.63027398  0.13185054  1
  O  O294  1  0.37863529  0.63228081  0.63144311  1
  O  O295  1  0.87346778  0.13181726  0.13630061  1
  O  O296  1  0.87595955  0.12477318  0.63710604  1
  O  O297  1  0.87796461  0.63221529  0.13557757  1
  O  O298  1  0.88310588  0.63184233  0.63010069  1
  O  O299  1  0.19578659  0.28380952  0.16534519  1
  O  O300  1  0.25508678  0.25755240  0.62199938  1
  O  O301  1  0.25557027  0.75746523  0.11529332  1
  O  O302  1  0.25161713  0.75639344  0.62343308  1
  O  O303  1  0.76546298  0.25548795  0.12692782  1
  O  O304  1  0.74283343  0.24992697  0.61118201  1
  O  O305  1  0.75506708  0.74896705  0.11943122  1
  O  O306  1  0.75917698  0.75220361  0.61876670  1
  O  O307  1  0.24464645  0.23644741  0.38426258  1
  O  O308  1  0.24518335  0.23775309  0.86966339  1
  O  O309  1  0.24880175  0.74512543  0.38674402  1
  O  O310  1  0.25527769  0.74187961  0.88938730  1
  O  O311  1  0.74482828  0.23924003  0.38444444  1
  O  O312  1  0.73640283  0.25578652  0.86928309  1
  O  O313  1  0.75416372  0.73887483  0.38541450  1
  O  O314  1  0.74487086  0.74367212  0.88166579  1
  O  O315  1  0.00317872  0.10445284  -0.00953803  1
  O  O316  1  -0.00712532  0.11021528  0.50254180  1
  O  O317  1  0.00640240  0.62211866  0.00497178  1
  O  O318  1  -0.00302811  0.62048261  0.50864489  1
  O  O319  1  0.49868867  0.11815595  -0.00071973  1
  O  O320  1  0.51214325  0.11341848  0.49829923  1
  O  O321  1  0.49750371  0.61996345  0.00801847  1
  O  O322  1  0.49121727  0.61379237  0.50327435  1
  O  O323  1  0.49392923  0.38529380  0.49470697  1
  O  O324  1  0.48960474  0.38485974  0.99047133  1
  O  O325  1  0.49951185  0.88209535  0.48701100  1
  O  O326  1  0.48792490  0.87326581  1.00061279  1
  O  O327  1  0.99923777  0.38492531  0.50277333  1
  O  O328  1  0.99131869  0.38593341  0.98685121  1
  O  O329  1  0.99602863  0.88251608  0.49229207  1
  O  O330  1  1.00015244  0.88179841  0.98751278  1
  O  O331  1  0.49855568  0.49304196  0.38159969  1
  O  O332  1  0.49773383  0.49456232  0.88043238  1
  O  O333  1  0.48898090  0.99024519  0.37767887  1
  O  O334  1  0.49989950  0.99931679  0.88784398  1
  O  O335  1  0.99440107  0.50038161  0.38813446  1
  O  O336  1  0.99423783  0.49799781  0.87970378  1
  O  O337  1  0.99732399  0.99354561  0.38274037  1
  O  O338  1  0.99696608  0.98694244  0.87795323  1
  O  O339  1  0.00955427  -0.00990926  0.11451266  1
  O  O340  1  0.01017324  -0.00108336  0.61799420  1
  O  O341  1  0.00197731  0.50906087  0.12016513  1
  O  O342  1  0.00592670  0.50745755  0.61335155  1
  O  O343  1  0.50916026  0.00149199  0.11600868  1
  O  O344  1  0.49736631  -0.00089376  0.61541855  1
  O  O345  1  0.49970371  0.50876860  0.11856696  1
  O  O346  1  0.50607588  0.50520384  0.61737038  1
  O  O347  1  0.25334462  0.39491298  0.25603591  1
  O  O348  1  0.25365072  0.37593291  0.73779036  1
  O  O349  1  0.24261066  0.86982789  0.24107884  1
  O  O350  1  0.25330847  0.88705971  0.74071519  1
  O  O351  1  0.75703957  0.38171776  0.23765447  1
  O  O352  1  0.74658461  0.39248324  0.75098983  1
  O  O353  1  0.75592887  0.88616094  0.25373223  1
  O  O354  1  0.74333472  0.87869535  0.74429055  1
  O  O355  1  0.24043170  0.12344838  0.26338033  1
  O  O356  1  0.25053211  0.11420561  0.75995594  1
  O  O357  1  0.25522198  0.62209599  0.25614119  1
  O  O358  1  0.25442600  0.63423532  0.75810165  1
  O  O359  1  0.76085954  0.11303113  0.26008742  1
  O  O360  1  0.75598039  0.11450629  0.75336915  1
  O  O361  1  0.75792948  0.61635534  0.25522463  1
  O  O362  1  0.75812521  0.61659352  0.75350089  1
  O  O363  1  0.35647388  0.11097121  0.37938421  1
  O  O364  1  0.36261358  0.12484513  0.87632891  1
  O  O365  1  0.36454666  0.62533452  0.36779612  1
  O  O366  1  0.36491992  0.62459487  0.86545497  1
  O  O367  1  0.86335958  0.11749364  0.37239934  1
  O  O368  1  0.87757124  0.10903253  0.86237967  1
  O  O369  1  0.86967316  0.61721568  0.36493028  1
  O  O370  1  0.87057856  0.62211900  0.86721603  1
  O  O371  1  0.11057303  0.39394442  0.12710335  1
  O  O372  1  0.13492664  0.38533198  0.62911174  1
  O  O373  1  0.13257248  0.87831228  0.13296704  1
  O  O374  1  0.13597985  0.88858847  0.62484629  1
  O  O375  1  0.63139497  0.37008756  0.13007254  1
  O  O376  1  0.62935080  0.39035472  0.62519884  1
  O  O377  1  0.62944505  0.89292018  0.12035505  1
  O  O378  1  0.62991945  0.87478043  0.63448377  1
  O  O379  1  0.10733666  0.24340005  0.27024947  1
  O  O380  1  0.12367853  0.25702639  0.76428836  1
  O  O381  1  0.12146635  0.76322681  0.25260877  1
  O  O382  1  0.11443799  0.76772879  0.76169248  1
  O  O383  1  0.63976691  0.25058710  0.25746178  1
  O  O384  1  0.61790951  0.25488839  0.75648853  1
  O  O385  1  0.61282495  0.74662297  0.24829938  1
  O  O386  1  0.61899083  0.75332253  0.75437195  1
  O  O387  1  0.36738122  0.24418565  0.25403905  1
  O  O388  1  0.38551416  0.25630052  0.73966907  1
  O  O389  1  0.37756375  0.74131419  0.24593870  1
  O  O390  1  0.37725466  0.74242840  0.74207211  1
  O  O391  1  0.88019110  0.24172700  0.24744096  1
  O  O392  1  0.87697358  0.23800737  0.75002074  1
  O  O393  1  0.87569799  0.73957252  0.24482937  1
  O  O394  1  0.86752864  0.73986067  0.73857125  1
  O  O395  1  0.38212727  0.49078650  0.50165291  1
  O  O396  1  0.38456645  0.49714045  0.99684697  1
  O  O397  1  0.38479465  1.00301296  0.49128956  1
  O  O398  1  0.38954433  0.99397285  1.00048636  1
  O  O399  1  0.88841288  0.50234179  0.49093679  1
  O  O400  1  0.87771550  0.49680135  0.99435763  1
  O  O401  1  0.87928709  0.99220461  0.49567519  1
  O  O402  1  0.88295098  0.99308661  0.99113987  1
  O  O403  1  0.11897678  -0.00254907  0.00968323  1
  O  O404  1  0.11675763  -0.00404417  0.50975688  1
  O  O405  1  0.12031923  0.51218404  0.00779253  1
  O  O406  1  0.11122001  0.49548320  0.50589529  1
  O  O407  1  0.61038604  -0.00285747  0.00456210  1
  O  O408  1  0.61642538  0.00468444  0.50204370  1
  O  O409  1  0.61079197  0.49985249  0.00322892  1
  O  O410  1  0.61550528  0.49913776  0.50614056  1
  O  O411  1  0.37327356  0.37796030  0.11195373  1
  O  O412  1  0.36905021  0.37163147  0.61929318  1
  O  O413  1  0.36830874  0.87281023  0.12046340  1
  O  O414  1  0.36416337  0.86357979  0.62937129  1
  O  O415  1  0.87262571  0.36682358  0.12046770  1
  O  O416  1  0.86609886  0.37323276  0.63058369  1
  O  O417  1  0.87330475  0.86032035  0.12636151  1
  O  O418  1  0.87144432  0.86737668  0.62236907  1
  O  O419  1  0.13719037  0.12942541  0.38070398  1
  O  O420  1  0.13496590  0.13175581  0.87340184  1
  O  O421  1  0.13648674  0.62887426  0.36713957  1
  O  O422  1  0.12975015  0.62405118  0.88573026  1
  O  O423  1  0.63527597  0.12522811  0.38185146  1
  O  O424  1  0.62853998  0.14102071  0.86825348  1
  O  O425  1  0.63864365  0.61983868  0.37167605  1
  O  O426  1  0.63067405  0.63236326  0.87561062  1
