# generated using pymatgen
data_V85Zn86O256
_symmetry_space_group_name_H-M   'P 1'
_cell_length_a   16.93887121
_cell_length_b   16.92115905
_cell_length_c   16.92070952
_cell_angle_alpha   90.00740301
_cell_angle_beta   90.10155751
_cell_angle_gamma   90.04785220
_symmetry_Int_Tables_number   1
_chemical_formula_structural   V85Zn86O256
_chemical_formula_sum   'V85 Zn86 O256'
_cell_volume   4849.89466272
_cell_formula_units_Z   1
loop_
 _symmetry_equiv_pos_site_id
 _symmetry_equiv_pos_as_xyz
  1  'x, y, z'
loop_
 _atom_site_type_symbol
 _atom_site_label
 _atom_site_symmetry_multiplicity
 _atom_site_fract_x
 _atom_site_fract_y
 _atom_site_fract_z
 _atom_site_occupancy
  V  V0  1  0.37876636  0.87431748  0.00073394  1
  V  V1  1  0.37789453  0.75807776  0.62071922  1
  V  V2  1  0.37350128  0.37165189  0.49609156  1
  V  V3  1  0.12619512  0.25094004  0.38856320  1
  V  V4  1  0.88062655  -0.00781771  0.88722856  1
  V  V5  1  0.50009000  0.37096296  0.36617528  1
  V  V6  1  0.24412417  0.00047980  0.74069254  1
  V  V7  1  0.86744557  0.36848265  0.00067288  1
  V  V8  1  0.11709259  0.49945919  0.61742191  1
  V  V9  1  0.12338862  0.87622183  0.74844256  1
  V  V10  1  0.00098505  0.38486595  0.37997095  1
  V  V11  1  0.24833185  0.50117166  0.74824671  1
  V  V12  1  0.75700829  0.75721609  0.00433874  1
  V  V13  1  0.00028198  0.62537475  0.12573198  1
  V  V14  1  0.50050839  0.25076905  0.74978447  1
  V  V15  1  0.63349803  0.50156868  0.12948498  1
  V  V16  1  0.63050403  0.63280287  0.49622708  1
  V  V17  1  0.63868446  0.37545142  0.25257081  1
  V  V18  1  0.62008024  0.50365365  0.62527862  1
  V  V19  1  0.75308375  0.12099918  0.37979171  1
  V  V20  1  0.25182660  0.88244249  0.12153358  1
  V  V21  1  0.75411460  0.12458637  0.88499066  1
  V  V22  1  -0.00202307  0.37165131  0.87616648  1
  V  V23  1  0.75461577  0.24782850  0.50941968  1
  V  V24  1  0.49864808  0.73873750  0.25160498  1
  V  V25  1  0.62457623  -0.00453736  0.63106627  1
  V  V26  1  0.50612930  0.87557556  0.86849598  1
  V  V27  1  0.62552846  0.37498461  0.74944389  1
  V  V28  1  0.11819435  0.62421937  0.49622426  1
  V  V29  1  0.38188591  0.13103969  0.25365267  1
  V  V30  1  0.50081980  0.37631704  0.87554455  1
  V  V31  1  0.00404496  0.75079246  0.75921673  1
  V  V32  1  -0.00315358  0.50160584  -0.00169061  1
  V  V33  1  0.37706169  0.50347046  0.36407885  1
  V  V34  1  0.25757840  0.00135988  0.25279943  1
  V  V35  1  0.62330647  0.24742774  0.37324097  1
  V  V36  1  0.25495888  0.75302638  0.49934530  1
  V  V37  1  0.50082235  0.12453909  0.62302669  1
  V  V38  1  0.86224397  0.49812926  0.37633917  1
  V  V39  1  0.24959324  0.37354287  0.12640498  1
  V  V40  1  0.74237958  0.86496619  0.62421278  1
  V  V41  1  0.38000502  0.62458975  0.73888581  1
  V  V42  1  0.12467750  0.75668678  0.37577969  1
  V  V43  1  0.24665440  0.24637902  0.00108884  1
  V  V44  1  0.25340187  0.62555518  0.36581275  1
  V  V45  1  0.12335659  0.24463358  0.87448132  1
  V  V46  1  0.37428152  0.50211193  0.87319485  1
  V  V47  1  0.24746734  0.37080228  0.61781748  1
  V  V48  1  0.49883877  0.50481834  0.50171055  1
  V  V49  1  0.62532638  0.75234607  0.87557681  1
  V  V50  1  0.12359205  0.37336570  0.74901730  1
  V  V51  1  0.62129551  0.87541079  0.26455740  1
  V  V52  1  0.00337096  0.25341026  0.24966704  1
  V  V53  1  0.37924536  0.73812328  0.12494135  1
  V  V54  1  0.25290238  0.12547541  0.38027977  1
  V  V55  1  0.87355246  0.24360447  0.12630912  1
  V  V56  1  0.62327265  0.00040733  0.12489013  1
  V  V57  1  0.87203308  0.12498212  0.74206490  1
  V  V58  1  0.74830969  0.62852585  0.87566936  1
  V  V59  1  0.74512882  0.00196965  0.25505567  1
  V  V60  1  0.12342483  0.10409433  0.50349767  1
  V  V61  1  0.62231494  0.63123399  0.01331925  1
  V  V62  1  0.87460016  0.62771145  0.75241913  1
  V  V63  1  -0.00065210  0.11405640  0.62075484  1
  V  V64  1  0.37567896  0.00172127  0.87166184  1
  V  V65  1  0.12509636  0.49935187  0.12591231  1
  V  V66  1  0.87897905  0.37575805  0.50875526  1
  V  V67  1  0.89678865  0.10543714  0.26990276  1
  V  V68  1  0.74981195  0.50069922  0.74934936  1
  V  V69  1  0.12779832  0.63196675  -0.00841766  1
  V  V70  1  0.47984209  0.87720701  0.37664832  1
  V  V71  1  0.12752982  0.87764614  0.24304642  1
  V  V72  1  0.00129519  0.74777304  0.25283367  1
  V  V73  1  0.37489682  0.37577968  0.00009751  1
  V  V74  1  0.50608043  0.74867537  0.74377752  1
  V  V75  1  0.50112864  0.00766825  -0.00008694  1
  V  V76  1  0.37225022  0.12642459  0.74990205  1
  V  V77  1  0.50106316  0.50719671  0.00547652  1
  V  V78  1  0.63105879  0.24972214  0.88314074  1
  V  V79  1  0.48733207  -0.00439368  0.49924970  1
  V  V80  1  0.37333223  0.25221451  0.62256221  1
  V  V81  1  0.87539879  0.74954857  0.61626419  1
  V  V82  1  0.86617782  0.61578188  0.24697796  1
  V  V83  1  0.87843609  0.76442738  0.12794300  1
  V  V84  1  0.00764438  0.10813421  0.11935523  1
  Zn  Zn85  1  0.74764292  -0.00601724  0.75280197  1
  Zn  Zn86  1  0.24555636  0.75521992  -0.00645358  1
  Zn  Zn87  1  0.87285291  0.49839656  0.87550312  1
  Zn  Zn88  1  0.74975020  0.63742304  0.38066757  1
  Zn  Zn89  1  0.25624898  0.50535453  0.24421508  1
  Zn  Zn90  1  0.63149730  0.13278369  0.00800237  1
  Zn  Zn91  1  0.24692752  0.12228783  0.87495909  1
  Zn  Zn92  1  0.87372707  0.87387025  0.49318388  1
  Zn  Zn93  1  -0.04395676  0.95780267  0.41330617  1
  Zn  Zn94  1  0.00964576  0.88254200  0.88709477  1
  Zn  Zn95  1  0.62518232  0.12181254  0.50184235  1
  Zn  Zn96  1  -0.00160914  0.62552502  0.62120891  1
  Zn  Zn97  1  0.37989524  0.25205691  0.12976602  1
  Zn  Zn98  1  0.12570546  0.10351906  0.00168539  1
  Zn  Zn99  1  0.24585113  0.63415883  0.86717640  1
  Zn  Zn100  1  -0.00789109  0.25029272  0.74072802  1
  Zn  Zn101  1  0.12779136  0.37556671  0.25336557  1
  Zn  Zn102  1  0.75348297  0.37020990  0.62789137  1
  Zn  Zn103  1  0.50485269  0.13396121  0.13414335  1
  Zn  Zn104  1  0.75315881  0.88047402  0.12585666  1
  Zn  Zn105  1  0.24478200  0.87872194  0.61746813  1
  Zn  Zn106  1  0.75221982  0.37047576  0.12506308  1
  Zn  Zn107  1  0.18622065  0.18746123  0.19004670  1
  Zn  Zn108  1  0.18275021  0.18636181  0.68322978  1
  Zn  Zn109  1  0.19027912  0.69170619  0.18139647  1
  Zn  Zn110  1  0.18580787  0.68919808  0.68370416  1
  Zn  Zn111  1  0.69018769  0.18611626  0.19366155  1
  Zn  Zn112  1  0.68745384  0.18279282  0.69193730  1
  Zn  Zn113  1  0.70116141  0.70500444  0.21493924  1
  Zn  Zn114  1  0.68428308  0.68560234  0.68339073  1
  Zn  Zn115  1  0.30893368  0.30966477  0.31358050  1
  Zn  Zn116  1  0.30981030  0.31315244  0.81229459  1
  Zn  Zn117  1  0.31298921  0.80755895  0.30690023  1
  Zn  Zn118  1  0.31195262  0.81361066  0.80982354  1
  Zn  Zn119  1  0.81761639  0.30448494  0.31796933  1
  Zn  Zn120  1  0.81179084  0.30892347  0.81250847  1
  Zn  Zn121  1  0.80665160  0.81389600  0.32263326  1
  Zn  Zn122  1  0.81225885  0.81419687  0.80813804  1
  Zn  Zn123  1  0.18964585  0.43962130  0.43575492  1
  Zn  Zn124  1  0.18551955  0.43899440  0.93767826  1
  Zn  Zn125  1  0.19451613  0.93525480  0.43139493  1
  Zn  Zn126  1  0.18964218  0.93392861  0.92716667  1
  Zn  Zn127  1  0.68879869  0.43598965  0.44141183  1
  Zn  Zn128  1  0.68708441  0.43956244  0.93850481  1
  Zn  Zn129  1  0.68651822  0.93715490  0.44689871  1
  Zn  Zn130  1  0.68961709  0.93947988  0.93879346  1
  Zn  Zn131  1  0.31383572  0.06434199  0.06467254  1
  Zn  Zn132  1  0.31053933  0.06557293  0.56145020  1
  Zn  Zn133  1  0.31040535  0.56116632  0.06011358  1
  Zn  Zn134  1  0.30851392  0.56322552  0.55693274  1
  Zn  Zn135  1  0.81611298  0.06312049  0.06807540  1
  Zn  Zn136  1  0.81587316  0.05067896  0.55950550  1
  Zn  Zn137  1  0.81190491  0.56548727  0.06065229  1
  Zn  Zn138  1  0.81151720  0.56041278  0.56250854  1
  Zn  Zn139  1  0.44387990  0.43542648  0.18530728  1
  Zn  Zn140  1  0.43736845  0.43776306  0.68529969  1
  Zn  Zn141  1  0.43691359  0.94158338  0.18832425  1
  Zn  Zn142  1  0.43648484  0.93605884  0.68657901  1
  Zn  Zn143  1  0.93697930  0.43549869  0.18822910  1
  Zn  Zn144  1  0.93763362  0.43857872  0.68902607  1
  Zn  Zn145  1  0.94174452  0.94019754  0.22127793  1
  Zn  Zn146  1  0.93129577  0.93604110  0.68921170  1
  Zn  Zn147  1  0.07529975  0.06536153  0.30567726  1
  Zn  Zn148  1  0.05779813  0.06037968  0.80959551  1
  Zn  Zn149  1  0.06387149  0.56203822  0.31187044  1
  Zn  Zn150  1  0.05896490  0.56153427  0.81035333  1
  Zn  Zn151  1  0.56101167  0.05926022  0.32045074  1
  Zn  Zn152  1  0.56471448  0.06574517  0.81233987  1
  Zn  Zn153  1  0.56666226  0.55838921  0.31437780  1
  Zn  Zn154  1  0.56206229  0.56704941  0.81579349  1
  Zn  Zn155  1  0.43785792  0.18685436  0.43741790  1
  Zn  Zn156  1  0.43655337  0.19067263  0.93885006  1
  Zn  Zn157  1  0.44107916  0.68668202  0.43571846  1
  Zn  Zn158  1  0.43284014  0.68787307  0.93218550  1
  Zn  Zn159  1  0.94196692  0.18947521  0.44403300  1
  Zn  Zn160  1  0.93599300  0.18402282  0.93907507  1
  Zn  Zn161  1  0.93697330  0.68903518  0.43369923  1
  Zn  Zn162  1  0.98018365  0.74206871  0.97779066  1
  Zn  Zn163  1  0.06006040  0.31059136  0.06156446  1
  Zn  Zn164  1  0.05652125  0.30533645  0.56484529  1
  Zn  Zn165  1  0.05784812  0.92371848  0.05796148  1
  Zn  Zn166  1  0.05385822  0.82608692  0.56269642  1
  Zn  Zn167  1  0.56169987  0.31524069  0.06642569  1
  Zn  Zn168  1  0.56396743  0.31507836  0.55871922  1
  Zn  Zn169  1  0.56149040  0.81554481  0.06742497  1
  Zn  Zn170  1  0.56010854  0.81355036  0.55947852  1
  O  O171  1  0.11071460  0.12775026  0.12414028  1
  O  O172  1  0.12149946  0.12113934  0.60946210  1
  O  O173  1  0.12083216  0.61748591  0.11828973  1
  O  O174  1  0.12633521  0.61616335  0.61408025  1
  O  O175  1  0.62401736  0.11670791  0.12708038  1
  O  O176  1  0.61626526  0.11787457  0.62460717  1
  O  O177  1  0.62895598  0.61969674  0.11572321  1
  O  O178  1  0.62647671  0.61093868  0.61460656  1
  O  O179  1  0.38056656  0.37825315  0.37887662  1
  O  O180  1  0.37890019  0.38220175  0.87961363  1
  O  O181  1  0.38129512  0.87580693  0.37210867  1
  O  O182  1  0.38696019  0.88101475  0.88168571  1
  O  O183  1  0.88235508  0.38092374  0.38154864  1
  O  O184  1  0.88232885  0.37347751  0.88089614  1
  O  O185  1  0.88229261  0.86861915  0.37369985  1
  O  O186  1  0.87319747  0.89040502  0.86991472  1
  O  O187  1  0.24951360  0.01397777  0.36770458  1
  O  O188  1  0.26106672  0.00135424  0.86181131  1
  O  O189  1  0.25917031  0.50652455  0.36980883  1
  O  O190  1  0.25526258  0.49947981  0.86415163  1
  O  O191  1  0.73928243  0.01271847  0.37060318  1
  O  O192  1  0.75508993  0.00746987  0.87306855  1
  O  O193  1  0.76039476  0.49989342  0.37530533  1
  O  O194  1  0.74691105  0.50698574  0.86356556  1
  O  O195  1  0.24299734  0.49264099  0.12476045  1
  O  O196  1  0.24271789  0.49027374  0.62948571  1
  O  O197  1  0.25779283  0.98845555  0.13213368  1
  O  O198  1  0.25599974  0.99769134  0.63641341  1
  O  O199  1  0.73614273  0.49399431  0.11401043  1
  O  O200  1  0.74205430  0.49746304  0.63693360  1
  O  O201  1  0.73886934  1.00167455  0.13126901  1
  O  O202  1  0.73962884  0.99087077  0.62728865  1
  O  O203  1  0.00246291  0.36810751  0.25923201  1
  O  O204  1  0.00397639  0.37099077  0.75783056  1
  O  O205  1  0.01585286  0.85905457  0.24532544  1
  O  O206  1  0.00403606  0.86401104  0.75161181  1
  O  O207  1  0.50918103  0.37591192  0.26224822  1
  O  O208  1  0.50493529  0.37148384  0.75594368  1
  O  O209  1  0.50136546  0.87663741  0.26228157  1
  O  O210  1  0.49486340  0.86475575  0.75938426  1
  O  O211  1  0.48461106  0.11924386  0.25633075  1
  O  O212  1  0.49270585  0.13151844  0.74369269  1
  O  O213  1  0.50581710  0.64034218  0.25736995  1
  O  O214  1  0.49106665  0.63377680  0.75243353  1
  O  O215  1  1.00396839  0.13602007  0.23827491  1
  O  O216  1  0.98754257  0.12693429  0.74535578  1
  O  O217  1  0.99793031  0.62699539  0.24142709  1
  O  O218  1  0.99209732  0.63203152  0.74726071  1
  O  O219  1  0.36005832  0.25779507  -0.00401976  1
  O  O220  1  0.38011390  0.26405296  0.50520780  1
  O  O221  1  0.38254745  0.75892297  0.01055616  1
  O  O222  1  0.36899165  0.73920133  0.50970018  1
  O  O223  1  0.88216414  0.25642873  0.01196306  1
  O  O224  1  0.86498374  0.25997071  0.49410383  1
  O  O225  1  0.86696069  0.74041084  0.01707121  1
  O  O226  1  0.87462770  0.74208214  0.51339634  1
  O  O227  1  0.12387545  0.24492665  0.49015847  1
  O  O228  1  0.13524137  0.25191888  0.99292976  1
  O  O229  1  0.13231360  0.74344861  0.48987088  1
  O  O230  1  0.12531395  0.73137127  1.00201551  1
  O  O231  1  0.63442213  0.25070120  0.48958016  1
  O  O232  1  0.62215931  0.25207339  0.98686782  1
  O  O233  1  0.61671379  0.73087610  0.50340166  1
  O  O234  1  0.62875979  0.74560201  0.99914764  1
  O  O235  1  0.49204958  0.24448942  0.11412296  1
  O  O236  1  0.49573198  0.24711119  0.62939683  1
  O  O237  1  0.48650838  0.75449981  0.13433203  1
  O  O238  1  0.49307834  0.75386548  0.63324729  1
  O  O239  1  0.99295088  0.24870374  0.13407944  1
  O  O240  1  1.00445422  0.22845443  0.62803093  1
  O  O241  1  0.99428586  0.73542540  0.13380949  1
  O  O242  1  0.98939603  0.74729016  0.63509224  1
  O  O243  1  0.00790682  0.25740138  0.36928054  1
  O  O244  1  0.00657605  0.25853217  0.87702811  1
  O  O245  1  0.01255743  0.73684019  0.36045942  1
  O  O246  1  -0.00782638  0.74705788  0.85936175  1
  O  O247  1  0.51054508  0.25920941  0.38315416  1
  O  O248  1  0.50601360  0.25685534  0.86937604  1
  O  O249  1  0.49212370  0.76144453  0.36073933  1
  O  O250  1  0.50389446  0.75796271  0.86788347  1
  O  O251  1  0.23662662  0.12144495  0.49349282  1
  O  O252  1  0.24672229  0.13287065  0.99809944  1
  O  O253  1  0.24175178  0.63294300  0.48841453  1
  O  O254  1  0.23556507  0.62216563  0.99848831  1
  O  O255  1  0.74956823  0.13002170  0.49564060  1
  O  O256  1  0.75084880  0.12369920  0.98970367  1
  O  O257  1  0.73609812  0.62239718  0.49969975  1
  O  O258  1  0.74179288  0.63621225  0.99609584  1
  O  O259  1  0.25304205  0.37109264  0.00898111  1
  O  O260  1  0.26028868  0.37970212  0.50636268  1
  O  O261  1  0.26503175  0.87591969  0.00410773  1
  O  O262  1  0.24732748  0.85853585  0.49826208  1
  O  O263  1  0.76409318  0.37642850  -0.00233689  1
  O  O264  1  0.75873542  0.36569268  0.50250399  1
  O  O265  1  0.74416002  0.86139529  0.00588398  1
  O  O266  1  0.75200127  0.87430812  0.51726522  1
  O  O267  1  0.12707608  0.49795596  0.23648993  1
  O  O268  1  0.13166002  0.49441920  0.74282929  1
  O  O269  1  0.14194648  0.98847697  0.25249925  1
  O  O270  1  0.13374631  0.99269321  0.75340496  1
  O  O271  1  0.62080457  0.48985146  0.24050013  1
  O  O272  1  0.62900743  0.49814640  0.74482067  1
  O  O273  1  0.62820043  0.99726141  0.24587313  1
  O  O274  1  0.62293079  1.00268704  0.73633945  1
  O  O275  1  0.36495865  0.01088413  0.24962340  1
  O  O276  1  0.37108471  0.00749705  0.75310363  1
  O  O277  1  0.37806298  0.49597917  0.26012023  1
  O  O278  1  0.36815008  0.50455884  0.75107463  1
  O  O279  1  0.85058679  0.00663204  0.23709846  1
  O  O280  1  0.87119827  0.01190597  0.75981341  1
  O  O281  1  0.88561746  0.50555301  0.26263070  1
  O  O282  1  0.86574668  0.50612757  0.75052643  1
  O  O283  1  0.11977515  0.36905663  0.37598880  1
  O  O284  1  0.11794020  0.36704388  0.87101738  1
  O  O285  1  0.13578953  0.86140060  0.36151509  1
  O  O286  1  0.12441500  0.86957869  0.85624182  1
  O  O287  1  0.61975762  0.37070082  0.37029316  1
  O  O288  1  0.62196515  0.36910842  0.86924112  1
  O  O289  1  0.61930458  0.87965877  0.36674665  1
  O  O290  1  0.61313211  0.86994384  0.88157663  1
  O  O291  1  0.37436360  0.12695700  0.14175563  1
  O  O292  1  0.37931371  0.13423097  0.63005121  1
  O  O293  1  0.37117908  0.63929605  0.11908326  1
  O  O294  1  0.37000782  0.62698025  0.63469613  1
  O  O295  1  0.88999147  0.12656077  0.13724492  1
  O  O296  1  0.87616039  0.11981768  0.63702059  1
  O  O297  1  0.88670209  0.62192749  0.13004524  1
  O  O298  1  0.87360391  0.62927766  0.63495618  1
  O  O299  1  0.25051087  0.25676717  0.11792764  1
  O  O300  1  0.25360013  0.26464247  0.63042270  1
  O  O301  1  0.26353657  0.76138595  0.12013427  1
  O  O302  1  0.25890376  0.74727073  0.61498315  1
  O  O303  1  0.76875337  0.24700807  0.13410999  1
  O  O304  1  0.74235403  0.24922576  0.61318507  1
  O  O305  1  0.76108334  0.75302821  0.12276251  1
  O  O306  1  0.75649532  0.75772247  0.63056804  1
  O  O307  1  0.23843519  0.23772586  0.37019336  1
  O  O308  1  0.23984673  0.24966069  0.88127473  1
  O  O309  1  0.24646324  0.74298124  0.37801801  1
  O  O310  1  0.26467030  0.74479116  0.88236802  1
  O  O311  1  0.74469754  0.23868541  0.38375209  1
  O  O312  1  0.74101128  0.23974711  0.87125249  1
  O  O313  1  0.73241911  0.73400918  0.32407853  1
  O  O314  1  0.74629089  0.74824142  0.88314135  1
  O  O315  1  0.00200608  0.12614663  0.01708800  1
  O  O316  1  0.01361330  0.12224693  0.50362984  1
  O  O317  1  0.01021897  0.62512775  0.00770367  1
  O  O318  1  0.01423024  0.62856745  0.49921964  1
  O  O319  1  0.50223921  0.11371790  -0.00508148  1
  O  O320  1  0.50018286  0.11642230  0.50660018  1
  O  O321  1  0.50802454  0.61728888  -0.00684576  1
  O  O322  1  0.50780149  0.61020377  0.49451943  1
  O  O323  1  0.49377092  0.38442896  0.49065006  1
  O  O324  1  0.49549116  0.38524346  0.99298666  1
  O  O325  1  0.50037980  0.87772443  0.48388073  1
  O  O326  1  0.49350610  0.88606518  0.99515074  1
  O  O327  1  0.99111085  0.36804389  0.49228752  1
  O  O328  1  0.99162226  0.37958065  0.99333836  1
  O  O329  1  0.99466447  0.87194454  0.48384811  1
  O  O330  1  0.99964990  0.85200575  0.99627280  1
  O  O331  1  0.49350426  0.49153217  0.38066571  1
  O  O332  1  0.49536996  0.49534490  0.88245218  1
  O  O333  1  0.49870573  0.98680479  0.38418281  1
  O  O334  1  0.49716663  0.99421092  0.87874403  1
  O  O335  1  0.99888648  0.48765949  0.37455404  1
  O  O336  1  0.99885923  0.48724698  0.87918752  1
  O  O337  1  0.97310289  1.01734815  0.31795141  1
  O  O338  1  0.98571245  0.99931694  0.87565361  1
  O  O339  1  -0.00010862  0.00571773  0.13128777  1
  O  O340  1  -0.00216798  0.01344603  0.63521929  1
  O  O341  1  0.00650124  0.50551022  0.11941893  1
  O  O342  1  0.01393595  0.50249572  0.62963394  1
  O  O343  1  0.50434545  0.00711225  0.11657775  1
  O  O344  1  0.50424033  0.00243893  0.62054265  1
  O  O345  1  0.51189520  0.49501237  0.11225381  1
  O  O346  1  0.50756837  0.49450779  0.61532525  1
  O  O347  1  0.24925879  0.37599572  0.23715887  1
  O  O348  1  0.24511138  0.38493715  0.74235588  1
  O  O349  1  0.24958203  0.88064987  0.24203025  1
  O  O350  1  0.24358061  0.88293482  0.74607762  1
  O  O351  1  0.74171506  0.37017840  0.25385002  1
  O  O352  1  0.74517059  0.38263779  0.74985289  1
  O  O353  1  0.73639586  0.88639680  0.24751225  1
  O  O354  1  0.75233221  0.87759517  0.73247560  1
  O  O355  1  0.25467734  0.11855283  0.25677852  1
  O  O356  1  0.25407529  0.11954694  0.74976719  1
  O  O357  1  0.24687006  0.62591031  0.26090987  1
  O  O358  1  0.25379014  0.61331129  0.74693913  1
  O  O359  1  0.75810636  0.11956372  0.26290912  1
  O  O360  1  0.75915087  0.12097639  0.75899939  1
  O  O361  1  0.76696040  0.60881485  0.23403240  1
  O  O362  1  0.75343132  0.61899243  0.75287665  1
  O  O363  1  0.36528280  0.13105901  0.36706172  1
  O  O364  1  0.37407192  0.12135532  0.86555355  1
  O  O365  1  0.36723043  0.61426198  0.38017647  1
  O  O366  1  0.37398475  0.61580728  0.86102209  1
  O  O367  1  0.86962817  0.13132668  0.36969185  1
  O  O368  1  0.86954167  0.11762033  0.87013371  1
  O  O369  1  0.87062309  0.61685900  0.36762324  1
  O  O370  1  0.86431826  0.62103956  0.85947688  1
  O  O371  1  0.13162023  0.38188449  0.12438415  1
  O  O372  1  0.12966548  0.37950553  0.62610505  1
  O  O373  1  0.13830072  0.87143785  0.13481379  1
  O  O374  1  0.12866166  0.86549017  0.63976361  1
  O  O375  1  0.63093318  0.37954783  0.13454336  1
  O  O376  1  0.62669552  0.38466275  0.63194914  1
  O  O377  1  0.62078096  0.89056242  0.13411955  1
  O  O378  1  0.63368651  0.87781289  0.62268124  1
  O  O379  1  0.11601050  0.25183383  0.25934649  1
  O  O380  1  0.12419467  0.25647975  0.75859802  1
  O  O381  1  0.12185478  0.75346030  0.25354803  1
  O  O382  1  0.10971371  0.74961400  0.74661703  1
  O  O383  1  0.62950281  0.25696460  0.26478399  1
  O  O384  1  0.61925503  0.25487957  0.75837917  1
  O  O385  1  0.60241701  0.76577799  0.23362571  1
  O  O386  1  0.61320691  0.74169335  0.75660101  1
  O  O387  1  0.37027829  0.23552035  0.25008389  1
  O  O388  1  0.37972567  0.24736202  0.74428718  1
  O  O389  1  0.38528217  0.75158888  0.23595538  1
  O  O390  1  0.38294474  0.74173421  0.74080136  1
  O  O391  1  0.88953143  0.23803733  0.25016413  1
  O  O392  1  0.87441846  0.23110994  0.75604271  1
  O  O393  1  0.88676544  0.73530461  0.24227389  1
  O  O394  1  0.88162264  0.74306544  0.74301448  1
  O  O395  1  0.38071913  0.49131318  0.49277696  1
  O  O396  1  0.38240658  0.49701790  0.99511654  1
  O  O397  1  0.38757294  0.99980099  0.50870496  1
  O  O398  1  0.38221583  0.99565101  0.99371974  1
  O  O399  1  0.87205687  0.48995975  0.49110876  1
  O  O400  1  0.88141441  0.49327168  0.99758693  1
  O  O401  1  0.87966936  0.99389581  0.49170726  1
  O  O402  1  0.87023965  1.00213223  0.98663672  1
  O  O403  1  0.12831567  -0.00898548  0.00017975  1
  O  O404  1  0.12442533  0.00550749  0.49253784  1
  O  O405  1  0.11773648  0.50458720  0.00960494  1
  O  O406  1  0.13194473  0.50929160  0.50698720  1
  O  O407  1  0.61779654  0.00308445  0.00822805  1
  O  O408  1  0.61320104  0.00058485  0.51349599  1
  O  O409  1  0.61817151  0.50844742  0.00400020  1
  O  O410  1  0.61737048  0.49981109  0.50857492  1
  O  O411  1  0.36705525  0.37583458  0.11824333  1
  O  O412  1  0.36734081  0.37273464  0.61653938  1
  O  O413  1  0.37303785  0.87130282  0.11658062  1
  O  O414  1  0.36957292  0.86087407  0.62805808  1
  O  O415  1  0.87428138  0.36602399  0.11907559  1
  O  O416  1  0.87471583  0.37881124  0.61366958  1
  O  O417  1  0.87684885  0.86561906  0.14000684  1
  O  O418  1  0.86570141  0.86384110  0.62392376  1
  O  O419  1  0.12945441  0.13023745  0.38531334  1
  O  O420  1  0.12187942  0.13556038  0.87770118  1
  O  O421  1  0.13318210  0.63053219  0.37866129  1
  O  O422  1  0.12534241  0.61551043  0.88800311  1
  O  O423  1  0.63147232  0.13234054  0.37842616  1
  O  O424  1  0.63400325  0.13314909  0.87687463  1
  O  O425  1  0.62835462  0.61400721  0.39229988  1
  O  O426  1  0.63036035  0.63328593  0.88578499  1
