# generated using pymatgen
data_V85Zn86O256
_symmetry_space_group_name_H-M   'P 1'
_cell_length_a   16.95845228
_cell_length_b   16.94377565
_cell_length_c   16.94429657
_cell_angle_alpha   89.93281939
_cell_angle_beta   90.01502875
_cell_angle_gamma   90.03087540
_symmetry_Int_Tables_number   1
_chemical_formula_structural   V85Zn86O256
_chemical_formula_sum   'V85 Zn86 O256'
_cell_volume   4868.77352570
_cell_formula_units_Z   1
loop_
 _symmetry_equiv_pos_site_id
 _symmetry_equiv_pos_as_xyz
  1  'x, y, z'
loop_
 _atom_site_type_symbol
 _atom_site_label
 _atom_site_symmetry_multiplicity
 _atom_site_fract_x
 _atom_site_fract_y
 _atom_site_fract_z
 _atom_site_occupancy
  V  V0  1  0.62465552  0.25039210  0.87438222  1
  V  V1  1  0.87563644  0.00012801  0.87377116  1
  V  V2  1  0.62678468  0.37487850  0.74702125  1
  V  V3  1  0.50486800  0.25235402  0.24956289  1
  V  V4  1  0.62424335  0.86231889  0.75186175  1
  V  V5  1  0.12637144  0.87108558  0.25204433  1
  V  V6  1  0.27041007  0.61888817  0.37296743  1
  V  V7  1  0.76295731  0.36115679  0.61386116  1
  V  V8  1  0.49183847  -0.01542161  0.50232294  1
  V  V9  1  0.62485295  0.25575919  0.37767254  1
  V  V10  1  0.49716484  0.25002302  0.74889824  1
  V  V11  1  0.50468577  0.86151854  0.87509753  1
  V  V12  1  0.74405782  0.62945296  0.87285702  1
  V  V13  1  0.87716137  -0.00256376  0.37206029  1
  V  V14  1  0.00393370  0.62205210  0.12172351  1
  V  V15  1  0.24493674  0.49348565  0.75305406  1
  V  V16  1  0.77827413  0.14415637  0.40862325  1
  V  V17  1  0.74969231  0.75221807  0.49798420  1
  V  V18  1  0.74151421  0.49621267  0.25199184  1
  V  V19  1  0.87569559  0.37793199  0.00063403  1
  V  V20  1  0.00148478  0.12692018  0.12303750  1
  V  V21  1  0.12656749  -0.00317525  0.12424448  1
  V  V22  1  0.87237285  0.62331882  0.25324561  1
  V  V23  1  0.87388030  0.12495034  0.24407542  1
  V  V24  1  0.87714206  0.63007017  0.74897476  1
  V  V25  1  0.25467195  0.37497229  0.61855558  1
  V  V26  1  0.11948040  0.86185002  0.74710574  1
  V  V27  1  0.00486406  0.25289999  0.25322866  1
  V  V28  1  0.37584457  0.75173433  0.62790078  1
  V  V29  1  0.12261644  0.49533179  0.62714532  1
  V  V30  1  0.37251617  0.62488695  0.75351385  1
  V  V31  1  0.87655560  0.88222652  0.49994941  1
  V  V32  1  0.62128859  0.62484752  0.00558208  1
  V  V33  1  0.87466541  0.87495319  -0.00066049  1
  V  V34  1  0.88094568  0.75253724  0.62669349  1
  V  V35  1  0.11928042  0.74342097  0.88664961  1
  V  V36  1  0.13785110  0.50234398  0.12215203  1
  V  V37  1  0.24291616  0.62458658  0.88536334  1
  V  V38  1  0.73907433  0.37682921  0.12797251  1
  V  V39  1  0.74994087  0.12650664  0.87459215  1
  V  V40  1  0.62317874  0.62450173  0.49959033  1
  V  V41  1  0.74716754  0.75150883  -0.00306013  1
  V  V42  1  0.62018295  0.87804497  0.24687887  1
  V  V43  1  0.12217903  0.62650306  0.48777754  1
  V  V44  1  0.36957986  -0.00484567  0.37696738  1
  V  V45  1  0.87419996  0.75011086  0.12670395  1
  V  V46  1  0.50250797  -0.00307720  0.00035791  1
  V  V47  1  0.87373375  0.49352482  0.38121601  1
  V  V48  1  0.00117191  0.37324604  0.37946342  1
  V  V49  1  0.25158698  0.25794772  0.00368359  1
  V  V50  1  0.48643046  0.49580104  0.49866029  1
  V  V51  1  0.12591982  0.13794657  0.49131543  1
  V  V52  1  0.44117063  0.69503478  0.18576323  1
  V  V53  1  0.87666694  0.13273865  0.74583694  1
  V  V54  1  0.62322807  -0.00032078  0.62549304  1
  V  V55  1  0.13639304  0.37540470  0.25012897  1
  V  V56  1  0.61591318  0.12470368  0.49447603  1
  V  V57  1  0.00163636  0.74809970  0.25720030  1
  V  V58  1  0.49630960  0.12244063  0.62457950  1
  V  V59  1  0.00488951  0.87490806  0.37939551  1
  V  V60  1  0.49960305  0.62673813  0.63164777  1
  V  V61  1  0.62552198  0.12176806  0.00611293  1
  V  V62  1  0.00009129  -0.00114376  -0.00288977  1
  V  V63  1  0.62460299  0.49834875  0.62371268  1
  V  V64  1  0.75103587  0.49943689  0.74685329  1
  V  V65  1  0.87587293  0.50205462  0.87549223  1
  V  V66  1  0.49930320  0.12240685  0.12674662  1
  V  V67  1  0.37597830  -0.00497022  0.87983231  1
  V  V68  1  0.74834320  0.00240869  0.74774524  1
  V  V69  1  0.25938645  0.86958878  0.11822537  1
  V  V70  1  0.25267114  0.87341175  0.62347899  1
  V  V71  1  0.00648763  0.37567675  0.87470542  1
  V  V72  1  0.37309382  0.50191087  0.88876331  1
  V  V73  1  0.48479064  0.37795410  0.37556370  1
  V  V74  1  0.37033836  0.12497090  0.74800553  1
  V  V75  1  0.00478554  0.25664628  0.74217664  1
  V  V76  1  0.11777365  0.00201504  0.61578925  1
  V  V77  1  0.12775067  0.12607772  -0.00446924  1
  V  V78  1  0.24558520  -0.00372146  0.75047448  1
  V  V79  1  0.61724641  0.75285907  0.37333047  1
  V  V80  1  0.00297713  0.62769979  0.62664116  1
  V  V81  1  0.24923027  0.75219255  0.49336766  1
  V  V82  1  0.74998798  0.25161211  0.00037322  1
  V  V83  1  0.87551838  0.25386445  0.12465035  1
  V  V84  1  0.74675018  0.00401863  0.24466043  1
  Zn  Zn85  1  0.37310486  0.12260777  0.25063139  1
  Zn  Zn86  1  -0.00372658  0.49498829  0.50189892  1
  Zn  Zn87  1  0.74564345  0.62284226  0.37459742  1
  Zn  Zn88  1  0.61207247  0.50705047  0.13705410  1
  Zn  Zn89  1  0.37063280  0.25102680  0.12911122  1
  Zn  Zn90  1  0.25170531  -0.00020344  0.24940368  1
  Zn  Zn91  1  0.25874496  0.26132136  0.48357152  1
  Zn  Zn92  1  0.24942162  0.12620995  0.87469704  1
  Zn  Zn93  1  0.00197057  0.50412082  0.00145141  1
  Zn  Zn94  1  0.24735095  0.13019896  0.36871784  1
  Zn  Zn95  1  0.49541820  0.37797358  0.87056346  1
  Zn  Zn96  1  -0.00311676  0.86888460  0.86931713  1
  Zn  Zn97  1  0.74880317  0.87925339  0.12494614  1
  Zn  Zn98  1  0.12719690  0.25591411  0.87198133  1
  Zn  Zn99  1  0.49175758  0.87000413  0.37247209  1
  Zn  Zn100  1  0.50722867  0.49304072  0.00089823  1
  Zn  Zn101  1  -0.00242675  0.12785549  0.62050158  1
  Zn  Zn102  1  0.37534740  0.25757204  0.62055592  1
  Zn  Zn103  1  0.75084009  0.87827425  0.62386891  1
  Zn  Zn104  1  0.38148273  0.37162779  0.00383926  1
  Zn  Zn105  1  0.25544560  0.73972025  0.01372052  1
  Zn  Zn106  1  0.26743636  0.49500168  0.25771673  1
  Zn  Zn107  1  0.18847224  0.18699483  0.18875010  1
  Zn  Zn108  1  0.18482791  0.18801468  0.68618986  1
  Zn  Zn109  1  0.18821073  0.68691754  0.19289209  1
  Zn  Zn110  1  0.18945044  0.68357117  0.68722521  1
  Zn  Zn111  1  0.68519823  0.18776909  0.18986025  1
  Zn  Zn112  1  0.68585955  0.18737935  0.68305139  1
  Zn  Zn113  1  0.68632799  0.69151654  0.18844788  1
  Zn  Zn114  1  0.69200470  0.68754004  0.68254897  1
  Zn  Zn115  1  0.31568404  0.30469116  0.31034211  1
  Zn  Zn116  1  0.30850783  0.31433226  0.81514413  1
  Zn  Zn117  1  0.31291667  0.81274677  0.30927697  1
  Zn  Zn118  1  0.34005106  0.78263892  0.85299090  1
  Zn  Zn119  1  0.81356913  0.31344557  0.31218468  1
  Zn  Zn120  1  0.81500264  0.31454739  0.80950063  1
  Zn  Zn121  1  0.80823551  0.81293346  0.31297812  1
  Zn  Zn122  1  0.81030636  0.81368413  0.81113767  1
  Zn  Zn123  1  0.18487767  0.44136936  0.43616222  1
  Zn  Zn124  1  0.18625158  0.44157944  0.94306105  1
  Zn  Zn125  1  0.18976570  0.93670922  0.43853391  1
  Zn  Zn126  1  0.18681008  0.93258941  0.93502462  1
  Zn  Zn127  1  0.68535715  0.43776807  0.44036342  1
  Zn  Zn128  1  0.68828101  0.43932262  0.93528158  1
  Zn  Zn129  1  0.68816674  0.94335552  0.43385483  1
  Zn  Zn130  1  0.68600740  0.93788405  0.93519150  1
  Zn  Zn131  1  0.31275736  0.06292785  0.06240648  1
  Zn  Zn132  1  0.30971965  0.06351414  0.56010965  1
  Zn  Zn133  1  0.35717902  0.53532211  0.10847270  1
  Zn  Zn134  1  0.30833613  0.56457077  0.56312752  1
  Zn  Zn135  1  0.81164172  0.06225182  0.06299088  1
  Zn  Zn136  1  0.81570631  0.07145169  0.56060483  1
  Zn  Zn137  1  0.81027526  0.56253395  0.06480123  1
  Zn  Zn138  1  0.81093013  0.56225816  0.56211402  1
  Zn  Zn139  1  0.44378881  0.42690166  0.18704112  1
  Zn  Zn140  1  0.43478888  0.44183509  0.69081984  1
  Zn  Zn141  1  0.43811499  0.93797205  0.18761078  1
  Zn  Zn142  1  0.43627386  0.93401989  0.69454357  1
  Zn  Zn143  1  0.93631425  0.43847156  0.19094177  1
  Zn  Zn144  1  0.93676436  0.43794087  0.68744830  1
  Zn  Zn145  1  0.93862092  0.93564484  0.18701206  1
  Zn  Zn146  1  0.93817837  0.93949467  0.68842944  1
  Zn  Zn147  1  0.06145592  0.05956305  0.31169421  1
  Zn  Zn148  1  0.06107690  0.06291405  0.80956824  1
  Zn  Zn149  1  0.06355501  0.55624163  0.30839323  1
  Zn  Zn150  1  0.06004288  0.56301401  0.80910408  1
  Zn  Zn151  1  0.55917757  0.05968003  0.31630569  1
  Zn  Zn152  1  0.56216635  0.06211926  0.81370896  1
  Zn  Zn153  1  0.55203720  0.56593130  0.31235713  1
  Zn  Zn154  1  0.55998139  0.56518160  0.81638787  1
  Zn  Zn155  1  0.43112902  0.18581991  0.43767741  1
  Zn  Zn156  1  0.43598273  0.18453443  0.93439750  1
  Zn  Zn157  1  0.43714527  0.68996854  0.44654237  1
  Zn  Zn158  1  0.43262963  0.70044431  1.01733903  1
  Zn  Zn159  1  0.94865453  0.18280578  0.43654556  1
  Zn  Zn160  1  0.93920681  0.19013206  0.93386735  1
  Zn  Zn161  1  0.93671688  0.68734104  0.43852219  1
  Zn  Zn162  1  0.93665058  0.68847045  0.93731308  1
  Zn  Zn163  1  0.06635764  0.31680077  0.06454462  1
  Zn  Zn164  1  0.06628085  0.31422924  0.56426479  1
  Zn  Zn165  1  0.06078398  0.81184115  0.06438394  1
  Zn  Zn166  1  0.06467210  0.81126034  0.55963795  1
  Zn  Zn167  1  0.55762348  0.31329117  0.06139013  1
  Zn  Zn168  1  0.56211906  0.31195912  0.56015762  1
  Zn  Zn169  1  0.56983665  0.81657489  0.06192512  1
  Zn  Zn170  1  0.56244807  0.81001962  0.56784787  1
  O  O171  1  0.12013484  0.11641880  0.11465795  1
  O  O172  1  0.12579505  0.11341934  0.61875413  1
  O  O173  1  0.11635903  0.61285770  0.13642613  1
  O  O174  1  0.11796597  0.61785386  0.61848487  1
  O  O175  1  0.61804472  0.12741002  0.11289970  1
  O  O176  1  0.61531388  0.11808184  0.61992323  1
  O  O177  1  0.63544344  0.62425070  0.10935741  1
  O  O178  1  0.61707832  0.62108652  0.62220516  1
  O  O179  1  0.38665332  0.37621567  0.37249199  1
  O  O180  1  0.37304225  0.38798654  0.87716904  1
  O  O181  1  0.37476194  0.88801604  0.37320501  1
  O  O182  1  0.39610837  0.88631971  0.85801207  1
  O  O183  1  0.88441963  0.38286454  0.37066178  1
  O  O184  1  0.88111974  0.38298881  0.88071638  1
  O  O185  1  0.87939982  0.88007158  0.38065088  1
  O  O186  1  0.87605474  0.88121853  0.88019615  1
  O  O187  1  0.25962730  0.00093666  0.37445299  1
  O  O188  1  0.25701647  -0.00342800  0.86694773  1
  O  O189  1  0.25183304  0.51463818  0.37590158  1
  O  O190  1  0.25016918  0.50496889  0.86995890  1
  O  O191  1  0.76394984  0.01507133  0.37067032  1
  O  O192  1  0.75515930  0.00746896  0.86824277  1
  O  O193  1  0.75586537  0.49912743  0.36947214  1
  O  O194  1  0.75808816  0.50680335  0.86700795  1
  O  O195  1  0.23701342  0.50735316  0.12284329  1
  O  O196  1  0.24298034  0.49362198  0.63086859  1
  O  O197  1  0.23804263  0.99220995  0.12366134  1
  O  O198  1  0.24197899  0.99224091  0.63094672  1
  O  O199  1  0.74845626  0.49239283  0.13456766  1
  O  O200  1  0.74249735  0.49680653  0.63089817  1
  O  O201  1  0.75398494  0.99922103  0.13967745  1
  O  O202  1  0.74488102  1.00028351  0.63253851  1
  O  O203  1  0.00532900  0.36859812  0.25699775  1
  O  O204  1  -0.00696783  0.36352098  0.75756192  1
  O  O205  1  0.00378510  0.86723450  0.25818278  1
  O  O206  1  0.01579309  0.88069493  0.75132648  1
  O  O207  1  0.50539354  0.36628019  0.26656224  1
  O  O208  1  0.50715186  0.36759569  0.74967558  1
  O  O209  1  0.51673433  0.88301376  0.25274256  1
  O  O210  1  0.51675681  0.87998347  0.75876731  1
  O  O211  1  0.50290013  0.12627977  0.23919422  1
  O  O212  1  0.49216402  0.13005935  0.74484978  1
  O  O213  1  0.50558316  0.63553581  0.23653326  1
  O  O214  1  0.49087248  0.61689759  0.73895893  1
  O  O215  1  0.99782859  0.13302505  0.24224042  1
  O  O216  1  0.99312139  0.13752393  0.75073887  1
  O  O217  1  0.99341279  0.63173599  0.24640793  1
  O  O218  1  0.99288642  0.62344220  0.73447408  1
  O  O219  1  0.35958003  0.24519130  -0.00590079  1
  O  O220  1  0.36798417  0.23996845  0.51040413  1
  O  O221  1  0.35523587  0.75520408  -0.03736857  1
  O  O222  1  0.36410882  0.74439579  0.51897953  1
  O  O223  1  0.86859113  0.25579083  0.00431994  1
  O  O224  1  0.84610534  0.17485184  0.48702396  1
  O  O225  1  0.86765435  0.75588532  0.00481008  1
  O  O226  1  0.86842831  0.76034943  0.50366101  1
  O  O227  1  0.13182183  0.23966186  0.50376202  1
  O  O228  1  0.13254419  0.24280976  0.99924550  1
  O  O229  1  0.13705667  0.73874613  0.50778739  1
  O  O230  1  0.12824477  0.75314024  0.98818891  1
  O  O231  1  0.61812149  0.23598006  0.49300270  1
  O  O232  1  0.63139622  0.24252619  0.99334853  1
  O  O233  1  0.63313598  0.74667144  0.49772611  1
  O  O234  1  0.64024392  0.74185667  1.00259180  1
  O  O235  1  0.50614331  0.23981736  0.13442377  1
  O  O236  1  0.49922519  0.24490974  0.63614284  1
  O  O237  1  0.49139135  0.75341259  0.11303981  1
  O  O238  1  0.49012519  0.73902104  0.62306628  1
  O  O239  1  0.99519976  0.24824797  0.13213410  1
  O  O240  1  1.00137613  0.25152243  0.63812713  1
  O  O241  1  0.99476936  0.74440801  0.13679871  1
  O  O242  1  0.98910878  0.74378765  0.61856291  1
  O  O243  1  -0.00441256  0.25577826  0.36125973  1
  O  O244  1  0.00284308  0.26012639  0.86786186  1
  O  O245  1  -0.00684264  0.75777016  0.36404239  1
  O  O246  1  0.01348502  0.74945963  0.87566732  1
  O  O247  1  0.50500936  0.25925687  0.37255879  1
  O  O248  1  0.50457417  0.24714369  0.86114505  1
  O  O249  1  0.51326225  0.75381127  0.38762507  1
  O  O250  1  0.50021600  0.76577004  0.87628980  1
  O  O251  1  0.23254009  0.12069548  0.49939280  1
  O  O252  1  0.24104437  0.12864804  0.99638290  1
  O  O253  1  0.24284814  0.63020409  0.48997731  1
  O  O254  1  0.24244487  0.62388722  0.98441204  1
  O  O255  1  0.72250394  0.10251446  0.49712245  1
  O  O256  1  0.74307498  0.12952534  0.99627843  1
  O  O257  1  0.74222610  0.63410015  0.49904084  1
  O  O258  1  0.74783965  0.63231152  0.99153660  1
  O  O259  1  0.24790162  0.35980385  -0.00335772  1
  O  O260  1  0.24429766  0.37838147  0.51461547  1
  O  O261  1  0.24207497  0.87456726  0.01650487  1
  O  O262  1  0.24251090  0.86608078  0.51416890  1
  O  O263  1  0.75644414  0.37144727  0.00540064  1
  O  O264  1  0.74607048  0.37650351  0.51560949  1
  O  O265  1  0.75441031  0.86894482  -0.00026384  1
  O  O266  1  0.75772581  0.87040815  0.50001977  1
  O  O267  1  0.13195273  0.49048145  0.24236224  1
  O  O268  1  0.13266165  0.50671240  0.73999024  1
  O  O269  1  0.12202760  0.98927958  0.23987221  1
  O  O270  1  0.13381275  0.99632779  0.74395536  1
  O  O271  1  0.63839083  0.50842943  0.25347898  1
  O  O272  1  0.62871215  0.49222557  0.74566991  1
  O  O273  1  0.63509114  0.98957052  0.26032819  1
  O  O274  1  0.63114097  0.99877064  0.74353236  1
  O  O275  1  0.37566648  0.00035770  0.26259488  1
  O  O276  1  0.36258481  0.00500111  0.75445471  1
  O  O277  1  0.37066690  0.50729010  0.21915605  1
  O  O278  1  0.36604571  0.50741352  0.75845806  1
  O  O279  1  0.86873610  0.00221284  0.25436378  1
  O  O280  1  0.86876900  0.00489209  0.75765930  1
  O  O281  1  0.86601899  0.50716733  0.25895217  1
  O  O282  1  0.87007854  0.50887966  0.75499247  1
  O  O283  1  0.11642279  0.38374334  0.35896238  1
  O  O284  1  0.10954708  0.37968737  0.87952286  1
  O  O285  1  0.11535344  0.88207579  0.36695528  1
  O  O286  1  0.12516594  0.86125870  0.86301244  1
  O  O287  1  0.62789954  0.35784557  0.38147028  1
  O  O288  1  0.62816340  0.36954695  0.86097960  1
  O  O289  1  0.62455853  0.86952793  0.36810639  1
  O  O290  1  0.61829137  0.87876125  0.86123568  1
  O  O291  1  0.38833686  0.12815434  0.12384079  1
  O  O292  1  0.37755745  0.12081790  0.63763528  1
  O  O293  1  0.38018684  0.64802970  0.11293782  1
  O  O294  1  0.37995382  0.62878254  0.63304869  1
  O  O295  1  0.88243792  0.13195391  0.12591925  1
  O  O296  1  0.88032704  0.11674678  0.64292812  1
  O  O297  1  0.88006741  0.62815641  0.13774140  1
  O  O298  1  0.88169983  0.63324239  0.62623441  1
  O  O299  1  0.25022843  0.24253182  0.10761450  1
  O  O300  1  0.24609645  0.27037562  0.63264998  1
  O  O301  1  0.24228993  0.76418377  0.12673834  1
  O  O302  1  0.25525207  0.75555527  0.62092435  1
  O  O303  1  0.75460523  0.25755247  0.12138957  1
  O  O304  1  0.75099151  0.26158930  0.62844729  1
  O  O305  1  0.75890422  0.75271616  0.11690293  1
  O  O306  1  0.75999011  0.75338980  0.61245109  1
  O  O307  1  0.24808178  0.24423846  0.37266869  1
  O  O308  1  0.24381857  0.24609767  0.88303623  1
  O  O309  1  0.25860742  0.74459191  0.38932036  1
  O  O310  1  0.22995600  0.73746427  0.86148935  1
  O  O311  1  0.74479289  0.23711119  0.36946645  1
  O  O312  1  0.74621336  0.24578222  0.87989392  1
  O  O313  1  0.74282016  0.74896624  0.38656326  1
  O  O314  1  0.75785691  0.74089639  0.88386773  1
  O  O315  1  0.00549884  0.12065557  0.00440742  1
  O  O316  1  0.01906375  0.12652560  0.50583899  1
  O  O317  1  -0.00732172  0.62671698  0.01820298  1
  O  O318  1  0.00546395  0.62522352  0.50940675  1
  O  O319  1  0.50771458  0.12033281  0.00438008  1
  O  O320  1  0.50327529  0.11342157  0.50683410  1
  O  O321  1  0.52131950  0.62978457  -0.01027356  1
  O  O322  1  0.50512177  0.61769841  0.51162293  1
  O  O323  1  0.50436799  0.38233229  0.48740007  1
  O  O324  1  0.50116157  0.37341054  0.98619547  1
  O  O325  1  0.49930233  0.88246543  0.50308292  1
  O  O326  1  0.51403358  0.88402088  0.98433465  1
  O  O327  1  1.00751490  0.37296827  0.48452242  1
  O  O328  1  0.99078055  0.37529932  0.99328960  1
  O  O329  1  0.99312639  0.86858768  0.48717983  1
  O  O330  1  0.99265514  0.88045050  0.99699919  1
  O  O331  1  0.50638177  0.48569928  0.38216580  1
  O  O332  1  0.48728693  0.50175211  0.87902671  1
  O  O333  1  0.49031807  0.99454076  0.38646688  1
  O  O334  1  0.49378548  0.99964061  0.88405184  1
  O  O335  1  0.99083514  0.49086545  0.37353806  1
  O  O336  1  0.99217403  0.49579365  0.87628543  1
  O  O337  1  0.98637156  0.98884090  0.36742517  1
  O  O338  1  0.99255420  0.99786628  0.87981256  1
  O  O339  1  0.00899449  0.00376004  0.11861039  1
  O  O340  1  0.01543397  0.00370189  0.63139304  1
  O  O341  1  0.00457019  0.50956556  0.12915742  1
  O  O342  1  0.00561557  0.50622486  0.62266793  1
  O  O343  1  0.49496795  0.00483530  0.10875777  1
  O  O344  1  0.50091418  0.00194932  0.62093919  1
  O  O345  1  0.50297238  0.49561938  0.11459665  1
  O  O346  1  0.50607816  0.50343164  0.61928459  1
  O  O347  1  0.23884064  0.37498387  0.25296536  1
  O  O348  1  0.25005150  0.38841422  0.74352162  1
  O  O349  1  0.24001720  0.87711030  0.24188417  1
  O  O350  1  0.23443809  0.88194046  0.73782183  1
  O  O351  1  0.75517644  0.38403996  0.24045951  1
  O  O352  1  0.74373695  0.38047514  0.74299151  1
  O  O353  1  0.74360878  0.88685945  0.25262892  1
  O  O354  1  0.73925030  0.88332926  0.74941831  1
  O  O355  1  0.25214770  0.11721350  0.24871337  1
  O  O356  1  0.25418745  0.11736105  0.75098636  1
  O  O357  1  0.24625320  0.63093442  0.27348846  1
  O  O358  1  0.25529691  0.61204576  0.75141826  1
  O  O359  1  0.75886051  0.11887896  0.24788308  1
  O  O360  1  0.75635828  0.12293901  0.75479921  1
  O  O361  1  0.75784371  0.61949978  0.25212383  1
  O  O362  1  0.75532955  0.62101302  0.75488667  1
  O  O363  1  0.37602737  0.10822948  0.37187556  1
  O  O364  1  0.37429267  0.11384721  0.86154630  1
  O  O365  1  0.36928562  0.62506124  0.37954883  1
  O  O366  1  0.35985320  0.61448366  0.86576852  1
  O  O367  1  0.88097760  0.11478752  0.35916785  1
  O  O368  1  0.86981840  0.11970051  0.86800238  1
  O  O369  1  0.87367191  0.61993344  0.36487150  1
  O  O370  1  0.86882782  0.62087052  0.86961782  1
  O  O371  1  0.11859289  0.38995894  0.13876923  1
  O  O372  1  0.13180204  0.38936694  0.62396151  1
  O  O373  1  0.12526172  0.88212491  0.13256798  1
  O  O374  1  0.12664531  0.88327501  0.63141460  1
  O  O375  1  0.63747901  0.37617157  0.12056628  1
  O  O376  1  0.62998073  0.37682537  0.63490905  1
  O  O377  1  0.63072258  0.87255052  0.14222161  1
  O  O378  1  0.62624221  0.88084008  0.63628509  1
  O  O379  1  0.11645922  0.26471050  0.23867181  1
  O  O380  1  0.10878579  0.24537882  0.75393333  1
  O  O381  1  0.11451961  0.76209520  0.24800732  1
  O  O382  1  0.12237903  0.76054493  0.74501471  1
  O  O383  1  0.61385312  0.24147318  0.26236995  1
  O  O384  1  0.61762333  0.25540498  0.75310387  1
  O  O385  1  0.63486686  0.76513445  0.26174413  1
  O  O386  1  0.63208287  0.76396878  0.74504788  1
  O  O387  1  0.39254590  0.24271652  0.24963756  1
  O  O388  1  0.37994571  0.24267669  0.74823435  1
  O  O389  1  0.38756756  0.75245386  0.24867498  1
  O  O390  1  0.36805495  0.73262427  0.74533677  1
  O  O391  1  0.88301941  0.24559384  0.24232595  1
  O  O392  1  0.88781867  0.24184377  0.75793515  1
  O  O393  1  0.87865437  0.74311363  0.24753442  1
  O  O394  1  0.86820388  0.74622764  0.73619162  1
  O  O395  1  0.38789028  0.50455698  0.50641877  1
  O  O396  1  0.37160021  0.50154379  0.99434962  1
  O  O397  1  0.37989647  1.00139776  0.49082075  1
  O  O398  1  0.38149934  1.00456465  0.98629260  1
  O  O399  1  0.87650521  0.50782587  0.48494297  1
  O  O400  1  0.87605034  0.49535087  0.99393645  1
  O  O401  1  0.87189655  0.98860267  0.49269065  1
  O  O402  1  0.87836613  0.99517933  0.99363392  1
  O  O403  1  0.11981282  0.00417364  0.00447837  1
  O  O404  1  0.12576330  -0.00156904  0.51463562  1
  O  O405  1  0.11846145  0.49582065  0.01772257  1
  O  O406  1  0.12099794  0.51008666  0.50830805  1
  O  O407  1  0.61745441  0.01164812  -0.00704076  1
  O  O408  1  0.61135690  -0.00027040  0.50670632  1
  O  O409  1  0.63067978  0.51640134  -0.00218883  1
  O  O410  1  0.61895797  0.50764800  0.50668907  1
  O  O411  1  0.38143071  0.36233550  0.11704513  1
  O  O412  1  0.35836593  0.37882494  0.62974420  1
  O  O413  1  0.35745972  0.88189008  0.12732231  1
  O  O414  1  0.36448622  0.86409551  0.63722210  1
  O  O415  1  0.86866498  0.37195964  0.11871661  1
  O  O416  1  0.86182311  0.37894583  0.62586675  1
  O  O417  1  0.87386122  0.86920303  0.11693149  1
  O  O418  1  0.87638219  0.87070660  0.61737854  1
  O  O419  1  0.12263834  0.11783464  0.38861141  1
  O  O420  1  0.12333117  0.12292285  0.88777226  1
  O  O421  1  0.11967785  0.62202810  0.38639788  1
  O  O422  1  0.12505586  0.63646121  0.86947948  1
  O  O423  1  0.62100368  0.13282164  0.38385748  1
  O  O424  1  0.63069992  0.13193792  0.88153109  1
  O  O425  1  0.62394098  0.63427525  0.38155313  1
  O  O426  1  0.63983610  0.62298871  0.87910430  1
