# generated using pymatgen
data_V85Zn86O256
_symmetry_space_group_name_H-M   'P 1'
_cell_length_a   16.96330499
_cell_length_b   16.95290179
_cell_length_c   16.97030913
_cell_angle_alpha   89.95059243
_cell_angle_beta   90.04090105
_cell_angle_gamma   89.94937153
_symmetry_Int_Tables_number   1
_chemical_formula_structural   V85Zn86O256
_chemical_formula_sum   'V85 Zn86 O256'
_cell_volume   4880.26975411
_cell_formula_units_Z   1
loop_
 _symmetry_equiv_pos_site_id
 _symmetry_equiv_pos_as_xyz
  1  'x, y, z'
loop_
 _atom_site_type_symbol
 _atom_site_label
 _atom_site_symmetry_multiplicity
 _atom_site_fract_x
 _atom_site_fract_y
 _atom_site_fract_z
 _atom_site_occupancy
  V  V0  1  0.62187874  0.37794202  0.75295838  1
  V  V1  1  0.64041990  0.49461142  0.12584335  1
  V  V2  1  -0.00299991  0.87497104  0.86932300  1
  V  V3  1  0.24614793  0.62275934  0.88949262  1
  V  V4  1  0.62729630  0.24988598  0.87823244  1
  V  V5  1  0.50024735  0.75104238  0.24831543  1
  V  V6  1  0.87568963  0.74971277  0.13251742  1
  V  V7  1  0.74713610  0.37673159  0.62504549  1
  V  V8  1  0.35828395  0.62116271  0.74936286  1
  V  V9  1  0.50549585  0.11840709  0.12804301  1
  V  V10  1  0.00902400  0.00890028  -0.00071956  1
  V  V11  1  -0.01162042  0.00279006  0.49426300  1
  V  V12  1  0.75293467  0.74056435  -0.00326126  1
  V  V13  1  0.37033884  0.49777333  0.87171389  1
  V  V14  1  0.11825551  0.74426191  0.37435574  1
  V  V15  1  0.24868709  0.25315672  0.49882558  1
  V  V16  1  0.48560010  0.87801538  0.87966767  1
  V  V17  1  0.87539954  0.37649433  0.00222502  1
  V  V18  1  0.61809880  0.00065278  0.61471906  1
  V  V19  1  0.75408780  0.61478465  0.37039972  1
  V  V20  1  0.62329058  0.88240497  0.24300773  1
  V  V21  1  0.63924487  0.37415007  0.25073370  1
  V  V22  1  0.12541507  0.74995948  0.88159699  1
  V  V23  1  -0.00673410  0.87659374  0.37218891  1
  V  V24  1  0.87118601  0.61232375  0.24799714  1
  V  V25  1  0.12209364  0.00123261  0.62185031  1
  V  V26  1  0.62447467  0.62554214  0.49701579  1
  V  V27  1  0.11538081  0.26774804  0.36358752  1
  V  V28  1  0.74962874  0.25335086  0.00757956  1
  V  V29  1  0.74641056  0.88309672  0.12058005  1
  V  V30  1  0.31420859  0.06923785  0.92281560  1
  V  V31  1  0.87875785  0.75434474  0.63755794  1
  V  V32  1  0.87531902  0.87832605  -0.00028025  1
  V  V33  1  0.23893478  0.37508232  0.12734473  1
  V  V34  1  0.49534403  0.88547236  0.37684438  1
  V  V35  1  0.12017855  0.87517830  0.24860955  1
  V  V36  1  0.49441206  0.74942723  0.75172784  1
  V  V37  1  0.75784438  0.00238047  0.25525531  1
  V  V38  1  0.49608212  0.62476066  0.62486793  1
  V  V39  1  0.12916870  0.37665022  0.75335847  1
  V  V40  1  0.36619484  0.75105977  0.62383025  1
  V  V41  1  0.37554390  0.37526717  0.00263800  1
  V  V42  1  0.00100238  0.37526921  0.87826181  1
  V  V43  1  0.37603169  0.88556665  0.49608196  1
  V  V44  1  0.62273951  0.50107092  0.62397951  1
  V  V45  1  0.12503690  0.87491263  0.74915380  1
  V  V46  1  0.50280187  0.25157740  0.25962592  1
  V  V47  1  -0.00238868  0.12645691  0.62283664  1
  V  V48  1  0.25609131  0.87660862  0.11926125  1
  V  V49  1  0.12222677  0.62190918  0.49963253  1
  V  V50  1  0.37558855  0.38258018  0.49582099  1
  V  V51  1  0.62622919  0.11110102  0.00463560  1
  V  V52  1  0.87114823  0.12650091  0.74941736  1
  V  V53  1  0.25308968  -0.00526294  0.26056305  1
  V  V54  1  0.25249612  0.37759178  0.63050948  1
  V  V55  1  0.49410185  0.24421769  0.75162518  1
  V  V56  1  0.25985299  0.01394147  0.74625750  1
  V  V57  1  0.04257292  0.68783582  0.19186901  1
  V  V58  1  0.86870903  0.25081445  0.62365273  1
  V  V59  1  0.24949455  0.75029295  0.49949184  1
  V  V60  1  0.61922892  0.13487814  0.49316546  1
  V  V61  1  0.37727594  0.12160837  0.26057087  1
  V  V62  1  0.01240237  0.51398370  0.00088094  1
  V  V63  1  0.49138072  0.12170217  0.62521015  1
  V  V64  1  0.24725391  0.12537839  0.37655755  1
  V  V65  1  0.87575698  0.24928271  0.13385533  1
  V  V66  1  0.00897147  0.13118386  0.12949186  1
  V  V67  1  -0.00959614  0.49704798  0.50097840  1
  V  V68  1  0.12737352  0.23445830  0.87614014  1
  V  V69  1  0.25420748  0.49271529  0.25656011  1
  V  V70  1  0.62529831  0.75133958  0.37305700  1
  V  V71  1  0.75559305  0.75256152  0.49598364  1
  V  V72  1  0.24663449  0.24597779  -0.00308400  1
  V  V73  1  0.50329857  0.62072775  0.12265130  1
  V  V74  1  0.87424665  0.00068678  0.87568506  1
  V  V75  1  0.26137202  0.62226529  0.37609276  1
  V  V76  1  0.12373070  0.50121929  0.63100259  1
  V  V77  1  0.37438877  0.25092175  0.12924472  1
  V  V78  1  0.63641553  0.73650242  0.86539570  1
  V  V79  1  0.74679603  -0.00299702  0.74854623  1
  V  V80  1  0.74726327  0.12409609  0.87675462  1
  V  V81  1  0.49857902  0.38580008  0.37047354  1
  V  V82  1  0.38219292  0.75397916  0.11329742  1
  V  V83  1  0.62110551  0.87894455  0.75081918  1
  V  V84  1  -0.00207041  0.25085761  0.74940241  1
  Zn  Zn85  1  0.12843845  0.51632875  0.12244490  1
  Zn  Zn86  1  0.87401601  0.37581683  0.49936167  1
  Zn  Zn87  1  0.74434423  0.25445648  0.48942452  1
  Zn  Zn88  1  0.92159634  0.43319283  0.33593417  1
  Zn  Zn89  1  0.74958611  0.53364300  0.75945089  1
  Zn  Zn90  1  0.88530733  0.12474928  0.25845117  1
  Zn  Zn91  1  0.50069503  0.49785262  0.00159205  1
  Zn  Zn92  1  0.74897718  0.87819738  0.61982921  1
  Zn  Zn93  1  0.87107888  0.87806640  0.49431878  1
  Zn  Zn94  1  0.37245896  0.24830364  0.62970488  1
  Zn  Zn95  1  0.49182268  -0.00464368  -0.00037847  1
  Zn  Zn96  1  0.76075073  0.12109301  0.38293718  1
  Zn  Zn97  1  0.38280832  0.61953222  0.25367339  1
  Zn  Zn98  1  0.49557048  0.50513251  0.49277514  1
  Zn  Zn99  1  0.49859875  0.37514304  0.87739725  1
  Zn  Zn100  1  0.12219237  0.12981000  0.49722544  1
  Zn  Zn101  1  0.87133783  0.52734185  0.87665416  1
  Zn  Zn102  1  0.24971736  0.87829456  0.62485346  1
  Zn  Zn103  1  0.25354831  0.75410174  0.00011505  1
  Zn  Zn104  1  0.62951481  0.61940505  -0.00334859  1
  Zn  Zn105  1  0.12851612  0.00469431  0.12366289  1
  Zn  Zn106  1  -0.01468418  0.62667066  0.63723372  1
  Zn  Zn107  1  0.18608368  0.18982435  0.19120860  1
  Zn  Zn108  1  0.18470562  0.18965899  0.68572551  1
  Zn  Zn109  1  0.20682918  0.68874501  0.19173788  1
  Zn  Zn110  1  0.15529183  0.67109097  0.70770863  1
  Zn  Zn111  1  0.68668820  0.18870230  0.18931492  1
  Zn  Zn112  1  0.68173888  0.18765495  0.68595840  1
  Zn  Zn113  1  0.68922440  0.68810920  0.18500326  1
  Zn  Zn114  1  0.68537747  0.69476457  0.67711800  1
  Zn  Zn115  1  0.31292909  0.31233931  0.31583126  1
  Zn  Zn116  1  0.31133319  0.30849414  0.81544907  1
  Zn  Zn117  1  0.31386839  0.80875136  0.31184598  1
  Zn  Zn118  1  0.30464381  0.81338916  0.80910953  1
  Zn  Zn119  1  0.80465703  0.29786384  0.32002679  1
  Zn  Zn120  1  0.81148284  0.39122926  0.81306195  1
  Zn  Zn121  1  0.81102950  0.80933480  0.30881037  1
  Zn  Zn122  1  0.81995081  0.69874157  0.80974074  1
  Zn  Zn123  1  0.18747779  0.44059868  0.44008943  1
  Zn  Zn124  1  0.18866688  0.43469631  0.93732987  1
  Zn  Zn125  1  0.18389781  0.93499485  0.43837566  1
  Zn  Zn126  1  0.18567915  0.93713014  0.93686836  1
  Zn  Zn127  1  0.68715696  0.43445304  0.43473225  1
  Zn  Zn128  1  0.68807735  0.43776080  0.94176895  1
  Zn  Zn129  1  0.68269642  0.93782028  0.43363601  1
  Zn  Zn130  1  0.68580239  0.92983790  0.93231800  1
  Zn  Zn131  1  0.31540293  0.06238315  0.08384199  1
  Zn  Zn132  1  0.31109239  0.06432402  0.56226094  1
  Zn  Zn133  1  0.31756203  0.56099772  0.06714203  1
  Zn  Zn134  1  0.30743193  0.56014567  0.56452548  1
  Zn  Zn135  1  0.81704032  0.06540786  0.06676960  1
  Zn  Zn136  1  0.80715437  0.06401839  0.56260504  1
  Zn  Zn137  1  0.82179080  0.56230583  0.06274339  1
  Zn  Zn138  1  0.80816298  0.57025622  0.56971246  1
  Zn  Zn139  1  0.43562228  0.43825749  0.18716897  1
  Zn  Zn140  1  0.43701710  0.43696173  0.68840658  1
  Zn  Zn141  1  0.43611744  0.93935081  0.18996079  1
  Zn  Zn142  1  0.43576161  0.93653934  0.68587846  1
  Zn  Zn143  1  0.94357256  0.43780953  0.17281403  1
  Zn  Zn144  1  0.93645163  0.44091393  0.68846784  1
  Zn  Zn145  1  0.93887436  0.93967373  0.18369511  1
  Zn  Zn146  1  0.93401938  0.93370985  0.68490941  1
  Zn  Zn147  1  0.06610913  0.06302622  0.31314326  1
  Zn  Zn148  1  0.06122675  0.05862836  0.80641392  1
  Zn  Zn149  1  0.05482301  0.52217440  0.29934495  1
  Zn  Zn150  1  0.05398065  0.56541065  0.81684012  1
  Zn  Zn151  1  0.56494369  0.05795633  0.31051529  1
  Zn  Zn152  1  0.55697736  0.06214419  0.81370344  1
  Zn  Zn153  1  0.56991159  0.56084765  0.30711986  1
  Zn  Zn154  1  0.55424978  0.56055219  0.81083847  1
  Zn  Zn155  1  0.43703685  0.19103197  0.44106314  1
  Zn  Zn156  1  0.44458250  0.19299885  0.94392552  1
  Zn  Zn157  1  0.43962605  0.69495967  0.43867511  1
  Zn  Zn158  1  0.44059313  0.68472911  0.93521258  1
  Zn  Zn159  1  0.93588454  0.19141400  0.43434373  1
  Zn  Zn160  1  0.93657004  0.18915663  0.93942024  1
  Zn  Zn161  1  0.93804683  0.68100653  0.43702407  1
  Zn  Zn162  1  0.94356467  0.69560561  0.94323697  1
  Zn  Zn163  1  0.06306249  0.30901210  0.05987765  1
  Zn  Zn164  1  0.06263725  0.31437280  0.55955113  1
  Zn  Zn165  1  0.06514449  0.82137802  0.05761709  1
  Zn  Zn166  1  0.05946821  0.81429347  0.56013736  1
  Zn  Zn167  1  0.56225146  0.30927534  0.06921694  1
  Zn  Zn168  1  0.55649642  0.31291530  0.56365551  1
  Zn  Zn169  1  0.56773300  0.81016656  0.05575121  1
  Zn  Zn170  1  0.55978890  0.81250926  0.56171602  1
  O  O171  1  0.11371773  0.12584223  0.12548322  1
  O  O172  1  0.11606882  0.11850095  0.62248585  1
  O  O173  1  0.11799348  0.63921334  0.13639421  1
  O  O174  1  0.14636410  0.61099546  0.60804840  1
  O  O175  1  0.61581089  0.12877952  0.11750584  1
  O  O176  1  0.61465552  0.11749850  0.61767490  1
  O  O177  1  0.62155597  0.61242608  0.12487290  1
  O  O178  1  0.61729909  0.61970765  0.61829868  1
  O  O179  1  0.38451487  0.37240733  0.38413599  1
  O  O180  1  0.37315020  0.38128252  0.88340265  1
  O  O181  1  0.38303601  0.86548261  0.38366847  1
  O  O182  1  0.38748535  0.86823235  0.87115494  1
  O  O183  1  0.84874583  0.37585687  0.38924057  1
  O  O184  1  0.89195621  0.36218124  0.88793687  1
  O  O185  1  0.89041608  0.86776346  0.37134991  1
  O  O186  1  0.88534796  0.88563872  0.88230759  1
  O  O187  1  0.24369353  0.00720351  0.36782270  1
  O  O188  1  0.25098330  0.00583421  0.86646520  1
  O  O189  1  0.24967353  0.50657757  0.36577141  1
  O  O190  1  0.26072580  0.50692275  0.88008409  1
  O  O191  1  0.74472677  0.00114357  0.35901131  1
  O  O192  1  0.75279554  0.00380988  0.86797609  1
  O  O193  1  0.74380670  0.51622538  0.37863301  1
  O  O194  1  0.75940921  0.48462867  0.86925970  1
  O  O195  1  0.24885184  0.49154447  0.12996456  1
  O  O196  1  0.23939582  0.48525365  0.62231942  1
  O  O197  1  0.24813976  0.99264111  0.14091475  1
  O  O198  1  0.24091037  1.00134766  0.63186406  1
  O  O199  1  0.73845680  0.50072967  0.11790202  1
  O  O200  1  0.73624043  0.49721814  0.63107312  1
  O  O201  1  0.75342432  0.98742186  0.12991168  1
  O  O202  1  0.73814738  0.99948120  0.63253042  1
  O  O203  1  0.00424102  0.42359719  0.26415473  1
  O  O204  1  0.00645794  0.36880782  0.75805468  1
  O  O205  1  0.01189527  0.88323011  0.25557714  1
  O  O206  1  0.00938549  0.88819168  0.76006608  1
  O  O207  1  0.49979669  0.36835473  0.25551120  1
  O  O208  1  0.50997171  0.36839079  0.75167828  1
  O  O209  1  0.50628327  0.86951563  0.25226218  1
  O  O210  1  0.50185771  0.86869897  0.75708363  1
  O  O211  1  0.49679016  0.13000380  0.24863469  1
  O  O212  1  0.50627292  0.13387756  0.74069999  1
  O  O213  1  0.50338276  0.63275896  0.24002572  1
  O  O214  1  0.48731482  0.63372252  0.74497509  1
  O  O215  1  1.00197919  0.11652235  0.23340402  1
  O  O216  1  0.99237727  0.12944796  0.74190008  1
  O  O217  1  0.99388299  0.62005415  0.25475720  1
  O  O218  1  1.04860742  0.63091725  0.72932624  1
  O  O219  1  0.36557313  0.25487842  0.00562637  1
  O  O220  1  0.36350725  0.26105283  0.50251903  1
  O  O221  1  0.37845831  0.74951160  0.01055183  1
  O  O222  1  0.36812010  0.75486309  0.50831824  1
  O  O223  1  0.86679473  0.25402067  0.00748590  1
  O  O224  1  0.87208138  0.25083083  0.51482207  1
  O  O225  1  0.87075059  0.75875149  0.00990101  1
  O  O226  1  0.86257003  0.74990512  0.49875818  1
  O  O227  1  0.13781303  0.25220354  0.49600971  1
  O  O228  1  0.13876965  0.24966529  0.99254601  1
  O  O229  1  0.13043984  0.74306488  0.49528784  1
  O  O230  1  0.13188635  0.76134977  0.98592769  1
  O  O231  1  0.62240985  0.23742869  0.50615277  1
  O  O232  1  0.63057627  0.24488360  0.99689177  1
  O  O233  1  0.63332784  0.74547535  0.49607760  1
  O  O234  1  0.63685942  0.74639439  0.98711857  1
  O  O235  1  0.49293340  0.23935911  0.13516749  1
  O  O236  1  0.49841374  0.24253551  0.63556390  1
  O  O237  1  0.49963137  0.74567841  0.12934012  1
  O  O238  1  0.48853950  0.74637451  0.63439573  1
  O  O239  1  0.99382250  0.23743855  0.11837223  1
  O  O240  1  0.99351373  0.24615710  0.62812621  1
  O  O241  1  0.99421935  0.75447678  0.12367965  1
  O  O242  1  0.98137879  0.75291622  0.61745744  1
  O  O243  1  0.01753835  0.25346345  0.38422189  1
  O  O244  1  0.00815080  0.25522722  0.87188524  1
  O  O245  1  0.01320633  0.75582071  0.38335009  1
  O  O246  1  0.01016142  0.76851155  0.88064268  1
  O  O247  1  0.49772366  0.25739885  0.36334663  1
  O  O248  1  0.51159520  0.25158842  0.87090686  1
  O  O249  1  0.50663392  0.75489130  0.36393920  1
  O  O250  1  0.50388822  0.75598847  0.86407566  1
  O  O251  1  0.24924496  0.13415763  0.49285731  1
  O  O252  1  0.26120217  0.12631398  0.99414652  1
  O  O253  1  0.24724292  0.62922338  0.49182418  1
  O  O254  1  0.25632873  0.62786106  0.99201794  1
  O  O255  1  0.73033630  0.12258588  0.50259550  1
  O  O256  1  0.74369767  0.12902200  0.99689813  1
  O  O257  1  0.74398138  0.63355997  0.49300211  1
  O  O258  1  0.75278548  0.63702909  1.00296814  1
  O  O259  1  0.25813930  0.36557996  0.00660622  1
  O  O260  1  0.25650496  0.37118736  0.50642461  1
  O  O261  1  0.24834758  0.88004968  0.01597617  1
  O  O262  1  0.25483138  0.86657996  0.50095976  1
  O  O263  1  0.76114127  0.36286733  -0.00435276  1
  O  O264  1  0.74066160  0.37395948  0.51667012  1
  O  O265  1  0.75472733  0.86961042  0.00550787  1
  O  O266  1  0.74982118  0.86813102  0.49634929  1
  O  O267  1  0.15116974  0.51074880  0.24113177  1
  O  O268  1  0.12284605  0.48359621  0.74477401  1
  O  O269  1  0.13471615  0.99014461  0.24875956  1
  O  O270  1  0.13133796  0.99511544  0.73857234  1
  O  O271  1  0.62537353  0.48765569  0.23632887  1
  O  O272  1  0.62334424  0.49298845  0.74497063  1
  O  O273  1  0.63236894  0.98724886  0.24715880  1
  O  O274  1  0.62743477  0.99524919  0.74492063  1
  O  O275  1  0.36622846  0.00934229  0.25099740  1
  O  O276  1  0.35825320  -0.00058284  0.74346590  1
  O  O277  1  0.36061647  0.50402906  0.24441129  1
  O  O278  1  0.37740601  0.50904449  0.75845686  1
  O  O279  1  0.86005776  -0.00217524  0.24617308  1
  O  O280  1  0.86424050  0.00506593  0.75292554  1
  O  O281  1  0.86964983  0.51162094  0.23984554  1
  O  O282  1  0.86184266  0.48550377  0.75884606  1
  O  O283  1  0.13188356  0.36648972  0.37628082  1
  O  O284  1  0.11867108  0.36708348  0.86961912  1
  O  O285  1  0.12088414  0.86382518  0.36548004  1
  O  O286  1  0.11861502  0.87525271  0.86748943  1
  O  O287  1  0.61733288  0.38040665  0.35782518  1
  O  O288  1  0.62224099  0.36723572  0.86959556  1
  O  O289  1  0.61652405  0.86926230  0.36490218  1
  O  O290  1  0.61913694  0.86345267  0.86153699  1
  O  O291  1  0.38204811  0.13254914  0.14240115  1
  O  O292  1  0.38675060  0.12864225  0.61988780  1
  O  O293  1  0.38588173  0.63478142  0.12803958  1
  O  O294  1  0.37475396  0.62954084  0.63196506  1
  O  O295  1  0.88613480  0.13272894  0.13154810  1
  O  O296  1  0.87665653  0.13056366  0.62978517  1
  O  O297  1  0.87426214  0.63596552  0.13359328  1
  O  O298  1  0.86948517  0.64554728  0.63145743  1
  O  O299  1  0.25465050  0.25372056  0.11956392  1
  O  O300  1  0.24958000  0.25976054  0.61798874  1
  O  O301  1  0.26456001  0.75885528  0.12378369  1
  O  O302  1  0.26024613  0.75132794  0.62277062  1
  O  O303  1  0.75852699  0.24226846  0.11416008  1
  O  O304  1  0.75413566  0.25690684  0.62379213  1
  O  O305  1  0.75727740  0.75968786  0.11742449  1
  O  O306  1  0.75692085  0.75754529  0.61264460  1
  O  O307  1  0.24416773  0.24413610  0.38202857  1
  O  O308  1  0.24154916  0.25023773  0.88471795  1
  O  O309  1  0.23854720  0.74126962  0.37583716  1
  O  O310  1  0.24553410  0.74337987  0.87992037  1
  O  O311  1  0.73711126  0.23284425  0.37809732  1
  O  O312  1  0.73577457  0.24141520  0.88599216  1
  O  O313  1  0.74269450  0.74667869  0.37991532  1
  O  O314  1  0.74419382  0.75644920  0.88417364  1
  O  O315  1  -0.00650321  0.11751014  0.01166575  1
  O  O316  1  0.00246486  0.11842584  0.50596894  1
  O  O317  1  0.00389758  0.61236339  -0.00524442  1
  O  O318  1  0.00859399  0.61924476  0.51175851  1
  O  O319  1  0.50872574  0.12282901  0.01021170  1
  O  O320  1  0.50760259  0.12976188  0.51002115  1
  O  O321  1  0.50423124  0.62523314  0.01256990  1
  O  O322  1  0.50433027  0.62617491  0.50646738  1
  O  O323  1  0.49346284  0.37617089  0.48949036  1
  O  O324  1  0.48572509  0.36968443  1.00147234  1
  O  O325  1  0.48986470  0.86708824  0.48845875  1
  O  O326  1  0.50410536  0.87477660  0.98411361  1
  O  O327  1  0.99539698  0.39223823  0.50776000  1
  O  O328  1  0.99771817  0.37898268  0.99244644  1
  O  O329  1  0.99896152  0.88454766  0.48895525  1
  O  O330  1  0.99420101  0.88794382  0.99342802  1
  O  O331  1  0.50208044  0.49040560  0.37183052  1
  O  O332  1  0.48562153  0.49683127  0.88024107  1
  O  O333  1  0.49813986  0.98450690  0.36768624  1
  O  O334  1  0.50131358  0.98258628  0.87543885  1
  O  O335  1  0.99511912  0.51181784  0.39928676  1
  O  O336  1  1.00049829  0.49056761  0.88363913  1
  O  O337  1  1.01102460  0.99004858  0.38481856  1
  O  O338  1  0.99544540  0.99785221  0.88152634  1
  O  O339  1  0.00242919  0.01065421  0.11583135  1
  O  O340  1  0.00486418  0.00506613  0.61789791  1
  O  O341  1  0.00999911  0.50281007  0.10525145  1
  O  O342  1  0.01075622  0.50296076  0.62169134  1
  O  O343  1  0.49095148  0.01371496  0.12078288  1
  O  O344  1  0.50695256  0.00878552  0.63291670  1
  O  O345  1  0.50505718  0.50823577  0.12425641  1
  O  O346  1  0.50903039  0.50634484  0.62538192  1
  O  O347  1  0.25733931  0.38478960  0.24308393  1
  O  O348  1  0.24157970  0.36656346  0.74235264  1
  O  O349  1  0.24375981  0.87906734  0.24774301  1
  O  O350  1  0.24140963  0.88939528  0.74783488  1
  O  O351  1  0.73624335  0.36837406  0.24878834  1
  O  O352  1  0.73072928  0.36477320  0.73718096  1
  O  O353  1  0.74340848  0.88272926  0.24279513  1
  O  O354  1  0.73653306  0.89056629  0.74661636  1
  O  O355  1  0.25721477  0.11767330  0.25731553  1
  O  O356  1  0.24634142  0.11349812  0.74616797  1
  O  O357  1  0.26075504  0.61804862  0.26096820  1
  O  O358  1  0.25656288  0.62932011  0.75891528  1
  O  O359  1  0.74644931  0.10617961  0.24296758  1
  O  O360  1  0.74873289  0.11609200  0.75525492  1
  O  O361  1  0.75815166  0.63259181  0.25863762  1
  O  O362  1  0.73129600  0.64448157  0.76424785  1
  O  O363  1  0.36482831  0.13212640  0.36773154  1
  O  O364  1  0.37767669  0.12729739  0.87369193  1
  O  O365  1  0.36466883  0.63244616  0.37647342  1
  O  O366  1  0.36787802  0.61877631  0.86854140  1
  O  O367  1  0.87513007  0.12542944  0.37005140  1
  O  O368  1  0.86765822  0.12133635  0.86886186  1
  O  O369  1  0.86545653  0.63210079  0.36258169  1
  O  O370  1  0.89405153  0.63608901  0.86351174  1
  O  O371  1  0.13804023  0.37305180  0.12030171  1
  O  O372  1  0.13083465  0.38053523  0.63289751  1
  O  O373  1  0.13421695  0.87475107  0.13575296  1
  O  O374  1  0.12416889  0.88213541  0.63143162  1
  O  O375  1  0.62005141  0.38684437  0.13397992  1
  O  O376  1  0.62412945  0.38351160  0.63168159  1
  O  O377  1  0.63448445  0.86842826  0.13060505  1
  O  O378  1  0.61967760  0.88210396  0.63503755  1
  O  O379  1  0.12719938  0.25158993  0.26451393  1
  O  O380  1  0.11856228  0.25773237  0.75566578  1
  O  O381  1  0.11711213  0.74975809  0.25407984  1
  O  O382  1  0.13574413  0.77037778  0.76344488  1
  O  O383  1  0.61505316  0.26534217  0.23910354  1
  O  O384  1  0.61642064  0.25489286  0.75960268  1
  O  O385  1  0.61659143  0.75894855  0.25042205  1
  O  O386  1  0.61271536  0.75956534  0.75013595  1
  O  O387  1  0.38211670  0.24308742  0.24851104  1
  O  O388  1  0.39042931  0.25645502  0.75147941  1
  O  O389  1  0.39023496  0.74909894  0.24242325  1
  O  O390  1  0.37667180  0.74388975  0.74346328  1
  O  O391  1  0.87146937  0.25244470  0.23623664  1
  O  O392  1  0.88135985  0.24298487  0.73702939  1
  O  O393  1  0.87603513  0.74729317  0.23654620  1
  O  O394  1  0.87266856  0.76985696  0.73478006  1
  O  O395  1  0.37683998  0.48732919  0.50642535  1
  O  O396  1  0.37620172  0.48987997  0.99523183  1
  O  O397  1  0.36819318  0.98461223  0.50344161  1
  O  O398  1  0.36901791  1.01292003  0.99003447  1
  O  O399  1  0.88780257  0.50406873  0.51775950  1
  O  O400  1  0.88692408  0.49217903  0.99658570  1
  O  O401  1  0.88527531  0.99993320  0.50362296  1
  O  O402  1  0.88127525  0.99722611  0.99484426  1
  O  O403  1  0.11324154  -0.00203322  0.00256005  1
  O  O404  1  0.11977358  0.00018384  0.51203973  1
  O  O405  1  0.11725379  0.49957970  -0.00061451  1
  O  O406  1  0.11571860  0.50423572  0.50870611  1
  O  O407  1  0.62441752  0.00925972  -0.00555384  1
  O  O408  1  0.62377949  0.00154766  0.51214660  1
  O  O409  1  0.62077129  0.49867589  0.01173625  1
  O  O410  1  0.62064161  0.50666611  0.50811448  1
  O  O411  1  0.36720175  0.36922787  0.11849654  1
  O  O412  1  0.36740611  0.37271835  0.62072738  1
  O  O413  1  0.36844328  0.86727791  0.13105405  1
  O  O414  1  0.37391048  0.86593698  0.61708915  1
  O  O415  1  0.88317710  0.36529398  0.10981046  1
  O  O416  1  0.86220720  0.36831373  0.62552303  1
  O  O417  1  0.86906801  0.86993379  0.11921048  1
  O  O418  1  0.87031575  0.86812232  0.61536860  1
  O  O419  1  0.13735834  0.13199126  0.37629512  1
  O  O420  1  0.11914820  0.13557559  0.86890791  1
  O  O421  1  0.13333461  0.62856255  0.38806496  1
  O  O422  1  0.13540598  0.63706771  0.87227296  1
  O  O423  1  0.61616795  0.11594880  0.39379902  1
  O  O424  1  0.62623396  0.13052135  0.88439155  1
  O  O425  1  0.63005496  0.63252048  0.37714888  1
  O  O426  1  0.61166863  0.63591521  0.87808193  1
