# generated using pymatgen
data_V85Zn86O256
_symmetry_space_group_name_H-M   'P 1'
_cell_length_a   16.93975728
_cell_length_b   16.92589022
_cell_length_c   16.94216361
_cell_angle_alpha   90.00403723
_cell_angle_beta   89.99666124
_cell_angle_gamma   90.01772762
_symmetry_Int_Tables_number   1
_chemical_formula_structural   V85Zn86O256
_chemical_formula_sum   'V85 Zn86 O256'
_cell_volume   4857.66489755
_cell_formula_units_Z   1
loop_
 _symmetry_equiv_pos_site_id
 _symmetry_equiv_pos_as_xyz
  1  'x, y, z'
loop_
 _atom_site_type_symbol
 _atom_site_label
 _atom_site_symmetry_multiplicity
 _atom_site_fract_x
 _atom_site_fract_y
 _atom_site_fract_z
 _atom_site_occupancy
  V  V0  1  0.00089585  0.61422496  0.12467970  1
  V  V1  1  0.37014073  0.37592103  0.49952920  1
  V  V2  1  0.00178840  -0.01507916  -0.00478365  1
  V  V3  1  0.87080359  -0.00267312  0.37091150  1
  V  V4  1  0.50217258  0.75982993  0.75119091  1
  V  V5  1  0.50467041  0.38488585  0.88449318  1
  V  V6  1  0.61741843  0.11812850  0.50992804  1
  V  V7  1  0.61800832  0.75787431  0.37346956  1
  V  V8  1  0.62309923  0.24682571  0.87657770  1
  V  V9  1  0.37340346  0.61839323  0.74981096  1
  V  V10  1  -0.00111382  0.50578869  0.50565165  1
  V  V11  1  0.87757688  0.37823041  -0.01387593  1
  V  V12  1  0.37535835  0.75229686  0.62707540  1
  V  V13  1  0.49606251  0.24871447  0.24929802  1
  V  V14  1  0.49793972  0.75611788  0.24173362  1
  V  V15  1  0.12441005  0.51235988  0.63139718  1
  V  V16  1  0.73925485  -0.00399899  0.74965908  1
  V  V17  1  0.12152649  0.38170480  0.75766639  1
  V  V18  1  0.75938630  0.62396259  0.87447301  1
  V  V19  1  0.50207095  0.88152673  0.88050593  1
  V  V20  1  0.12561232  0.62860289  0.48647403  1
  V  V21  1  0.36873237  0.49884901  0.87554048  1
  V  V22  1  0.87582610  0.11969060  0.75482579  1
  V  V23  1  -0.00157554  0.49654502  -0.01602766  1
  V  V24  1  0.87385903  0.63056578  0.24768241  1
  V  V25  1  0.31279313  0.05416915  0.71327541  1
  V  V26  1  0.24589191  0.38048573  0.63219403  1
  V  V27  1  0.49759936  0.11609794  0.12114490  1
  V  V28  1  0.87362935  0.50082472  0.37680421  1
  V  V29  1  0.24611655  0.25231894  0.49936497  1
  V  V30  1  0.62282991  0.24821325  0.37532286  1
  V  V31  1  0.25460973  0.87216577  0.63318690  1
  V  V32  1  0.75776045  0.75889687  -0.00021047  1
  V  V33  1  0.00107183  0.12555169  0.62722071  1
  V  V34  1  0.75091713  0.24789467  -0.00019030  1
  V  V35  1  0.74602605  0.50123845  0.24774614  1
  V  V36  1  0.12790430  0.61960665  0.00351609  1
  V  V37  1  0.12101009  0.87589106  0.75566453  1
  V  V38  1  0.75573596  0.50211925  0.75192208  1
  V  V39  1  0.12246828  0.38038326  0.24555355  1
  V  V40  1  0.24719148  0.12034227  0.37362025  1
  V  V41  1  0.74786593  0.37256631  0.62434977  1
  V  V42  1  0.74857610  0.24659486  0.49964231  1
  V  V43  1  0.62389282  0.37334495  0.75099179  1
  V  V44  1  0.74703400  0.62629085  0.37351928  1
  V  V45  1  -0.00153256  0.37589368  0.37625432  1
  V  V46  1  0.00111506  -0.00003479  0.50130084  1
  V  V47  1  0.61936889  0.49984658  0.62580993  1
  V  V48  1  0.49330617  -0.00728255  0.49595560  1
  V  V49  1  0.37952185  0.87136511  0.00940254  1
  V  V50  1  0.87474345  0.24895741  0.12328472  1
  V  V51  1  0.62609288  0.75366668  0.87127404  1
  V  V52  1  0.12787963  0.00178073  0.63216718  1
  V  V53  1  0.37467874  0.62760996  0.23829896  1
  V  V54  1  0.49621088  0.37460499  0.37524815  1
  V  V55  1  0.25221258  0.12952524  0.88053991  1
  V  V56  1  0.24565897  0.50486573  0.24896823  1
  V  V57  1  0.24705072  0.74487402  0.48982540  1
  V  V58  1  0.62287638  0.62015191  0.00001632  1
  V  V59  1  0.75677446  0.88176946  0.13484262  1
  V  V60  1  -0.00025474  0.25495483  0.76194083  1
  V  V61  1  0.36805980  0.51162506  0.37453583  1
  V  V62  1  0.73871815  0.87617180  0.62767177  1
  V  V63  1  -0.00168398  0.24923807  0.24961341  1
  V  V64  1  0.37137641  0.11668907  0.25420241  1
  V  V65  1  0.01458659  0.75075223  0.25199015  1
  V  V66  1  0.25549811  0.74859370  0.00408377  1
  V  V67  1  0.12497910  0.13154755  0.00252963  1
  V  V68  1  0.75075330  0.37561088  0.12441122  1
  V  V69  1  0.88243585  0.74286859  0.62488345  1
  V  V70  1  0.01283778  0.87096975  0.37153732  1
  V  V71  1  0.62252229  0.62611846  0.49795147  1
  V  V72  1  0.37894959  0.38017600  0.00537738  1
  V  V73  1  0.37220048  0.00327833  0.88360268  1
  V  V74  1  0.86838655  0.12004004  0.24892299  1
  V  V75  1  0.62274683  0.11558450  0.00084348  1
  V  V76  1  0.12105179  0.75292461  0.87775596  1
  V  V77  1  0.37615107  0.87192614  0.48494486  1
  V  V78  1  0.88060844  -0.01944057  0.87518248  1
  V  V79  1  0.87530112  0.24778255  0.62610676  1
  V  V80  1  0.49827566  0.49864149  0.50021368  1
  V  V81  1  0.36909447  0.24821880  0.12049274  1
  V  V82  1  0.87567030  0.87453737  0.50226348  1
  V  V83  1  0.12686681  -0.00904647  0.13136276  1
  V  V84  1  0.24526881  0.37380561  0.12121982  1
  Zn  Zn85  1  0.62435118  0.88744196  0.25526625  1
  Zn  Zn86  1  0.62704530  -0.00175216  0.12962852  1
  Zn  Zn87  1  0.87572859  0.37355613  0.50041833  1
  Zn  Zn88  1  0.49731413  0.62013341  0.11961130  1
  Zn  Zn89  1  0.62209431  0.37482901  0.24812962  1
  Zn  Zn90  1  0.12335589  0.12599527  0.49988461  1
  Zn  Zn91  1  0.50103518  0.62613902  0.62885960  1
  Zn  Zn92  1  0.24576689  -0.01218814  0.26068595  1
  Zn  Zn93  1  0.37204100  0.23634975  0.63153967  1
  Zn  Zn94  1  -0.00150329  0.12036172  0.12398819  1
  Zn  Zn95  1  0.74396173  0.11778531  0.37118079  1
  Zn  Zn96  1  0.49166406  0.24050311  0.75048694  1
  Zn  Zn97  1  0.25087393  0.86677027  0.13183259  1
  Zn  Zn98  1  0.88660059  0.61646930  0.74716977  1
  Zn  Zn99  1  0.75057238  0.11896039  0.87685779  1
  Zn  Zn100  1  0.12241312  0.24959954  0.37539117  1
  Zn  Zn101  1  0.24940834  0.62315678  0.87156995  1
  Zn  Zn102  1  0.12866414  0.25688704  0.88150179  1
  Zn  Zn103  1  0.74746101  0.75120792  0.50029760  1
  Zn  Zn104  1  0.00333420  0.74555578  0.74942647  1
  Zn  Zn105  1  0.61768977  0.49370578  0.11629982  1
  Zn  Zn106  1  0.88139214  0.75407086  0.11869518  1
  Zn  Zn107  1  0.18503369  0.18657530  0.18651039  1
  Zn  Zn108  1  0.18451755  0.19510273  0.68795063  1
  Zn  Zn109  1  0.18877086  0.68311579  0.18466823  1
  Zn  Zn110  1  0.18986118  0.68810958  0.68896697  1
  Zn  Zn111  1  0.68488276  0.18543557  0.18783492  1
  Zn  Zn112  1  0.68656437  0.18401165  0.69065104  1
  Zn  Zn113  1  0.68511262  0.69374751  0.18370358  1
  Zn  Zn114  1  0.69014626  0.68946005  0.68682948  1
  Zn  Zn115  1  0.30916479  0.31080617  0.31150730  1
  Zn  Zn116  1  0.31088656  0.31109877  0.81531236  1
  Zn  Zn117  1  0.30743363  0.80581844  0.30528859  1
  Zn  Zn118  1  0.31301602  0.81269020  0.81752056  1
  Zn  Zn119  1  0.81159740  0.31181882  0.31336711  1
  Zn  Zn120  1  0.80913766  0.30897805  0.81130583  1
  Zn  Zn121  1  0.81416624  0.81044882  0.31494006  1
  Zn  Zn122  1  0.81145777  0.80951607  0.80651785  1
  Zn  Zn123  1  0.18398343  0.44051097  0.43477589  1
  Zn  Zn124  1  0.18755218  0.43940416  0.94110676  1
  Zn  Zn125  1  0.19032852  0.93661816  0.44386284  1
  Zn  Zn126  1  0.19255007  0.93926491  0.93965814  1
  Zn  Zn127  1  0.68617511  0.43460358  0.43658791  1
  Zn  Zn128  1  0.69398713  0.43887057  0.93540199  1
  Zn  Zn129  1  0.68899774  0.93765296  0.43899669  1
  Zn  Zn130  1  0.68984299  0.93612217  0.93583628  1
  Zn  Zn131  1  0.30922325  0.05952408  0.06159087  1
  Zn  Zn132  1  0.31096373  0.05683930  0.54565660  1
  Zn  Zn133  1  0.31015408  0.55715000  0.06357843  1
  Zn  Zn134  1  0.30911520  0.56385591  0.56502844  1
  Zn  Zn135  1  0.81684836  0.05946948  0.05814684  1
  Zn  Zn136  1  0.80984990  0.06012715  0.56376578  1
  Zn  Zn137  1  0.81324795  0.56342094  0.06027749  1
  Zn  Zn138  1  0.80756435  0.56172872  0.56239128  1
  Zn  Zn139  1  0.43856610  0.44076373  0.18729003  1
  Zn  Zn140  1  0.42063715  0.40970489  0.70451757  1
  Zn  Zn141  1  0.43633124  0.93726532  0.19098957  1
  Zn  Zn142  1  0.49498938  1.10954142  0.64122000  1
  Zn  Zn143  1  0.93261253  0.43844727  0.18553624  1
  Zn  Zn144  1  0.93901006  0.43478397  0.68496304  1
  Zn  Zn145  1  0.94000092  0.93450426  0.18560956  1
  Zn  Zn146  1  0.93818183  0.93370095  0.68799903  1
  Zn  Zn147  1  0.05836567  0.06359654  0.31384403  1
  Zn  Zn148  1  0.06491216  0.06261158  0.81622124  1
  Zn  Zn149  1  0.06082667  0.56226250  0.31255051  1
  Zn  Zn150  1  0.06262368  0.56920746  0.81262994  1
  Zn  Zn151  1  0.56098264  0.05965376  0.31214452  1
  Zn  Zn152  1  0.55696412  0.06097631  0.81478464  1
  Zn  Zn153  1  0.55827449  0.56404731  0.30925268  1
  Zn  Zn154  1  0.56152058  0.56582592  0.81391936  1
  Zn  Zn155  1  0.43433176  0.18597602  0.43913197  1
  Zn  Zn156  1  0.43899415  0.19130019  0.93854621  1
  Zn  Zn157  1  0.43904385  0.68955404  0.43449905  1
  Zn  Zn158  1  0.43892198  0.68824648  0.93627673  1
  Zn  Zn159  1  0.93601578  0.18465264  0.43631020  1
  Zn  Zn160  1  0.93966622  0.18175725  0.93905523  1
  Zn  Zn161  1  0.93986101  0.68909944  0.43748495  1
  Zn  Zn162  1  0.94024709  0.68711661  0.93452340  1
  Zn  Zn163  1  0.05952132  0.31507015  0.06353742  1
  Zn  Zn164  1  0.06187066  0.31622890  0.56686248  1
  Zn  Zn165  1  0.06389869  0.80635045  0.06480801  1
  Zn  Zn166  1  0.06507493  0.81384478  0.56167133  1
  Zn  Zn167  1  0.56189686  0.30762589  0.06400684  1
  Zn  Zn168  1  0.55461825  0.30371923  0.56737880  1
  Zn  Zn169  1  0.56977321  0.81126596  0.06255451  1
  Zn  Zn170  1  0.55707126  0.81441551  0.56180095  1
  O  O171  1  0.12225007  0.11763296  0.11477852  1
  O  O172  1  0.12075842  0.11818721  0.62642693  1
  O  O173  1  0.11638986  0.62587486  0.11132744  1
  O  O174  1  0.12929405  0.61476034  0.62052088  1
  O  O175  1  0.61546167  0.12694795  0.11737447  1
  O  O176  1  0.62436761  0.12837832  0.61141900  1
  O  O177  1  0.63202089  0.62462460  0.10712724  1
  O  O178  1  0.62476604  0.61753067  0.61703090  1
  O  O179  1  0.37479215  0.38156085  0.38476942  1
  O  O180  1  0.38320324  0.37968548  0.88599694  1
  O  O181  1  0.36985590  0.86604896  0.38763315  1
  O  O182  1  0.38130394  0.88074430  0.88475980  1
  O  O183  1  0.88003831  0.38251202  0.37737833  1
  O  O184  1  0.86844509  0.37125255  0.88701297  1
  O  O185  1  0.87939922  0.87886351  0.38572506  1
  O  O186  1  0.87697998  0.88122744  0.86841374  1
  O  O187  1  0.24385052  0.01483790  0.37812238  1
  O  O188  1  0.25851175  0.01341513  0.87582008  1
  O  O189  1  0.25765428  0.49344899  0.36257480  1
  O  O190  1  0.26475338  0.49983927  0.87844564  1
  O  O191  1  0.76621828  0.00014337  0.38010453  1
  O  O192  1  0.76220546  -0.00212027  0.86873642  1
  O  O193  1  0.75401723  0.50425218  0.36855725  1
  O  O194  1  0.74747431  0.50984904  0.86300893  1
  O  O195  1  0.25354162  0.48843534  0.13971591  1
  O  O196  1  0.23696294  0.49139372  0.61947304  1
  O  O197  1  0.23336235  0.99961550  0.12521201  1
  O  O198  1  0.24996980  0.99636719  0.63414325  1
  O  O199  1  0.74830038  0.49267992  0.13136665  1
  O  O200  1  0.73715347  0.49207744  0.62715945  1
  O  O201  1  0.75368217  0.98411900  0.11831156  1
  O  O202  1  0.75506629  0.98583948  0.63355237  1
  O  O203  1  0.00292122  0.37146914  0.25334860  1
  O  O204  1  0.00753793  0.36687630  0.74670913  1
  O  O205  1  -0.00411152  0.86236561  0.25790120  1
  O  O206  1  0.01739450  0.86822357  0.74195962  1
  O  O207  1  0.49849897  0.36621761  0.25779682  1
  O  O208  1  0.51784310  0.37927525  0.76111067  1
  O  O209  1  0.50124393  0.86059078  0.24665673  1
  O  O210  1  0.49734701  0.86017777  0.76450967  1
  O  O211  1  0.48927991  0.13210290  0.24492004  1
  O  O212  1  0.49339631  0.12650677  0.75400196  1
  O  O213  1  0.49090619  0.63294092  0.24783868  1
  O  O214  1  0.49029970  0.63384283  0.75060516  1
  O  O215  1  0.98950114  0.13478762  0.24896792  1
  O  O216  1  0.99466324  0.13105070  0.74649084  1
  O  O217  1  0.99224911  0.62719072  0.24425683  1
  O  O218  1  0.99780578  0.63135866  0.74858320  1
  O  O219  1  0.37789747  0.26131235  0.01348976  1
  O  O220  1  0.36265563  0.25908414  0.50223280  1
  O  O221  1  0.36664802  0.75656369  -0.00645153  1
  O  O222  1  0.37081267  0.75352916  0.50583561  1
  O  O223  1  0.87178232  0.25468372  0.00399785  1
  O  O224  1  0.86414658  0.24735385  0.50518399  1
  O  O225  1  0.86147238  0.74420849  -0.00165253  1
  O  O226  1  0.87201316  0.75659142  0.50716811  1
  O  O227  1  0.13536429  0.25157355  0.50166533  1
  O  O228  1  0.11684399  0.23647339  1.00019183  1
  O  O229  1  0.13060839  0.73605621  0.50636803  1
  O  O230  1  0.13090150  0.74151556  0.99479057  1
  O  O231  1  0.62845064  0.24203532  0.49503138  1
  O  O232  1  0.63146684  0.24352381  0.99351627  1
  O  O233  1  0.62129790  0.74183438  0.49237101  1
  O  O234  1  0.63877871  0.74121419  0.99107460  1
  O  O235  1  0.49124237  0.24321827  0.13307116  1
  O  O236  1  0.48986318  0.23458103  0.62734045  1
  O  O237  1  0.50863111  0.74237136  0.13887927  1
  O  O238  1  0.49354093  0.74909264  0.63352735  1
  O  O239  1  0.99128586  0.24920250  0.13289970  1
  O  O240  1  0.99338589  0.24453079  0.63220522  1
  O  O241  1  0.99839555  0.73851444  0.13239422  1
  O  O242  1  0.98473315  0.75421951  0.62017737  1
  O  O243  1  -0.00220999  0.25767896  0.36790977  1
  O  O244  1  0.00209762  0.24676565  0.86432957  1
  O  O245  1  -0.00395835  0.75870678  0.36539651  1
  O  O246  1  0.01660572  0.74987530  0.87720475  1
  O  O247  1  0.50379639  0.25438179  0.37114783  1
  O  O248  1  0.51072970  0.26201748  0.87517747  1
  O  O249  1  0.50985609  0.74417063  0.36250405  1
  O  O250  1  0.50932654  0.75432072  0.87006936  1
  O  O251  1  0.24782440  0.13507707  0.49217284  1
  O  O252  1  0.23417742  0.12200056  0.99587547  1
  O  O253  1  0.23646476  0.63075152  0.50318684  1
  O  O254  1  0.24283748  0.62691174  0.99948200  1
  O  O255  1  0.73997263  0.13299738  0.49987660  1
  O  O256  1  0.74401816  0.13141780  0.99921937  1
  O  O257  1  0.73575167  0.62489316  0.49437375  1
  O  O258  1  0.74597089  0.63279739  0.99189332  1
  O  O259  1  0.25579920  0.37962988  0.01477461  1
  O  O260  1  0.25105423  0.37037520  0.50329005  1
  O  O261  1  0.25952778  0.86573957  0.00281515  1
  O  O262  1  0.25917737  0.86875642  0.51010814  1
  O  O263  1  0.75712328  0.37035310  0.00634717  1
  O  O264  1  0.74797877  0.36167298  0.50487302  1
  O  O265  1  0.74911915  0.86200565  0.00497768  1
  O  O266  1  0.75864367  0.87513012  0.51021137  1
  O  O267  1  0.13133150  0.49219769  0.25382111  1
  O  O268  1  0.11898510  0.49469413  0.74217693  1
  O  O269  1  0.12094858  1.00712872  0.23374917  1
  O  O270  1  0.12155522  0.99331717  0.74052227  1
  O  O271  1  0.63775223  0.49825907  0.25245227  1
  O  O272  1  0.63242230  0.49589285  0.74276587  1
  O  O273  1  0.62565661  1.00131661  0.24476484  1
  O  O274  1  0.64079697  1.00319260  0.76033926  1
  O  O275  1  0.37010523  0.01359165  0.24696970  1
  O  O276  1  0.37326855  -0.00570840  0.76827207  1
  O  O277  1  0.36736030  0.50655330  0.25750963  1
  O  O278  1  0.38230927  0.50497680  0.76105640  1
  O  O279  1  0.88332657  0.00845039  0.25801451  1
  O  O280  1  0.87362139  0.00393661  0.75689990  1
  O  O281  1  0.86416745  0.50954438  0.25378851  1
  O  O282  1  0.85955467  0.49932724  0.73686587  1
  O  O283  1  0.11650021  0.37321137  0.36324237  1
  O  O284  1  0.13321603  0.37532596  0.86219381  1
  O  O285  1  0.11147298  0.88101922  0.38237119  1
  O  O286  1  0.13587315  0.86907244  0.86545666  1
  O  O287  1  0.61749999  0.36323615  0.37504016  1
  O  O288  1  0.62235228  0.36991530  0.87249549  1
  O  O289  1  0.63303139  0.86145778  0.37450372  1
  O  O290  1  0.61680091  0.86469046  0.88242280  1
  O  O291  1  0.37759052  0.13142126  0.12774542  1
  O  O292  1  0.36330873  0.11234998  0.63448230  1
  O  O293  1  0.37507847  0.62170537  0.13482514  1
  O  O294  1  0.37743761  0.63336802  0.63026282  1
  O  O295  1  0.87685673  0.12967403  0.13113448  1
  O  O296  1  0.87875204  0.12694103  0.63661229  1
  O  O297  1  0.88093573  0.62729791  0.13229383  1
  O  O298  1  0.86562059  0.64042944  0.62274412  1
  O  O299  1  0.25766038  0.25968811  0.13217778  1
  O  O300  1  0.25269823  0.25953504  0.61707958  1
  O  O301  1  0.24456442  0.74865592  0.10918581  1
  O  O302  1  0.25645093  0.75562823  0.61793971  1
  O  O303  1  0.75500405  0.25669173  0.12077049  1
  O  O304  1  0.75371447  0.25279261  0.61985028  1
  O  O305  1  0.75346593  0.75712956  0.11232404  1
  O  O306  1  0.75838692  0.76142851  0.62282738  1
  O  O307  1  0.24508431  0.24415502  0.38281299  1
  O  O308  1  0.24896597  0.23639295  0.87364121  1
  O  O309  1  0.25216502  0.75070700  0.39107822  1
  O  O310  1  0.24156919  0.74634860  0.88596525  1
  O  O311  1  0.74104845  0.24933520  0.38346991  1
  O  O312  1  0.73781235  0.24670845  0.87963166  1
  O  O313  1  0.74193010  0.74124910  0.37767751  1
  O  O314  1  0.74520011  0.74691572  0.88077719  1
  O  O315  1  0.01197049  0.11551576  0.00112264  1
  O  O316  1  0.00071113  0.11890544  0.50809169  1
  O  O317  1  0.00325417  0.61438700  0.00485942  1
  O  O318  1  0.01173974  0.61841782  0.49720553  1
  O  O319  1  0.50995481  0.13322107  0.00993193  1
  O  O320  1  0.50861958  0.12168027  0.49959547  1
  O  O321  1  0.51925077  0.63233538  -0.00161599  1
  O  O322  1  0.50879143  0.61799263  0.50165321  1
  O  O323  1  0.48930085  0.37846526  0.49675150  1
  O  O324  1  0.49310089  0.37145576  0.99568587  1
  O  O325  1  0.48465330  0.87681587  0.49834835  1
  O  O326  1  0.49265226  0.86229327  0.99214191  1
  O  O327  1  0.99969972  0.38311815  0.49282191  1
  O  O328  1  0.99340172  0.38843231  1.00367477  1
  O  O329  1  0.99308883  0.87985007  0.49532754  1
  O  O330  1  1.00510100  0.88598786  1.00118829  1
  O  O331  1  0.49119566  0.49306266  0.37963513  1
  O  O332  1  0.49574272  0.48909141  0.87550570  1
  O  O333  1  0.50648642  1.00407620  0.39389103  1
  O  O334  1  0.49408158  0.98620282  0.87814293  1
  O  O335  1  0.99344995  0.49596211  0.38421708  1
  O  O336  1  0.99753127  0.50195817  0.88588171  1
  O  O337  1  0.99105210  0.99343781  0.38150879  1
  O  O338  1  0.99680126  0.99926749  0.88611587  1
  O  O339  1  0.00841283  -0.00046438  0.11408639  1
  O  O340  1  0.00807735  0.00465566  0.62197224  1
  O  O341  1  -0.00362519  0.51103263  0.12277126  1
  O  O342  1  0.00771351  0.49453065  0.61163005  1
  O  O343  1  0.49814888  0.01355957  0.12634481  1
  O  O344  1  0.50776552  0.00302263  0.59808163  1
  O  O345  1  0.50694873  0.50627898  0.13070729  1
  O  O346  1  0.51175435  0.49865624  0.62065172  1
  O  O347  1  0.24000520  0.37939450  0.24414716  1
  O  O348  1  0.23973270  0.37245286  0.73748010  1
  O  O349  1  0.25194577  0.87685753  0.24426180  1
  O  O350  1  0.24417355  0.86799155  0.73842510  1
  O  O351  1  0.75033049  0.38303149  0.24228066  1
  O  O352  1  0.74024443  0.38086020  0.74701405  1
  O  O353  1  0.74918295  0.86718153  0.23732916  1
  O  O354  1  0.75248427  0.88039031  0.73598527  1
  O  O355  1  0.25392181  0.12521798  0.25817154  1
  O  O356  1  0.24874539  0.12572916  0.75814583  1
  O  O357  1  0.25828894  0.61661901  0.24706587  1
  O  O358  1  0.26801019  0.62981833  0.75222924  1
  O  O359  1  0.76432850  0.13352830  0.25279293  1
  O  O360  1  0.75924692  0.11559619  0.75115615  1
  O  O361  1  0.75477263  0.62060227  0.25116707  1
  O  O362  1  0.75118822  0.61754081  0.75607259  1
  O  O363  1  0.36271921  0.13368225  0.36472562  1
  O  O364  1  0.36700704  0.11719563  0.88789000  1
  O  O365  1  0.37781147  0.61424914  0.36866205  1
  O  O366  1  0.37729428  0.61451692  0.86951121  1
  O  O367  1  0.87333248  0.11537880  0.36734140  1
  O  O368  1  0.87493567  0.11943589  0.86364472  1
  O  O369  1  0.86835735  0.62012883  0.36863797  1
  O  O370  1  0.86270002  0.63051402  0.86948980  1
  O  O371  1  0.13048587  0.37060528  0.13641291  1
  O  O372  1  0.12954898  0.38495266  0.63319959  1
  O  O373  1  0.12552373  0.88834064  0.11976977  1
  O  O374  1  0.13548627  0.88221813  0.62923963  1
  O  O375  1  0.63804117  0.37345164  0.12554916  1
  O  O376  1  0.62681584  0.37785594  0.63268250  1
  O  O377  1  0.64082474  0.87573588  0.12586201  1
  O  O378  1  0.64034777  0.86955983  0.61839037  1
  O  O379  1  0.11029090  0.25572790  0.24922775  1
  O  O380  1  0.11483909  0.26100798  0.75180765  1
  O  O381  1  0.11335680  0.73957528  0.24989794  1
  O  O382  1  0.12814928  0.75701977  0.75889623  1
  O  O383  1  0.61648503  0.25009711  0.25893843  1
  O  O384  1  0.62616830  0.25748104  0.75918588  1
  O  O385  1  0.61431254  0.74917367  0.25735963  1
  O  O386  1  0.61851487  0.74225981  0.76203146  1
  O  O387  1  0.37789902  0.24445230  0.24032562  1
  O  O388  1  0.38648428  0.29321062  0.73508817  1
  O  O389  1  0.38872797  0.74040964  0.25517219  1
  O  O390  1  0.38188123  0.74462095  0.74432598  1
  O  O391  1  0.88286045  0.24647644  0.24562010  1
  O  O392  1  0.87997777  0.24210888  0.74668812  1
  O  O393  1  0.87988639  0.73718863  0.25020399  1
  O  O394  1  0.87751990  0.75093735  0.73331321  1
  O  O395  1  0.37687763  0.49795705  0.49179841  1
  O  O396  1  0.37498109  0.48787759  0.99523295  1
  O  O397  1  0.37889945  0.98136463  0.49670669  1
  O  O398  1  0.37094128  0.98901000  0.99149913  1
  O  O399  1  0.88191285  0.50053472  0.49710853  1
  O  O400  1  0.88738792  0.49255179  1.00313995  1
  O  O401  1  0.88112985  0.99309265  0.49619841  1
  O  O402  1  0.89218461  1.00378756  0.98957491  1
  O  O403  1  0.11682669  0.00631056  0.00523258  1
  O  O404  1  0.12208683  0.00100567  0.51644152  1
  O  O405  1  0.11077713  0.50550291  -0.00295942  1
  O  O406  1  0.11863911  0.51067904  0.50449211  1
  O  O407  1  0.63067803  0.01283701  0.00240733  1
  O  O408  1  0.62589062  0.01630694  0.49410026  1
  O  O409  1  0.63403014  0.51600243  -0.00295970  1
  O  O410  1  0.61999026  0.50462281  0.50510484  1
  O  O411  1  0.36821624  0.36915277  0.12207984  1
  O  O412  1  0.36151340  0.38939985  0.60701959  1
  O  O413  1  0.37580182  0.87862804  0.11238580  1
  O  O414  1  0.36841142  0.85960015  0.61755483  1
  O  O415  1  0.86451167  0.36987461  0.11831312  1
  O  O416  1  0.86593648  0.36582649  0.62205318  1
  O  O417  1  0.86286386  0.87055582  0.12676127  1
  O  O418  1  0.87084535  0.86823590  0.61493915  1
  O  O419  1  0.12970089  0.12982813  0.37783447  1
  O  O420  1  0.13186120  0.12643479  0.88657709  1
  O  O421  1  0.12547297  0.62156824  0.38788635  1
  O  O422  1  0.12945019  0.63110549  0.88674300  1
  O  O423  1  0.62513641  0.13732463  0.38346100  1
  O  O424  1  0.62494770  0.13226214  0.88389265  1
  O  O425  1  0.62787528  0.62960093  0.38122124  1
  O  O426  1  0.63465095  0.63171377  0.88269732  1
