# generated using pymatgen
data_V85Zn86O256
_symmetry_space_group_name_H-M   'P 1'
_cell_length_a   16.93611763
_cell_length_b   16.93309704
_cell_length_c   16.94275261
_cell_angle_alpha   90.01035971
_cell_angle_beta   90.00747457
_cell_angle_gamma   89.93548127
_symmetry_Int_Tables_number   1
_chemical_formula_structural   V85Zn86O256
_chemical_formula_sum   'V85 Zn86 O256'
_cell_volume   4858.85503444
_cell_formula_units_Z   1
loop_
 _symmetry_equiv_pos_site_id
 _symmetry_equiv_pos_as_xyz
  1  'x, y, z'
loop_
 _atom_site_type_symbol
 _atom_site_label
 _atom_site_symmetry_multiplicity
 _atom_site_fract_x
 _atom_site_fract_y
 _atom_site_fract_z
 _atom_site_occupancy
  V  V0  1  0.50247160  0.87466992  0.87467650  1
  V  V1  1  0.62805373  0.87455670  0.73722107  1
  V  V2  1  0.37381603  0.63596882  0.24938814  1
  V  V3  1  0.87775098  0.87339292  0.00582510  1
  V  V4  1  0.38475197  0.87963690  0.50618457  1
  V  V5  1  0.74856361  0.37363962  0.12520145  1
  V  V6  1  0.37381607  0.24995254  0.12856321  1
  V  V7  1  0.24783341  0.37576920  0.12829860  1
  V  V8  1  0.61524414  0.10406807  0.49767987  1
  V  V9  1  0.24384436  0.12734321  0.88225329  1
  V  V10  1  0.12754203  0.00577735  0.11676345  1
  V  V11  1  0.63205934  0.75158738  0.87452188  1
  V  V12  1  0.24955701  0.50166913  0.25425226  1
  V  V13  1  0.12418780  0.75116601  0.37572005  1
  V  V14  1  0.86906954  0.87304968  0.51018107  1
  V  V15  1  0.86999494  0.24459656  0.12420150  1
  V  V16  1  0.62700303  0.13056116  -0.00171879  1
  V  V17  1  0.12638416  0.00135839  0.62533544  1
  V  V18  1  0.87226636  0.12649729  0.74903220  1
  V  V19  1  0.75073037  0.50456332  0.25727568  1
  V  V20  1  0.75705772  0.73977699  0.51390189  1
  V  V21  1  0.12599135  0.87273641  0.75182997  1
  V  V22  1  -0.00251258  0.49853450  0.00016910  1
  V  V23  1  0.74606808  0.13064453  0.87378250  1
  V  V24  1  0.12017150  0.37537502  0.25290866  1
  V  V25  1  0.50070094  0.00170210  -0.00181389  1
  V  V26  1  0.87322968  0.01093493  0.37000476  1
  V  V27  1  0.50136470  0.75323444  0.25016223  1
  V  V28  1  -0.00130925  0.49898159  0.49805480  1
  V  V29  1  0.61726922  0.37528400  0.25910913  1
  V  V30  1  0.25253233  0.24336553  0.49427680  1
  V  V31  1  0.39010883  0.49669349  0.37528409  1
  V  V32  1  0.13015577  0.37803805  0.75022400  1
  V  V33  1  0.87118372  0.62883913  0.25333657  1
  V  V34  1  0.37115766  0.13445400  0.74387966  1
  V  V35  1  0.12833858  0.50017507  0.62686797  1
  V  V36  1  -0.00194794  0.25246450  0.74897393  1
  V  V37  1  0.25271958  0.74909397  0.50431969  1
  V  V38  1  0.74626595  0.23742893  0.49307028  1
  V  V39  1  0.74964726  -0.00734828  0.73746419  1
  V  V40  1  0.61054827  0.24856291  0.87344552  1
  V  V41  1  0.25512227  0.74629428  0.00348948  1
  V  V42  1  0.60881505  0.62277967  0.50017259  1
  V  V43  1  0.12247346  0.24843502  0.87872026  1
  V  V44  1  0.87041489  0.37491459  0.50009776  1
  V  V45  1  -0.00485897  0.87417328  0.37510041  1
  V  V46  1  0.63807984  0.74631460  0.37414042  1
  V  V47  1  0.62777451  0.62635286  -0.00521368  1
  V  V48  1  0.37930247  0.37663708  -0.00451792  1
  V  V49  1  0.24036371  0.24675026  0.00406181  1
  V  V50  1  -0.00532248  0.62873978  0.12196116  1
  V  V51  1  -0.00423801  0.37754307  0.87407580  1
  V  V52  1  0.49522179  0.73811817  0.74744971  1
  V  V53  1  0.26135410  0.60970100  0.87524170  1
  V  V54  1  0.12711066  0.74373238  0.87525886  1
  V  V55  1  0.61448387  0.50103936  0.61976814  1
  V  V56  1  -0.00955179  0.24247460  0.25031709  1
  V  V57  1  0.86022755  0.37365067  -0.00296341  1
  V  V58  1  0.25414623  0.87254226  0.12748697  1
  V  V59  1  0.49598526  0.63007539  0.12362549  1
  V  V60  1  0.00000562  0.87343404  0.87595742  1
  V  V61  1  0.75664340  0.74717122  0.00119725  1
  V  V62  1  0.49915350  0.12493147  0.13083081  1
  V  V63  1  0.49133253  0.25308937  0.73762307  1
  V  V64  1  0.12510308  0.88233340  0.24838437  1
  V  V65  1  -0.00547956  0.75135440  0.24328034  1
  V  V66  1  0.38753559  0.36862458  0.49379780  1
  V  V67  1  0.75337471  0.01554054  0.25058592  1
  V  V68  1  0.50381088  0.88285340  0.38036993  1
  V  V69  1  0.62323117  0.50197406  0.12462473  1
  V  V70  1  0.37825537  0.87029701  0.00412808  1
  V  V71  1  0.35964192  0.11544371  0.25584526  1
  V  V72  1  -0.00391044  0.74725768  0.74202070  1
  V  V73  1  0.87240715  -0.00032928  0.87712713  1
  V  V74  1  0.12636205  0.23913486  0.37266861  1
  V  V75  1  0.75328145  0.87289272  0.12811966  1
  V  V76  1  0.24926810  0.00192736  0.75408010  1
  V  V77  1  0.00034975  0.12570518  0.62350162  1
  V  V78  1  0.86459231  0.62515880  0.74919607  1
  V  V79  1  0.25155234  0.37010174  0.61731137  1
  V  V80  1  0.25534383  0.87257024  0.62924071  1
  V  V81  1  0.62724496  0.00078906  0.12586636  1
  V  V82  1  0.37377230  0.00248633  0.87742919  1
  V  V83  1  0.62568337  0.37241993  0.74739250  1
  V  V84  1  0.12457757  0.62516227  0.49985340  1
  Zn  Zn85  1  0.62877063  0.87780991  0.25329916  1
  Zn  Zn86  1  0.38290745  0.72769472  0.62429982  1
  Zn  Zn87  1  0.48669824  0.50381743  -0.00928289  1
  Zn  Zn88  1  0.35194311  0.57165734  0.73536529  1
  Zn  Zn89  1  0.87123153  0.25143984  0.62410177  1
  Zn  Zn90  1  0.74722612  0.37554312  0.62050875  1
  Zn  Zn91  1  0.12472700  0.62204567  0.00161497  1
  Zn  Zn92  1  0.12184222  0.50235569  0.12794695  1
  Zn  Zn93  1  -0.00391488  0.62809638  0.62341061  1
  Zn  Zn94  1  0.13014395  0.12069649  0.49427048  1
  Zn  Zn95  1  0.49343867  0.25590026  0.25724639  1
  Zn  Zn96  1  -0.00066631  0.12699634  0.11787679  1
  Zn  Zn97  1  0.36693279  0.00503964  0.38117638  1
  Zn  Zn98  1  0.85825733  0.50750280  0.87847071  1
  Zn  Zn99  1  0.74405249  0.50298260  0.75035057  1
  Zn  Zn100  1  0.87023662  0.50605528  0.37998346  1
  Zn  Zn101  1  0.00329823  0.01053077  -0.00388315  1
  Zn  Zn102  1  -0.00424647  0.37436857  0.37372239  1
  Zn  Zn103  1  -0.00034164  -0.00026866  0.49875463  1
  Zn  Zn104  1  0.25151382  0.62772016  0.37425417  1
  Zn  Zn105  1  0.62144693  0.24334320  0.37582994  1
  Zn  Zn106  1  0.50059895  0.11112591  0.61791492  1
  Zn  Zn107  1  0.18535354  0.18776756  0.19114078  1
  Zn  Zn108  1  0.18782278  0.19230314  0.68803307  1
  Zn  Zn109  1  0.18240815  0.68972634  0.18660025  1
  Zn  Zn110  1  0.19127045  0.68202559  0.68981843  1
  Zn  Zn111  1  0.68639718  0.19244365  0.18632976  1
  Zn  Zn112  1  0.68527789  0.18546907  0.67944190  1
  Zn  Zn113  1  0.68783617  0.68999363  0.18476534  1
  Zn  Zn114  1  0.68298254  0.68657775  0.68356717  1
  Zn  Zn115  1  0.31261091  0.31134418  0.31486694  1
  Zn  Zn116  1  0.33812395  0.36574158  0.79016208  1
  Zn  Zn117  1  0.29673871  0.84707849  0.33116700  1
  Zn  Zn118  1  0.31486143  0.80897931  0.81718606  1
  Zn  Zn119  1  0.80932178  0.31526458  0.31527278  1
  Zn  Zn120  1  0.80718840  0.31481172  0.81331304  1
  Zn  Zn121  1  0.81401607  0.81541906  0.31219552  1
  Zn  Zn122  1  0.81382399  0.81033093  0.81197049  1
  Zn  Zn123  1  0.18771251  0.43460957  0.43484062  1
  Zn  Zn124  1  0.18445326  0.43317807  0.94246475  1
  Zn  Zn125  1  0.18995433  0.93924587  0.44032492  1
  Zn  Zn126  1  0.18908357  0.93328749  0.94002858  1
  Zn  Zn127  1  0.68817462  0.44038325  0.43955999  1
  Zn  Zn128  1  0.65748274  0.45386079  0.91798842  1
  Zn  Zn129  1  0.69424965  0.93388682  0.43562279  1
  Zn  Zn130  1  0.68885286  0.93909852  0.93589519  1
  Zn  Zn131  1  0.31071598  0.06044569  0.06639122  1
  Zn  Zn132  1  0.31339616  0.06201035  0.56418725  1
  Zn  Zn133  1  0.31174267  0.56175492  0.06560780  1
  Zn  Zn134  1  0.31362062  0.55694848  0.55552210  1
  Zn  Zn135  1  0.81111697  0.06283305  0.05928578  1
  Zn  Zn136  1  0.81394549  0.06169334  0.55896031  1
  Zn  Zn137  1  0.81281146  0.56170304  0.06699308  1
  Zn  Zn138  1  0.81012844  0.56152638  0.57212218  1
  Zn  Zn139  1  0.43635670  0.44290835  0.18323051  1
  Zn  Zn140  1  0.44337825  0.43374037  0.67302357  1
  Zn  Zn141  1  0.43880207  0.93667923  0.18877818  1
  Zn  Zn142  1  0.43880129  0.93523017  0.68941205  1
  Zn  Zn143  1  0.93438992  0.43778047  0.18676789  1
  Zn  Zn144  1  0.93649268  0.44219694  0.68509227  1
  Zn  Zn145  1  0.93915439  0.94249265  0.18645926  1
  Zn  Zn146  1  0.93894086  0.93847325  0.68958877  1
  Zn  Zn147  1  0.05836401  0.06169924  0.30736632  1
  Zn  Zn148  1  0.06074440  0.06355130  0.81312439  1
  Zn  Zn149  1  0.06025440  0.56499347  0.31419181  1
  Zn  Zn150  1  0.06019723  0.56271742  0.81311490  1
  Zn  Zn151  1  0.56441456  0.06397353  0.31495271  1
  Zn  Zn152  1  0.54942640  0.04989046  0.78287247  1
  Zn  Zn153  1  0.56645287  0.56754299  0.31308715  1
  Zn  Zn154  1  0.55786467  0.55583886  0.81359102  1
  Zn  Zn155  1  0.44492608  0.18665132  0.43224379  1
  Zn  Zn156  1  0.43238256  0.19047776  0.93847965  1
  Zn  Zn157  1  0.43499036  0.69526141  0.43051353  1
  Zn  Zn158  1  0.43845211  0.68697415  0.93329215  1
  Zn  Zn159  1  0.93964497  0.19013407  0.44040221  1
  Zn  Zn160  1  0.93492281  0.18963456  0.94133912  1
  Zn  Zn161  1  0.93569253  0.68783905  0.43722115  1
  Zn  Zn162  1  0.93624195  0.68674280  0.93205601  1
  Zn  Zn163  1  0.05658182  0.31506680  0.06552029  1
  Zn  Zn164  1  0.06260530  0.31186549  0.55933775  1
  Zn  Zn165  1  0.06438467  0.81268693  0.06135488  1
  Zn  Zn166  1  0.06305816  0.81658246  0.56139673  1
  Zn  Zn167  1  0.56226309  0.31079450  0.06559023  1
  Zn  Zn168  1  0.56487666  0.30542358  0.56331559  1
  Zn  Zn169  1  0.56572643  0.81285235  0.06508077  1
  Zn  Zn170  1  0.56577454  0.80646633  0.56324738  1
  O  O171  1  0.12963404  0.10756248  0.13034631  1
  O  O172  1  0.12063791  0.11358930  0.62869972  1
  O  O173  1  0.11065473  0.62285650  0.12318956  1
  O  O174  1  0.12527640  0.61576866  0.61902206  1
  O  O175  1  0.61851882  0.12360795  0.11712466  1
  O  O176  1  0.62440806  0.12656963  0.60234341  1
  O  O177  1  0.61443208  0.62242729  0.12063431  1
  O  O178  1  0.62698510  0.61923769  0.60911871  1
  O  O179  1  0.37352394  0.38646305  0.37950718  1
  O  O180  1  0.37012077  0.35959402  0.89900009  1
  O  O181  1  0.39291360  0.86147440  0.39172071  1
  O  O182  1  0.38148826  0.88164909  0.88284912  1
  O  O183  1  0.87569446  0.38126331  0.38693584  1
  O  O184  1  0.87875361  0.37429162  0.88244530  1
  O  O185  1  0.88486369  0.87990704  0.38013156  1
  O  O186  1  0.87798310  0.88229531  0.88347171  1
  O  O187  1  0.26546742  -0.04383108  0.36277817  1
  O  O188  1  0.25196749  0.00672200  0.87377933  1
  O  O189  1  0.25382246  0.50159778  0.36309853  1
  O  O190  1  0.24299736  0.51195335  0.88292015  1
  O  O191  1  0.76515463  -0.00618204  0.36453699  1
  O  O192  1  0.76109548  0.00637916  0.87073489  1
  O  O193  1  0.74948343  0.50103095  0.36095790  1
  O  O194  1  0.74728520  0.49092086  0.86367984  1
  O  O195  1  0.24685403  0.49644455  0.13845807  1
  O  O196  1  0.23518618  0.48546449  0.61403368  1
  O  O197  1  0.23828501  0.98693627  0.12069201  1
  O  O198  1  0.24384189  0.99534164  0.63402254  1
  O  O199  1  0.74599425  0.49202097  0.13641731  1
  O  O200  1  0.73646960  0.49633208  0.63110566  1
  O  O201  1  0.74810251  0.99288723  0.13036874  1
  O  O202  1  0.75633363  1.00036784  0.63918755  1
  O  O203  1  0.00591105  0.36909887  0.25091234  1
  O  O204  1  0.00608370  0.37120588  0.75336535  1
  O  O205  1  0.00379435  0.86885146  0.25394331  1
  O  O206  1  0.00470197  0.86818967  0.75706024  1
  O  O207  1  0.51503643  0.37842033  0.23917547  1
  O  O208  1  0.51014454  0.35910705  0.74381382  1
  O  O209  1  0.50318343  0.86728342  0.25637101  1
  O  O210  1  0.51041096  0.86451421  0.76025034  1
  O  O211  1  0.49792938  0.12396423  0.23737243  1
  O  O212  1  0.48267347  0.14357089  0.76528382  1
  O  O213  1  0.49533990  0.63160633  0.24341408  1
  O  O214  1  0.50188644  0.63777213  0.75966376  1
  O  O215  1  1.00165625  0.13900585  0.24122230  1
  O  O216  1  0.99446125  0.12993354  0.74142973  1
  O  O217  1  0.99551654  0.63294567  0.24257042  1
  O  O218  1  0.99675574  0.63398333  0.74697586  1
  O  O219  1  0.36471849  0.25361470  0.01452160  1
  O  O220  1  0.36712737  0.26142219  0.48618720  1
  O  O221  1  0.36790241  0.75766493  -0.00555208  1
  O  O222  1  0.36794458  0.75489902  0.50633256  1
  O  O223  1  0.87492747  0.26361056  0.00951371  1
  O  O224  1  0.86515783  0.25621827  0.49911313  1
  O  O225  1  0.86664806  0.75876791  -0.00705385  1
  O  O226  1  0.86644834  0.75925721  0.49656180  1
  O  O227  1  0.13067836  0.24730589  0.48861929  1
  O  O228  1  0.13368551  0.25848908  0.99883906  1
  O  O229  1  0.13132399  0.74651104  0.49709005  1
  O  O230  1  0.13266293  0.74834574  0.99026390  1
  O  O231  1  0.63759380  0.24731561  0.49700008  1
  O  O232  1  0.61757571  0.23851520  0.99186977  1
  O  O233  1  0.63753046  0.73985995  0.49583758  1
  O  O234  1  0.63308889  0.74591862  0.99516120  1
  O  O235  1  0.49017864  0.24210167  0.13042174  1
  O  O236  1  0.49989903  0.23813380  0.63646799  1
  O  O237  1  0.50665761  0.74497858  0.13967489  1
  O  O238  1  0.50164661  0.74898235  0.64335251  1
  O  O239  1  0.98808882  0.25195795  0.13305270  1
  O  O240  1  0.99994717  0.24143770  0.63035499  1
  O  O241  1  1.00318376  0.74387636  0.13249780  1
  O  O242  1  1.00844715  0.75206672  0.63918398  1
  O  O243  1  0.00508927  0.25192325  0.36698461  1
  O  O244  1  0.00378787  0.25733106  0.86954068  1
  O  O245  1  0.00375534  0.75752000  0.36791684  1
  O  O246  1  0.01041512  0.75453647  0.86815937  1
  O  O247  1  0.50777576  0.25117740  0.36762858  1
  O  O248  1  0.50714289  0.24853351  0.87090002  1
  O  O249  1  0.51232975  0.75444302  0.36437958  1
  O  O250  1  0.51161584  0.75479955  0.87013617  1
  O  O251  1  0.25057081  0.13806616  0.50512424  1
  O  O252  1  0.25317822  0.13466209  0.99560007  1
  O  O253  1  0.24326480  0.63321737  0.49601414  1
  O  O254  1  0.24863346  0.62968965  0.99383560  1
  O  O255  1  0.74768663  0.13407760  0.49859573  1
  O  O256  1  0.73725939  0.11892634  0.98879564  1
  O  O257  1  0.75528459  0.63802697  0.50033667  1
  O  O258  1  0.74464962  0.63970795  1.01198616  1
  O  O259  1  0.25452350  0.36687009  0.01066859  1
  O  O260  1  0.25288822  0.36426623  0.50148717  1
  O  O261  1  0.25670402  0.86562143  0.00734920  1
  O  O262  1  0.25735104  0.86605048  0.51295307  1
  O  O263  1  0.75815411  0.38326719  0.00876052  1
  O  O264  1  0.75624821  0.36888649  0.50009003  1
  O  O265  1  0.75768280  0.86990582  0.00622348  1
  O  O266  1  0.76413088  0.86444718  0.49705109  1
  O  O267  1  0.13028114  0.49341437  0.25206686  1
  O  O268  1  0.11798844  0.49048833  0.73968968  1
  O  O269  1  0.12013885  0.98663322  0.24117559  1
  O  O270  1  0.12975840  0.99310506  0.74618632  1
  O  O271  1  0.62974810  0.49705921  0.24119021  1
  O  O272  1  0.62008762  0.48829673  0.73900807  1
  O  O273  1  0.63444084  0.99937528  0.24394860  1
  O  O274  1  0.64506867  0.98729659  0.76313529  1
  O  O275  1  0.37591550  0.01424606  0.24506241  1
  O  O276  1  0.36458549  0.01080181  0.76070648  1
  O  O277  1  0.36866856  0.50651159  0.25786437  1
  O  O278  1  0.37881380  0.46714954  0.75754596  1
  O  O279  1  0.87100480  -0.00109173  0.26149096  1
  O  O280  1  0.86638382  0.00255642  0.75723083  1
  O  O281  1  0.86700801  0.50800910  0.25160846  1
  O  O282  1  0.87381977  0.51273832  0.75123122  1
  O  O283  1  0.12225780  0.36652699  0.36354255  1
  O  O284  1  0.11895087  0.37005365  0.86716424  1
  O  O285  1  0.11205905  0.87194767  0.36826350  1
  O  O286  1  0.12245154  0.86500725  0.87089704  1
  O  O287  1  0.62593506  0.38207360  0.35948285  1
  O  O288  1  0.63362733  0.35246478  0.86234543  1
  O  O289  1  0.61997821  0.86588108  0.37576893  1
  O  O290  1  0.62058596  0.86772861  0.87293680  1
  O  O291  1  0.38013929  0.13040030  0.13200459  1
  O  O292  1  0.37489321  0.12263977  0.64132310  1
  O  O293  1  0.38776898  0.62088685  0.13284474  1
  O  O294  1  0.36383033  0.61657665  0.63377614  1
  O  O295  1  0.86876351  0.14143960  0.11949921  1
  O  O296  1  0.88451762  0.12385291  0.63055705  1
  O  O297  1  0.88728010  0.62285311  0.13514207  1
  O  O298  1  0.88055344  0.62355837  0.64149838  1
  O  O299  1  0.25334065  0.25329145  0.12190285  1
  O  O300  1  0.24196700  0.26196566  0.61289390  1
  O  O301  1  0.24377346  0.75370243  0.11024195  1
  O  O302  1  0.24976013  0.75345343  0.61744337  1
  O  O303  1  0.75388722  0.26559283  0.12821183  1
  O  O304  1  0.75250141  0.25124666  0.60952498  1
  O  O305  1  0.74652361  0.76516312  0.11678224  1
  O  O306  1  0.74945896  0.75048126  0.61185082  1
  O  O307  1  0.23808560  0.25286080  0.38069385  1
  O  O308  1  0.23929498  0.24243518  0.88813838  1
  O  O309  1  0.24322368  0.75531701  0.38927529  1
  O  O310  1  0.24475854  0.74300696  0.88504296  1
  O  O311  1  0.74516701  0.25330139  0.38829731  1
  O  O312  1  0.74147209  0.23389776  0.86718100  1
  O  O313  1  0.74083647  0.75530558  0.38021394  1
  O  O314  1  0.73952559  0.75639945  0.88522595  1
  O  O315  1  -0.00130846  0.12412491  0.00351651  1
  O  O316  1  0.00415766  0.12304926  0.51322394  1
  O  O317  1  -0.00247096  0.61861788  0.00575201  1
  O  O318  1  0.00550066  0.61953644  0.50231072  1
  O  O319  1  0.50250796  0.12162962  0.01048606  1
  O  O320  1  0.50836845  0.11606678  0.50083316  1
  O  O321  1  0.50745746  0.62699314  0.00750312  1
  O  O322  1  0.51094309  0.63485345  0.49734409  1
  O  O323  1  0.48552316  0.36661227  0.50294324  1
  O  O324  1  0.48153075  0.37244789  1.01256926  1
  O  O325  1  0.49590704  0.86734737  0.49559726  1
  O  O326  1  0.49760362  0.87929027  0.99553210  1
  O  O327  1  0.99273645  0.38176139  0.49737662  1
  O  O328  1  0.98970880  0.38261901  0.99582970  1
  O  O329  1  0.99086006  0.87509810  0.49093625  1
  O  O330  1  0.99220148  0.87556724  0.99336633  1
  O  O331  1  0.48810972  0.50161530  0.36799782  1
  O  O332  1  0.54640787  0.48793472  0.89863085  1
  O  O333  1  0.49436654  0.98438411  0.36780070  1
  O  O334  1  0.49403600  0.99544527  0.87830806  1
  O  O335  1  0.99965340  0.49888082  0.38787238  1
  O  O336  1  0.99783727  0.49261211  0.88402983  1
  O  O337  1  0.99094008  0.99253514  0.37436721  1
  O  O338  1  0.98807057  0.99406415  0.87274169  1
  O  O339  1  0.01382858  0.00133759  0.12266095  1
  O  O340  1  0.00928417  0.00659891  0.62567166  1
  O  O341  1  -0.00157246  0.50707919  0.11705132  1
  O  O342  1  0.01132701  0.49984361  0.61256382  1
  O  O343  1  0.50679528  0.00573356  0.11873977  1
  O  O344  1  0.51218571  0.01519259  0.67623557  1
  O  O345  1  0.50860172  0.51028904  0.11891090  1
  O  O346  1  0.51399461  0.50072001  0.61688050  1
  O  O347  1  0.24266524  0.38203642  0.24723010  1
  O  O348  1  0.23532335  0.36642491  0.73730842  1
  O  O349  1  0.23697798  0.85579683  0.23306037  1
  O  O350  1  0.24664499  0.87846065  0.74816411  1
  O  O351  1  0.74014569  0.38440781  0.24379631  1
  O  O352  1  0.73443648  0.36597886  0.74076780  1
  O  O353  1  0.75164067  0.88147865  0.23993419  1
  O  O354  1  0.74677580  0.88443790  0.75311896  1
  O  O355  1  0.26121305  0.12342420  0.24854059  1
  O  O356  1  0.25477809  0.12560116  0.75883763  1
  O  O357  1  0.25675074  0.62094779  0.24941260  1
  O  O358  1  0.25077829  0.62469456  0.76977687  1
  O  O359  1  0.74773729  0.11499375  0.24364595  1
  O  O360  1  0.75186691  0.11361691  0.75401136  1
  O  O361  1  0.75974329  0.61915568  0.23988444  1
  O  O362  1  0.76156133  0.63087181  0.74778262  1
  O  O363  1  0.37753748  0.12091407  0.35995975  1
  O  O364  1  0.36056259  0.12367431  0.87209128  1
  O  O365  1  0.37322608  0.61459364  0.36810770  1
  O  O366  1  0.36360702  0.61860835  0.87726515  1
  O  O367  1  0.88164684  0.10889859  0.38102433  1
  O  O368  1  0.86669400  0.11895500  0.86907000  1
  O  O369  1  0.88121858  0.62373938  0.35855258  1
  O  O370  1  0.88147677  0.62220060  0.85707152  1
  O  O371  1  0.12868343  0.37610981  0.13826173  1
  O  O372  1  0.12838635  0.37981382  0.63011265  1
  O  O373  1  0.13060674  0.88111222  0.13034051  1
  O  O374  1  0.13120791  0.88518866  0.63111814  1
  O  O375  1  0.63105073  0.38369961  0.12857162  1
  O  O376  1  0.62353288  0.38108111  0.62802398  1
  O  O377  1  0.63527068  0.88444330  0.12543236  1
  O  O378  1  0.62478435  0.87058918  0.63813075  1
  O  O379  1  0.11655619  0.25640284  0.25473843  1
  O  O380  1  0.11635223  0.25715927  0.75621820  1
  O  O381  1  0.11314553  0.75801859  0.25481818  1
  O  O382  1  0.12205897  0.75405620  0.75793341  1
  O  O383  1  0.62623688  0.26739106  0.24942647  1
  O  O384  1  0.61224980  0.24772958  0.75351854  1
  O  O385  1  0.62102822  0.75130494  0.25815511  1
  O  O386  1  0.62193476  0.75463920  0.75823443  1
  O  O387  1  0.37209153  0.24052109  0.24130727  1
  O  O388  1  0.38521156  0.25416832  0.75398408  1
  O  O389  1  0.38359275  0.73784135  0.25845375  1
  O  O390  1  0.39174227  0.75249417  0.75267261  1
  O  O391  1  0.88088532  0.26047035  0.24108560  1
  O  O392  1  0.88030126  0.24425573  0.74822423  1
  O  O393  1  0.88613277  0.74606777  0.25210692  1
  O  O394  1  0.88519286  0.74108234  0.75521218  1
  O  O395  1  0.37043317  0.48752863  0.48151955  1
  O  O396  1  0.37177114  0.48293281  1.00587197  1
  O  O397  1  0.37166800  0.98451845  0.50174134  1
  O  O398  1  0.38067661  0.99389623  0.99623007  1
  O  O399  1  0.88153670  0.49570182  0.50142616  1
  O  O400  1  0.88150312  0.49431523  0.99892413  1
  O  O401  1  0.87446379  0.98847877  0.48890536  1
  O  O402  1  0.87587276  0.99211208  0.99186435  1
  O  O403  1  0.12257256  -0.00771248  0.01290585  1
  O  O404  1  0.12391515  0.00106786  0.50957878  1
  O  O405  1  0.11033811  0.49867173  0.00467745  1
  O  O406  1  0.11887885  0.50436317  0.50282422  1
  O  O407  1  0.61934489  0.01023599  0.00347850  1
  O  O408  1  0.63153855  0.00569356  0.49811639  1
  O  O409  1  0.64278042  0.51462783  0.01960491  1
  O  O410  1  0.62858036  0.51605723  0.50184624  1
  O  O411  1  0.36640417  0.36624320  0.12567348  1
  O  O412  1  0.36437868  0.37864396  0.60283597  1
  O  O413  1  0.36514852  0.87915758  0.11863711  1
  O  O414  1  0.37199443  0.87071654  0.62303142  1
  O  O415  1  0.86569119  0.37105737  0.11833990  1
  O  O416  1  0.87517871  0.37411962  0.61209659  1
  O  O417  1  0.87023764  0.88147390  0.11288538  1
  O  O418  1  0.88243206  0.88000941  0.60811257  1
  O  O419  1  0.11991292  0.13403792  0.37336115  1
  O  O420  1  0.13593108  0.12972654  0.87045269  1
  O  O421  1  0.12703421  0.63421543  0.38076470  1
  O  O422  1  0.13058459  0.63375875  0.87781411  1
  O  O423  1  0.62471753  0.12331862  0.39102274  1
  O  O424  1  0.62826475  0.13002358  0.88013672  1
  O  O425  1  0.62479991  0.63275476  0.38746383  1
  O  O426  1  0.62444776  0.63557172  0.88998830  1
