# generated using pymatgen
data_V85Zn86O256
_symmetry_space_group_name_H-M   'P 1'
_cell_length_a   16.95557634
_cell_length_b   16.95317677
_cell_length_c   16.97035017
_cell_angle_alpha   90.09748196
_cell_angle_beta   89.99931091
_cell_angle_gamma   89.99941539
_symmetry_Int_Tables_number   1
_chemical_formula_structural   V85Zn86O256
_chemical_formula_sum   'V85 Zn86 O256'
_cell_volume   4878.13507967
_cell_formula_units_Z   1
loop_
 _symmetry_equiv_pos_site_id
 _symmetry_equiv_pos_as_xyz
  1  'x, y, z'
loop_
 _atom_site_type_symbol
 _atom_site_label
 _atom_site_symmetry_multiplicity
 _atom_site_fract_x
 _atom_site_fract_y
 _atom_site_fract_z
 _atom_site_occupancy
  V  V0  1  0.24635858  0.12840311  0.37846213  1
  V  V1  1  0.63133026  0.49024624  0.62111758  1
  V  V2  1  0.87152355  0.37478497  0.49556404  1
  V  V3  1  0.62465757  0.11889547  0.00176036  1
  V  V4  1  0.87472977  0.00226480  0.36885716  1
  V  V5  1  0.74772435  0.75320739  -0.00030329  1
  V  V6  1  0.50296630  0.76052104  0.25360879  1
  V  V7  1  0.37047834  0.13426219  0.74417207  1
  V  V8  1  0.24909956  0.87449136  0.12656334  1
  V  V9  1  0.50011177  0.62514343  0.12630996  1
  V  V10  1  -0.00066585  0.24256169  0.74909282  1
  V  V11  1  0.88087250  0.88134467  0.00094008  1
  V  V12  1  0.12849897  0.63620391  0.49787866  1
  V  V13  1  -0.00303933  0.24156041  0.25421913  1
  V  V14  1  0.12232735  0.12802592  0.50337687  1
  V  V15  1  0.49913029  -0.00013527  0.50878053  1
  V  V16  1  0.11949652  0.49812276  0.62470186  1
  V  V17  1  0.62454078  0.76159602  0.37265106  1
  V  V18  1  0.37411680  0.74899428  0.12558898  1
  V  V19  1  0.24483888  0.12513765  0.88981108  1
  V  V20  1  -0.00094369  0.11879862  0.11195149  1
  V  V21  1  0.62415229  0.50245866  0.12657286  1
  V  V22  1  0.87258307  0.76125077  0.62327831  1
  V  V23  1  0.50163958  0.12375928  0.12644325  1
  V  V24  1  0.12140014  0.00099695  0.11866589  1
  V  V25  1  0.25880211  0.26395572  0.51479588  1
  V  V26  1  -0.00040625  0.50687530  0.00306026  1
  V  V27  1  -0.00227519  0.63162249  0.62466768  1
  V  V28  1  0.00360424  0.88129333  0.87675243  1
  V  V29  1  0.24980960  0.86767550  0.61508097  1
  V  V30  1  0.37501530  0.74711356  0.62004948  1
  V  V31  1  -0.00186177  -0.00214699  0.49470657  1
  V  V32  1  0.62028207  0.37875488  0.76253956  1
  V  V33  1  0.37517006  0.87124268  -0.00044370  1
  V  V34  1  0.00032960  0.37562821  0.87439544  1
  V  V35  1  0.87801645  0.63164083  0.74849324  1
  V  V36  1  0.75388682  0.49773650  0.74593955  1
  V  V37  1  0.25015117  0.74724512  -0.00235981  1
  V  V38  1  0.37370702  0.62192767  0.25127143  1
  V  V39  1  0.11956637  0.25839872  0.37937130  1
  V  V40  1  0.50004065  -0.00109428  0.00057594  1
  V  V41  1  0.12318432  0.86453735  0.74703401  1
  V  V42  1  0.50557535  0.62571982  0.62142562  1
  V  V43  1  0.12272041  0.86162203  0.25528209  1
  V  V44  1  0.74555610  0.25239347  -0.00301177  1
  V  V45  1  0.12307790  0.62439293  0.00348308  1
  V  V46  1  0.25049549  0.63423825  0.38288376  1
  V  V47  1  -0.00196498  0.86187283  0.37551137  1
  V  V48  1  0.37782361  0.63027429  0.75202223  1
  V  V49  1  0.75426646  0.76361732  0.50255707  1
  V  V50  1  0.63603426  0.88631869  0.74398531  1
  V  V51  1  0.00163849  0.49479849  0.49117014  1
  V  V52  1  0.12364219  -0.00149105  0.62301363  1
  V  V53  1  0.37367056  0.49077126  0.37561017  1
  V  V54  1  0.87537515  0.50379290  0.87410704  1
  V  V55  1  0.25013798  0.62076755  0.87038263  1
  V  V56  1  0.62253829  0.13249043  0.50398295  1
  V  V57  1  0.12679187  0.37505075  0.74773082  1
  V  V58  1  0.27156001  0.48572090  0.72563154  1
  V  V59  1  0.74951733  0.37612587  0.12688768  1
  V  V60  1  0.87437023  0.37781654  0.00177807  1
  V  V61  1  0.50077425  0.49296962  0.49719147  1
  V  V62  1  0.49677202  0.25496767  0.25222976  1
  V  V63  1  0.37680123  -0.00079670  0.37806668  1
  V  V64  1  0.89113940  0.62760630  0.24486244  1
  V  V65  1  0.75354000  0.50548412  0.24877649  1
  V  V66  1  0.86661053  0.25429309  0.63112136  1
  V  V67  1  0.12068323  0.37358859  0.25046055  1
  V  V68  1  0.38178293  0.49402732  0.87975285  1
  V  V69  1  0.88931539  0.74904882  0.12619539  1
  V  V70  1  0.37084612  0.12296448  0.25293504  1
  V  V71  1  0.12576150  0.24738933  0.88907839  1
  V  V72  1  0.37222787  -0.00317211  0.87354689  1
  V  V73  1  0.51359220  0.75159306  0.75220153  1
  V  V74  1  0.36164097  0.24744222  0.11830963  1
  V  V75  1  0.75235373  0.12900313  0.37194725  1
  V  V76  1  0.75131599  0.12003861  0.86817069  1
  V  V77  1  0.62455770  0.62853141  -0.00626897  1
  V  V78  1  0.12276043  0.50185797  0.12604468  1
  V  V79  1  0.50828797  0.87179298  0.87481106  1
  V  V80  1  0.24892251  -0.00223510  0.74921422  1
  V  V81  1  0.11791436  0.74426687  0.87000350  1
  V  V82  1  0.75255652  0.62737374  0.37567825  1
  V  V83  1  0.37942444  0.86871157  0.49569108  1
  V  V84  1  0.87308019  0.24381618  0.13088311  1
  Zn  Zn85  1  0.88021638  0.49595689  0.36962911  1
  Zn  Zn86  1  0.50445419  0.48954945  -0.00206141  1
  Zn  Zn87  1  0.24780440  0.49577836  0.25091077  1
  Zn  Zn88  1  0.48617624  0.26479856  0.75307841  1
  Zn  Zn89  1  0.64338653  0.00405712  0.62612091  1
  Zn  Zn90  1  0.49927111  0.37164927  0.38064166  1
  Zn  Zn91  1  0.62495480  0.25564671  0.37697032  1
  Zn  Zn92  1  0.62383511  0.37626841  0.25303836  1
  Zn  Zn93  1  0.67144664  0.92029371  0.27577122  1
  Zn  Zn94  1  0.62955748  0.62680355  0.49917635  1
  Zn  Zn95  1  0.73655369  -0.11207636  0.12540397  1
  Zn  Zn96  1  -0.00902462  0.12039707  0.62951287  1
  Zn  Zn97  1  0.49603768  0.13523525  0.62736162  1
  Zn  Zn98  1  0.74691021  0.63105308  0.87178951  1
  Zn  Zn99  1  0.74498779  0.25895780  0.50199979  1
  Zn  Zn100  1  0.24331606  0.37017850  0.11225763  1
  Zn  Zn101  1  0.61063701  0.25413133  0.88013468  1
  Zn  Zn102  1  0.88299570  0.00601018  0.87069767  1
  Zn  Zn103  1  0.79518968  0.04533234  0.21038886  1
  Zn  Zn104  1  0.37470329  0.36361908  -0.00718662  1
  Zn  Zn105  1  0.24506582  -0.00162869  0.25280680  1
  Zn  Zn106  1  0.81096214  0.05899871  0.70608568  1
  Zn  Zn107  1  0.18086190  0.18271475  0.18885672  1
  Zn  Zn108  1  0.18585445  0.18700274  0.69018699  1
  Zn  Zn109  1  0.18810050  0.68339736  0.18874803  1
  Zn  Zn110  1  0.19046820  0.68235167  0.68301477  1
  Zn  Zn111  1  0.68104342  0.18889406  0.18755969  1
  Zn  Zn112  1  0.68092634  0.19605531  0.68489228  1
  Zn  Zn113  1  0.69157662  0.69579655  0.18545005  1
  Zn  Zn114  1  0.69106022  0.68693489  0.68580273  1
  Zn  Zn115  1  0.30609598  0.31038737  0.31157418  1
  Zn  Zn116  1  0.30435030  0.31174506  0.81999684  1
  Zn  Zn117  1  0.31384438  0.81266438  0.31167578  1
  Zn  Zn118  1  0.31176837  0.81053608  0.81068911  1
  Zn  Zn119  1  0.81236467  0.31412026  0.31466986  1
  Zn  Zn120  1  0.80918586  0.31462332  0.81248441  1
  Zn  Zn121  1  0.81979447  0.81170669  0.31164990  1
  Zn  Zn122  1  0.81471528  0.81230076  0.81521054  1
  Zn  Zn123  1  0.18874359  0.43976898  0.43757402  1
  Zn  Zn124  1  0.19393630  0.43557620  0.93388176  1
  Zn  Zn125  1  0.18624849  0.93685221  0.43533346  1
  Zn  Zn126  1  0.18584911  0.93507469  0.93746054  1
  Zn  Zn127  1  0.68845797  0.43770328  0.43393422  1
  Zn  Zn128  1  0.69121306  0.44477517  0.93814170  1
  Zn  Zn129  1  0.69040335  0.94480280  0.44655347  1
  Zn  Zn130  1  0.68878173  0.93770259  0.93862664  1
  Zn  Zn131  1  0.31433216  0.05610218  0.06704668  1
  Zn  Zn132  1  0.30758600  0.06166416  0.56182754  1
  Zn  Zn133  1  0.30677000  0.55944305  0.06321104  1
  Zn  Zn134  1  0.31753388  0.54459715  0.56550717  1
  Zn  Zn135  1  0.81793015  0.06452630  0.04653313  1
  Zn  Zn136  1  0.81466741  0.06779678  0.54635688  1
  Zn  Zn137  1  0.81248996  0.56904439  0.06387084  1
  Zn  Zn138  1  0.81385309  0.56349657  0.56043312  1
  Zn  Zn139  1  0.43482042  0.43475408  0.18161427  1
  Zn  Zn140  1  0.44277506  0.44313030  0.68754600  1
  Zn  Zn141  1  0.53795777  0.93955002  0.18308565  1
  Zn  Zn142  1  0.43793457  0.93709928  0.68595454  1
  Zn  Zn143  1  0.94058335  0.43454391  0.18814708  1
  Zn  Zn144  1  0.93839407  0.43551830  0.68373773  1
  Zn  Zn145  1  0.94064934  0.93112840  0.18929391  1
  Zn  Zn146  1  0.94329729  0.93598493  0.69097938  1
  Zn  Zn147  1  0.06286859  0.06032018  0.30726073  1
  Zn  Zn148  1  0.06616934  0.06193853  0.81292916  1
  Zn  Zn149  1  0.06772203  0.56462080  0.31528972  1
  Zn  Zn150  1  0.06094969  0.56118169  0.80908533  1
  Zn  Zn151  1  0.55646510  0.07226093  0.32365086  1
  Zn  Zn152  1  0.56036714  0.06540106  0.81503433  1
  Zn  Zn153  1  0.56406701  0.56766040  0.31356809  1
  Zn  Zn154  1  0.56275509  0.56140269  0.81194841  1
  Zn  Zn155  1  0.43528858  0.19023201  0.44203755  1
  Zn  Zn156  1  0.43664752  0.18608626  0.93183102  1
  Zn  Zn157  1  0.44017570  0.68401782  0.43569074  1
  Zn  Zn158  1  0.44152161  0.68581626  0.93681737  1
  Zn  Zn159  1  0.93596732  0.18806397  0.43918508  1
  Zn  Zn160  1  0.93425244  0.19214879  0.93787427  1
  Zn  Zn161  1  0.93419351  0.68336453  0.44024702  1
  Zn  Zn162  1  0.93653262  0.69153143  0.93725238  1
  Zn  Zn163  1  0.05630942  0.31529164  0.06664100  1
  Zn  Zn164  1  0.05872547  0.31355020  0.56490070  1
  Zn  Zn165  1  0.06521464  0.81426704  0.06141170  1
  Zn  Zn166  1  0.05864993  0.81158253  0.55954888  1
  Zn  Zn167  1  0.55693158  0.31243921  0.06322779  1
  Zn  Zn168  1  0.55564469  0.31041475  0.57188814  1
  Zn  Zn169  1  0.56510013  0.80974827  0.06403753  1
  Zn  Zn170  1  0.56578462  0.81507927  0.56220177  1
  O  O171  1  0.11031656  0.11669795  0.12636042  1
  O  O172  1  0.12243728  0.11721992  0.61818770  1
  O  O173  1  0.12805132  0.61646891  0.11530985  1
  O  O174  1  0.11287717  0.62337944  0.61888212  1
  O  O175  1  0.61234025  0.13031231  0.11492990  1
  O  O176  1  0.62274476  0.12497607  0.61634155  1
  O  O177  1  0.62159721  0.62051153  0.11852466  1
  O  O178  1  0.61543058  0.61902111  0.62647045  1
  O  O179  1  0.37624937  0.38754015  0.36524828  1
  O  O180  1  0.37326184  0.39122001  0.86964809  1
  O  O181  1  0.36530494  0.88548239  0.38604835  1
  O  O182  1  0.38137813  0.87803468  0.87869722  1
  O  O183  1  0.87758324  0.37632022  0.39003536  1
  O  O184  1  0.87908559  0.38252859  0.88214203  1
  O  O185  1  0.89264337  0.88235456  0.37228648  1
  O  O186  1  0.88922690  0.87147670  0.88007793  1
  O  O187  1  0.25697709  0.01266919  0.37923448  1
  O  O188  1  0.24968422  0.00241730  0.86640621  1
  O  O189  1  0.25877968  0.50629167  0.37207487  1
  O  O190  1  0.26169870  0.50622024  0.85968887  1
  O  O191  1  0.76140995  0.00815019  0.37951980  1
  O  O192  1  0.74961459  0.01738797  0.87808277  1
  O  O193  1  0.75384881  0.50907206  0.36481470  1
  O  O194  1  0.75986665  0.50766556  0.86845074  1
  O  O195  1  0.23553301  0.49740757  0.12903618  1
  O  O196  1  0.22334884  0.52440394  0.62932163  1
  O  O197  1  0.24282588  0.99119163  0.12978231  1
  O  O198  1  0.24341412  0.98945742  0.63107862  1
  O  O199  1  0.74451036  0.49903645  0.13077362  1
  O  O200  1  0.74213591  0.50868473  0.63286069  1
  O  O201  1  0.75787464  1.00225500  0.11767363  1
  O  O202  1  0.75666711  1.00980821  0.62203107  1
  O  O203  1  0.01139674  0.36034291  0.24324444  1
  O  O204  1  0.00831893  0.37016684  0.75550048  1
  O  O205  1  0.01227631  0.87362961  0.26252536  1
  O  O206  1  0.01812476  0.87169640  0.75615022  1
  O  O207  1  0.49743262  0.36244930  0.24685216  1
  O  O208  1  0.51602497  0.38553577  0.75081068  1
  O  O209  1  0.48536379  0.85818963  0.24999727  1
  O  O210  1  0.50454809  0.86865762  0.75600160  1
  O  O211  1  0.48904919  0.13482059  0.24480991  1
  O  O212  1  0.47575073  0.11510851  0.75145136  1
  O  O213  1  0.49100663  0.62970942  0.24444744  1
  O  O214  1  0.49818185  0.63351206  0.74444333  1
  O  O215  1  1.00335548  0.13821213  0.24082780  1
  O  O216  1  1.00706903  0.13947279  0.75060799  1
  O  O217  1  0.98995313  0.62169824  0.25498545  1
  O  O218  1  0.99011932  0.62010594  0.73793437  1
  O  O219  1  0.37452156  0.23991843  0.01671356  1
  O  O220  1  0.35771357  0.24832263  0.50137182  1
  O  O221  1  0.36964221  0.75101670  0.00359805  1
  O  O222  1  0.38420696  0.75979887  0.50421860  1
  O  O223  1  0.86644172  0.25660390  0.01148955  1
  O  O224  1  0.87679947  0.26218329  0.50901735  1
  O  O225  1  0.86946561  0.75513529  0.00845572  1
  O  O226  1  0.86232244  0.74635388  0.50745874  1
  O  O227  1  0.12486957  0.24450718  0.49457749  1
  O  O228  1  0.11489362  0.25655850  0.98742047  1
  O  O229  1  0.12572056  0.73534889  0.50474057  1
  O  O230  1  0.13062080  0.74288701  0.99154973  1
  O  O231  1  0.62459342  0.24640331  0.50203842  1
  O  O232  1  0.63093628  0.24377525  1.00123935  1
  O  O233  1  0.63587443  0.74925224  0.49354338  1
  O  O234  1  0.63718371  0.74297052  1.00294145  1
  O  O235  1  0.48710020  0.23853945  0.13248136  1
  O  O236  1  0.49687759  0.24891539  0.64211759  1
  O  O237  1  0.49248511  0.74200750  0.13216171  1
  O  O238  1  0.49706573  0.74317979  0.63110088  1
  O  O239  1  0.99154879  0.23973563  0.12960415  1
  O  O240  1  0.99209743  0.24767284  0.63455509  1
  O  O241  1  0.98822384  0.74742383  0.11696301  1
  O  O242  1  0.98984416  0.73865093  0.61698014  1
  O  O243  1  0.00809052  0.24399259  0.36774975  1
  O  O244  1  0.00211549  0.25654737  0.86824807  1
  O  O245  1  -0.00407853  0.76326163  0.38312239  1
  O  O246  1  0.01424338  0.75425490  0.87569262  1
  O  O247  1  0.49691831  0.25142982  0.36609716  1
  O  O248  1  0.49861965  0.24659407  0.86370481  1
  O  O249  1  0.51351814  0.74275329  0.36721370  1
  O  O250  1  0.49577902  0.75921504  0.86370043  1
  O  O251  1  0.23764608  0.13073116  0.49607942  1
  O  O252  1  0.25244407  0.11304295  0.98780097  1
  O  O253  1  0.24503702  0.61678812  0.48959656  1
  O  O254  1  0.24216965  0.62804606  0.99112747  1
  O  O255  1  0.73992673  0.13374654  0.48872767  1
  O  O256  1  0.74021451  0.13487605  0.99319546  1
  O  O257  1  0.75078624  0.63073587  0.48876900  1
  O  O258  1  0.74234048  0.63486708  0.99935630  1
  O  O259  1  0.26161933  0.37781378  -0.00041854  1
  O  O260  1  0.24473478  0.36282167  0.49956682  1
  O  O261  1  0.25422501  0.86514633  0.00310761  1
  O  O262  1  0.25554151  0.87868108  0.51064184  1
  O  O263  1  0.75326562  0.37041219  0.00624053  1
  O  O264  1  0.76643651  0.37902230  0.49943540  1
  O  O265  1  0.75764748  0.86738903  0.00063084  1
  O  O266  1  0.75148389  0.86206183  0.49915594  1
  O  O267  1  0.12096168  0.49189530  0.24257568  1
  O  O268  1  0.12867429  0.49210337  0.74249855  1
  O  O269  1  0.12630036  0.98983116  0.23971895  1
  O  O270  1  0.13427720  0.99076884  0.74410697  1
  O  O271  1  0.63353897  0.50488132  0.23949939  1
  O  O272  1  0.63293286  0.49605374  0.74505331  1
  O  O273  1  0.60246645  1.00098604  0.25364628  1
  O  O274  1  0.62045687  0.98994551  0.74852975  1
  O  O275  1  0.36951709  0.01560703  0.26257116  1
  O  O276  1  0.36055967  -0.00320401  0.75418788  1
  O  O277  1  0.37470554  0.50943525  0.25351708  1
  O  O278  1  0.38331849  0.51655475  0.76603157  1
  O  O279  1  0.88590151  0.00211822  0.26360784  1
  O  O280  1  0.89275248  0.00741836  0.75856534  1
  O  O281  1  0.87086045  0.50713765  0.24784012  1
  O  O282  1  0.87019554  0.50693431  0.75114776  1
  O  O283  1  0.12590516  0.36457709  0.36967974  1
  O  O284  1  0.11878273  0.37041410  0.86750052  1
  O  O285  1  0.11867336  0.87720091  0.36279776  1
  O  O286  1  0.12411936  0.86343794  0.86706609  1
  O  O287  1  0.61887240  0.37483237  0.37022281  1
  O  O288  1  0.62709569  0.38160662  0.86550689  1
  O  O289  1  0.63493804  0.86502955  0.37602786  1
  O  O290  1  0.61267986  0.88081525  0.86721243  1
  O  O291  1  0.37562333  0.13086299  0.13509436  1
  O  O292  1  0.36677744  0.11861989  0.64223387  1
  O  O293  1  0.37690993  0.62750396  0.13282680  1
  O  O294  1  0.38821293  0.62468949  0.63183310  1
  O  O295  1  0.88317349  0.13100516  0.12385503  1
  O  O296  1  0.87568274  0.14224968  0.62188430  1
  O  O297  1  0.87508870  0.63748511  0.13132370  1
  O  O298  1  0.88096663  0.63093963  0.63002351  1
  O  O299  1  0.25895011  0.24325660  0.12861525  1
  O  O300  1  0.24167939  0.24938970  0.61300031  1
  O  O301  1  0.25434617  0.75220811  0.11869184  1
  O  O302  1  0.26090529  0.75714454  0.62945965  1
  O  O303  1  0.75498130  0.25289043  0.11803572  1
  O  O304  1  0.76341807  0.25292935  0.62446436  1
  O  O305  1  0.76067783  0.75254073  0.11121618  1
  O  O306  1  0.75576000  0.74531973  0.61016615  1
  O  O307  1  0.24006310  0.24201103  0.38371208  1
  O  O308  1  0.23878524  0.23724890  0.87612469  1
  O  O309  1  0.25937748  0.73278237  0.37683875  1
  O  O310  1  0.24259258  0.74106241  0.87720185  1
  O  O311  1  0.74842380  0.24494947  0.37917633  1
  O  O312  1  0.74783480  0.24803787  0.88840061  1
  O  O313  1  0.74950391  0.74602495  0.38399314  1
  O  O314  1  0.75909567  0.74698017  0.89389487  1
  O  O315  1  -0.00448275  0.12818047  0.01321523  1
  O  O316  1  0.01113325  0.11923999  0.50073513  1
  O  O317  1  0.00537176  0.61300473  -0.00754232  1
  O  O318  1  0.00677626  0.61732985  0.50486063  1
  O  O319  1  0.50545958  0.12135544  0.00608446  1
  O  O320  1  0.50508343  0.12088578  0.50455827  1
  O  O321  1  0.50927919  0.62614509  0.00952797  1
  O  O322  1  0.50570581  0.61737834  0.50744541  1
  O  O323  1  0.50301885  0.38925613  0.50265544  1
  O  O324  1  0.48587287  0.37851031  1.01006247  1
  O  O325  1  0.49034954  0.88437524  0.50462533  1
  O  O326  1  0.49572112  0.87581560  0.99166525  1
  O  O327  1  0.99051668  0.38575543  0.50477932  1
  O  O328  1  0.99293956  0.38641264  0.99546242  1
  O  O329  1  1.01288384  0.88480879  0.48397831  1
  O  O330  1  0.99320624  0.86639996  0.98875603  1
  O  O331  1  0.49432913  0.50189716  0.38138726  1
  O  O332  1  0.48592417  0.50924152  0.88025418  1
  O  O333  1  0.48139728  1.00974070  0.39074267  1
  O  O334  1  0.49201861  0.99229987  0.88088329  1
  O  O335  1  0.99911636  0.50504138  0.38762174  1
  O  O336  1  0.99523911  0.49424400  0.88101568  1
  O  O337  1  0.99767535  0.99601934  0.37938815  1
  O  O338  1  1.01102839  0.98410445  0.87572952  1
  O  O339  1  0.00299588  0.01259637  0.12947610  1
  O  O340  1  0.00743952  -0.00057952  0.61384112  1
  O  O341  1  0.01103874  0.49526537  0.11522185  1
  O  O342  1  0.00497961  0.51009924  0.61759694  1
  O  O343  1  0.48648892  0.01662773  0.11496056  1
  O  O344  1  0.49626187  0.00657287  0.61487152  1
  O  O345  1  0.50843624  0.50749829  0.12621072  1
  O  O346  1  0.51018730  0.50840654  0.61707031  1
  O  O347  1  0.23285372  0.37351483  0.24695557  1
  O  O348  1  0.23679754  0.38168759  0.75521943  1
  O  O349  1  0.24037576  0.87513752  0.24710911  1
  O  O350  1  0.24265974  0.87883648  0.74188511  1
  O  O351  1  0.75185237  0.38971209  0.24484785  1
  O  O352  1  0.74260450  0.39181114  0.75496410  1
  O  O353  1  0.76365282  0.87569175  0.23987160  1
  O  O354  1  0.73309025  0.87165457  0.75987205  1
  O  O355  1  0.25240376  0.12518484  0.26211990  1
  O  O356  1  0.25436453  0.11446955  0.75597167  1
  O  O357  1  0.25693366  0.62138543  0.26118085  1
  O  O358  1  0.26362362  0.61528624  0.74923542  1
  O  O359  1  0.74331857  0.13024224  0.26468514  1
  O  O360  1  0.74452555  0.13647797  0.76520227  1
  O  O361  1  0.75839083  0.61815105  0.25243287  1
  O  O362  1  0.75707414  0.61699230  0.75230084  1
  O  O363  1  0.36439202  0.12284892  0.37271454  1
  O  O364  1  0.36226414  0.11512634  0.86620754  1
  O  O365  1  0.36791650  0.61669978  0.36907866  1
  O  O366  1  0.36924974  0.62491983  0.86729695  1
  O  O367  1  0.86467259  0.11823517  0.38031412  1
  O  O368  1  0.85614327  0.12739866  0.88439742  1
  O  O369  1  0.86613501  0.62500441  0.36477947  1
  O  O370  1  0.87845565  0.62101358  0.86434248  1
  O  O371  1  0.12500181  0.38111912  0.13165001  1
  O  O372  1  0.11709801  0.38614802  0.63478928  1
  O  O373  1  0.12813454  0.87702376  0.13646504  1
  O  O374  1  0.13130763  0.87447938  0.62968782  1
  O  O375  1  0.63187212  0.38536613  0.12852139  1
  O  O376  1  0.62551982  0.38827726  0.63525728  1
  O  O377  1  0.61966969  0.87680689  0.13293997  1
  O  O378  1  0.62243334  0.88042765  0.64005877  1
  O  O379  1  0.11733117  0.25400185  0.25887727  1
  O  O380  1  0.11774996  0.25864272  0.75610193  1
  O  O381  1  0.12788203  0.76264286  0.24657296  1
  O  O382  1  0.13411823  0.75323895  0.75743869  1
  O  O383  1  0.61032937  0.25313270  0.25092390  1
  O  O384  1  0.63245224  0.27417617  0.75414793  1
  O  O385  1  0.61623240  0.74531074  0.25870068  1
  O  O386  1  0.61667217  0.75790385  0.74533761  1
  O  O387  1  0.37594194  0.23924459  0.24609325  1
  O  O388  1  0.36379086  0.23644759  0.75379136  1
  O  O389  1  0.37951932  0.73753581  0.24757257  1
  O  O390  1  0.38355289  0.74174853  0.74401779  1
  O  O391  1  0.88114011  0.25767300  0.23793089  1
  O  O392  1  0.88228632  0.26042984  0.73918993  1
  O  O393  1  0.87571328  0.74248934  0.23417422  1
  O  O394  1  0.86589452  0.73792010  0.74096098  1
  O  O395  1  0.38764083  0.50522399  0.48656506  1
  O  O396  1  0.37430632  0.51007453  0.98449496  1
  O  O397  1  0.37746623  0.99268789  0.49729090  1
  O  O398  1  0.37960168  0.99090788  0.99326526  1
  O  O399  1  0.88311625  0.49056463  0.50046782  1
  O  O400  1  0.88161105  0.49959312  0.99725454  1
  O  O401  1  0.89246924  1.00391330  0.48769047  1
  O  O402  1  0.87767436  0.98463114  0.98867265  1
  O  O403  1  0.12581600  -0.01418834  0.01907346  1
  O  O404  1  0.11948418  0.00850572  0.50252620  1
  O  O405  1  0.11832622  0.50403437  0.00422745  1
  O  O406  1  0.11717879  0.50464569  0.50631525  1
  O  O407  1  0.61693037  0.01182245  -0.00539045  1
  O  O408  1  0.61447929  0.00904153  0.50342622  1
  O  O409  1  0.62645377  0.50851755  0.01192886  1
  O  O410  1  0.62249339  0.50395923  0.50680306  1
  O  O411  1  0.36638440  0.35461298  0.13234451  1
  O  O412  1  0.33760270  0.44596921  0.64853706  1
  O  O413  1  0.36447034  0.86351564  0.11499109  1
  O  O414  1  0.36792499  0.86920711  0.61663358  1
  O  O415  1  0.86908074  0.36856790  0.11942803  1
  O  O416  1  0.88031107  0.36361029  0.61465088  1
  O  O417  1  0.88199179  0.86413854  0.11557481  1
  O  O418  1  0.88406619  0.85957565  0.63090650  1
  O  O419  1  0.13012861  0.13196274  0.38168961  1
  O  O420  1  0.13368114  0.13356635  0.87251307  1
  O  O421  1  0.14114707  0.62122232  0.38269225  1
  O  O422  1  0.12981362  0.62777949  0.87808034  1
  O  O423  1  0.62959935  0.13143989  0.38956706  1
  O  O424  1  0.63309138  0.13006402  0.88274261  1
  O  O425  1  0.64057451  0.63408544  0.37354623  1
  O  O426  1  0.62511963  0.61981645  0.88996175  1
