# generated using pymatgen
data_V85Zn86O256
_symmetry_space_group_name_H-M   'P 1'
_cell_length_a   16.91997649
_cell_length_b   16.92349079
_cell_length_c   16.92138496
_cell_angle_alpha   89.95604600
_cell_angle_beta   90.03864618
_cell_angle_gamma   90.01879356
_symmetry_Int_Tables_number   1
_chemical_formula_structural   V85Zn86O256
_chemical_formula_sum   'V85 Zn86 O256'
_cell_volume   4845.35231258
_cell_formula_units_Z   1
loop_
 _symmetry_equiv_pos_site_id
 _symmetry_equiv_pos_as_xyz
  1  'x, y, z'
loop_
 _atom_site_type_symbol
 _atom_site_label
 _atom_site_symmetry_multiplicity
 _atom_site_fract_x
 _atom_site_fract_y
 _atom_site_fract_z
 _atom_site_occupancy
  V  V0  1  0.37750379  0.50313252  0.35678445  1
  V  V1  1  0.25606092  0.00316124  0.24780551  1
  V  V2  1  0.24368560  0.24764430  0.49279216  1
  V  V3  1  0.50430386  0.12975026  0.62041266  1
  V  V4  1  0.74999674  0.87322460  0.62458214  1
  V  V5  1  0.74701792  0.12664805  0.38587794  1
  V  V6  1  0.62261126  0.50284126  0.12202301  1
  V  V7  1  0.87824391  0.00243128  0.87248918  1
  V  V8  1  0.38273513  0.12644796  0.75376470  1
  V  V9  1  0.24109115  0.37625824  0.12818993  1
  V  V10  1  0.00078061  0.49917183  0.49942636  1
  V  V11  1  0.49611878  0.39193384  0.88131286  1
  V  V12  1  0.62353798  0.87053097  0.24664646  1
  V  V13  1  0.87021030  0.87556649  0.00242823  1
  V  V14  1  0.00206331  0.87436562  0.87714986  1
  V  V15  1  0.74483877  0.75466471  -0.00172213  1
  V  V16  1  0.37507637  0.37459701  0.49780950  1
  V  V17  1  0.12717765  0.87458083  0.75058555  1
  V  V18  1  0.87965164  0.38182948  -0.00382205  1
  V  V19  1  0.74865284  0.50103569  0.75281511  1
  V  V20  1  0.49126271  0.87871368  0.87106347  1
  V  V21  1  0.24815460  0.25129994  -0.00265517  1
  V  V22  1  0.74731752  0.62987577  0.87675683  1
  V  V23  1  0.38207054  0.75301989  0.13559945  1
  V  V24  1  0.62651781  0.00277871  0.61953536  1
  V  V25  1  0.12860362  0.00414451  0.62275154  1
  V  V26  1  0.49858286  0.63199205  0.14364860  1
  V  V27  1  0.86874752  0.50590729  0.37226098  1
  V  V28  1  0.61435332  0.62898246  -0.00225491  1
  V  V29  1  0.37334482  0.24764867  0.12679072  1
  V  V30  1  0.87416584  -0.00087970  0.37316255  1
  V  V31  1  -0.00040189  0.62513801  0.62579326  1
  V  V32  1  0.87816083  0.24953177  0.12765036  1
  V  V33  1  0.25672861  0.62968398  0.38056746  1
  V  V34  1  0.62865705  0.74222068  0.37070375  1
  V  V35  1  0.12326588  0.12004331  0.01042034  1
  V  V36  1  0.75087978  0.74002498  0.49693332  1
  V  V37  1  0.49999085  0.86834371  0.37279811  1
  V  V38  1  -0.00008022  0.74777926  0.75311711  1
  V  V39  1  0.37797625  0.25010388  0.62894669  1
  V  V40  1  0.86958407  0.37081775  0.49794245  1
  V  V41  1  0.49651554  0.24464092  0.25269020  1
  V  V42  1  0.62658290  -0.00369805  0.12109639  1
  V  V43  1  0.00557332  0.24457044  0.25293741  1
  V  V44  1  0.74882832  -0.00203839  0.24430117  1
  V  V45  1  0.12193811  0.87712341  0.24366301  1
  V  V46  1  0.87827513  0.12306395  0.24521250  1
  V  V47  1  0.74917649  0.12936360  0.86914223  1
  V  V48  1  0.61209033  0.24874887  0.87348165  1
  V  V49  1  0.25708326  0.49807458  0.75889582  1
  V  V50  1  0.87369218  0.87300744  0.49966326  1
  V  V51  1  0.12944567  0.75041010  0.37753449  1
  V  V52  1  0.00395243  -0.00038038  0.01403873  1
  V  V53  1  0.61770816  0.37161047  0.74983694  1
  V  V54  1  0.49051881  0.00178190  -0.00638299  1
  V  V55  1  0.74807022  0.36951589  0.62354745  1
  V  V56  1  0.49678886  0.12239911  0.12887014  1
  V  V57  1  0.75020014  0.37855377  0.12876004  1
  V  V58  1  0.50129462  0.37291047  0.36781327  1
  V  V59  1  0.50085014  0.62672024  0.62298527  1
  V  V60  1  0.25125175  0.86667806  0.61593557  1
  V  V61  1  -0.00079861  0.12761214  0.62596113  1
  V  V62  1  -0.00023575  -0.00120976  0.49887615  1
  V  V63  1  0.50068498  0.74786888  0.75517151  1
  V  V64  1  0.74750912  0.25146473  0.00133145  1
  V  V65  1  0.93416940  0.18509693  0.79173121  1
  V  V66  1  0.87290396  0.24470981  0.62151235  1
  V  V67  1  0.49985519  0.50105723  0.49735425  1
  V  V68  1  0.25181030  0.12118016  0.87491983  1
  V  V69  1  0.49887714  -0.00067719  0.49859007  1
  V  V70  1  -0.00079989  0.86704191  0.36956556  1
  V  V71  1  0.00587488  0.37024979  0.37621879  1
  V  V72  1  0.12672486  0.49858920  0.62572589  1
  V  V73  1  0.23580413  0.50766202  0.24692193  1
  V  V74  1  0.62737168  0.24498852  0.38647307  1
  V  V75  1  0.24809274  0.87610600  0.12157010  1
  V  V76  1  0.25848917  -0.00134866  0.75098653  1
  V  V77  1  0.87471275  0.74851474  0.12890257  1
  V  V78  1  0.62629098  0.87073782  0.75495990  1
  V  V79  1  0.13202246  0.73945543  0.88239414  1
  V  V80  1  0.01341801  0.50551373  -0.00076769  1
  V  V81  1  0.01003184  0.62375712  0.13171651  1
  V  V82  1  0.75429563  0.00207938  0.74953003  1
  V  V83  1  0.24986787  0.37375248  0.62644009  1
  V  V84  1  0.11094594  0.36730276  0.75529273  1
  Zn  Zn85  1  0.37909779  0.00524464  0.36865960  1
  Zn  Zn86  1  0.37736248  0.62191627  0.75655993  1
  Zn  Zn87  1  0.87357669  0.63512242  0.25552895  1
  Zn  Zn88  1  0.37117620  0.86791421  0.49284406  1
  Zn  Zn89  1  0.25029372  0.12781497  0.36665843  1
  Zn  Zn90  1  0.37319967  0.74411756  0.61913218  1
  Zn  Zn91  1  0.62646242  0.37383653  0.24847624  1
  Zn  Zn92  1  0.12287332  0.37175675  0.25352656  1
  Zn  Zn93  1  0.62898798  0.62089741  0.49536541  1
  Zn  Zn94  1  0.11969342  0.13224166  0.48833693  1
  Zn  Zn95  1  0.25227209  0.74116040  0.00689587  1
  Zn  Zn96  1  0.36925564  0.38662377  -0.01073537  1
  Zn  Zn97  1  0.62576857  0.49866297  0.62161034  1
  Zn  Zn98  1  0.87939999  0.49989652  0.87661170  1
  Zn  Zn99  1  0.87438470  0.74863079  0.62662957  1
  Zn  Zn100  1  0.74716062  0.51332487  0.25296453  1
  Zn  Zn101  1  0.11093098  0.24732866  0.87211288  1
  Zn  Zn102  1  0.37106597  0.87356654  -0.00537774  1
  Zn  Zn103  1  0.87429038  0.62363205  0.75289437  1
  Zn  Zn104  1  0.62439293  0.12434110  -0.00043721  1
  Zn  Zn105  1  0.13076962  0.63339671  0.50326737  1
  Zn  Zn106  1  0.25760911  0.61058290  0.89201185  1
  Zn  Zn107  1  0.18551528  0.18592153  0.18627829  1
  Zn  Zn108  1  0.18941296  0.18799904  0.68593779  1
  Zn  Zn109  1  0.19068950  0.69421247  0.19360233  1
  Zn  Zn110  1  0.18528333  0.68404841  0.69323653  1
  Zn  Zn111  1  0.68545231  0.18550186  0.19168161  1
  Zn  Zn112  1  0.68638829  0.18908156  0.68839246  1
  Zn  Zn113  1  0.69467174  0.68769479  0.18512211  1
  Zn  Zn114  1  0.68378794  0.68690986  0.68476857  1
  Zn  Zn115  1  0.31553959  0.31522337  0.30812588  1
  Zn  Zn116  1  0.31273098  0.31285723  0.81219219  1
  Zn  Zn117  1  0.31181539  0.81567522  0.31218494  1
  Zn  Zn118  1  0.31509944  0.80710044  0.80654341  1
  Zn  Zn119  1  0.81258901  0.31176328  0.31327226  1
  Zn  Zn120  1  0.80518361  0.31852866  0.81528182  1
  Zn  Zn121  1  0.80717212  0.81341935  0.31040024  1
  Zn  Zn122  1  0.81373961  0.81227563  0.81538994  1
  Zn  Zn123  1  0.18951511  0.43917287  0.43709126  1
  Zn  Zn124  1  0.18037394  0.43096237  0.93637595  1
  Zn  Zn125  1  0.18487915  0.94263358  0.43319190  1
  Zn  Zn126  1  0.18836772  0.93616951  0.93687745  1
  Zn  Zn127  1  0.68680987  0.43261900  0.43663432  1
  Zn  Zn128  1  0.68498316  0.44029236  0.94019652  1
  Zn  Zn129  1  0.68656010  0.93564793  0.43586894  1
  Zn  Zn130  1  0.68449181  0.93929038  0.93558414  1
  Zn  Zn131  1  0.31156029  0.06104462  0.06626083  1
  Zn  Zn132  1  0.31658265  0.06302906  0.55893727  1
  Zn  Zn133  1  0.31294736  0.56511055  0.05847375  1
  Zn  Zn134  1  0.31660964  0.56107752  0.56131456  1
  Zn  Zn135  1  0.81156601  0.06311027  0.06080601  1
  Zn  Zn136  1  0.81498455  0.06239143  0.56330937  1
  Zn  Zn137  1  0.81144971  0.56584363  0.06345698  1
  Zn  Zn138  1  0.81487715  0.55847225  0.56452575  1
  Zn  Zn139  1  0.41692247  0.45646253  0.15135443  1
  Zn  Zn140  1  0.44002761  0.43647061  0.68691945  1
  Zn  Zn141  1  0.43850108  0.93456237  0.18621668  1
  Zn  Zn142  1  0.43689327  0.93783255  0.68488501  1
  Zn  Zn143  1  0.94130870  0.43899793  0.18662546  1
  Zn  Zn144  1  0.93374639  0.43794454  0.68705946  1
  Zn  Zn145  1  0.93555838  0.93228640  0.18688968  1
  Zn  Zn146  1  0.93815990  0.93731806  0.68768694  1
  Zn  Zn147  1  0.06797915  0.06007138  0.31162537  1
  Zn  Zn148  1  0.07169353  0.05655551  0.81841630  1
  Zn  Zn149  1  0.05825451  0.56766484  0.31368813  1
  Zn  Zn150  1  0.06444041  0.55833253  0.81398916  1
  Zn  Zn151  1  0.56360414  0.06151929  0.31235347  1
  Zn  Zn152  1  0.56431883  0.06041613  0.80922138  1
  Zn  Zn153  1  0.56607364  0.56028630  0.30821180  1
  Zn  Zn154  1  0.56682258  0.56466947  0.81191287  1
  Zn  Zn155  1  0.43119971  0.18341154  0.43749036  1
  Zn  Zn156  1  0.43362199  0.18892231  0.94207030  1
  Zn  Zn157  1  0.43541197  0.68990372  0.43713157  1
  Zn  Zn158  1  0.42932124  0.68925104  0.93829900  1
  Zn  Zn159  1  0.93464698  0.18593637  0.43687498  1
  Zn  Zn160  1  0.93614999  0.18538312  0.95716300  1
  Zn  Zn161  1  0.94144599  0.68774087  0.44053310  1
  Zn  Zn162  1  0.93693161  0.68308631  0.94126536  1
  Zn  Zn163  1  0.05982211  0.31203775  0.06172427  1
  Zn  Zn164  1  0.05979388  0.31237026  0.56664197  1
  Zn  Zn165  1  0.05959356  0.80899349  0.06394353  1
  Zn  Zn166  1  0.06451844  0.81293892  0.56153893  1
  Zn  Zn167  1  0.56167435  0.31311248  0.06136956  1
  Zn  Zn168  1  0.56103668  0.31223410  0.56011248  1
  Zn  Zn169  1  0.56035786  0.81399775  0.05907240  1
  Zn  Zn170  1  0.56311027  0.81100538  0.56056080  1
  O  O171  1  0.12736100  0.12318817  0.10888187  1
  O  O172  1  0.11735057  0.11872803  0.62323082  1
  O  O173  1  0.10834923  0.63693847  0.13509131  1
  O  O174  1  0.11673891  0.61686482  0.62523606  1
  O  O175  1  0.61724980  0.11480204  0.12363791  1
  O  O176  1  0.61615158  0.11708881  0.63172114  1
  O  O177  1  0.61690206  0.62489514  0.11998415  1
  O  O178  1  0.61416653  0.61955075  0.61951600  1
  O  O179  1  0.38280403  0.38245118  0.37805263  1
  O  O180  1  0.39159580  0.37184389  0.87258814  1
  O  O181  1  0.38660167  0.88017531  0.37365233  1
  O  O182  1  0.38695164  0.87449459  0.87065686  1
  O  O183  1  0.88095875  0.37939369  0.38318657  1
  O  O184  1  0.86878921  0.37568503  0.89219209  1
  O  O185  1  0.88079742  0.87914042  0.37755336  1
  O  O186  1  0.88250710  0.87942081  0.88461901  1
  O  O187  1  0.25391017  -0.00703105  0.35761318  1
  O  O188  1  0.24611570  0.00791886  0.86343192  1
  O  O189  1  0.25809516  0.50310631  0.36451488  1
  O  O190  1  0.24395635  0.49402943  0.86228114  1
  O  O191  1  0.75438848  0.00557281  0.36732672  1
  O  O192  1  0.75642857  0.01043561  0.87141951  1
  O  O193  1  0.76507556  0.49320520  0.37607011  1
  O  O194  1  0.75011014  0.50597703  0.86793813  1
  O  O195  1  0.24970937  0.49271575  0.14242625  1
  O  O196  1  0.24291012  0.49312156  0.62915515  1
  O  O197  1  0.25311651  0.98644425  0.13245869  1
  O  O198  1  0.24379048  0.99613027  0.62965187  1
  O  O199  1  0.74363649  0.49383984  0.12672222  1
  O  O200  1  0.74923403  0.48764687  0.63155900  1
  O  O201  1  0.73989700  1.00545832  0.13090641  1
  O  O202  1  0.74480523  0.99591092  0.62914747  1
  O  O203  1  -0.00006666  0.36559938  0.25848232  1
  O  O204  1  0.01231949  0.37716030  0.74465887  1
  O  O205  1  0.00852268  0.87952357  0.25747194  1
  O  O206  1  0.00691543  0.86726804  0.75408454  1
  O  O207  1  0.49920026  0.36658411  0.26183031  1
  O  O208  1  0.51156745  0.37970816  0.75905213  1
  O  O209  1  0.51295056  0.88372776  0.25957407  1
  O  O210  1  0.50591846  0.87122471  0.75201068  1
  O  O211  1  0.50265867  0.12843288  0.23734321  1
  O  O212  1  0.48820488  0.11815475  0.74089157  1
  O  O213  1  0.50565620  0.63467345  0.24186429  1
  O  O214  1  0.50381893  0.63197649  0.74284806  1
  O  O215  1  0.98626266  0.12776484  0.25573925  1
  O  O216  1  1.00065797  0.11748907  0.74411173  1
  O  O217  1  0.98986751  0.62146530  0.23734406  1
  O  O218  1  0.99971814  0.63030495  0.74462003  1
  O  O219  1  0.36514760  0.25627441  0.00855287  1
  O  O220  1  0.36738608  0.25584228  0.51025476  1
  O  O221  1  0.37317043  0.75630446  0.01385200  1
  O  O222  1  0.37885324  0.75554385  0.50687154  1
  O  O223  1  0.86880714  0.25827102  0.01095717  1
  O  O224  1  0.87698228  0.25596533  0.51250420  1
  O  O225  1  0.86777119  0.75814618  0.00298793  1
  O  O226  1  0.86883711  0.75580229  0.50117848  1
  O  O227  1  0.13992051  0.25237259  0.50774011  1
  O  O228  1  0.12762489  0.23869266  0.99613994  1
  O  O229  1  0.12275959  0.75178984  0.48490315  1
  O  O230  1  0.12460299  0.75496209  0.98372200  1
  O  O231  1  0.62237652  0.25049406  0.48614200  1
  O  O232  1  0.63094583  0.24723513  0.99279435  1
  O  O233  1  0.63453350  0.74895050  0.49032584  1
  O  O234  1  0.63763491  0.74654926  1.00544010  1
  O  O235  1  0.49407169  0.24441939  0.13083767  1
  O  O236  1  0.49198421  0.24203684  0.62094404  1
  O  O237  1  0.49286603  0.74607812  0.12525925  1
  O  O238  1  0.50336261  0.74141656  0.63243497  1
  O  O239  1  0.98530866  0.25434620  0.13333504  1
  O  O240  1  0.99251259  0.23599707  0.62542377  1
  O  O241  1  0.98530424  0.73758416  0.11477350  1
  O  O242  1  1.00245573  0.74212523  0.63338505  1
  O  O243  1  -0.00978776  0.25768118  0.36576911  1
  O  O244  1  -0.00896933  0.23521662  0.86557838  1
  O  O245  1  0.00445040  0.76157028  0.37648805  1
  O  O246  1  0.00795455  0.75145561  0.87043647  1
  O  O247  1  0.50367909  0.25254123  0.37061803  1
  O  O248  1  0.51019502  0.24899543  0.87719999  1
  O  O249  1  0.51092918  0.76232527  0.37808407  1
  O  O250  1  0.49937438  0.75981835  0.86113022  1
  O  O251  1  0.24836145  0.14142997  0.50708344  1
  O  O252  1  0.24268561  0.12744605  0.99421824  1
  O  O253  1  0.24716223  0.61404949  0.48543247  1
  O  O254  1  0.24338772  0.62743142  1.00320670  1
  O  O255  1  0.75478110  0.12018902  0.48552302  1
  O  O256  1  0.75098366  0.13162377  0.98625538  1
  O  O257  1  0.75049703  0.63582806  0.50658890  1
  O  O258  1  0.74289491  0.63448100  0.99408408  1
  O  O259  1  0.24846500  0.36712294  0.00671869  1
  O  O260  1  0.25531475  0.36812048  0.50563511  1
  O  O261  1  0.25055883  0.87319737  0.00851793  1
  O  O262  1  0.24759198  0.88221762  0.51389080  1
  O  O263  1  0.75408736  0.37139316  0.01087634  1
  O  O264  1  0.76068634  0.37721476  0.50835819  1
  O  O265  1  0.75874761  0.86954127  -0.00924253  1
  O  O266  1  0.75529088  0.86842120  0.50527442  1
  O  O267  1  0.13389461  0.49667361  0.25765008  1
  O  O268  1  0.13054549  0.48952747  0.74207886  1
  O  O269  1  0.13485903  0.98441496  0.25012592  1
  O  O270  1  0.13528487  0.99643025  0.73906686  1
  O  O271  1  0.62996950  0.49547060  0.23910491  1
  O  O272  1  0.63505833  0.49261665  0.74696398  1
  O  O273  1  0.63181691  0.99471998  0.24199515  1
  O  O274  1  0.63318964  0.99333648  0.73913990  1
  O  O275  1  0.36047369  -0.00512805  0.24658208  1
  O  O276  1  0.36477806  0.00949159  0.74332427  1
  O  O277  1  0.36721171  0.49475949  0.25497879  1
  O  O278  1  0.35938063  0.49543223  0.74520522  1
  O  O279  1  0.86815734  0.00443423  0.25071353  1
  O  O280  1  0.86561601  -0.00722574  0.75842955  1
  O  O281  1  0.87477793  0.49441706  0.26673311  1
  O  O282  1  0.86177598  0.49854293  0.75368772  1
  O  O283  1  0.10938578  0.37735013  0.37898575  1
  O  O284  1  0.12135274  0.36720962  0.86057439  1
  O  O285  1  0.11693580  0.87149163  0.36944560  1
  O  O286  1  0.11948309  0.86891513  0.86733983  1
  O  O287  1  0.61830889  0.36549831  0.37141239  1
  O  O288  1  0.61629620  0.36981561  0.87001559  1
  O  O289  1  0.62062491  0.86840377  0.36614057  1
  O  O290  1  0.61603683  0.88266168  0.85971324  1
  O  O291  1  0.38161042  0.13679826  0.12085595  1
  O  O292  1  0.38259162  0.13155604  0.63118307  1
  O  O293  1  0.39173310  0.63827962  0.12665072  1
  O  O294  1  0.38889774  0.62087170  0.62941033  1
  O  O295  1  0.86849187  0.13562470  0.13287455  1
  O  O296  1  0.88138217  0.13267440  0.62704346  1
  O  O297  1  0.88007423  0.63830126  0.12350838  1
  O  O298  1  0.88777010  0.62501702  0.62890354  1
  O  O299  1  0.25372857  0.25061186  0.11631199  1
  O  O300  1  0.25823920  0.25631016  0.61842935  1
  O  O301  1  0.26104046  0.75928155  0.12818181  1
  O  O302  1  0.24395788  0.76426514  0.63097811  1
  O  O303  1  0.75551080  0.25594065  0.12245551  1
  O  O304  1  0.75640319  0.26092310  0.62946007  1
  O  O305  1  0.76450862  0.74987648  0.11144458  1
  O  O306  1  0.75136568  0.75609968  0.61765423  1
  O  O307  1  0.25563799  0.25529473  0.39055586  1
  O  O308  1  0.25023787  0.24536150  0.88735315  1
  O  O309  1  0.24553638  0.74047111  0.37082058  1
  O  O310  1  0.23650863  0.75409579  0.87275020  1
  O  O311  1  0.74019301  0.23970252  0.36755787  1
  O  O312  1  0.74112620  0.24512160  0.87984822  1
  O  O313  1  0.74206184  0.75599603  0.38528160  1
  O  O314  1  0.75263027  0.74231852  0.88354608  1
  O  O315  1  0.01440057  0.11502384  -0.00337744  1
  O  O316  1  -0.00033538  0.11799778  0.50790247  1
  O  O317  1  -0.00193317  0.61319190  0.01169667  1
  O  O318  1  0.00542813  0.61856048  0.50953023  1
  O  O319  1  0.50062553  0.11948717  0.00964301  1
  O  O320  1  0.49698655  0.11631941  0.51283898  1
  O  O321  1  0.51307061  0.63789649  0.00436288  1
  O  O322  1  0.50183298  0.61596741  0.50475618  1
  O  O323  1  0.49547887  0.37997260  0.48798813  1
  O  O324  1  0.50133921  0.37226860  0.98325625  1
  O  O325  1  0.50381727  0.88321134  0.49106279  1
  O  O326  1  0.50116642  0.88315210  0.98676401  1
  O  O327  1  0.98897347  0.37727592  0.49701210  1
  O  O328  1  0.99104693  0.39067014  1.01092529  1
  O  O329  1  0.99343783  0.87966612  0.49419693  1
  O  O330  1  0.99482052  0.88183624  0.99499275  1
  O  O331  1  0.49543492  0.49305478  0.37539797  1
  O  O332  1  0.50384784  0.49051883  0.87530650  1
  O  O333  1  0.50387520  0.99294779  0.38384241  1
  O  O334  1  0.50365249  0.99425921  0.88185797  1
  O  O335  1  0.99179384  0.49160567  0.38149331  1
  O  O336  1  0.99777613  0.50698425  0.89218507  1
  O  O337  1  0.99354153  0.98965240  0.37931685  1
  O  O338  1  0.99510218  0.99353008  0.87994412  1
  O  O339  1  -0.00451904  -0.00256438  0.11309716  1
  O  O340  1  0.00638337  0.00825940  0.62184867  1
  O  O341  1  -0.00378221  0.51465180  0.11809730  1
  O  O342  1  0.00588138  0.50583836  0.62171704  1
  O  O343  1  0.50449126  0.00687662  0.11856658  1
  O  O344  1  0.50823857  0.00479666  0.61925187  1
  O  O345  1  0.51106266  0.52142213  0.13390807  1
  O  O346  1  0.50189907  0.50344340  0.61384065  1
  O  O347  1  0.24299228  0.38316383  0.24779561  1
  O  O348  1  0.24292684  0.38248204  0.74505666  1
  O  O349  1  0.24253338  0.88142523  0.24148414  1
  O  O350  1  0.24623001  0.88286732  0.74244111  1
  O  O351  1  0.74984009  0.37434475  0.23696034  1
  O  O352  1  0.73923240  0.38199395  0.74463497  1
  O  O353  1  0.74203524  0.89076773  0.25259260  1
  O  O354  1  0.74380714  0.87869748  0.74612562  1
  O  O355  1  0.24481363  0.10643144  0.24242490  1
  O  O356  1  0.25778625  0.11914197  0.75518700  1
  O  O357  1  0.24641730  0.61272485  0.25941827  1
  O  O358  1  0.24857242  0.60489165  0.74738631  1
  O  O359  1  0.75867908  0.11535043  0.25546495  1
  O  O360  1  0.74751093  0.12009131  0.76112912  1
  O  O361  1  0.76067118  0.62617850  0.24995563  1
  O  O362  1  0.74850613  0.61879757  0.75588045  1
  O  O363  1  0.36379786  0.11767696  0.37982408  1
  O  O364  1  0.36407309  0.13211555  0.86661242  1
  O  O365  1  0.36976802  0.61492396  0.37497705  1
  O  O366  1  0.36830660  0.62836846  0.86944941  1
  O  O367  1  0.86776229  0.11787667  0.36706257  1
  O  O368  1  0.87204787  0.12754956  0.86771759  1
  O  O369  1  0.88348608  0.60884071  0.37779428  1
  O  O370  1  0.86170671  0.62253870  0.87404303  1
  O  O371  1  0.13735566  0.36524171  0.12924681  1
  O  O372  1  0.12859895  0.38064550  0.63331145  1
  O  O373  1  0.13244295  0.86529263  0.13324295  1
  O  O374  1  0.13278247  0.88293526  0.63001790  1
  O  O375  1  0.63016492  0.38491727  0.12318772  1
  O  O376  1  0.63032719  0.37322307  0.63155951  1
  O  O377  1  0.61767952  0.88764811  0.13134027  1
  O  O378  1  0.63079694  0.88271495  0.63257832  1
  O  O379  1  0.10913865  0.24624979  0.24656763  1
  O  O380  1  0.12749649  0.26311633  0.74827375  1
  O  O381  1  0.12930780  0.76574912  0.26402997  1
  O  O382  1  0.11564647  0.75372895  0.75800492  1
  O  O383  1  0.61105609  0.25152577  0.25433892  1
  O  O384  1  0.62962388  0.26037876  0.76052785  1
  O  O385  1  0.63597485  0.76403094  0.25420066  1
  O  O386  1  0.61740315  0.76140768  0.74435278  1
  O  O387  1  0.38787989  0.24781743  0.24617035  1
  O  O388  1  0.36855014  0.24137217  0.73765165  1
  O  O389  1  0.37549386  0.75665234  0.23543957  1
  O  O390  1  0.38601351  0.74664830  0.73892452  1
  O  O391  1  0.88002008  0.24158696  0.24516467  1
  O  O392  1  0.87229455  0.25517809  0.74106812  1
  O  O393  1  0.87228875  0.75934731  0.23203580  1
  O  O394  1  0.88904876  0.75005022  0.74990268  1
  O  O395  1  0.38571232  0.49347586  0.49018672  1
  O  O396  1  0.38397421  0.48336089  1.04325641  1
  O  O397  1  0.38934843  0.99233298  0.50278764  1
  O  O398  1  0.38697262  0.99691352  1.00362179  1
  O  O399  1  0.87996996  0.49125083  0.49261049  1
  O  O400  1  0.87926767  0.49386002  1.00118272  1
  O  O401  1  0.87995223  0.99223159  0.49443381  1
  O  O402  1  0.88105864  0.99492788  0.99413766  1
  O  O403  1  0.11834861  0.01122879  -0.00645557  1
  O  O404  1  0.11940540  0.00033102  0.51157818  1
  O  O405  1  0.11207903  0.49522986  0.00213294  1
  O  O406  1  0.12026137  0.49671563  0.51358689  1
  O  O407  1  0.61617998  0.00204564  0.00644398  1
  O  O408  1  0.61867933  -0.00469143  0.51268839  1
  O  O409  1  0.62986377  0.51293476  0.01346067  1
  O  O410  1  0.61288334  0.49887881  0.49638211  1
  O  O411  1  0.35816147  0.35631696  0.13648821  1
  O  O412  1  0.37257620  0.36739657  0.62026559  1
  O  O413  1  0.37068133  0.86645690  0.12204663  1
  O  O414  1  0.35757323  0.87631324  0.62585808  1
  O  O415  1  0.86755950  0.37005002  0.12010725  1
  O  O416  1  0.86851131  0.36782333  0.61842383  1
  O  O417  1  0.88020362  0.86459791  0.11057981  1
  O  O418  1  0.86812201  0.87339133  0.61869096  1
  O  O419  1  0.13596649  0.11911572  0.37758921  1
  O  O420  1  0.13837387  0.12984899  0.87844014  1
  O  O421  1  0.13141869  0.63441132  0.37603169  1
  O  O422  1  0.13047776  0.63771394  0.86827519  1
  O  O423  1  0.63467598  0.13203255  0.36933121  1
  O  O424  1  0.63156289  0.13185115  0.87432227  1
  O  O425  1  0.62059661  0.63856238  0.37432897  1
  O  O426  1  0.63664665  0.62149840  0.88412150  1
