# generated using pymatgen
data_V85Zn86O256
_symmetry_space_group_name_H-M   'P 1'
_cell_length_a   16.95661742
_cell_length_b   16.95249105
_cell_length_c   16.93666573
_cell_angle_alpha   89.96176567
_cell_angle_beta   89.97994189
_cell_angle_gamma   89.87426004
_symmetry_Int_Tables_number   1
_chemical_formula_structural   V85Zn86O256
_chemical_formula_sum   'V85 Zn86 O256'
_cell_volume   4868.54840626
_cell_formula_units_Z   1
loop_
 _symmetry_equiv_pos_site_id
 _symmetry_equiv_pos_as_xyz
  1  'x, y, z'
loop_
 _atom_site_type_symbol
 _atom_site_label
 _atom_site_symmetry_multiplicity
 _atom_site_fract_x
 _atom_site_fract_y
 _atom_site_fract_z
 _atom_site_occupancy
  V  V0  1  0.87316873  0.13012251  0.75067960  1
  V  V1  1  0.49835156  0.75597928  0.25564566  1
  V  V2  1  0.75185154  0.36872667  0.13305077  1
  V  V3  1  0.12316048  -0.00946951  0.62778395  1
  V  V4  1  0.87242736  0.10952732  0.25054423  1
  V  V5  1  0.73908734  -0.00369836  0.25696694  1
  V  V6  1  0.12181348  0.01548966  0.12299261  1
  V  V7  1  -0.00031117  -0.00192970  0.49222617  1
  V  V8  1  0.67220566  0.05876169  0.56327425  1
  V  V9  1  0.51513477  0.12775095  0.12790886  1
  V  V10  1  0.37215111  0.74999872  0.12173147  1
  V  V11  1  0.37609679  0.25094666  0.62452291  1
  V  V12  1  0.74405455  0.62414071  0.88166093  1
  V  V13  1  0.25160099  0.37340766  0.62481651  1
  V  V14  1  0.00094954  0.86840191  0.86158506  1
  V  V15  1  0.50034756  0.12170699  0.61951095  1
  V  V16  1  0.11977866  0.49719910  0.62504540  1
  V  V17  1  0.12676252  0.12489006  0.49817079  1
  V  V18  1  -0.00401433  0.62749978  0.62925966  1
  V  V19  1  0.00194147  0.00857597  0.00237837  1
  V  V20  1  0.37905248  -0.00450964  0.37352695  1
  V  V21  1  0.31182759  0.06199501  0.92271505  1
  V  V22  1  0.12696518  0.37250804  0.75269174  1
  V  V23  1  0.74446947  0.00308335  0.75003247  1
  V  V24  1  0.37822082  0.37340985  0.48970327  1
  V  V25  1  0.24050253  0.74977032  -0.00353943  1
  V  V26  1  0.52300781  0.00502349  0.00167703  1
  V  V27  1  0.74830775  0.62566546  0.37593035  1
  V  V28  1  0.00113401  0.12733656  0.62594110  1
  V  V29  1  0.50276492  0.50211874  0.00049657  1
  V  V30  1  0.50572865  0.25202590  0.75011796  1
  V  V31  1  0.50121543  0.75227365  0.74646922  1
  V  V32  1  0.24806027  0.00225349  0.74958237  1
  V  V33  1  0.61961058  0.23275637  0.38287213  1
  V  V34  1  0.12410743  0.50109328  0.12252649  1
  V  V35  1  0.00190768  0.37323755  0.87639783  1
  V  V36  1  -0.00021525  0.24958522  0.74849242  1
  V  V37  1  0.87764354  0.86490815  0.00859715  1
  V  V38  1  0.24996715  0.37461789  0.12378100  1
  V  V39  1  0.24613462  0.50277635  0.25985226  1
  V  V40  1  0.11571496  0.37520995  0.25261803  1
  V  V41  1  0.24590180  0.87480991  0.12313482  1
  V  V42  1  0.74887210  0.49924585  0.25085996  1
  V  V43  1  0.11803341  0.25330316  0.37469694  1
  V  V44  1  0.87312343  0.36126787  0.50149874  1
  V  V45  1  0.12307468  0.74915941  0.84407093  1
  V  V46  1  0.62224963  0.74944797  0.88367775  1
  V  V47  1  0.50757558  0.37670478  0.87244207  1
  V  V48  1  0.12519577  0.87491769  0.25082153  1
  V  V49  1  0.37487252  0.12029933  0.75058329  1
  V  V50  1  0.24880069  0.62547087  0.87152369  1
  V  V51  1  0.25588461  0.87336048  0.62660533  1
  V  V52  1  0.62529213  0.87943054  0.74549433  1
  V  V53  1  0.62723262  0.25057735  0.88168079  1
  V  V54  1  0.13227802  0.23460945  0.88002910  1
  V  V55  1  0.75124943  0.75082444  0.50051869  1
  V  V56  1  0.50154637  0.62510955  0.62477323  1
  V  V57  1  -0.00667360  0.87502090  0.37328813  1
  V  V58  1  -0.00478716  0.49651872  0.49193648  1
  V  V59  1  0.24994896  0.00161130  0.25303539  1
  V  V60  1  0.75122002  0.24138513  0.00920564  1
  V  V61  1  0.87474381  0.75310065  0.63278663  1
  V  V62  1  0.87579281  -0.00177651  0.87761057  1
  V  V63  1  0.87414093  0.50003133  0.87309570  1
  V  V64  1  -0.01107277  0.24536403  0.23690353  1
  V  V65  1  0.87444104  0.36789339  0.00481403  1
  V  V66  1  0.62447923  0.48821947  0.62729504  1
  V  V67  1  0.74375861  0.49259662  0.75107006  1
  V  V68  1  0.49989282  -0.00453063  0.50015273  1
  V  V69  1  0.74537404  0.12306954  0.88145516  1
  V  V70  1  0.62528772  0.50170690  0.12352957  1
  V  V71  1  0.37614537  0.62967055  0.74750477  1
  V  V72  1  0.37550177  0.37210460  -0.00116840  1
  V  V73  1  0.38029844  0.13664946  0.25275336  1
  V  V74  1  0.87080164  0.62953905  0.24839464  1
  V  V75  1  -0.00176075  0.74914921  0.24838573  1
  V  V76  1  -0.00596756  0.62880173  0.12215186  1
  V  V77  1  0.50268444  0.49791218  0.48998852  1
  V  V78  1  0.37787158  0.86679743  0.50153967  1
  V  V79  1  0.61110443  0.36724874  0.26145184  1
  V  V80  1  -0.00073670  0.49950398  -0.00023319  1
  V  V81  1  0.50055304  0.62685457  0.12001464  1
  V  V82  1  0.37206762  0.87770758  -0.00982207  1
  V  V83  1  0.36906104  0.62513947  0.25591524  1
  V  V84  1  0.37597443  0.50062763  0.87400224  1
  Zn  Zn85  1  0.74755650  0.87643618  0.62175395  1
  Zn  Zn86  1  0.87416458  0.62909629  0.75267993  1
  Zn  Zn87  1  0.25194238  0.74348781  0.49561693  1
  Zn  Zn88  1  0.87558486  0.49366542  0.37294927  1
  Zn  Zn89  1  0.61605371  0.88052963  0.24889971  1
  Zn  Zn90  1  0.62010689  0.75412736  0.37794943  1
  Zn  Zn91  1  0.12092186  0.62706071  -0.00507006  1
  Zn  Zn92  1  0.13463155  0.73839098  0.37456090  1
  Zn  Zn93  1  0.74268125  0.24252945  0.50242832  1
  Zn  Zn94  1  0.24933201  0.24209155  -0.00078016  1
  Zn  Zn95  1  0.37635292  0.49896898  0.37317614  1
  Zn  Zn96  1  0.49809709  0.88533563  0.87255089  1
  Zn  Zn97  1  0.87156389  0.87757633  0.49715335  1
  Zn  Zn98  1  0.38244513  0.25386933  0.12988119  1
  Zn  Zn99  1  0.62646413  0.62377536  0.50128763  1
  Zn  Zn100  1  0.73933708  0.87439401  0.12737324  1
  Zn  Zn101  1  0.75200253  0.74381538  0.00729859  1
  Zn  Zn102  1  0.25116831  0.12563665  0.37529154  1
  Zn  Zn103  1  0.25182375  0.49837634  0.75003237  1
  Zn  Zn104  1  0.13289396  0.62229932  0.49215376  1
  Zn  Zn105  1  0.75506573  0.36351190  0.62988828  1
  Zn  Zn106  1  0.24965381  0.25030298  0.49721593  1
  Zn  Zn107  1  0.19074350  0.19170543  0.19048376  1
  Zn  Zn108  1  0.18738479  0.18528423  0.68856759  1
  Zn  Zn109  1  0.18310472  0.68650878  0.18700649  1
  Zn  Zn110  1  0.20262111  0.67324787  0.65899765  1
  Zn  Zn111  1  0.69349838  0.18526106  0.19977661  1
  Zn  Zn112  1  0.68905261  0.19701025  0.69223582  1
  Zn  Zn113  1  0.68458600  0.69293798  0.17963721  1
  Zn  Zn114  1  0.68746602  0.68357127  0.69116062  1
  Zn  Zn115  1  0.30376468  0.31265342  0.31440236  1
  Zn  Zn116  1  0.31493066  0.30925779  0.81309456  1
  Zn  Zn117  1  0.31496620  0.81365215  0.31400543  1
  Zn  Zn118  1  0.31144789  0.81262202  0.80832348  1
  Zn  Zn119  1  0.81064563  0.30711944  0.32399878  1
  Zn  Zn120  1  0.81289419  0.31230203  0.81501736  1
  Zn  Zn121  1  0.81015757  0.81213128  0.31022930  1
  Zn  Zn122  1  0.80904244  0.81375306  0.81531426  1
  Zn  Zn123  1  0.18483095  0.43621912  0.43882449  1
  Zn  Zn124  1  0.18781203  0.43692487  0.93647388  1
  Zn  Zn125  1  0.18909176  0.93093747  0.43542659  1
  Zn  Zn126  1  0.17540353  0.93036504  0.93599524  1
  Zn  Zn127  1  0.69107056  0.43501054  0.43835654  1
  Zn  Zn128  1  0.68866678  0.43467845  0.94212763  1
  Zn  Zn129  1  0.68916565  0.92688145  0.42058299  1
  Zn  Zn130  1  0.69061862  0.93085466  0.93530220  1
  Zn  Zn131  1  0.31496620  0.06384591  0.08536012  1
  Zn  Zn132  1  0.31327447  0.05979646  0.56201239  1
  Zn  Zn133  1  0.31228970  0.56226264  0.06292041  1
  Zn  Zn134  1  0.31657774  0.55827973  0.56343640  1
  Zn  Zn135  1  0.81873768  0.06103649  0.07587276  1
  Zn  Zn136  1  0.83229070  0.06867537  0.55892155  1
  Zn  Zn137  1  0.81293770  0.56009904  0.06257932  1
  Zn  Zn138  1  0.81257018  0.56134554  0.56409116  1
  Zn  Zn139  1  0.43577751  0.43949426  0.18768391  1
  Zn  Zn140  1  0.43906239  0.43853381  0.68628629  1
  Zn  Zn141  1  0.43742825  0.94082554  0.17984160  1
  Zn  Zn142  1  0.43869844  0.93982499  0.68581560  1
  Zn  Zn143  1  0.93491003  0.43859285  0.18790019  1
  Zn  Zn144  1  0.93497893  0.43526447  0.68585722  1
  Zn  Zn145  1  0.93691664  0.93997742  0.18428323  1
  Zn  Zn146  1  0.93199730  0.94080372  0.68403153  1
  Zn  Zn147  1  0.05847685  0.06606398  0.31005632  1
  Zn  Zn148  1  0.06263550  0.05736150  0.81342795  1
  Zn  Zn149  1  0.06301484  0.56537924  0.31321578  1
  Zn  Zn150  1  0.06196589  0.56293811  0.80843838  1
  Zn  Zn151  1  0.56011399  0.06261755  0.31418919  1
  Zn  Zn152  1  0.56174153  0.06408715  0.81645595  1
  Zn  Zn153  1  0.56420003  0.56730662  0.30735354  1
  Zn  Zn154  1  0.56560411  0.56399100  0.81164321  1
  Zn  Zn155  1  0.44381254  0.18904016  0.43430102  1
  Zn  Zn156  1  0.44641140  0.19001064  0.94668146  1
  Zn  Zn157  1  0.43352963  0.68299956  0.43796308  1
  Zn  Zn158  1  0.43708366  0.69080443  0.93552856  1
  Zn  Zn159  1  0.94035096  0.18872919  0.42887378  1
  Zn  Zn160  1  0.93644537  0.18828357  0.93638195  1
  Zn  Zn161  1  0.93850178  0.68586581  0.43846781  1
  Zn  Zn162  1  0.93971132  0.68827917  0.93084913  1
  Zn  Zn163  1  0.06627101  0.30987816  0.06120036  1
  Zn  Zn164  1  0.05872559  0.31403486  0.56139814  1
  Zn  Zn165  1  0.05796909  0.81652435  0.06289205  1
  Zn  Zn166  1  0.06400396  0.80777418  0.56074707  1
  Zn  Zn167  1  0.56701707  0.31173825  0.06630570  1
  Zn  Zn168  1  0.56259081  0.31232375  0.55874854  1
  Zn  Zn169  1  0.56093386  0.81884817  0.06689281  1
  Zn  Zn170  1  0.56506826  0.81228901  0.56241136  1
  O  O171  1  0.13368843  0.11433594  0.12638932  1
  O  O172  1  0.11644350  0.11891597  0.61942702  1
  O  O173  1  0.11163624  0.61804885  0.12242983  1
  O  O174  1  0.11271278  0.60577025  0.62978783  1
  O  O175  1  0.61364289  0.12902180  0.13400995  1
  O  O176  1  0.61854294  0.12048316  0.62806860  1
  O  O177  1  0.61290858  0.61365541  0.13016548  1
  O  O178  1  0.61416086  0.61576575  0.62704642  1
  O  O179  1  0.37045119  0.37507746  0.38643809  1
  O  O180  1  0.38421949  0.37916514  0.88065593  1
  O  O181  1  0.37500549  0.88948982  0.38322997  1
  O  O182  1  0.37653627  0.87077944  0.88630014  1
  O  O183  1  0.87275857  0.37852120  0.39387527  1
  O  O184  1  0.88152817  0.37984963  0.88346639  1
  O  O185  1  0.89074067  0.86622655  0.37640832  1
  O  O186  1  0.88449016  0.87948864  0.87909068  1
  O  O187  1  0.25757263  0.00294964  0.36953878  1
  O  O188  1  0.24383245  0.00234285  0.87057490  1
  O  O189  1  0.25117557  0.49408987  0.36228544  1
  O  O190  1  0.25614632  0.50742681  0.87274378  1
  O  O191  1  0.75752955  -0.00609997  0.35767359  1
  O  O192  1  0.75520322  0.00796046  0.87289392  1
  O  O193  1  0.75031149  0.50851688  0.36729482  1
  O  O194  1  0.75430238  0.50247180  0.87249240  1
  O  O195  1  0.24484044  0.49045881  0.12847030  1
  O  O196  1  0.24151239  0.48563404  0.62714784  1
  O  O197  1  0.24075450  0.99178210  0.13161899  1
  O  O198  1  0.24186166  0.99757068  0.63196431  1
  O  O199  1  0.74202638  0.49382715  0.12996198  1
  O  O200  1  0.74048975  0.50168674  0.63503352  1
  O  O201  1  0.76520032  0.99016253  0.14611157  1
  O  O202  1  0.74279278  1.00609473  0.62325926  1
  O  O203  1  0.01241387  0.37290851  0.24423097  1
  O  O204  1  0.00345172  0.36592390  0.75518020  1
  O  O205  1  0.00509014  0.86740174  0.25229235  1
  O  O206  1  -0.00598424  0.88378721  0.76350500  1
  O  O207  1  0.51347668  0.37582523  0.24301676  1
  O  O208  1  0.49214188  0.36384855  0.76034545  1
  O  O209  1  0.48752439  0.85787534  0.24297478  1
  O  O210  1  0.50441437  0.86963012  0.75168009  1
  O  O211  1  0.49220835  0.11635930  0.23665989  1
  O  O212  1  0.49501317  0.12988533  0.74252571  1
  O  O213  1  0.48783247  0.62927800  0.23808286  1
  O  O214  1  0.49599175  0.63239739  0.74612574  1
  O  O215  1  0.99326070  0.13876906  0.24907960  1
  O  O216  1  0.99485584  0.12929758  0.74614255  1
  O  O217  1  0.99225863  0.62976254  0.24326063  1
  O  O218  1  0.99263345  0.61729469  0.73494490  1
  O  O219  1  0.37217210  0.26285985  -0.00138269  1
  O  O220  1  0.37534446  0.25634831  0.50677582  1
  O  O221  1  0.36437889  0.75863147  0.00182714  1
  O  O222  1  0.37727373  0.76339291  0.49788980  1
  O  O223  1  0.86825942  0.26066745  -0.00397182  1
  O  O224  1  0.87894710  0.25901572  0.49882515  1
  O  O225  1  0.87683638  0.76257501  -0.00804929  1
  O  O226  1  0.86472638  0.74909528  0.50830478  1
  O  O227  1  0.12190223  0.24305678  0.49351800  1
  O  O228  1  0.12828881  0.25091740  0.98506828  1
  O  O229  1  0.12920647  0.74339415  0.49712282  1
  O  O230  1  0.13429682  0.75144340  0.99804073  1
  O  O231  1  0.62234270  0.24822990  0.48951395  1
  O  O232  1  0.63630910  0.25403351  0.99019441  1
  O  O233  1  0.63693518  0.74500700  0.50085179  1
  O  O234  1  0.61925832  0.75729804  0.98587234  1
  O  O235  1  0.49923270  0.23378373  0.11554069  1
  O  O236  1  0.49817746  0.24393339  0.63400532  1
  O  O237  1  0.48998474  0.74220836  0.12732295  1
  O  O238  1  0.50624892  0.74142581  0.63829287  1
  O  O239  1  1.00617143  0.25314528  0.13863345  1
  O  O240  1  1.00914669  0.24274996  0.64034219  1
  O  O241  1  1.00470914  0.74152868  0.13660345  1
  O  O242  1  0.98867686  0.73941649  0.61903218  1
  O  O243  1  0.01363386  0.25051684  0.36206040  1
  O  O244  1  0.00956090  0.25252733  0.86724147  1
  O  O245  1  0.00409949  0.75357565  0.36272516  1
  O  O246  1  0.00816440  0.75884918  0.86863013  1
  O  O247  1  0.51758762  0.25016667  0.37461786  1
  O  O248  1  0.50853749  0.25552742  0.87301931  1
  O  O249  1  0.49482473  0.74067146  0.35795481  1
  O  O250  1  0.50626457  0.75185245  0.86436610  1
  O  O251  1  0.23640858  0.12628333  0.50318619  1
  O  O252  1  0.26348041  0.12031777  0.99167480  1
  O  O253  1  0.24087211  0.63715058  0.54498458  1
  O  O254  1  0.24845823  0.63434614  0.99248000  1
  O  O255  1  0.73874119  0.11328690  0.50836396  1
  O  O256  1  0.76150736  0.13455233  0.99734857  1
  O  O257  1  0.74975449  0.62912465  0.49130473  1
  O  O258  1  0.75460072  0.62304068  0.98674841  1
  O  O259  1  0.25925559  0.37630006  0.00617202  1
  O  O260  1  0.25792094  0.37329766  0.50844742  1
  O  O261  1  0.25257917  0.86822692  0.00024096  1
  O  O262  1  0.26084535  0.88095180  0.51064354  1
  O  O263  1  0.75656911  0.36403629  0.00832157  1
  O  O264  1  0.76425515  0.37800536  0.50599815  1
  O  O265  1  0.76969070  0.87577795  -0.00273068  1
  O  O266  1  0.75172450  0.86565165  0.50099174  1
  O  O267  1  0.12886200  0.49361387  0.24258644  1
  O  O268  1  0.12572177  0.48918526  0.74335957  1
  O  O269  1  0.12687720  0.99525788  0.24206217  1
  O  O270  1  0.13473609  1.00652566  0.73993340  1
  O  O271  1  0.62851619  0.49237423  0.24063442  1
  O  O272  1  0.63235326  0.50046310  0.74281963  1
  O  O273  1  0.63534928  1.00163169  0.25349653  1
  O  O274  1  0.63106859  0.99268601  0.75716882  1
  O  O275  1  0.37173181  0.00468321  0.25703605  1
  O  O276  1  0.37220984  0.01376672  0.75041536  1
  O  O277  1  0.36514070  0.50643979  0.24978033  1
  O  O278  1  0.37821025  0.50999274  0.75789598  1
  O  O279  1  0.88486919  0.00736884  0.25806675  1
  O  O280  1  0.86776034  0.01189433  0.75547514  1
  O  O281  1  0.86883214  0.51047768  0.25188236  1
  O  O282  1  0.86988134  0.49727563  0.76345700  1
  O  O283  1  0.12996334  0.36773182  0.36397916  1
  O  O284  1  0.11810161  0.37059355  0.86953266  1
  O  O285  1  0.11719194  0.87669288  0.35992301  1
  O  O286  1  0.11114201  0.86310839  0.86998724  1
  O  O287  1  0.62247398  0.38267204  0.36143030  1
  O  O288  1  0.61455508  0.36910474  0.87889292  1
  O  O289  1  0.61782802  0.86563619  0.36242921  1
  O  O290  1  0.62284578  0.86672662  0.86426496  1
  O  O291  1  0.38416855  0.13302950  0.13652087  1
  O  O292  1  0.38147954  0.13093604  0.63190811  1
  O  O293  1  0.37944852  0.63006847  0.13088497  1
  O  O294  1  0.39200338  0.61612564  0.63606962  1
  O  O295  1  0.87505287  0.13044514  0.14853689  1
  O  O296  1  0.89197700  0.12496364  0.63559552  1
  O  O297  1  0.88660156  0.61863548  0.13119675  1
  O  O298  1  0.87986049  0.63209968  0.62795517  1
  O  O299  1  0.25140144  0.26360057  0.12070877  1
  O  O300  1  0.25356255  0.25948200  0.62448646  1
  O  O301  1  0.25179018  0.75436414  0.11528829  1
  O  O302  1  0.25167905  0.77325676  0.63322878  1
  O  O303  1  0.74386109  0.25693302  0.12016362  1
  O  O304  1  0.74644192  0.25043841  0.61702198  1
  O  O305  1  0.74826282  0.75730607  0.11872795  1
  O  O306  1  0.75617832  0.74717606  0.61829408  1
  O  O307  1  0.23579254  0.24466307  0.37769600  1
  O  O308  1  0.23637120  0.25178947  0.87556318  1
  O  O309  1  0.24748021  0.76144880  0.38241132  1
  O  O310  1  0.23986758  0.74625536  0.87692627  1
  O  O311  1  0.73031289  0.25742662  0.38568293  1
  O  O312  1  0.74468965  0.24431108  0.88303541  1
  O  O313  1  0.75101283  0.74204292  0.38319210  1
  O  O314  1  0.74070603  0.74153516  0.87863062  1
  O  O315  1  -0.00440260  0.10732586  -0.00839557  1
  O  O316  1  0.00743969  0.12091642  0.50586494  1
  O  O317  1  -0.00127105  0.62079807  0.00611968  1
  O  O318  1  -0.00070214  0.61138715  0.51067136  1
  O  O319  1  0.50234013  0.11333839  0.01067929  1
  O  O320  1  0.49548046  0.11876599  0.51408483  1
  O  O321  1  0.49119926  0.61943502  0.01155881  1
  O  O322  1  0.50012539  0.61819719  0.50908513  1
  O  O323  1  0.48885261  0.38625339  0.50818566  1
  O  O324  1  0.49405597  0.37954734  0.99421934  1
  O  O325  1  0.49178887  0.88406747  0.50924490  1
  O  O326  1  0.48863472  0.89224621  1.00115234  1
  O  O327  1  0.98980892  0.38712359  0.50502683  1
  O  O328  1  0.99226166  0.37758220  0.99722213  1
  O  O329  1  1.00420803  0.88209729  0.48946953  1
  O  O330  1  0.99189794  0.87911106  0.98895168  1
  O  O331  1  0.50025961  0.50893443  0.38698836  1
  O  O332  1  0.49849292  0.49350909  0.87947784  1
  O  O333  1  0.49299283  1.00679333  0.39074785  1
  O  O334  1  0.50346817  1.00305870  0.89504965  1
  O  O335  1  0.99859903  0.50233643  0.38927770  1
  O  O336  1  0.99276210  0.49530263  0.87990949  1
  O  O337  1  1.00922094  0.99007794  0.38224431  1
  O  O338  1  0.99890605  0.98889464  0.88314238  1
  O  O339  1  0.00755022  -0.00277120  0.11116922  1
  O  O340  1  0.00765522  0.00668112  0.62003576  1
  O  O341  1  0.00340376  0.50605765  0.11786437  1
  O  O342  1  0.00472816  0.50218714  0.61835812  1
  O  O343  1  0.49349273  0.01259049  0.10971271  1
  O  O344  1  0.49935703  0.00931929  0.61481088  1
  O  O345  1  0.50534508  0.50655412  0.12076215  1
  O  O346  1  0.50823787  0.50524358  0.61997812  1
  O  O347  1  0.24197342  0.38254210  0.24090367  1
  O  O348  1  0.24693732  0.37453334  0.74301564  1
  O  O349  1  0.24265193  0.88127597  0.24393895  1
  O  O350  1  0.26157304  0.89392294  0.74414688  1
  O  O351  1  0.74716415  0.38067214  0.24516792  1
  O  O352  1  0.75560653  0.38729069  0.75024372  1
  O  O353  1  0.75028648  0.88407358  0.24919720  1
  O  O354  1  0.74384877  0.88570035  0.74819369  1
  O  O355  1  0.26109055  0.11787895  0.24948537  1
  O  O356  1  0.26011016  0.11522701  0.74681702  1
  O  O357  1  0.25708413  0.61325931  0.23674476  1
  O  O358  1  0.26173943  0.62142036  0.74965923  1
  O  O359  1  0.76041184  0.10873834  0.24994785  1
  O  O360  1  0.75671209  0.12359598  0.75924352  1
  O  O361  1  0.75528548  0.62134979  0.25330236  1
  O  O362  1  0.75217027  0.61213869  0.76279296  1
  O  O363  1  0.37512688  0.11620601  0.36974904  1
  O  O364  1  0.37682746  0.12571615  0.87125930  1
  O  O365  1  0.37318129  0.62175059  0.35996513  1
  O  O366  1  0.36940336  0.62063425  0.86876640  1
  O  O367  1  0.87541044  0.14509222  0.34896875  1
  O  O368  1  0.86657323  0.11921150  0.86984800  1
  O  O369  1  0.86506779  0.62253508  0.36684921  1
  O  O370  1  0.86934611  0.61539538  0.87310083  1
  O  O371  1  0.13256226  0.38155525  0.12881482  1
  O  O372  1  0.13040200  0.37944194  0.63031613  1
  O  O373  1  0.12737985  0.88070776  0.13461685  1
  O  O374  1  0.13072801  0.88735290  0.62053091  1
  O  O375  1  0.63499978  0.37899356  0.13493459  1
  O  O376  1  0.62572426  0.38573031  0.62443547  1
  O  O377  1  0.62266261  0.87690228  0.13537590  1
  O  O378  1  0.62830449  0.87005516  0.64096952  1
  O  O379  1  0.12016807  0.25804823  0.25476535  1
  O  O380  1  0.12006616  0.25301783  0.75977467  1
  O  O381  1  0.11754416  0.75882538  0.24924689  1
  O  O382  1  0.13437258  0.74045603  0.74721800  1
  O  O383  1  0.63075583  0.26251705  0.26206886  1
  O  O384  1  0.61305967  0.24626191  0.76435444  1
  O  O385  1  0.60246671  0.74192767  0.24757766  1
  O  O386  1  0.61873654  0.75546774  0.75848358  1
  O  O387  1  0.37092798  0.23977802  0.25373266  1
  O  O388  1  0.38418856  0.23914245  0.74708270  1
  O  O389  1  0.37859248  0.74325542  0.24163727  1
  O  O390  1  0.38431722  0.73796516  0.75551947  1
  O  O391  1  0.89113617  0.26780928  0.24860250  1
  O  O392  1  0.88448185  0.23838210  0.75959652  1
  O  O393  1  0.88210986  0.73681847  0.25236388  1
  O  O394  1  0.86650211  0.74978659  0.73718201  1
  O  O395  1  0.38257105  0.49242483  0.49726969  1
  O  O396  1  0.38083054  0.49040392  0.99445796  1
  O  O397  1  0.38241450  0.99547429  0.49311336  1
  O  O398  1  0.36176472  0.99920995  0.99069053  1
  O  O399  1  0.88657960  0.49843450  0.49924688  1
  O  O400  1  0.87732128  0.48921464  0.98996751  1
  O  O401  1  0.89422067  0.99610120  0.50089880  1
  O  O402  1  0.88623932  0.99186624  0.99654166  1
  O  O403  1  0.11144898  -0.00610589  0.00731951  1
  O  O404  1  0.11857742  0.00685721  0.50632773  1
  O  O405  1  0.11723845  0.50198234  0.00411188  1
  O  O406  1  0.11329949  0.49602689  0.50847385  1
  O  O407  1  0.62096450  -0.00376567  0.00173479  1
  O  O408  1  0.62086979  -0.00537077  0.50077194  1
  O  O409  1  0.61891566  0.49180990  0.01490567  1
  O  O410  1  0.61864215  0.50125925  0.50781202  1
  O  O411  1  0.36889679  0.37421071  0.11754329  1
  O  O412  1  0.36771729  0.37000209  0.62071377  1
  O  O413  1  0.36521523  0.87237894  0.11106278  1
  O  O414  1  0.36713561  0.88563173  0.61442503  1
  O  O415  1  0.86145197  0.38302017  0.11657972  1
  O  O416  1  0.87369422  0.38014242  0.60878118  1
  O  O417  1  0.88431519  0.87094740  0.10919451  1
  O  O418  1  0.87060158  0.86801473  0.62049489  1
  O  O419  1  0.12507514  0.13065628  0.38357150  1
  O  O420  1  0.12396221  0.13651320  0.87172417  1
  O  O421  1  0.13129594  0.62208261  0.37734609  1
  O  O422  1  0.12920122  0.63355529  0.87292666  1
  O  O423  1  0.62524959  0.13347679  0.37388917  1
  O  O424  1  0.63862524  0.13281882  0.87539003  1
  O  O425  1  0.63727393  0.62984781  0.37384927  1
  O  O426  1  0.63202460  0.63479454  0.87292940  1
