# generated using pymatgen
data_V85Zn86O256
_symmetry_space_group_name_H-M   'P 1'
_cell_length_a   16.97807550
_cell_length_b   16.98692132
_cell_length_c   16.97559199
_cell_angle_alpha   89.84330835
_cell_angle_beta   89.99528211
_cell_angle_gamma   90.00724685
_symmetry_Int_Tables_number   1
_chemical_formula_structural   V85Zn86O256
_chemical_formula_sum   'V85 Zn86 O256'
_cell_volume   4895.83119204
_cell_formula_units_Z   1
loop_
 _symmetry_equiv_pos_site_id
 _symmetry_equiv_pos_as_xyz
  1  'x, y, z'
loop_
 _atom_site_type_symbol
 _atom_site_label
 _atom_site_symmetry_multiplicity
 _atom_site_fract_x
 _atom_site_fract_y
 _atom_site_fract_z
 _atom_site_occupancy
  V  V0  1  0.50146225  0.75152189  0.25339398  1
  V  V1  1  0.86258233  0.24967823  0.61428947  1
  V  V2  1  -0.00315371  0.61381355  0.12143113  1
  V  V3  1  0.61882705  0.38870757  0.24532213  1
  V  V4  1  0.75373520  -0.00233506  0.74822071  1
  V  V5  1  0.50074494  0.37207255  0.87210424  1
  V  V6  1  0.24704535  0.87691189  0.12342532  1
  V  V7  1  0.12732150  0.49896068  0.62824726  1
  V  V8  1  0.62107252  0.62631078  0.48428509  1
  V  V9  1  0.63105930  0.25167777  0.37786085  1
  V  V10  1  0.25379732  0.62876347  0.37680913  1
  V  V11  1  0.00111577  0.00094264  0.49897974  1
  V  V12  1  0.12152488  0.24453513  0.87842682  1
  V  V13  1  0.62482021  -0.00090992  0.62648908  1
  V  V14  1  0.30965141  0.05784693  0.70546008  1
  V  V15  1  0.62556450  0.86738041  0.75693124  1
  V  V16  1  0.87248332  0.87265412  0.49880040  1
  V  V17  1  0.76679821  0.62664273  0.36550063  1
  V  V18  1  0.37619570  0.87153317  0.49977982  1
  V  V19  1  0.87119988  0.74383298  0.62411578  1
  V  V20  1  0.25236744  0.12423668  0.37379311  1
  V  V21  1  0.36781998  0.37353487  -0.00061529  1
  V  V22  1  0.12118687  0.61142999  0.00007482  1
  V  V23  1  0.12321037  0.87862856  0.24638296  1
  V  V24  1  0.76824562  0.50295907  0.24630342  1
  V  V25  1  0.12428068  0.62531434  0.50070564  1
  V  V26  1  0.76050286  0.87742872  0.12074056  1
  V  V27  1  0.37434654  0.87563275  -0.00704698  1
  V  V28  1  -0.00481573  0.25164464  0.74598973  1
  V  V29  1  0.36508267  0.63118279  0.24906301  1
  V  V30  1  0.50593371  0.49654920  0.00517709  1
  V  V31  1  0.50072597  0.12442381  0.12215852  1
  V  V32  1  0.12423906  0.13083720  0.49546074  1
  V  V33  1  0.50433907  0.74641677  0.76024437  1
  V  V34  1  0.75260867  0.00932204  0.25040693  1
  V  V35  1  0.87032933  0.37069834  0.48717671  1
  V  V36  1  0.75130080  0.12779360  0.87182214  1
  V  V37  1  0.50261592  0.24890706  0.24785088  1
  V  V38  1  -0.00233208  0.12863229  0.61953477  1
  V  V39  1  0.62678773  0.49934717  0.62627522  1
  V  V40  1  0.25121809  0.87478913  0.63366182  1
  V  V41  1  0.12184199  0.01918640  0.12022732  1
  V  V42  1  0.12477524  0.00313975  0.63156870  1
  V  V43  1  0.35450207  0.46594232  0.34664131  1
  V  V44  1  0.50580119  0.87309339  0.37509155  1
  V  V45  1  -0.00446229  0.01647012  0.00235205  1
  V  V46  1  0.24971419  0.11721510  0.87825059  1
  V  V47  1  0.12734521  0.27731316  0.37087887  1
  V  V48  1  0.12325340  0.74912754  0.87614877  1
  V  V49  1  0.62949122  0.12895416  0.50110687  1
  V  V50  1  0.87575278  0.00771452  0.37140241  1
  V  V51  1  0.37509376  0.74736602  0.62736198  1
  V  V52  1  0.50266315  -0.00047703  0.49866574  1
  V  V53  1  0.62587211  -0.00007845  0.12568430  1
  V  V54  1  0.50106803  -0.00223317  -0.00943530  1
  V  V55  1  0.26029132  0.37527659  0.62778362  1
  V  V56  1  0.87245919  0.23800440  0.13257150  1
  V  V57  1  0.37340986  0.62173776  0.75339099  1
  V  V58  1  0.50206255  0.61405953  0.12726253  1
  V  V59  1  0.48528322  0.49672414  0.49933987  1
  V  V60  1  0.63046441  0.86786385  0.25235979  1
  V  V61  1  -0.00509393  0.49604143  0.48858130  1
  V  V62  1  -0.01205227  0.37700475  0.88354685  1
  V  V63  1  0.50194090  0.62412379  0.62484618  1
  V  V64  1  -0.00261619  0.62335017  0.62687455  1
  V  V65  1  0.37237866  0.75147195  0.11831050  1
  V  V66  1  0.13883398  0.47895923  0.14772401  1
  V  V67  1  0.00052530  0.87598690  0.37427551  1
  V  V68  1  0.24685428  0.61799380  0.86959800  1
  V  V69  1  0.75281993  0.26008581  -0.00337309  1
  V  V70  1  -0.00738595  0.87461484  0.88517312  1
  V  V71  1  0.37089866  0.24973606  0.12265285  1
  V  V72  1  0.48777147  0.24372364  0.74305105  1
  V  V73  1  0.37000135  0.49939031  0.87205207  1
  V  V74  1  0.12745770  0.37681246  0.75046831  1
  V  V75  1  0.49703787  0.37141735  0.38284187  1
  V  V76  1  0.12611928  0.75214214  0.37523758  1
  V  V77  1  0.24227179  0.24561776  0.00282166  1
  V  V78  1  0.77286980  0.49911149  0.75014446  1
  V  V79  1  0.74712896  0.38353394  0.11779695  1
  V  V80  1  -0.00455593  0.74352737  0.24954339  1
  V  V81  1  0.62538067  0.12776784  -0.00241651  1
  V  V82  1  0.87945137  0.75372709  0.11756740  1
  V  V83  1  -0.00540643  0.74776711  0.75003037  1
  V  V84  1  0.26397154  0.25544315  0.50599480  1
  Zn  Zn85  1  0.75358770  0.13259339  0.37580270  1
  Zn  Zn86  1  0.74756205  0.37441043  0.61575168  1
  Zn  Zn87  1  0.37675109  0.12028045  0.24853500  1
  Zn  Zn88  1  0.62587848  0.37243319  0.74341902  1
  Zn  Zn89  1  0.87370679  -0.00137760  0.87939925  1
  Zn  Zn90  1  0.62324898  0.25083872  0.86927161  1
  Zn  Zn91  1  0.74808749  0.86935230  0.62254073  1
  Zn  Zn92  1  0.48731395  0.12492417  0.62759706  1
  Zn  Zn93  1  0.25046727  0.00272266  0.24898761  1
  Zn  Zn94  1  0.75672199  0.62296446  0.86687039  1
  Zn  Zn95  1  0.24775392  0.75305138  0.50334917  1
  Zn  Zn96  1  0.12579104  0.88006623  0.75483640  1
  Zn  Zn97  1  0.00693609  0.25342245  0.23437010  1
  Zn  Zn98  1  -0.06049310  0.52463447  -0.03864735  1
  Zn  Zn99  1  0.55396697  0.81364277  0.92096759  1
  Zn  Zn100  1  0.37431810  -0.00008239  0.87172804  1
  Zn  Zn101  1  0.24708097  0.74861622  -0.00207960  1
  Zn  Zn102  1  0.37613471  -0.00305348  0.36826619  1
  Zn  Zn103  1  0.73917709  0.75637625  0.98821208  1
  Zn  Zn104  1  -0.01880334  0.39536303  0.33377054  1
  Zn  Zn105  1  0.87328209  0.12509116  0.74554005  1
  Zn  Zn106  1  0.74219399  0.75045318  0.49076194  1
  Zn  Zn107  1  0.18953373  0.19311198  0.19236197  1
  Zn  Zn108  1  0.18244739  0.19488932  0.68570064  1
  Zn  Zn109  1  0.18287010  0.68868772  0.18566562  1
  Zn  Zn110  1  0.18468200  0.68837169  0.69135054  1
  Zn  Zn111  1  0.68648106  0.19175029  0.18559367  1
  Zn  Zn112  1  0.68065513  0.18689979  0.68880629  1
  Zn  Zn113  1  0.70507518  0.66807548  0.16006739  1
  Zn  Zn114  1  0.69039725  0.68025583  0.68604605  1
  Zn  Zn115  1  0.31789038  0.30099632  0.31580704  1
  Zn  Zn116  1  0.30968883  0.30906031  0.81388550  1
  Zn  Zn117  1  0.31197171  0.81458747  0.31190672  1
  Zn  Zn118  1  0.31247248  0.80839748  0.81330531  1
  Zn  Zn119  1  0.80834343  0.31801712  0.30513078  1
  Zn  Zn120  1  0.80891184  0.31553179  0.80361373  1
  Zn  Zn121  1  0.81251311  0.81230668  0.31056446  1
  Zn  Zn122  1  0.81227195  0.81039228  0.81170048  1
  Zn  Zn123  1  0.19501100  0.44397933  0.44925327  1
  Zn  Zn124  1  0.18440208  0.43262671  0.93648246  1
  Zn  Zn125  1  0.18790891  0.93913094  0.44073597  1
  Zn  Zn126  1  0.18062397  0.93686975  0.94212513  1
  Zn  Zn127  1  0.68678437  0.44473562  0.43242107  1
  Zn  Zn128  1  0.68320961  0.45018278  0.92846527  1
  Zn  Zn129  1  0.68873040  0.93798184  0.43550470  1
  Zn  Zn130  1  0.69141539  0.94097903  0.93814328  1
  Zn  Zn131  1  0.31110760  0.06382489  0.06060615  1
  Zn  Zn132  1  0.31189911  0.05912336  0.54169741  1
  Zn  Zn133  1  0.30938717  0.56336423  0.05736603  1
  Zn  Zn134  1  0.30915424  0.56298366  0.56521235  1
  Zn  Zn135  1  0.81226732  0.06331670  0.05797316  1
  Zn  Zn136  1  0.81141043  0.06075704  0.56021897  1
  Zn  Zn137  1  0.81121785  0.57340452  0.04900963  1
  Zn  Zn138  1  0.81028823  0.56045380  0.55505237  1
  Zn  Zn139  1  0.41711319  0.43153689  0.19180167  1
  Zn  Zn140  1  0.44207365  0.43908067  0.69095380  1
  Zn  Zn141  1  0.43693089  0.93915661  0.18438253  1
  Zn  Zn142  1  0.44581054  0.92856504  0.68596983  1
  Zn  Zn143  1  0.93402726  0.43730137  0.15288145  1
  Zn  Zn144  1  0.94183483  0.42977569  0.67567613  1
  Zn  Zn145  1  0.93999934  0.94408273  0.18710403  1
  Zn  Zn146  1  0.93810727  0.93202613  0.68770906  1
  Zn  Zn147  1  0.06111649  0.07003850  0.30550709  1
  Zn  Zn148  1  0.05864148  0.06605359  0.81390468  1
  Zn  Zn149  1  0.07043283  0.56088312  0.30630753  1
  Zn  Zn150  1  0.05790973  0.56071722  0.80986417  1
  Zn  Zn151  1  0.56611141  0.06242637  0.31232481  1
  Zn  Zn152  1  0.56410959  0.06464397  0.80997022  1
  Zn  Zn153  1  0.54673186  0.56024973  0.31320475  1
  Zn  Zn154  1  0.56502878  0.56355253  0.81676660  1
  Zn  Zn155  1  0.44101141  0.18478076  0.43774971  1
  Zn  Zn156  1  0.43309943  0.18513438  0.93189089  1
  Zn  Zn157  1  0.43824594  0.68968521  0.43738791  1
  Zn  Zn158  1  0.62162652  0.63716973  0.99082005  1
  Zn  Zn159  1  0.95753100  0.18524237  0.39921465  1
  Zn  Zn160  1  0.93059762  0.19301157  0.93601230  1
  Zn  Zn161  1  0.93970365  0.68738381  0.43859921  1
  Zn  Zn162  1  0.92376277  0.69169762  0.93579192  1
  Zn  Zn163  1  0.05763627  0.31359374  0.06600053  1
  Zn  Zn164  1  0.06170008  0.31442940  0.55769593  1
  Zn  Zn165  1  0.06246321  0.81192495  0.06050707  1
  Zn  Zn166  1  0.06263417  0.81402764  0.56426580  1
  Zn  Zn167  1  0.56452468  0.31409055  0.05990550  1
  Zn  Zn168  1  0.55914384  0.31084590  0.56521073  1
  Zn  Zn169  1  0.56350321  0.81073070  0.07943168  1
  Zn  Zn170  1  0.56457676  0.80848109  0.56601798  1
  O  O171  1  0.12518639  0.11706976  0.13123943  1
  O  O172  1  0.11997520  0.12259377  0.61410515  1
  O  O173  1  0.11528764  0.63552077  0.11042846  1
  O  O174  1  0.11996242  0.61824730  0.62208815  1
  O  O175  1  0.62034918  0.11954659  0.11798519  1
  O  O176  1  0.62164308  0.11227348  0.61922365  1
  O  O177  1  0.59907363  0.62097168  0.14595344  1
  O  O178  1  0.61902249  0.61678333  0.61344179  1
  O  O179  1  0.38842897  0.36594175  0.38976864  1
  O  O180  1  0.38094109  0.37909046  0.87938586  1
  O  O181  1  0.38714075  0.87437193  0.38022928  1
  O  O182  1  0.36692589  0.87718965  0.88911194  1
  O  O183  1  0.87570895  0.37215412  0.38259758  1
  O  O184  1  0.89029634  0.36520980  0.86818553  1
  O  O185  1  0.88063353  0.88226870  0.38137571  1
  O  O186  1  0.89006620  0.88080229  0.86710104  1
  O  O187  1  0.25323725  0.00996415  0.37693540  1
  O  O188  1  0.24218520  0.01356847  0.88100643  1
  O  O189  1  0.26592236  0.51112777  0.38572173  1
  O  O190  1  0.25656807  0.50492581  0.87865870  1
  O  O191  1  0.75825109  -0.00030455  0.36628884  1
  O  O192  1  0.75363666  0.00743040  0.86637407  1
  O  O193  1  0.74397862  0.51296180  0.35671349  1
  O  O194  1  0.75988264  0.48700628  0.85168649  1
  O  O195  1  0.23294839  0.50862432  0.12084966  1
  O  O196  1  0.23486302  0.49180820  0.61826855  1
  O  O197  1  0.23515543  0.99786605  0.12345061  1
  O  O198  1  0.24720359  0.99941818  0.63107817  1
  O  O199  1  0.74525706  0.49551664  0.13988040  1
  O  O200  1  0.74145003  0.50104529  0.62833059  1
  O  O201  1  0.74809376  0.99503784  0.13170722  1
  O  O202  1  0.74201737  0.99662270  0.63126866  1
  O  O203  1  -0.01080265  0.36842911  0.22813566  1
  O  O204  1  0.00751935  0.36437059  0.75084855  1
  O  O205  1  0.01081014  0.87270233  0.25439361  1
  O  O206  1  0.00475772  0.86441042  0.75641630  1
  O  O207  1  0.50102482  0.36603664  0.25688830  1
  O  O208  1  0.50000922  0.36453532  0.75668911  1
  O  O209  1  0.50596045  0.87118660  0.25556771  1
  O  O210  1  0.51182334  0.86048064  0.74767245  1
  O  O211  1  0.50197647  0.13217411  0.24280529  1
  O  O212  1  0.50075183  0.13776503  0.74838784  1
  O  O213  1  0.48727515  0.63733742  0.24831247  1
  O  O214  1  0.49688964  0.62801363  0.74403602  1
  O  O215  1  0.99339706  0.15486934  0.29171355  1
  O  O216  1  0.99647278  0.13702251  0.74256473  1
  O  O217  1  1.01078871  0.63566410  0.24009063  1
  O  O218  1  1.00145376  0.63874373  0.74502662  1
  O  O219  1  0.36758837  0.25425490  0.00440613  1
  O  O220  1  0.36184795  0.24160645  0.50236621  1
  O  O221  1  0.37341601  0.75903833  0.01329668  1
  O  O222  1  0.37426797  0.75539588  0.50914392  1
  O  O223  1  0.85639340  0.24663798  0.00533877  1
  O  O224  1  0.88296930  0.26559780  0.50109134  1
  O  O225  1  0.87765028  0.76184683  0.01738966  1
  O  O226  1  0.87590689  0.76108427  0.50228007  1
  O  O227  1  0.13404569  0.24675394  0.49002591  1
  O  O228  1  0.13181125  0.25587203  0.99179903  1
  O  O229  1  0.12332954  0.74409689  0.49334081  1
  O  O230  1  0.12209665  0.74329920  0.98606207  1
  O  O231  1  0.61608986  0.24000219  0.49133664  1
  O  O232  1  0.63175421  0.24242880  0.99423655  1
  O  O233  1  0.62429964  0.73116256  0.50354458  1
  O  O234  1  0.61842687  0.75663597  0.99689939  1
  O  O235  1  0.49616392  0.24448277  0.13071449  1
  O  O236  1  0.49649248  0.24595125  0.63707503  1
  O  O237  1  0.48938741  0.74162814  0.13597404  1
  O  O238  1  0.49325721  0.74097071  0.63060322  1
  O  O239  1  0.97770660  0.24778011  0.11710765  1
  O  O240  1  0.99496011  0.24560587  0.62856348  1
  O  O241  1  0.99456067  0.74891581  0.13120508  1
  O  O242  1  0.99569849  0.74518988  0.63200791  1
  O  O243  1  0.02377994  0.28210196  0.38546338  1
  O  O244  1  0.00391243  0.25444715  0.86606745  1
  O  O245  1  0.00639132  0.75475444  0.36820591  1
  O  O246  1  -0.00140901  0.75666430  0.87096241  1
  O  O247  1  0.50635752  0.25340555  0.36806880  1
  O  O248  1  0.49955136  0.25668721  0.86754796  1
  O  O249  1  0.49660963  0.75760623  0.36186299  1
  O  O250  1  0.49534576  0.73961777  0.85941053  1
  O  O251  1  0.24249739  0.13655670  0.49623053  1
  O  O252  1  0.25059209  0.13681336  0.99246317  1
  O  O253  1  0.24315698  0.62945658  0.49416382  1
  O  O254  1  0.24146459  0.62877004  0.98653240  1
  O  O255  1  0.73247076  0.11634198  0.49687391  1
  O  O256  1  0.74336467  0.13047739  0.98921366  1
  O  O257  1  0.73889669  0.62102917  0.47957093  1
  O  O258  1  0.72549843  0.64669091  1.04596837  1
  O  O259  1  0.26116204  0.36210717  -0.00964042  1
  O  O260  1  0.25116729  0.36284442  0.51058451  1
  O  O261  1  0.25480340  0.87284637  0.00668009  1
  O  O262  1  0.25684087  0.87702718  0.51334525  1
  O  O263  1  0.73547296  0.37055301  0.00455322  1
  O  O264  1  0.76600533  0.38473408  0.49568196  1
  O  O265  1  0.74622857  0.87606271  0.01694284  1
  O  O266  1  0.75772263  0.87034044  0.49901526  1
  O  O267  1  0.13847363  0.49050362  0.24757245  1
  O  O268  1  0.11852143  0.48897887  0.74104384  1
  O  O269  1  0.12134230  0.99682643  0.23757231  1
  O  O270  1  0.11703696  1.00179744  0.73539673  1
  O  O271  1  0.61256593  0.48846605  0.25364598  1
  O  O272  1  0.61527101  0.49660595  0.73130502  1
  O  O273  1  0.63123998  0.99055081  0.24558232  1
  O  O274  1  0.63242571  0.99340971  0.74297280  1
  O  O275  1  0.37056273  0.00265791  0.25009357  1
  O  O276  1  0.37403615  -0.00849179  0.75298362  1
  O  O277  1  0.38830432  0.52701877  0.25731354  1
  O  O278  1  0.38164483  0.50549945  0.76443928  1
  O  O279  1  0.86746838  -0.00225263  0.26047824  1
  O  O280  1  0.86276111  0.00128458  0.74485816  1
  O  O281  1  0.86536237  0.49481004  0.24607367  1
  O  O282  1  0.87096708  0.49655328  0.73667226  1
  O  O283  1  0.14690141  0.37395590  0.37260126  1
  O  O284  1  0.11701867  0.36493522  0.86649614  1
  O  O285  1  0.12012490  0.87413716  0.36885439  1
  O  O286  1  0.11570399  0.86679545  0.87372930  1
  O  O287  1  0.61496790  0.36967932  0.36931754  1
  O  O288  1  0.60832079  0.37749018  0.87188085  1
  O  O289  1  0.61418620  0.87762746  0.36842668  1
  O  O290  1  0.62805914  0.88000299  0.86161357  1
  O  O291  1  0.38274694  0.13429118  0.12194881  1
  O  O292  1  0.36669359  0.10729491  0.63342130  1
  O  O293  1  0.37668520  0.63446477  0.13020195  1
  O  O294  1  0.37904765  0.62723431  0.63340128  1
  O  O295  1  0.86165337  0.13914700  0.12515722  1
  O  O296  1  0.88140849  0.13225889  0.61854545  1
  O  O297  1  0.88653813  0.64734609  0.12829363  1
  O  O298  1  0.88184903  0.63734625  0.61014989  1
  O  O299  1  0.25893805  0.24392367  0.11646784  1
  O  O300  1  0.24568627  0.25823560  0.61316980  1
  O  O301  1  0.25613833  0.75785688  0.12351260  1
  O  O302  1  0.25456600  0.75787171  0.62538048  1
  O  O303  1  0.74835907  0.25628592  0.11350039  1
  O  O304  1  0.76031378  0.24607421  0.62380605  1
  O  O305  1  0.77090727  0.76403356  0.14037159  1
  O  O306  1  0.75842872  0.74810054  0.61758073  1
  O  O307  1  0.24584168  0.24526783  0.38645617  1
  O  O308  1  0.24043248  0.24154064  0.88137697  1
  O  O309  1  0.24292568  0.74743396  0.37921363  1
  O  O310  1  0.23826696  0.74206666  0.87502486  1
  O  O311  1  0.73453359  0.25109215  0.36797436  1
  O  O312  1  0.74766420  0.24543896  0.87700752  1
  O  O313  1  0.75128843  0.73232776  0.36951020  1
  O  O314  1  0.76860136  0.73702647  0.88070508  1
  O  O315  1  -0.00095399  0.11422744  -0.01054879  1
  O  O316  1  0.00980140  0.12276100  0.49653713  1
  O  O317  1  0.00649803  0.62441112  0.00602090  1
  O  O318  1  0.00613794  0.61677379  0.50364986  1
  O  O319  1  0.50553245  0.11927152  0.00240684  1
  O  O320  1  0.50667192  0.11439391  0.50427025  1
  O  O321  1  0.50625035  0.61383976  0.01947029  1
  O  O322  1  0.50589457  0.61808321  0.50112648  1
  O  O323  1  0.50747338  0.38503006  0.49233089  1
  O  O324  1  0.48723483  0.37549196  0.99302052  1
  O  O325  1  0.50010671  0.87823949  0.49289039  1
  O  O326  1  0.49345466  0.88072607  1.00080020  1
  O  O327  1  0.98867238  0.38699187  0.50560785  1
  O  O328  1  0.99852195  0.36946609  0.98284858  1
  O  O329  1  0.99449442  0.88150517  0.49465037  1
  O  O330  1  1.00518694  0.88250759  0.98769254  1
  O  O331  1  0.47984834  0.48677837  0.37826528  1
  O  O332  1  0.48931227  0.49235350  0.88571231  1
  O  O333  1  0.50094046  0.99247571  0.38246439  1
  O  O334  1  0.49931311  1.00471199  0.88715234  1
  O  O335  1  1.00956371  0.49701685  0.38363170  1
  O  O336  1  0.99868155  0.48420137  0.87315351  1
  O  O337  1  0.99426216  0.99464258  0.37968203  1
  O  O338  1  1.00161014  0.99303738  0.88550841  1
  O  O339  1  0.00890885  0.00240392  0.11362294  1
  O  O340  1  0.00577618  0.00645814  0.61768350  1
  O  O341  1  0.02986409  0.51495273  0.13687368  1
  O  O342  1  0.01017880  0.50573204  0.61733672  1
  O  O343  1  0.50657799  0.00472603  0.11440512  1
  O  O344  1  0.50763184  0.00013103  0.61729850  1
  O  O345  1  0.48071235  0.50871135  0.12166355  1
  O  O346  1  0.50460465  0.50479225  0.61548946  1
  O  O347  1  0.31835192  0.40306692  0.26642166  1
  O  O348  1  0.23507421  0.36481943  0.74360978  1
  O  O349  1  0.23707609  0.87922569  0.24621241  1
  O  O350  1  0.24677717  0.87139085  0.73841564  1
  O  O351  1  0.73796013  0.38984118  0.24559859  1
  O  O352  1  0.74645458  0.38563231  0.73699599  1
  O  O353  1  0.74400045  0.88464284  0.24626489  1
  O  O354  1  0.74399782  0.88146890  0.74594714  1
  O  O355  1  0.25230608  0.12448223  0.26166484  1
  O  O356  1  0.24703503  0.12537499  0.75485150  1
  O  O357  1  0.25588858  0.63517887  0.25886157  1
  O  O358  1  0.25343582  0.62779433  0.76206855  1
  O  O359  1  0.73829074  0.11162694  0.25355999  1
  O  O360  1  0.74864291  0.11617221  0.75472946  1
  O  O361  1  0.74856724  0.61401828  0.25471967  1
  O  O362  1  0.75034172  0.60373016  0.74717413  1
  O  O363  1  0.36431875  0.12310172  0.37659317  1
  O  O364  1  0.35999700  0.11831645  0.87469071  1
  O  O365  1  0.36151152  0.63826869  0.36757130  1
  O  O366  1  0.36217075  0.61349794  0.86972858  1
  O  O367  1  0.86841684  0.10956934  0.39229665  1
  O  O368  1  0.86249185  0.12364632  0.86930845  1
  O  O369  1  0.86476720  0.62426538  0.37620167  1
  O  O370  1  0.85599702  0.60155510  0.93213275  1
  O  O371  1  0.12958766  0.38163702  0.12322293  1
  O  O372  1  0.12903013  0.38135743  0.63118117  1
  O  O373  1  0.12785981  0.87923955  0.13237404  1
  O  O374  1  0.13388705  0.88626069  0.62453387  1
  O  O375  1  0.63204333  0.36718449  0.13690339  1
  O  O376  1  0.62837791  0.38480131  0.61849443  1
  O  O377  1  0.63395618  0.88338758  0.13519479  1
  O  O378  1  0.62603967  0.88467557  0.63177653  1
  O  O379  1  0.13133042  0.25496304  0.26877870  1
  O  O380  1  0.11432772  0.25667869  0.75529470  1
  O  O381  1  0.11749947  0.76109892  0.25549840  1
  O  O382  1  0.11550766  0.75122631  0.76231805  1
  O  O383  1  0.61449658  0.25629245  0.25652734  1
  O  O384  1  0.61337307  0.25444479  0.75082408  1
  O  O385  1  0.61506621  0.76488976  0.24160296  1
  O  O386  1  0.61942650  0.75645366  0.74207801  1
  O  O387  1  0.38630204  0.24294320  0.24094313  1
  O  O388  1  0.38889633  0.25206187  0.75393593  1
  O  O389  1  0.37982547  0.74941381  0.24004131  1
  O  O390  1  0.38227793  0.74273901  0.74513269  1
  O  O391  1  0.86212346  0.24756493  0.23410554  1
  O  O392  1  0.88073344  0.24922926  0.73503912  1
  O  O393  1  0.89319320  0.75985054  0.24677045  1
  O  O394  1  0.88275683  0.75487951  0.73491689  1
  O  O395  1  0.38488823  0.50518005  0.50040643  1
  O  O396  1  0.37737827  0.49048719  0.99294987  1
  O  O397  1  0.38965396  0.99024097  0.49613718  1
  O  O398  1  0.38369894  0.99176031  1.00126219  1
  O  O399  1  0.88540899  0.48863134  0.50260639  1
  O  O400  1  0.89830959  0.50244525  1.06283231  1
  O  O401  1  0.87973282  0.98800417  0.49631935  1
  O  O402  1  0.89046136  1.00153460  1.00002270  1
  O  O403  1  0.11354540  0.00073691  0.01389329  1
  O  O404  1  0.12228933  0.00980602  0.51050261  1
  O  O405  1  0.12632280  0.51007841  -0.00106339  1
  O  O406  1  0.11775193  0.50642953  0.50739472  1
  O  O407  1  0.61918409  0.00575459  0.00493433  1
  O  O408  1  0.61680596  0.00155628  0.50574178  1
  O  O409  1  0.60552043  0.48554325  0.00857884  1
  O  O410  1  0.61636488  0.51049805  0.50353844  1
  O  O411  1  0.37919328  0.35772381  0.11267245  1
  O  O412  1  0.35878857  0.38548107  0.63437583  1
  O  O413  1  0.36823023  0.87065764  0.11716335  1
  O  O414  1  0.36894010  0.86880855  0.62076794  1
  O  O415  1  0.84849038  0.35985172  0.12408298  1
  O  O416  1  0.87143681  0.36435934  0.61146766  1
  O  O417  1  0.87038192  0.87014303  0.13370440  1
  O  O418  1  0.87499794  0.86460376  0.61435734  1
  O  O419  1  0.13737914  0.12538177  0.38608612  1
  O  O420  1  0.12923319  0.13919643  0.86823360  1
  O  O421  1  0.13766182  0.62967471  0.37811779  1
  O  O422  1  0.12679824  0.62862262  0.87896194  1
  O  O423  1  0.62348405  0.13442605  0.38322730  1
  O  O424  1  0.63683149  0.12482007  0.87870940  1
  O  O425  1  0.61755045  0.62076102  0.38336726  1
  O  O426  1  0.64399156  0.59253266  0.88927119  1
