# generated using pymatgen
data_V85Zn86O256
_symmetry_space_group_name_H-M   'P 1'
_cell_length_a   16.93459691
_cell_length_b   16.91729429
_cell_length_c   16.93142854
_cell_angle_alpha   90.04165444
_cell_angle_beta   89.92867246
_cell_angle_gamma   89.93643549
_symmetry_Int_Tables_number   1
_chemical_formula_structural   V85Zn86O256
_chemical_formula_sum   'V85 Zn86 O256'
_cell_volume   4850.63561296
_cell_formula_units_Z   1
loop_
 _symmetry_equiv_pos_site_id
 _symmetry_equiv_pos_as_xyz
  1  'x, y, z'
loop_
 _atom_site_type_symbol
 _atom_site_label
 _atom_site_symmetry_multiplicity
 _atom_site_fract_x
 _atom_site_fract_y
 _atom_site_fract_z
 _atom_site_occupancy
  V  V0  1  0.37944582  0.73650858  0.12904385  1
  V  V1  1  0.87534355  0.62600693  0.74859505  1
  V  V2  1  0.62274697  0.75519971  0.37500868  1
  V  V3  1  0.12647225  0.62927069  0.49034464  1
  V  V4  1  0.48376319  0.49865209  0.50562863  1
  V  V5  1  0.50091494  0.37206641  0.86832936  1
  V  V6  1  0.62725371  0.24259447  0.87079618  1
  V  V7  1  0.49918380  0.49910935  0.00440309  1
  V  V8  1  0.62426685  0.11953305  0.50246779  1
  V  V9  1  0.37586531  0.13124661  0.24692080  1
  V  V10  1  0.24468695  0.00432446  0.25812823  1
  V  V11  1  0.12661712  0.50243109  0.12772216  1
  V  V12  1  0.37433894  0.51499874  0.87245009  1
  V  V13  1  0.12983918  0.74736143  0.87586479  1
  V  V14  1  0.25458415  0.51310860  0.75302967  1
  V  V15  1  0.87613020  0.50236056  0.37386150  1
  V  V16  1  0.61432745  0.00569297  0.11827387  1
  V  V17  1  0.62499975  0.61510013  0.50910127  1
  V  V18  1  0.12433226  0.37562707  0.24972189  1
  V  V19  1  0.87591969  0.49960316  0.87400879  1
  V  V20  1  0.74733128  0.62687655  0.37478182  1
  V  V21  1  0.00108027  0.50142277  0.49931192  1
  V  V22  1  -0.00030040  0.24399925  0.24953412  1
  V  V23  1  0.87232681  0.12567430  0.24896844  1
  V  V24  1  0.00097530  -0.00408818  0.49568743  1
  V  V25  1  0.38089367  0.87604835  0.00508411  1
  V  V26  1  0.74960664  0.62591627  0.87742199  1
  V  V27  1  0.00077505  0.50094119  0.00024878  1
  V  V28  1  0.24976626  0.36465398  0.12158391  1
  V  V29  1  0.74901866  0.00177824  0.76550925  1
  V  V30  1  0.47972691  0.37909820  0.38024237  1
  V  V31  1  -0.00088266  0.75070913  0.74697468  1
  V  V32  1  0.87172012  0.11971594  0.76297266  1
  V  V33  1  0.74505628  0.88323074  0.62391891  1
  V  V34  1  0.13389459  0.12518518  0.49797137  1
  V  V35  1  0.49991006  0.87813757  0.36697607  1
  V  V36  1  0.12883018  0.23894926  0.37402241  1
  V  V37  1  0.87658992  -0.00292450  0.37272073  1
  V  V38  1  0.62308012  0.50360589  0.12650309  1
  V  V39  1  0.75169017  0.37491401  0.12437828  1
  V  V40  1  0.61854513  0.87879880  0.74493039  1
  V  V41  1  -0.00345467  0.63554848  0.12384056  1
  V  V42  1  0.49935074  0.87571630  0.87823680  1
  V  V43  1  0.12856743  0.62662404  -0.00143840  1
  V  V44  1  -0.00038855  0.12277035  0.62462032  1
  V  V45  1  -0.00748069  0.00097426  -0.00212908  1
  V  V46  1  0.27204225  0.50218162  0.24941665  1
  V  V47  1  0.87459500  0.87343862  0.49744461  1
  V  V48  1  0.00603733  0.76066180  0.25589335  1
  V  V49  1  0.37355752  0.36908980  -0.00275187  1
  V  V50  1  0.87195826  0.86693374  0.00336978  1
  V  V51  1  0.75069839  0.23823737  -0.00369072  1
  V  V52  1  0.00142821  0.37468572  0.37469270  1
  V  V53  1  0.13316380  -0.00333618  0.62294456  1
  V  V54  1  0.62454689  0.37323350  0.74240391  1
  V  V55  1  0.25605025  0.74752959  -0.00047108  1
  V  V56  1  0.74788979  0.49995841  0.74081831  1
  V  V57  1  0.12789738  0.37702703  0.75026951  1
  V  V58  1  0.25658714  0.37809128  0.61693358  1
  V  V59  1  0.24974064  0.87348411  0.13396215  1
  V  V60  1  0.13125251  0.12313162  -0.00703671  1
  V  V61  1  0.50394795  0.12660095  0.63252035  1
  V  V62  1  0.12789253  0.50279360  0.62254834  1
  V  V63  1  0.87510723  0.37473843  -0.00101475  1
  V  V64  1  0.12301440  -0.00395412  0.12862858  1
  V  V65  1  0.37452720  0.00440909  0.88147179  1
  V  V66  1  0.62770201  0.37440758  0.25825297  1
  V  V67  1  0.37701098  0.74895737  0.63662961  1
  V  V68  1  0.62117795  0.75103507  0.87161554  1
  V  V69  1  0.12898207  0.87581547  0.74805673  1
  V  V70  1  0.49693499  0.73375439  0.25006565  1
  V  V71  1  0.50139072  -0.00366733  0.50827653  1
  V  V72  1  0.24916372  0.00591590  0.75735701  1
  V  V73  1  0.37146457  0.13411041  0.75130074  1
  V  V74  1  0.26743717  0.62741272  0.37059234  1
  V  V75  1  0.74914225  0.24835714  0.49967180  1
  V  V76  1  -0.00789496  0.87825239  0.87434678  1
  V  V77  1  0.37259669  0.00630160  0.37791161  1
  V  V78  1  0.74468277  0.86863438  0.13112410  1
  V  V79  1  0.37878335  0.25231993  0.61694478  1
  V  V80  1  0.00038848  0.25059520  0.75068816  1
  V  V81  1  0.87405741  0.63392739  0.24549000  1
  V  V82  1  0.73821806  -0.00113357  0.25008273  1
  V  V83  1  0.87404958  0.24921876  0.62427756  1
  V  V84  1  0.61590951  0.62797578  0.00283188  1
  Zn  Zn85  1  0.75156201  0.50180638  0.24933501  1
  Zn  Zn86  1  0.44333265  0.19697596  0.08895532  1
  Zn  Zn87  1  0.25643421  0.24226405  -0.00881447  1
  Zn  Zn88  1  0.37067266  0.87474612  0.50932171  1
  Zn  Zn89  1  0.49962853  0.62311395  0.64154864  1
  Zn  Zn90  1  0.87489868  0.37409121  0.49956692  1
  Zn  Zn91  1  0.00030428  0.62905662  0.62103198  1
  Zn  Zn92  1  0.74632095  0.12430601  0.37507204  1
  Zn  Zn93  1  0.87626866  0.24948153  0.12379543  1
  Zn  Zn94  1  0.12952319  0.76451884  0.37348098  1
  Zn  Zn95  1  0.87151717  0.75202894  0.62451915  1
  Zn  Zn96  1  0.75136772  0.74613966  0.00547052  1
  Zn  Zn97  1  0.25442356  0.25380058  0.49437039  1
  Zn  Zn98  1  0.50322297  0.24725409  0.25054320  1
  Zn  Zn99  1  0.00069230  0.12522304  0.12372672  1
  Zn  Zn100  1  0.60672209  0.12524121  0.00104356  1
  Zn  Zn101  1  0.25007802  0.76144999  0.50896940  1
  Zn  Zn102  1  0.74551610  0.75199552  0.50400573  1
  Zn  Zn103  1  0.62207574  0.25050350  0.37761230  1
  Zn  Zn104  1  0.13431550  0.24247721  0.86803112  1
  Zn  Zn105  1  0.74659721  0.37779401  0.62134746  1
  Zn  Zn106  1  0.00246266  0.37433752  0.87551657  1
  Zn  Zn107  1  0.18651532  0.18037751  0.18674026  1
  Zn  Zn108  1  0.19005578  0.18888137  0.68326536  1
  Zn  Zn109  1  0.18956845  0.68610468  0.19077835  1
  Zn  Zn110  1  0.18829379  0.68926925  0.68280359  1
  Zn  Zn111  1  0.68625610  0.18806976  0.18606260  1
  Zn  Zn112  1  0.68772176  0.18460535  0.68768368  1
  Zn  Zn113  1  0.68087954  0.68834803  0.19168832  1
  Zn  Zn114  1  0.68654612  0.69275415  0.68895603  1
  Zn  Zn115  1  0.30670787  0.31381781  0.31078464  1
  Zn  Zn116  1  0.31002269  0.31736323  0.81095796  1
  Zn  Zn117  1  0.31588351  0.81432485  0.31594869  1
  Zn  Zn118  1  0.30924693  0.81826504  0.81312923  1
  Zn  Zn119  1  0.81224583  0.31276471  0.31489608  1
  Zn  Zn120  1  0.81073249  0.31211861  0.81276361  1
  Zn  Zn121  1  0.81246839  0.81199214  0.31198282  1
  Zn  Zn122  1  0.80892916  0.81393776  0.81391600  1
  Zn  Zn123  1  0.19142245  0.44165775  0.43147273  1
  Zn  Zn124  1  0.19018085  0.43699251  0.93406785  1
  Zn  Zn125  1  0.19266745  0.93309653  0.43897769  1
  Zn  Zn126  1  0.18748008  0.93437301  0.93978970  1
  Zn  Zn127  1  0.69201649  0.43904091  0.43988489  1
  Zn  Zn128  1  0.68826933  0.43503432  0.93461934  1
  Zn  Zn129  1  0.68601547  0.93848582  0.43723698  1
  Zn  Zn130  1  0.68585305  0.93760782  0.94281686  1
  Zn  Zn131  1  0.31129556  0.05870310  0.06609004  1
  Zn  Zn132  1  0.31400906  0.06062595  0.56530397  1
  Zn  Zn133  1  0.31334029  0.56010248  0.06085140  1
  Zn  Zn134  1  0.31183481  0.57525304  0.56540330  1
  Zn  Zn135  1  0.81144022  0.05754724  0.06494854  1
  Zn  Zn136  1  0.81095479  0.06158706  0.56760504  1
  Zn  Zn137  1  0.81110802  0.56332127  0.06284481  1
  Zn  Zn138  1  0.81502206  0.56688427  0.56167680  1
  Zn  Zn139  1  0.44681502  0.40797488  0.17807067  1
  Zn  Zn140  1  0.43719703  0.44189817  0.68692479  1
  Zn  Zn141  1  0.43455309  0.93634990  0.19289318  1
  Zn  Zn142  1  0.43465766  0.93715603  0.68987258  1
  Zn  Zn143  1  0.93824400  0.44094955  0.18784846  1
  Zn  Zn144  1  0.93765798  0.43675166  0.68471531  1
  Zn  Zn145  1  0.92813934  0.93898474  0.18000456  1
  Zn  Zn146  1  0.93532871  0.93876818  0.68510488  1
  Zn  Zn147  1  0.05923221  -0.06156278  0.30808705  1
  Zn  Zn148  1  0.05796150  0.06125025  0.81326581  1
  Zn  Zn149  1  0.06393914  0.56700111  0.31053307  1
  Zn  Zn150  1  0.06457084  0.56434671  0.81190397  1
  Zn  Zn151  1  0.55830902  0.06574240  0.31447972  1
  Zn  Zn152  1  0.55942655  0.05875921  0.81359779  1
  Zn  Zn153  1  0.56021821  0.55729192  0.31820276  1
  Zn  Zn154  1  0.56750192  0.55441472  0.81770477  1
  Zn  Zn155  1  0.43965564  0.18669108  0.43680245  1
  Zn  Zn156  1  0.44088238  0.18879472  0.92301611  1
  Zn  Zn157  1  0.43950412  0.69072533  0.44768923  1
  Zn  Zn158  1  0.44099053  0.68858551  0.81023580  1
  Zn  Zn159  1  0.93999686  0.18260053  0.43501893  1
  Zn  Zn160  1  0.94165226  0.18890802  0.93736309  1
  Zn  Zn161  1  0.93701860  0.69050935  0.43503338  1
  Zn  Zn162  1  0.93919916  0.68965622  0.93493067  1
  Zn  Zn163  1  0.06300533  0.31034122  0.06210452  1
  Zn  Zn164  1  0.06456982  0.31404315  0.56315269  1
  Zn  Zn165  1  0.06288212  0.81433311  0.06364472  1
  Zn  Zn166  1  0.06539990  0.81535065  0.55966145  1
  Zn  Zn167  1  0.56800368  0.31546179  0.06121517  1
  Zn  Zn168  1  0.55960337  0.31145828  0.56111500  1
  Zn  Zn169  1  0.56244628  0.81341351  0.06685760  1
  Zn  Zn170  1  0.55559632  0.80870123  0.56361744  1
  O  O171  1  0.12200036  0.11168651  0.11578606  1
  O  O172  1  0.11827424  0.11854470  0.61841692  1
  O  O173  1  0.11846440  0.61949324  0.12027087  1
  O  O174  1  0.12364558  0.61976705  0.61049246  1
  O  O175  1  0.62696073  0.11096219  0.12492218  1
  O  O176  1  0.61352493  0.12915936  0.61865824  1
  O  O177  1  0.63130237  0.61143025  0.11945231  1
  O  O178  1  0.62531725  0.63130831  0.61066912  1
  O  O179  1  0.38134265  0.37609862  0.37473393  1
  O  O180  1  0.38431669  0.38199080  0.87910937  1
  O  O181  1  0.38277996  0.88863785  0.37692658  1
  O  O182  1  0.38082078  0.88106551  0.88350201  1
  O  O183  1  0.88332214  0.38328992  0.37552626  1
  O  O184  1  0.87812889  0.38225249  0.88006009  1
  O  O185  1  0.86745788  0.88211277  0.38778399  1
  O  O186  1  0.88605996  0.87046146  0.88138489  1
  O  O187  1  0.25722327  -0.00089185  0.36494530  1
  O  O188  1  0.25839143  -0.00613776  0.86743643  1
  O  O189  1  0.24865307  0.51259044  0.36125882  1
  O  O190  1  0.26213176  0.49666035  0.86621553  1
  O  O191  1  0.75792503  0.00062368  0.36724106  1
  O  O192  1  0.75136305  -0.00551415  0.86444174  1
  O  O193  1  0.75770398  0.50977059  0.37259989  1
  O  O194  1  0.75857973  0.50582375  0.86861078  1
  O  O195  1  0.24143758  0.49654469  0.13079958  1
  O  O196  1  0.24713313  0.49755249  0.63044166  1
  O  O197  1  0.24247728  0.99220214  0.13405207  1
  O  O198  1  0.23738182  1.00395119  0.63399090  1
  O  O199  1  0.74373442  0.49004081  0.12584953  1
  O  O200  1  0.75804740  0.49887426  0.63675841  1
  O  O201  1  0.74233443  0.99139239  0.13317540  1
  O  O202  1  0.75138725  0.98788754  0.63412090  1
  O  O203  1  0.00446517  0.36618666  0.25319419  1
  O  O204  1  0.00792916  0.36739610  0.74777762  1
  O  O205  1  -0.00781874  0.86424354  0.24300145  1
  O  O206  1  0.00571939  0.87216414  0.75694887  1
  O  O207  1  0.50978515  0.37849778  0.27014242  1
  O  O208  1  0.51116881  0.38605754  0.75823448  1
  O  O209  1  0.49881920  0.86983664  0.26431615  1
  O  O210  1  0.51291126  0.88443303  0.75913434  1
  O  O211  1  0.48374717  0.12860093  0.25207190  1
  O  O212  1  0.48895620  0.11637840  0.73900433  1
  O  O213  1  0.49896035  0.63495325  0.25722622  1
  O  O214  1  0.51229812  0.62408164  0.75425175  1
  O  O215  1  0.99111918  0.13852665  0.24961772  1
  O  O216  1  0.99364695  0.13045773  0.74450734  1
  O  O217  1  0.99357461  0.63434382  0.24250404  1
  O  O218  1  0.99571906  0.63476228  0.74818245  1
  O  O219  1  0.37546741  0.26124894  -0.00180980  1
  O  O220  1  0.37160874  0.24345708  0.51193227  1
  O  O221  1  0.36631638  0.76045926  0.01245701  1
  O  O222  1  0.37130142  0.75313296  0.51093486  1
  O  O223  1  0.87011785  0.25694876  0.00042577  1
  O  O224  1  0.87051899  0.24589359  0.50773141  1
  O  O225  1  0.87448039  0.76162507  -0.00166553  1
  O  O226  1  0.87290609  0.76003290  0.50109167  1
  O  O227  1  0.12332016  0.24151016  0.49408205  1
  O  O228  1  0.12051724  0.23139483  0.99911596  1
  O  O229  1  0.12837851  0.74309205  0.49726388  1
  O  O230  1  0.13142031  0.74835160  0.99363578  1
  O  O231  1  0.63334507  0.24158914  0.50085050  1
  O  O232  1  0.63482140  0.25045118  0.99239721  1
  O  O233  1  0.62150249  0.73759791  0.48905773  1
  O  O234  1  0.62373581  0.74314721  0.99324151  1
  O  O235  1  0.49121672  0.28544866  0.14007494  1
  O  O236  1  0.49118625  0.24038639  0.62264781  1
  O  O237  1  0.49590444  0.75313651  0.14165391  1
  O  O238  1  0.48761924  0.74109254  0.62316059  1
  O  O239  1  0.99719977  0.24834320  0.13478533  1
  O  O240  1  0.99507270  0.24510283  0.63333037  1
  O  O241  1  1.00330226  0.74068388  0.13215994  1
  O  O242  1  1.00026147  0.75316568  0.63798607  1
  O  O243  1  0.00538217  0.25591700  0.36868276  1
  O  O244  1  0.00584601  0.25161419  0.86067211  1
  O  O245  1  0.00195677  0.74821829  0.35837964  1
  O  O246  1  0.00705231  0.75679219  0.86436811  1
  O  O247  1  0.50139533  0.26725836  0.37836116  1
  O  O248  1  0.50911834  0.26525625  0.86994619  1
  O  O249  1  0.50259010  0.75576611  0.36881653  1
  O  O250  1  0.50722935  0.76545689  0.87311804  1
  O  O251  1  0.23645801  0.12546740  0.50518589  1
  O  O252  1  0.23478923  0.12260382  1.00490291  1
  O  O253  1  0.24313241  0.62504942  0.48433152  1
  O  O254  1  0.24379160  0.63898151  1.00652543  1
  O  O255  1  0.74147207  0.12853351  0.50202072  1
  O  O256  1  0.75170283  0.13685231  1.00550111  1
  O  O257  1  0.74077228  0.62775231  0.49392556  1
  O  O258  1  0.74047762  0.62517328  0.99504756  1
  O  O259  1  0.25656802  0.37524618  0.00560592  1
  O  O260  1  0.24310271  0.37859525  0.51337644  1
  O  O261  1  0.25621776  0.86691204  0.01114806  1
  O  O262  1  0.25603995  0.87683117  0.50747387  1
  O  O263  1  0.75674190  0.37035088  0.00686304  1
  O  O264  1  0.75403236  0.36547838  0.50360630  1
  O  O265  1  0.75638606  0.87287439  0.00897546  1
  O  O266  1  0.75468688  0.87615500  0.50754801  1
  O  O267  1  0.12426952  0.49664441  0.23807027  1
  O  O268  1  0.12852479  0.49444843  0.74298129  1
  O  O269  1  0.13109500  1.00165017  0.24087784  1
  O  O270  1  0.12887001  0.99610901  0.74505540  1
  O  O271  1  0.62653795  0.49445196  0.24294715  1
  O  O272  1  0.63990588  0.48758482  0.75819380  1
  O  O273  1  0.63513232  1.00562772  0.24702954  1
  O  O274  1  0.63791242  0.99302788  0.75533574  1
  O  O275  1  0.36736509  0.00878484  0.25733008  1
  O  O276  1  0.36479639  0.00580366  0.75676413  1
  O  O277  1  0.36876725  0.48821706  0.23823721  1
  O  O278  1  0.36649153  0.49851255  0.75965660  1
  O  O279  1  0.86766638  0.00592224  0.25605218  1
  O  O280  1  0.86314947  0.00650632  0.74730413  1
  O  O281  1  0.87733123  0.51429066  0.25685471  1
  O  O282  1  0.87188247  0.50551764  0.75515906  1
  O  O283  1  0.11856410  0.37067611  0.36724045  1
  O  O284  1  0.12236526  0.37844821  0.85941567  1
  O  O285  1  0.12031655  0.87726741  0.37652421  1
  O  O286  1  0.11470487  0.86632786  0.87066537  1
  O  O287  1  0.63249100  0.37526043  0.36441308  1
  O  O288  1  0.61858549  0.36856117  0.86786737  1
  O  O289  1  0.61714613  0.86426521  0.38126553  1
  O  O290  1  0.61783440  0.87054020  0.87408229  1
  O  O291  1  0.37004204  0.12335824  0.14046480  1
  O  O292  1  0.38074038  0.13169173  0.63176040  1
  O  O293  1  0.37262558  0.63735175  0.12182684  1
  O  O294  1  0.38190653  0.63746931  0.62716031  1
  O  O295  1  0.87675769  0.12377016  0.13786513  1
  O  O296  1  0.88018572  0.13371301  0.63241429  1
  O  O297  1  0.88379915  0.62153160  0.13268431  1
  O  O298  1  0.87903203  0.63062977  0.63346050  1
  O  O299  1  0.24074373  0.26180228  0.12065543  1
  O  O300  1  0.25732348  0.26056790  0.62105493  1
  O  O301  1  0.25607763  0.75662426  0.12417486  1
  O  O302  1  0.26702755  0.74342581  0.62534551  1
  O  O303  1  0.75105448  0.26113720  0.11758234  1
  O  O304  1  0.75835321  0.24809221  0.61552721  1
  O  O305  1  0.74030810  0.76408993  0.12629667  1
  O  O306  1  0.75182911  0.76527668  0.62531485  1
  O  O307  1  0.23455370  0.25786690  0.37873099  1
  O  O308  1  0.24568766  0.25644993  0.87831864  1
  O  O309  1  0.24820184  0.73687197  0.36898671  1
  O  O310  1  0.24105039  0.75882830  0.88682442  1
  O  O311  1  0.75209113  0.24641012  0.38944133  1
  O  O312  1  0.74093748  0.25548027  0.88507717  1
  O  O313  1  0.74056267  0.74441662  0.37597648  1
  O  O314  1  0.74180632  0.74365474  0.87983993  1
  O  O315  1  0.00563536  0.11591867  0.00182232  1
  O  O316  1  0.00565704  0.11300997  0.50402367  1
  O  O317  1  0.00577337  0.62315902  0.00699463  1
  O  O318  1  0.00659348  0.61952524  0.49800543  1
  O  O319  1  0.49423230  0.13971083  0.00742371  1
  O  O320  1  0.50674395  0.11857022  0.50794755  1
  O  O321  1  0.51475258  0.61272478  0.00005920  1
  O  O322  1  0.51257858  0.61066997  0.49377130  1
  O  O323  1  0.50351839  0.38724140  0.49119435  1
  O  O324  1  0.49351467  0.38039982  0.99071912  1
  O  O325  1  0.49902397  0.88423633  0.49195201  1
  O  O326  1  0.48782673  0.87115686  0.99638255  1
  O  O327  1  0.99988863  0.38389870  0.49382352  1
  O  O328  1  0.99375103  0.38100491  0.99919511  1
  O  O329  1  0.99071697  0.88844494  0.50614081  1
  O  O330  1  0.99305625  0.87908171  0.99446019  1
  O  O331  1  0.50233199  0.48640989  0.38772588  1
  O  O332  1  0.49621403  0.49061555  0.88736505  1
  O  O333  1  0.49453306  0.99476699  0.38352300  1
  O  O334  1  0.48732844  0.98891971  0.87412326  1
  O  O335  1  0.99773058  0.49749429  0.38220147  1
  O  O336  1  0.99376558  0.50117623  0.88217784  1
  O  O337  1  0.98516306  0.99800986  0.38063493  1
  O  O338  1  1.00330755  0.98897134  0.88412198  1
  O  O339  1  0.00662618  -0.00139767  0.11750350  1
  O  O340  1  0.00797598  0.00502291  0.61849580  1
  O  O341  1  0.00749807  0.51006618  0.11978769  1
  O  O342  1  0.00542317  0.50110822  0.61202829  1
  O  O343  1  0.51734349  -0.00958782  0.13400329  1
  O  O344  1  0.49325481  0.00827270  0.61431548  1
  O  O345  1  0.50932384  0.48782523  0.11287430  1
  O  O346  1  0.49931933  0.50239919  0.60993856  1
  O  O347  1  0.24262416  0.38274632  0.24085057  1
  O  O348  1  0.24230328  0.38444564  0.73831978  1
  O  O349  1  0.25672924  0.88339301  0.23968861  1
  O  O350  1  0.23475228  0.88629999  0.75423807  1
  O  O351  1  0.74620668  0.37711476  0.24209461  1
  O  O352  1  0.74542218  0.38321683  0.74703301  1
  O  O353  1  0.75414574  0.88199829  0.23881149  1
  O  O354  1  0.74375647  0.88519716  0.74625684  1
  O  O355  1  0.25851515  0.11457744  0.24837996  1
  O  O356  1  0.25573202  0.11450460  0.74531721  1
  O  O357  1  0.25023688  0.61622312  0.25992993  1
  O  O358  1  0.23788947  0.61135510  0.75158049  1
  O  O359  1  0.75617737  0.11830919  0.25170981  1
  O  O360  1  0.75589272  0.10982679  0.74660363  1
  O  O361  1  0.75670300  0.62619618  0.25629448  1
  O  O362  1  0.75360356  0.61876169  0.75564110  1
  O  O363  1  0.37835629  0.11332249  0.36822978  1
  O  O364  1  0.37686587  0.11530815  0.86363188  1
  O  O365  1  0.36540962  0.62821854  0.37775211  1
  O  O366  1  0.38186392  0.61370869  0.88028566  1
  O  O367  1  0.87284335  0.11665917  0.36428854  1
  O  O368  1  0.87909452  0.12872671  0.86182284  1
  O  O369  1  0.86419126  0.62419251  0.36964010  1
  O  O370  1  0.87059200  0.62048209  0.86909766  1
  O  O371  1  0.12946512  0.38349739  0.12815604  1
  O  O372  1  0.13078543  0.38246235  0.63290314  1
  O  O373  1  0.13425826  0.88657329  0.11840338  1
  O  O374  1  0.11716269  0.88555290  0.63626998  1
  O  O375  1  0.63477426  0.38477119  0.13382568  1
  O  O376  1  0.62575333  0.36797749  0.63836698  1
  O  O377  1  0.63841284  0.88622418  0.11927695  1
  O  O378  1  0.62915119  0.86953483  0.63532339  1
  O  O379  1  0.11785771  0.25108163  0.25608750  1
  O  O380  1  0.11766008  0.25726910  0.74581286  1
  O  O381  1  0.10914061  0.74839481  0.24857715  1
  O  O382  1  0.12106478  0.75746392  0.75521949  1
  O  O383  1  0.62465827  0.25934122  0.25401189  1
  O  O384  1  0.63653609  0.25926400  0.75970344  1
  O  O385  1  0.61009214  0.74591372  0.26203306  1
  O  O386  1  0.63247522  0.76262405  0.76495275  1
  O  O387  1  0.37002416  0.23382955  0.25810828  1
  O  O388  1  0.36820717  0.23800433  0.74148584  1
  O  O389  1  0.38865251  0.75438540  0.24407216  1
  O  O390  1  0.37176444  0.75269885  0.74575299  1
  O  O391  1  0.87995656  0.24284041  0.24999142  1
  O  O392  1  0.88055501  0.24421503  0.74398456  1
  O  O393  1  0.88491682  0.74028046  0.25320347  1
  O  O394  1  0.88329566  0.74593863  0.75148582  1
  O  O395  1  0.38562538  0.50558781  0.50219564  1
  O  O396  1  0.38172079  0.49260912  0.99356047  1
  O  O397  1  0.38340421  1.00242751  0.49408559  1
  O  O398  1  0.36598573  0.99083620  0.99123161  1
  O  O399  1  0.88432672  0.50106600  0.49335059  1
  O  O400  1  0.88025317  0.49529487  0.99447403  1
  O  O401  1  0.88047920  0.99768790  0.49305863  1
  O  O402  1  0.88619770  0.98990650  1.00529662  1
  O  O403  1  0.11650517  0.00628402  0.00421697  1
  O  O404  1  0.11825594  0.00621144  0.50623123  1
  O  O405  1  0.12230126  0.50472923  0.00777908  1
  O  O406  1  0.11845135  0.50738258  0.50073564  1
  O  O407  1  0.62631427  0.00611897  0.01290572  1
  O  O408  1  0.61708459  0.01055511  0.49810475  1
  O  O409  1  0.61963307  0.50216111  0.00608614  1
  O  O410  1  0.62565914  0.51263385  0.49892508  1
  O  O411  1  0.35955572  0.38310190  0.10935716  1
  O  O412  1  0.36802615  0.36531428  0.63150584  1
  O  O413  1  0.36864180  0.87193465  0.12026190  1
  O  O414  1  0.38485522  0.85858810  0.62737256  1
  O  O415  1  0.86735683  0.37646749  0.12001512  1
  O  O416  1  0.87521910  0.35977308  0.62344100  1
  O  O417  1  0.85724257  0.87659070  0.11655706  1
  O  O418  1  0.86731008  0.87642895  0.61322151  1
  O  O419  1  0.11710326  0.13687510  0.38521635  1
  O  O420  1  0.12133483  0.12133786  0.88910769  1
  O  O421  1  0.12833490  0.62854890  0.38295222  1
  O  O422  1  0.11958199  0.63978742  0.88151083  1
  O  O423  1  0.62482206  0.12908720  0.38637679  1
  O  O424  1  0.61534668  0.13898319  0.87572048  1
  O  O425  1  0.63493239  0.62832590  0.38032246  1
  O  O426  1  0.63024596  0.63291421  0.88429438  1
