# generated using pymatgen
data_V85Zn86O256
_symmetry_space_group_name_H-M   'P 1'
_cell_length_a   16.97265760
_cell_length_b   16.96555314
_cell_length_c   16.95662923
_cell_angle_alpha   90.03203376
_cell_angle_beta   90.08374693
_cell_angle_gamma   89.94232920
_symmetry_Int_Tables_number   1
_chemical_formula_structural   V85Zn86O256
_chemical_formula_sum   'V85 Zn86 O256'
_cell_volume   4882.66183131
_cell_formula_units_Z   1
loop_
 _symmetry_equiv_pos_site_id
 _symmetry_equiv_pos_as_xyz
  1  'x, y, z'
loop_
 _atom_site_type_symbol
 _atom_site_label
 _atom_site_symmetry_multiplicity
 _atom_site_fract_x
 _atom_site_fract_y
 _atom_site_fract_z
 _atom_site_occupancy
  V  V0  1  0.61927849  0.76197363  0.87245146  1
  V  V1  1  0.12744792  0.37528278  0.25030888  1
  V  V2  1  -0.00762494  0.25248090  0.75163350  1
  V  V3  1  0.25555109  0.24675111  0.00205434  1
  V  V4  1  0.87996116  0.87649229  -0.01533066  1
  V  V5  1  0.12779816  0.24917421  0.37635087  1
  V  V6  1  0.49631097  0.75347709  0.75287539  1
  V  V7  1  0.12740271  -0.00660650  0.12615399  1
  V  V8  1  0.25215019  0.37348059  0.62775455  1
  V  V9  1  0.00521988  0.86935467  0.37775008  1
  V  V10  1  0.87808706  0.00028334  0.37371557  1
  V  V11  1  0.31431585  0.83138554  0.06857411  1
  V  V12  1  0.74612752  0.75050050  0.49820532  1
  V  V13  1  0.12510068  0.24960563  0.87554529  1
  V  V14  1  0.37919573  0.74876715  0.61530407  1
  V  V15  1  0.86857774  0.50058748  0.87429433  1
  V  V16  1  0.13124308  0.87368145  0.25073035  1
  V  V17  1  0.38889567  0.24352503  0.63696619  1
  V  V18  1  0.12722694  0.12655848  0.49797250  1
  V  V19  1  0.26559190  0.12021667  0.86965813  1
  V  V20  1  0.37991544  0.37147681  0.00114060  1
  V  V21  1  0.00039281  0.50070573  0.50261170  1
  V  V22  1  0.75306016  0.87558503  0.12073066  1
  V  V23  1  0.24495627  0.75010332  0.49227644  1
  V  V24  1  0.00056274  0.12389769  0.12045756  1
  V  V25  1  0.87585261  0.75070492  0.12329414  1
  V  V26  1  0.50248045  0.49820311  0.49979906  1
  V  V27  1  0.74997453  0.37448123  0.12369975  1
  V  V28  1  0.62550111  0.49868741  0.12546120  1
  V  V29  1  0.86196938  0.24964587  0.62065531  1
  V  V30  1  0.75030990  0.38488068  0.63706698  1
  V  V31  1  0.00834459  0.74847121  0.25089766  1
  V  V32  1  0.75128016  0.25029020  -0.00788039  1
  V  V33  1  0.24610902  0.87393879  0.62764360  1
  V  V34  1  0.74408036  0.62336832  0.85927633  1
  V  V35  1  0.61416176  0.75362665  0.37198069  1
  V  V36  1  0.00063126  0.00036360  0.50196435  1
  V  V37  1  0.37264102  0.88653626  0.48278839  1
  V  V38  1  0.12895259  0.12152000  -0.00573286  1
  V  V39  1  0.48206463  0.77988892  0.23649230  1
  V  V40  1  0.56991581  0.31424113  0.81199112  1
  V  V41  1  0.87561187  0.87302781  0.49943165  1
  V  V42  1  0.87466164  0.12372076  0.75433732  1
  V  V43  1  0.62080389  0.00103379  0.12219767  1
  V  V44  1  0.12535099  0.63624822  -0.00270707  1
  V  V45  1  0.62239957  0.12457298  -0.01040248  1
  V  V46  1  0.12563548  0.49850170  0.11658257  1
  V  V47  1  0.49958204  0.49728390  -0.00360388  1
  V  V48  1  0.86681079  0.37452712  0.49845483  1
  V  V49  1  0.24257737  0.02197793  0.26802217  1
  V  V50  1  0.87796793  0.74667898  0.62974453  1
  V  V51  1  0.40526659  0.10632948  0.29805649  1
  V  V52  1  0.49645931  0.12611463  0.11827129  1
  V  V53  1  0.62767170  0.50029734  0.63714130  1
  V  V54  1  0.12674619  0.00119889  0.63371386  1
  V  V55  1  0.25455058  0.24642354  0.49823260  1
  V  V56  1  0.73640416  0.87709494  0.62614733  1
  V  V57  1  0.47700909  0.89049836  0.88474496  1
  V  V58  1  0.25089333  0.49597592  0.25060375  1
  V  V59  1  0.87466759  0.12568450  0.24929077  1
  V  V60  1  0.87555937  0.25123043  0.12305025  1
  V  V61  1  0.63158169  0.11650896  0.52031877  1
  V  V62  1  0.75996262  0.11131470  0.88175343  1
  V  V63  1  0.74952350  -0.00445970  0.74978843  1
  V  V64  1  -0.00111300  0.37626449  0.37609340  1
  V  V65  1  0.63258154  0.87770546  0.25489246  1
  V  V66  1  0.12391355  0.37554812  0.75061783  1
  V  V67  1  0.00207434  0.62157828  0.12124707  1
  V  V68  1  0.00086835  0.25243969  0.24971589  1
  V  V69  1  0.37739440  0.61941071  0.24593849  1
  V  V70  1  0.87574700  0.62490155  0.24872100  1
  V  V71  1  -0.00266958  0.38498319  0.88388527  1
  V  V72  1  0.37908244  0.37267498  0.50055033  1
  V  V73  1  0.25093394  0.63251552  0.36926758  1
  V  V74  1  0.49686091  0.62574348  0.62448400  1
  V  V75  1  0.12610976  0.62476069  0.49387359  1
  V  V76  1  0.49705775  0.62838622  0.12650859  1
  V  V77  1  0.74916070  0.62574223  0.37133782  1
  V  V78  1  0.62331755  0.62547517  0.49878634  1
  V  V79  1  -0.00173137  -0.00299082  -0.01794102  1
  V  V80  1  -0.00253523  0.12864078  0.62681971  1
  V  V81  1  0.24968212  0.63669112  0.87917590  1
  V  V82  1  0.62619805  0.62866598  -0.00218085  1
  V  V83  1  0.37239804  0.49785732  0.87539660  1
  V  V84  1  0.63292127  0.24811050  0.38506619  1
  Zn  Zn85  1  0.37710571  0.49370970  0.37448585  1
  Zn  Zn86  1  0.04338135  0.73939839  0.79248174  1
  Zn  Zn87  1  0.57788408  0.93460391  0.71379437  1
  Zn  Zn88  1  0.12680123  0.49825942  0.62383312  1
  Zn  Zn89  1  0.75667641  0.13200323  0.38369763  1
  Zn  Zn90  1  0.88395307  0.62357349  0.75106843  1
  Zn  Zn91  1  0.49188759  0.09796191  0.62976394  1
  Zn  Zn92  1  0.75038382  0.75170300  -0.00527791  1
  Zn  Zn93  1  0.50243051  0.25125611  0.25038126  1
  Zn  Zn94  1  0.25355559  -0.00155316  0.75541338  1
  Zn  Zn95  1  0.88083901  0.38193396  0.00361014  1
  Zn  Zn96  1  0.25343584  0.37131521  0.12682309  1
  Zn  Zn97  1  0.46967789  0.92413416  0.36365443  1
  Zn  Zn98  1  0.87366605  0.50097604  0.37437709  1
  Zn  Zn99  1  0.01077810  0.62994439  0.63206907  1
  Zn  Zn100  1  0.75600209  0.00279171  0.24704563  1
  Zn  Zn101  1  0.62369536  0.36994895  0.25167010  1
  Zn  Zn102  1  0.75014476  0.49999147  0.24804141  1
  Zn  Zn103  1  0.37128599  0.62416834  0.75017832  1
  Zn  Zn104  1  0.50371101  0.37086081  0.37402772  1
  Zn  Zn105  1  0.25121297  0.49916585  0.75195358  1
  Zn  Zn106  1  0.37609129  0.24151114  0.13400622  1
  Zn  Zn107  1  0.18540655  0.18770205  0.18328543  1
  Zn  Zn108  1  0.18762539  0.19061728  0.68761395  1
  Zn  Zn109  1  0.19391574  0.69638832  0.17564060  1
  Zn  Zn110  1  0.19449447  0.68184460  0.68296048  1
  Zn  Zn111  1  0.68528330  0.18997334  0.18674244  1
  Zn  Zn112  1  0.62332907  0.13646179  0.74444471  1
  Zn  Zn113  1  0.68481942  0.69163250  0.18607883  1
  Zn  Zn114  1  0.68055801  0.69250892  0.68496487  1
  Zn  Zn115  1  0.31996042  0.29983627  0.31443051  1
  Zn  Zn116  1  0.31607638  0.31163412  0.81624322  1
  Zn  Zn117  1  0.31475676  0.81604796  0.27877534  1
  Zn  Zn118  1  0.31079191  0.81280182  0.81056730  1
  Zn  Zn119  1  0.80972470  0.31341665  0.31099476  1
  Zn  Zn120  1  0.75479865  0.27413412  0.78016201  1
  Zn  Zn121  1  0.81444699  0.81060000  0.31126177  1
  Zn  Zn122  1  0.80938639  0.80946011  0.80991484  1
  Zn  Zn123  1  0.18978273  0.43638259  0.43662042  1
  Zn  Zn124  1  0.19202312  0.43577931  0.93824502  1
  Zn  Zn125  1  0.18398792  0.93629921  0.44065814  1
  Zn  Zn126  1  0.19864681  0.93768226  0.94173234  1
  Zn  Zn127  1  0.68644263  0.43894241  0.43806945  1
  Zn  Zn128  1  0.68999945  0.43857067  0.93597379  1
  Zn  Zn129  1  0.69622190  0.94206289  0.43492857  1
  Zn  Zn130  1  0.68640321  0.93946008  0.93736209  1
  Zn  Zn131  1  0.31113992  0.04495960  0.06334563  1
  Zn  Zn132  1  0.31205483  0.06358261  0.56351297  1
  Zn  Zn133  1  0.31083560  0.56381706  0.06198930  1
  Zn  Zn134  1  0.31187580  0.55918984  0.56020920  1
  Zn  Zn135  1  0.81513964  0.05730711  0.06161897  1
  Zn  Zn136  1  0.80812929  0.06207572  0.56409050  1
  Zn  Zn137  1  0.81220602  0.56138904  0.05524051  1
  Zn  Zn138  1  0.81351796  0.56300810  0.56136442  1
  Zn  Zn139  1  0.44023910  0.43342838  0.18462662  1
  Zn  Zn140  1  0.44130876  0.43313299  0.69044410  1
  Zn  Zn141  1  0.41911612  0.95497562  0.16809517  1
  Zn  Zn142  1  0.41712511  0.92947800  0.68646882  1
  Zn  Zn143  1  0.93786484  0.44042909  0.18736779  1
  Zn  Zn144  1  0.93633219  0.44083546  0.68964543  1
  Zn  Zn145  1  0.94260773  0.93569429  0.18319972  1
  Zn  Zn146  1  0.92737519  0.93968437  0.68443307  1
  Zn  Zn147  1  0.06065629  0.06494025  0.31401632  1
  Zn  Zn148  1  0.06389736  -0.06927530  0.80733466  1
  Zn  Zn149  1  0.06491727  0.56044869  0.31362740  1
  Zn  Zn150  1  0.06394579  0.56027527  0.81266828  1
  Zn  Zn151  1  0.57682436  0.07210822  0.30764358  1
  Zn  Zn152  1  0.44112414  0.06674794  0.80145192  1
  Zn  Zn153  1  0.56307795  0.55888694  0.31164680  1
  Zn  Zn154  1  0.55589406  0.56647871  0.81360466  1
  Zn  Zn155  1  0.45459106  0.18784867  0.45279287  1
  Zn  Zn156  1  0.44505443  0.19469316  0.93499128  1
  Zn  Zn157  1  0.43438217  0.68747861  0.43080607  1
  Zn  Zn158  1  0.42868821  0.69815705  0.94606146  1
  Zn  Zn159  1  0.93891478  0.19036256  0.43910790  1
  Zn  Zn160  1  0.93857835  0.19040834  0.93580367  1
  Zn  Zn161  1  0.93823771  0.68755080  0.43793777  1
  Zn  Zn162  1  0.93292292  0.67991004  0.94188645  1
  Zn  Zn163  1  0.06739720  0.31065515  0.06265226  1
  Zn  Zn164  1  0.05922267  0.31296168  0.56460424  1
  Zn  Zn165  1  0.06892524  0.81560115  -0.04697942  1
  Zn  Zn166  1  0.05954307  0.82005270  0.64799297  1
  Zn  Zn167  1  0.56390347  0.30932320  0.05725118  1
  Zn  Zn168  1  0.57133502  0.31009249  0.56524115  1
  Zn  Zn169  1  0.55951753  0.81611017  0.05920582  1
  Zn  Zn170  1  0.55383360  0.93475621  0.54202115  1
  O  O171  1  0.11574303  0.12342107  0.11394650  1
  O  O172  1  0.11940115  0.12194077  0.61821963  1
  O  O173  1  0.12300498  0.61925891  0.11866073  1
  O  O174  1  0.12983804  0.61739867  0.60697283  1
  O  O175  1  0.62016948  0.11814292  0.11749901  1
  O  O176  1  0.64035606  0.12334508  0.61849218  1
  O  O177  1  0.62033912  0.61912864  0.11776941  1
  O  O178  1  0.61770889  0.62134249  0.61625402  1
  O  O179  1  0.37767939  0.37332000  0.38901232  1
  O  O180  1  0.36952588  0.38419925  0.88960314  1
  O  O181  1  0.36367661  0.87239339  0.37905932  1
  O  O182  1  0.37714211  0.87463100  0.87918502  1
  O  O183  1  0.87986138  0.37682206  0.38087672  1
  O  O184  1  0.89187102  0.38065582  0.87806878  1
  O  O185  1  0.88292382  0.88123009  0.37658168  1
  O  O186  1  0.86951835  0.86985505  0.88606055  1
  O  O187  1  0.23684013  0.00720264  0.36620275  1
  O  O188  1  0.25012297  0.01739865  0.87713881  1
  O  O189  1  0.25034402  0.50403191  0.36141204  1
  O  O190  1  0.26099656  0.50593300  0.87667394  1
  O  O191  1  0.76879523  0.00298167  0.36869219  1
  O  O192  1  0.75595454  0.00574125  0.87196810  1
  O  O193  1  0.74858328  0.51418016  0.37122288  1
  O  O194  1  0.75513286  0.51069559  0.87666647  1
  O  O195  1  0.24357355  0.49881876  0.13617959  1
  O  O196  1  0.25085100  0.48474007  0.62723654  1
  O  O197  1  0.22775330  1.01695543  0.14047852  1
  O  O198  1  0.24128138  0.99243414  0.62073695  1
  O  O199  1  0.74214561  0.49307282  0.12100302  1
  O  O200  1  0.74355491  0.49352165  0.62126939  1
  O  O201  1  0.74488443  0.98912478  0.12617385  1
  O  O202  1  0.75809502  0.98608774  0.63412276  1
  O  O203  1  0.00491658  0.37101508  0.25520954  1
  O  O204  1  0.00608837  0.37161512  0.75889179  1
  O  O205  1  0.00800243  0.86699295  0.25462356  1
  O  O206  1  0.00142186  0.87326676  0.73386230  1
  O  O207  1  0.50358673  0.37157555  0.25423644  1
  O  O208  1  0.51606577  0.37332463  0.74895307  1
  O  O209  1  0.52437175  0.88146228  0.26930530  1
  O  O210  1  0.49601132  0.86803493  0.76411044  1
  O  O211  1  0.49950963  0.12939563  0.23549721  1
  O  O212  1  0.51162285  0.12504242  0.73833552  1
  O  O213  1  0.49519773  0.61632808  0.23650104  1
  O  O214  1  0.49115101  0.63219876  0.74162105  1
  O  O215  1  0.99279162  0.13198804  0.24211478  1
  O  O216  1  0.98785995  0.13648645  0.74155233  1
  O  O217  1  0.99545799  0.62982335  0.24883701  1
  O  O218  1  1.00304011  0.63110563  0.74862597  1
  O  O219  1  0.37094610  0.25657419  0.00046716  1
  O  O220  1  0.36990226  0.25748418  0.50906777  1
  O  O221  1  0.37546261  0.76562021  0.02096645  1
  O  O222  1  0.36737714  0.75356461  0.50002137  1
  O  O223  1  0.86998274  0.25237513  0.00853465  1
  O  O224  1  0.88146255  0.26214643  0.50841691  1
  O  O225  1  0.87137714  0.75697234  0.00911759  1
  O  O226  1  0.86128331  0.75114972  0.50198574  1
  O  O227  1  0.13151400  0.24557549  0.49917893  1
  O  O228  1  0.13584054  0.24202809  0.99765630  1
  O  O229  1  0.14280966  0.73845595  0.49629940  1
  O  O230  1  0.12574973  0.73312355  1.01345337  1
  O  O231  1  0.62798169  0.23861669  0.49271253  1
  O  O232  1  0.63887538  0.23442107  1.00763844  1
  O  O233  1  0.63707633  0.74379931  0.48767922  1
  O  O234  1  0.62379863  0.74307178  0.99133988  1
  O  O235  1  0.49847932  0.23992138  0.12389145  1
  O  O236  1  0.48759200  0.25733963  0.62324248  1
  O  O237  1  0.51082168  0.74255324  0.13701952  1
  O  O238  1  0.48607640  0.74675596  0.63039210  1
  O  O239  1  0.99686308  0.24101328  0.12731910  1
  O  O240  1  0.98737645  0.25002731  0.63258993  1
  O  O241  1  0.99305841  0.73419765  0.13943109  1
  O  O242  1  0.97974383  0.74555445  0.60744232  1
  O  O243  1  0.00637057  0.25819056  0.37001700  1
  O  O244  1  0.00611542  0.25951687  0.86964267  1
  O  O245  1  -0.00586973  0.75730821  0.36252710  1
  O  O246  1  -0.00041171  0.75089927  0.88976598  1
  O  O247  1  0.51794630  0.25037718  0.37717900  1
  O  O248  1  0.50776843  0.25833380  0.86854399  1
  O  O249  1  0.51141238  0.74666071  0.36225716  1
  O  O250  1  0.50090970  0.75164692  0.86861636  1
  O  O251  1  0.23858574  0.13572733  0.50718370  1
  O  O252  1  0.24860769  0.12523864  0.99479586  1
  O  O253  1  0.24746852  0.62662732  0.48824860  1
  O  O254  1  0.23955843  0.62236362  0.99086454  1
  O  O255  1  0.73971168  0.12177405  0.49795309  1
  O  O256  1  0.74928938  0.12897170  0.99819971  1
  O  O257  1  0.74541020  0.63117262  0.49064801  1
  O  O258  1  0.73526167  0.62804178  0.99551139  1
  O  O259  1  0.25649617  0.36259346  0.00319082  1
  O  O260  1  0.25815181  0.37001963  0.50820353  1
  O  O261  1  0.23940627  0.85370984  0.00669779  1
  O  O262  1  0.25508413  0.86528400  0.49856433  1
  O  O263  1  0.75214371  0.36684398  0.00843931  1
  O  O264  1  0.76486485  0.38469531  0.50459513  1
  O  O265  1  0.75825501  0.87508283  0.00655318  1
  O  O266  1  0.75522070  0.86740912  0.50495515  1
  O  O267  1  0.13320219  0.49420472  0.24308036  1
  O  O268  1  0.12743351  0.48585580  0.74794967  1
  O  O269  1  0.12522478  0.99865165  0.24536057  1
  O  O270  1  0.13132205  1.00221710  0.73605093  1
  O  O271  1  0.62770941  0.49920972  0.23497580  1
  O  O272  1  0.61914028  0.51096487  0.73571057  1
  O  O273  1  0.63607902  0.99558319  0.24203654  1
  O  O274  1  0.64687164  1.01399645  0.75463046  1
  O  O275  1  0.35193174  0.02134406  0.24633661  1
  O  O276  1  0.36443239  0.00725066  0.74350569  1
  O  O277  1  0.36869811  0.50388366  0.24937966  1
  O  O278  1  0.37544003  0.49923280  0.76203655  1
  O  O279  1  0.88146811  0.00853568  0.25533916  1
  O  O280  1  0.86616742  0.01658869  0.74338735  1
  O  O281  1  0.87302091  0.51356920  0.25118154  1
  O  O282  1  0.88363964  0.50537302  0.76717639  1
  O  O283  1  0.11927799  0.36971305  0.36975244  1
  O  O284  1  0.11916405  0.37061063  0.87033803  1
  O  O285  1  0.11061239  0.87882385  0.36892679  1
  O  O286  1  0.12849446  0.87709324  0.88007903  1
  O  O287  1  0.62730740  0.36347967  0.37680035  1
  O  O288  1  0.62439815  0.37260706  0.87490496  1
  O  O289  1  0.64264073  0.86384536  0.36734122  1
  O  O290  1  0.62330551  0.86371838  0.87637353  1
  O  O291  1  0.39382633  0.11629415  0.10366981  1
  O  O292  1  0.37839594  0.13972866  0.61757854  1
  O  O293  1  0.38450553  0.62056251  0.13217900  1
  O  O294  1  0.37773797  0.63128398  0.62306044  1
  O  O295  1  0.88368238  0.12818075  0.12964861  1
  O  O296  1  0.87620870  0.13505172  0.62758700  1
  O  O297  1  0.88220325  0.62663887  0.12844491  1
  O  O298  1  0.87371795  0.63673495  0.62520018  1
  O  O299  1  0.25576541  0.24559563  0.11385409  1
  O  O300  1  0.25571439  0.25885732  0.61751795  1
  O  O301  1  0.26796434  0.77729312  0.14686645  1
  O  O302  1  0.26092378  0.75386194  0.61138313  1
  O  O303  1  0.75625041  0.25695299  0.11768037  1
  O  O304  1  0.76132359  0.27023014  0.62384185  1
  O  O305  1  0.75373773  0.76180212  0.12240155  1
  O  O306  1  0.75314432  0.75481932  0.61529784  1
  O  O307  1  0.24254471  0.25831394  0.39175137  1
  O  O308  1  0.24767215  0.24106319  0.88618186  1
  O  O309  1  0.25629818  0.73627718  0.37327041  1
  O  O310  1  0.25152558  0.73498194  0.87146651  1
  O  O311  1  0.73937658  0.25024758  0.37370529  1
  O  O312  1  0.75991830  0.23666161  0.88990107  1
  O  O313  1  0.74564254  0.74033378  0.37742740  1
  O  O314  1  0.73706330  0.74279301  0.87386604  1
  O  O315  1  0.00757676  0.11980056  0.00420312  1
  O  O316  1  0.00545036  0.12259853  0.50824052  1
  O  O317  1  0.01290594  0.62153112  0.01045119  1
  O  O318  1  0.01017068  0.61751592  0.49574787  1
  O  O319  1  0.51734721  0.12937853  -0.00011631  1
  O  O320  1  0.52176150  0.12268115  0.51649232  1
  O  O321  1  0.50631648  0.62361132  0.01011448  1
  O  O322  1  0.50295162  0.61957275  0.50335451  1
  O  O323  1  0.49511986  0.38213380  0.50268383  1
  O  O324  1  0.49330599  0.38593409  1.00482014  1
  O  O325  1  0.48052191  0.87914215  0.47502298  1
  O  O326  1  0.50235273  0.87431679  0.98235371  1
  O  O327  1  0.99291606  0.38282757  0.49608321  1
  O  O328  1  1.00348740  0.36961031  0.98698494  1
  O  O329  1  0.99155402  0.88153447  0.48920655  1
  O  O330  1  0.99101788  0.88680611  1.00530758  1
  O  O331  1  0.50186840  0.49729040  0.38846343  1
  O  O332  1  0.48758292  0.51226475  0.88973973  1
  O  O333  1  0.47636518  1.03474447  0.34713954  1
  O  O334  1  0.49188319  0.98877348  0.87373631  1
  O  O335  1  0.99888513  0.49302773  0.38373905  1
  O  O336  1  0.99925365  0.48784140  0.87672887  1
  O  O337  1  0.99222765  0.99387884  0.37882137  1
  O  O338  1  1.00642956  1.00338622  0.88408418  1
  O  O339  1  0.00952937  0.01246705  0.12355358  1
  O  O340  1  0.00575104  0.00849749  0.61855110  1
  O  O341  1  0.01123991  0.51273527  0.13462195  1
  O  O342  1  0.00190692  0.50293941  0.61292701  1
  O  O343  1  0.51512534  0.00614178  0.12897666  1
  O  O344  1  0.50543842  -0.01911976  0.63269462  1
  O  O345  1  0.50705749  0.50699546  0.11441602  1
  O  O346  1  0.50592047  0.50381042  0.61549038  1
  O  O347  1  0.24878290  0.37919965  0.24962279  1
  O  O348  1  0.24193424  0.37240029  0.74493379  1
  O  O349  1  0.23240427  0.89440392  0.25914553  1
  O  O350  1  0.25473672  0.87415827  0.73061509  1
  O  O351  1  0.74912296  0.37847598  0.23518412  1
  O  O352  1  0.75865573  0.38247506  0.73535953  1
  O  O353  1  0.74647274  0.87522341  0.24120833  1
  O  O354  1  0.75307599  0.88310211  0.74069674  1
  O  O355  1  0.23143260  0.12198542  0.26352467  1
  O  O356  1  0.24360882  0.13108678  0.77005851  1
  O  O357  1  0.25702563  0.61825457  0.25111901  1
  O  O358  1  0.25108222  0.61874616  0.76361829  1
  O  O359  1  0.76728454  0.12618831  0.24641621  1
  O  O360  1  0.75591605  0.12126007  0.76653941  1
  O  O361  1  0.75752597  0.62724762  0.25379488  1
  O  O362  1  0.74765368  0.63041735  0.75799906  1
  O  O363  1  0.37146668  0.14178229  0.38470220  1
  O  O364  1  0.36866252  0.12808364  0.87860967  1
  O  O365  1  0.36657614  0.61264235  0.36913624  1
  O  O366  1  0.36228030  0.62096241  0.88184605  1
  O  O367  1  0.87879327  0.11970696  0.36713526  1
  O  O368  1  0.87209529  0.12738025  0.86632950  1
  O  O369  1  0.86703923  0.62569322  0.36577430  1
  O  O370  1  0.86054507  0.61948957  0.87465873  1
  O  O371  1  0.12774452  0.38179500  0.13157482  1
  O  O372  1  0.13284218  0.37288874  0.63357272  1
  O  O373  1  0.11806339  0.89317015  0.13615892  1
  O  O374  1  0.13650560  0.89122515  0.60473853  1
  O  O375  1  0.63291672  0.38280437  0.12211479  1
  O  O376  1  0.64296040  0.38493182  0.61782985  1
  O  O377  1  0.63194612  0.88190586  0.13008591  1
  O  O378  1  0.63400750  0.87486712  0.62120848  1
  O  O379  1  0.11959997  0.25685942  0.25343543  1
  O  O380  1  0.11787306  0.25950658  0.75512560  1
  O  O381  1  0.11866283  0.75957503  0.24337276  1
  O  O382  1  0.12241073  0.75686663  0.71981709  1
  O  O383  1  0.62507502  0.24972924  0.26235410  1
  O  O384  1  0.64141749  0.25181310  0.76167986  1
  O  O385  1  0.61897838  0.76163564  0.25324389  1
  O  O386  1  0.60568991  0.74461745  0.75641847  1
  O  O387  1  0.38020177  0.22523720  0.25195080  1
  O  O388  1  0.37144253  0.25451723  0.73482975  1
  O  O389  1  0.38896885  0.72389308  0.26936399  1
  O  O390  1  0.38164842  0.74924848  0.73936891  1
  O  O391  1  0.88205206  0.24502410  0.24406519  1
  O  O392  1  0.86816292  0.24007696  0.74119828  1
  O  O393  1  0.88141798  0.73980603  0.24464918  1
  O  O394  1  0.86954145  0.74720846  0.73291182  1
  O  O395  1  0.38401669  0.48939476  0.50075953  1
  O  O396  1  0.38110420  0.49334217  0.99759719  1
  O  O397  1  0.36434467  0.98484942  0.49670181  1
  O  O398  1  0.35233936  0.93518894  1.07534577  1
  O  O399  1  0.88449209  0.49544245  0.49608495  1
  O  O400  1  0.87554568  0.49851729  0.98442759  1
  O  O401  1  0.88099036  0.99615589  0.49230738  1
  O  O402  1  0.88762662  0.99013326  1.00406302  1
  O  O403  1  0.12084984  0.00547085  0.01139897  1
  O  O404  1  0.11834098  0.01160360  0.50389289  1
  O  O405  1  0.13218468  0.50296602  0.01417608  1
  O  O406  1  0.11750601  0.50310971  0.49926651  1
  O  O407  1  0.63376725  0.01425727  0.00900675  1
  O  O408  1  0.62820934  0.00925318  0.49564557  1
  O  O409  1  0.61798007  0.50741718  0.00632906  1
  O  O410  1  0.61848032  0.50729580  0.50602685  1
  O  O411  1  0.37294435  0.37059513  0.11342230  1
  O  O412  1  0.36946211  0.36885724  0.61869285  1
  O  O413  1  0.40305301  0.84732781  0.20067220  1
  O  O414  1  0.36487322  0.86506155  0.60514170  1
  O  O415  1  0.86950579  0.37192147  0.12300776  1
  O  O416  1  0.86829515  0.37526601  0.61849628  1
  O  O417  1  0.86849666  0.87006677  0.12274070  1
  O  O418  1  0.86558699  0.86200349  0.61548602  1
  O  O419  1  0.11307965  0.13477936  0.39044097  1
  O  O420  1  0.13255797  0.13291035  0.89032602  1
  O  O421  1  0.13637641  0.61813333  0.38385980  1
  O  O422  1  0.13467162  0.61831537  0.88855315  1
  O  O423  1  0.63488935  0.13579731  0.38105611  1
  O  O424  1  0.64126214  0.12205543  0.88967713  1
  O  O425  1  0.63087795  0.63314829  0.37521927  1
  O  O426  1  0.62696877  0.63178453  0.88147467  1
