# generated using pymatgen
data_V85Zn86O256
_symmetry_space_group_name_H-M   'P 1'
_cell_length_a   16.98146306
_cell_length_b   16.96656216
_cell_length_c   16.98050890
_cell_angle_alpha   89.97288393
_cell_angle_beta   90.05464759
_cell_angle_gamma   90.05335498
_symmetry_Int_Tables_number   1
_chemical_formula_structural   V85Zn86O256
_chemical_formula_sum   'V85 Zn86 O256'
_cell_volume   4892.36921633
_cell_formula_units_Z   1
loop_
 _symmetry_equiv_pos_site_id
 _symmetry_equiv_pos_as_xyz
  1  'x, y, z'
loop_
 _atom_site_type_symbol
 _atom_site_label
 _atom_site_symmetry_multiplicity
 _atom_site_fract_x
 _atom_site_fract_y
 _atom_site_fract_z
 _atom_site_occupancy
  V  V0  1  0.25140363  -0.00097946  0.75109893  1
  V  V1  1  0.51251392  0.74421759  0.25867993  1
  V  V2  1  0.23801407  0.62490963  0.37909168  1
  V  V3  1  0.75290578  0.37544924  0.13595315  1
  V  V4  1  0.87740480  0.87706813  0.48127148  1
  V  V5  1  0.37320493  0.49891030  0.87922121  1
  V  V6  1  0.37747573  0.62512047  0.25176286  1
  V  V7  1  0.25035026  0.50253467  0.25275501  1
  V  V8  1  0.37412725  0.37772352  -0.00074409  1
  V  V9  1  0.49754831  0.12445595  0.62021988  1
  V  V10  1  0.24617050  0.49477750  0.75023123  1
  V  V11  1  0.37375906  0.12528208  0.75118954  1
  V  V12  1  0.63004812  0.74333621  0.87423071  1
  V  V13  1  0.12469239  0.25327621  0.86829012  1
  V  V14  1  0.87446824  0.87127469  -0.00303796  1
  V  V15  1  0.62239513  0.12267233  0.49935306  1
  V  V16  1  0.87592432  0.37461226  -0.00226519  1
  V  V17  1  0.38070349  0.75691247  0.12166416  1
  V  V18  1  0.87384733  0.00988280  0.87241745  1
  V  V19  1  0.62924455  0.37822747  0.25456205  1
  V  V20  1  0.75712621  0.86601732  0.61836026  1
  V  V21  1  0.49728009  0.75225899  0.75089613  1
  V  V22  1  0.74004505  0.38364987  0.63088247  1
  V  V23  1  0.12388736  0.12487012  0.00021455  1
  V  V24  1  0.87446881  0.38288800  0.50699145  1
  V  V25  1  0.74338968  0.51439250  0.75350503  1
  V  V26  1  0.73911024  0.24288909  -0.00524007  1
  V  V27  1  0.37268341  0.37611750  0.49995138  1
  V  V28  1  0.12306312  0.75106570  0.87177198  1
  V  V29  1  0.49844253  0.24752521  0.25058971  1
  V  V30  1  -0.00940357  0.38148938  0.37997241  1
  V  V31  1  0.62529697  0.49838625  0.13188951  1
  V  V32  1  0.24967390  0.24482191  0.50281307  1
  V  V33  1  0.12021870  0.87358798  0.74663064  1
  V  V34  1  0.00050307  0.50055642  -0.00149577  1
  V  V35  1  0.24806619  0.25225929  -0.00228154  1
  V  V36  1  0.12172651  0.37861792  0.25372976  1
  V  V37  1  0.37410751  -0.00255261  0.88966192  1
  V  V38  1  0.12548695  0.50296462  0.12577498  1
  V  V39  1  0.13066435  -0.00763580  0.13505800  1
  V  V40  1  0.75157716  0.73772807  -0.00419779  1
  V  V41  1  0.37412235  0.74975676  0.62343731  1
  V  V42  1  0.62758301  0.64048735  0.50464888  1
  V  V43  1  0.12357948  0.76473847  0.37310298  1
  V  V44  1  0.62259328  0.24939291  0.37824256  1
  V  V45  1  0.00131481  0.37644355  0.86683628  1
  V  V46  1  0.56125919  0.05438924  -0.04566411  1
  V  V47  1  0.37354546  0.50144437  0.37859706  1
  V  V48  1  0.00018871  0.87418571  0.87274763  1
  V  V49  1  0.54721688  0.43872607  -0.05926317  1
  V  V50  1  0.24554917  0.74789688  0.50048990  1
  V  V51  1  0.73884860  0.62034287  0.37432286  1
  V  V52  1  0.87247718  0.74590935  0.12668231  1
  V  V53  1  0.24892275  0.87373104  0.62364211  1
  V  V54  1  0.50633011  0.25460238  0.76173472  1
  V  V55  1  -0.00962323  0.24577808  0.75187702  1
  V  V56  1  0.74927690  0.25096935  0.50706813  1
  V  V57  1  0.87096734  0.61016880  0.25948057  1
  V  V58  1  0.62507127  0.87247091  0.74789128  1
  V  V59  1  -0.00026224  0.75475391  0.25315440  1
  V  V60  1  0.50196362  0.62003633  0.11700899  1
  V  V61  1  -0.00041031  0.51507068  0.50354358  1
  V  V62  1  0.12024256  0.51317954  0.62483199  1
  V  V63  1  0.12848840  0.62797908  0.00289006  1
  V  V64  1  0.25038845  0.37858055  0.12575197  1
  V  V65  1  0.51075584  0.49908195  0.50799749  1
  V  V66  1  0.00085230  0.00033748  0.00022475  1
  V  V67  1  0.49882783  0.87144129  0.89106404  1
  V  V68  1  0.89343464  0.63311575  0.74710838  1
  V  V69  1  0.87780462  0.24278083  0.12459934  1
  V  V70  1  0.49843006  0.37553320  0.37685099  1
  V  V71  1  0.62370798  -0.00360490  0.61645372  1
  V  V72  1  0.00028102  0.62540587  0.12628100  1
  V  V73  1  -0.00682588  0.11944260  0.62872516  1
  V  V74  1  0.62973846  0.88236890  0.25702617  1
  V  V75  1  0.37780493  0.00237457  0.35474309  1
  V  V76  1  0.12670952  0.25293786  0.37914231  1
  V  V77  1  0.37119222  0.62388031  0.74921667  1
  V  V78  1  0.74385698  0.87995732  0.12524744  1
  V  V79  1  0.38096786  0.88634746  0.49895371  1
  V  V80  1  0.37356165  0.23925330  0.12688508  1
  V  V81  1  0.51421291  0.11495426  0.13136093  1
  V  V82  1  0.25709899  0.75902162  0.00133019  1
  V  V83  1  0.23990866  0.37390805  0.62744751  1
  V  V84  1  0.75392011  0.00614803  0.74721587  1
  Zn  Zn85  1  0.73975005  0.12708878  0.87502450  1
  Zn  Zn86  1  0.24950860  0.12422894  0.87495193  1
  Zn  Zn87  1  0.75581049  0.01583922  0.25189932  1
  Zn  Zn88  1  0.00127565  0.89576836  0.36076848  1
  Zn  Zn89  1  -0.10600808  0.74832851  0.62167767  1
  Zn  Zn90  1  -0.00363630  0.11883983  0.13447915  1
  Zn  Zn91  1  0.37545724  0.25236498  0.62771995  1
  Zn  Zn92  1  -0.00254743  0.24916249  0.25288201  1
  Zn  Zn93  1  0.50134816  0.62110621  0.62644916  1
  Zn  Zn94  1  0.25182425  0.10941001  0.34526176  1
  Zn  Zn95  1  0.26152440  0.88715154  0.13746743  1
  Zn  Zn96  1  0.87440042  0.50987245  0.87299626  1
  Zn  Zn97  1  -0.00310898  0.00808951  0.48565048  1
  Zn  Zn98  1  0.91132432  0.07672241  0.30545986  1
  Zn  Zn99  1  0.62029019  0.37794459  0.75611738  1
  Zn  Zn100  1  0.62700613  0.61784220  -0.00496591  1
  Zn  Zn101  1  0.50925489  0.87425399  0.38307880  1
  Zn  Zn102  1  0.12519268  0.12287290  0.50041377  1
  Zn  Zn103  1  0.24919300  0.62667293  0.87403024  1
  Zn  Zn104  1  0.87052685  0.24869528  0.63386952  1
  Zn  Zn105  1  0.12518173  0.00277794  0.61912098  1
  Zn  Zn106  1  0.75912168  0.11845455  0.37973855  1
  Zn  Zn107  1  0.18106272  0.18795148  0.18393020  1
  Zn  Zn108  1  0.18259138  0.18646450  0.68779390  1
  Zn  Zn109  1  0.20581907  0.72291145  0.20503697  1
  Zn  Zn110  1  0.06898731  0.69270256  0.68392215  1
  Zn  Zn111  1  0.68870500  0.18908561  0.18814841  1
  Zn  Zn112  1  0.68312923  0.18834099  0.68883233  1
  Zn  Zn113  1  0.69064989  0.68295418  0.18756101  1
  Zn  Zn114  1  0.68505415  0.68722499  0.68322790  1
  Zn  Zn115  1  0.29493531  0.28081656  0.29449302  1
  Zn  Zn116  1  0.31604298  0.31291947  0.81346328  1
  Zn  Zn117  1  0.31862607  0.81496893  0.31331431  1
  Zn  Zn118  1  0.31191241  0.81400561  0.81394514  1
  Zn  Zn119  1  0.82800095  0.26879791  0.32769610  1
  Zn  Zn120  1  0.81004472  0.31478356  0.81488174  1
  Zn  Zn121  1  0.80513671  0.80081651  0.31304948  1
  Zn  Zn122  1  0.81303346  0.81289659  0.80784538  1
  Zn  Zn123  1  0.18387973  0.43849561  0.44258128  1
  Zn  Zn124  1  0.18602047  0.43730433  0.93591961  1
  Zn  Zn125  1  0.19063763  0.94322305  0.43668990  1
  Zn  Zn126  1  0.18995138  0.93598872  0.94037491  1
  Zn  Zn127  1  0.69352032  0.44128793  0.43515579  1
  Zn  Zn128  1  0.70762980  0.43590244  0.93733504  1
  Zn  Zn129  1  0.69550898  0.93799708  0.43320508  1
  Zn  Zn130  1  0.69400681  0.92604288  0.93295458  1
  Zn  Zn131  1  0.31067695  0.06608320  0.06485124  1
  Zn  Zn132  1  0.31283701  0.06143229  0.56365098  1
  Zn  Zn133  1  0.31269813  0.56813106  0.06290702  1
  Zn  Zn134  1  0.30992178  0.56312081  0.56380656  1
  Zn  Zn135  1  0.80963881  0.06051300  0.06331904  1
  Zn  Zn136  1  0.81432010  0.05946156  0.56107262  1
  Zn  Zn137  1  0.81233583  0.55939988  0.06504244  1
  Zn  Zn138  1  0.81095417  0.56664552  0.56614532  1
  Zn  Zn139  1  0.43947168  0.43625896  0.18804366  1
  Zn  Zn140  1  0.43464616  0.43436712  0.68691986  1
  Zn  Zn141  1  0.44796315  0.93293267  0.18830967  1
  Zn  Zn142  1  0.43843558  0.93861585  0.68943349  1
  Zn  Zn143  1  0.93873909  0.43379285  0.18610679  1
  Zn  Zn144  1  0.93221361  0.44262459  0.68762392  1
  Zn  Zn145  1  0.93522997  0.93482779  0.18256616  1
  Zn  Zn146  1  0.93648923  0.93754788  0.68815439  1
  Zn  Zn147  1  0.07391196  0.06966978  0.31256862  1
  Zn  Zn148  1  0.06414837  0.06248780  0.81086073  1
  Zn  Zn149  1  0.05699837  0.56554795  0.31618639  1
  Zn  Zn150  1  0.06767917  0.55823782  0.81439667  1
  Zn  Zn151  1  0.56060242  0.05886190  0.31544962  1
  Zn  Zn152  1  0.56108779  0.05912304  0.79148994  1
  Zn  Zn153  1  0.56377270  0.55984393  0.31549348  1
  Zn  Zn154  1  0.56389800  0.56733032  0.80424101  1
  Zn  Zn155  1  0.43320805  0.18327173  0.43682073  1
  Zn  Zn156  1  0.43365767  0.18917289  0.93873834  1
  Zn  Zn157  1  0.43516783  0.68652239  0.43971683  1
  Zn  Zn158  1  0.43924848  0.68469829  0.93680303  1
  Zn  Zn159  1  0.94113034  0.19701441  0.45013820  1
  Zn  Zn160  1  0.93688126  0.18796122  0.94108720  1
  Zn  Zn161  1  0.92916621  0.69570624  0.43587261  1
  Zn  Zn162  1  0.93968031  0.68630039  0.93265530  1
  Zn  Zn163  1  0.06157081  0.31410611  0.06022066  1
  Zn  Zn164  1  0.06050757  0.31372884  0.56653425  1
  Zn  Zn165  1  0.06294376  0.81278775  0.06341422  1
  Zn  Zn166  1  0.06006518  0.82175580  0.55114439  1
  Zn  Zn167  1  0.56571976  0.30523983  0.07103774  1
  Zn  Zn168  1  0.56018961  0.31013439  0.56829655  1
  Zn  Zn169  1  0.56775837  0.80798240  0.06602395  1
  Zn  Zn170  1  0.56035118  0.81148303  0.56533616  1
  O  O171  1  0.12246886  0.11895576  0.11286483  1
  O  O172  1  0.11215912  0.12349353  0.62422808  1
  O  O173  1  0.11980240  0.62023077  0.11675784  1
  O  O174  1  0.12994801  0.61150883  0.62854660  1
  O  O175  1  0.61222331  0.12995389  0.12281464  1
  O  O176  1  0.61851740  0.11838909  0.61724554  1
  O  O177  1  0.62256723  0.61381631  0.12128310  1
  O  O178  1  0.61977503  0.62751513  0.60992543  1
  O  O179  1  0.37916053  0.38085721  0.38936097  1
  O  O180  1  0.37388929  0.38070094  0.88977323  1
  O  O181  1  0.37675939  0.88147892  0.38609410  1
  O  O182  1  0.38793848  0.88635874  0.86674010  1
  O  O183  1  0.88592878  0.36414815  0.38610654  1
  O  O184  1  0.88165659  0.37690323  0.88580077  1
  O  O185  1  0.87096475  0.87120397  0.38035805  1
  O  O186  1  0.88076487  0.88054032  0.87937983  1
  O  O187  1  0.26835387  -0.00082826  0.37466687  1
  O  O188  1  0.25891836  -0.00165069  0.86965396  1
  O  O189  1  0.25260545  0.50663344  0.37350071  1
  O  O190  1  0.25576784  0.49890945  0.86693819  1
  O  O191  1  0.75237823  0.00590269  0.36824806  1
  O  O192  1  0.75779068  -0.00169389  0.86716297  1
  O  O193  1  0.75658771  0.51861371  0.38150180  1
  O  O194  1  0.75708446  0.49704715  0.85786262  1
  O  O195  1  0.24506604  0.49791549  0.13175131  1
  O  O196  1  0.24095106  0.49462390  0.63030983  1
  O  O197  1  0.23681006  0.99965826  0.11926100  1
  O  O198  1  0.25150996  0.98923615  0.63173649  1
  O  O199  1  0.73568932  0.48865078  0.11513833  1
  O  O200  1  0.75229236  0.49046703  0.63860738  1
  O  O201  1  0.75038151  0.98221206  0.12236080  1
  O  O202  1  0.74388207  0.99323103  0.63089614  1
  O  O203  1  0.00564331  0.37698534  0.26103344  1
  O  O204  1  -0.00655844  0.37030375  0.76246708  1
  O  O205  1  -0.00656291  0.85952570  0.24775195  1
  O  O206  1  0.01413753  0.88371283  0.75657443  1
  O  O207  1  0.50784274  0.37123884  0.25871933  1
  O  O208  1  0.49939906  0.35975058  0.74597856  1
  O  O209  1  0.51620003  0.86033390  0.24928278  1
  O  O210  1  0.50688922  0.86956809  0.75539728  1
  O  O211  1  0.50579833  0.13398447  0.24106878  1
  O  O212  1  0.49279789  0.13415229  0.74141922  1
  O  O213  1  0.50078472  0.63096617  0.24445424  1
  O  O214  1  0.48746121  0.63115266  0.74774563  1
  O  O215  1  1.00279549  0.13431811  0.24794765  1
  O  O216  1  1.00237700  0.13265846  0.74087154  1
  O  O217  1  0.98856778  0.62887897  0.24389980  1
  O  O218  1  0.99715869  0.62249396  0.74754310  1
  O  O219  1  0.37008200  0.25836131  0.00703323  1
  O  O220  1  0.36785911  0.25889231  0.50143377  1
  O  O221  1  0.36854913  0.74291132  0.00623850  1
  O  O222  1  0.36554706  0.75761904  0.50353343  1
  O  O223  1  0.87047370  0.25863354  0.00713157  1
  O  O224  1  0.86398461  0.26444457  0.51050491  1
  O  O225  1  0.87048359  0.74981054  0.00491321  1
  O  O226  1  0.87966463  0.77145756  0.50581051  1
  O  O227  1  0.13238248  0.25183880  0.49619179  1
  O  O228  1  0.12701834  0.24367521  0.99260550  1
  O  O229  1  0.13888184  0.75816225  0.49049674  1
  O  O230  1  0.13317052  0.74370627  0.99667611  1
  O  O231  1  0.62872731  0.24226887  0.50118837  1
  O  O232  1  0.64122225  0.25534434  1.00234271  1
  O  O233  1  0.61918784  0.73866380  0.49781895  1
  O  O234  1  0.63535579  0.74690316  0.99212995  1
  O  O235  1  0.49362408  0.24167098  0.13211752  1
  O  O236  1  0.49596335  0.24048534  0.63485513  1
  O  O237  1  0.49752693  0.73883523  0.13229866  1
  O  O238  1  0.49093125  0.74834135  0.63375452  1
  O  O239  1  0.98671064  0.25160043  0.12037492  1
  O  O240  1  0.99895268  0.24379399  0.63697373  1
  O  O241  1  0.99301577  0.74377027  0.12995669  1
  O  O242  1  1.00643539  0.76282152  0.62742835  1
  O  O243  1  0.01471467  0.26363601  0.38079340  1
  O  O244  1  0.00452822  0.25507605  0.87111880  1
  O  O245  1  0.00827808  0.75081030  0.36806233  1
  O  O246  1  0.01537741  0.75937901  0.88319840  1
  O  O247  1  0.50171104  0.25412318  0.36903455  1
  O  O248  1  0.49548500  0.24516335  0.86015391  1
  O  O249  1  0.49391068  0.75034504  0.36013829  1
  O  O250  1  0.50399793  0.75652806  0.86966010  1
  O  O251  1  0.25230994  0.14041903  0.50520033  1
  O  O252  1  0.24162153  0.13450709  0.99741488  1
  O  O253  1  0.25649183  0.63602811  0.49149591  1
  O  O254  1  0.23829431  0.62799779  0.99548468  1
  O  O255  1  0.74170047  0.13480816  0.50412259  1
  O  O256  1  0.75089041  0.13853775  0.99846662  1
  O  O257  1  0.73225965  0.61915857  0.49654423  1
  O  O258  1  0.74916276  0.63374135  1.00068540  1
  O  O259  1  0.25610345  0.37275820  0.00599013  1
  O  O260  1  0.25605811  0.37108787  0.50950210  1
  O  O261  1  0.24768673  0.86083844  0.00961631  1
  O  O262  1  0.26058248  0.87070754  0.50608092  1
  O  O263  1  0.76022739  0.36507863  0.00761027  1
  O  O264  1  0.75344733  0.37444380  0.51326212  1
  O  O265  1  0.75624499  0.86183872  0.00761575  1
  O  O266  1  0.76044972  0.87924555  0.51228994  1
  O  O267  1  0.12812952  0.49382640  0.24790361  1
  O  O268  1  0.13505609  0.50000931  0.74020442  1
  O  O269  1  0.12802182  1.00552531  0.23323777  1
  O  O270  1  0.13541860  0.99139828  0.75135046  1
  O  O271  1  0.62496799  0.49142902  0.24353000  1
  O  O272  1  0.63773849  0.49807153  0.75249590  1
  O  O273  1  0.62551191  0.98374478  0.25038917  1
  O  O274  1  0.63240598  0.99032137  0.73738620  1
  O  O275  1  0.37366305  -0.00935113  0.25577985  1
  O  O276  1  0.37287030  0.01089357  0.75710872  1
  O  O277  1  0.37025188  0.50402454  0.25727685  1
  O  O278  1  0.37286788  0.50278718  0.76095289  1
  O  O279  1  0.86844285  0.00870617  0.22769939  1
  O  O280  1  0.86514358  -0.00446946  0.75990118  1
  O  O281  1  0.87588406  0.51295653  0.23972589  1
  O  O282  1  0.86662180  0.51554421  0.74933746  1
  O  O283  1  0.11744691  0.37521845  0.36950623  1
  O  O284  1  0.11361524  0.36510087  0.88205398  1
  O  O285  1  0.12409590  0.86716667  0.37237679  1
  O  O286  1  0.12300287  0.86929417  0.86880099  1
  O  O287  1  0.61980177  0.36996504  0.37387599  1
  O  O288  1  0.61215032  0.38647786  0.88310866  1
  O  O289  1  0.62698821  0.87084514  0.36256555  1
  O  O290  1  0.61672394  0.86462641  0.86884837  1
  O  O291  1  0.38417481  0.13719532  0.11966666  1
  O  O292  1  0.38189727  0.12503495  0.63304049  1
  O  O293  1  0.38711520  0.62478992  0.13229198  1
  O  O294  1  0.37493351  0.63126645  0.63273895  1
  O  O295  1  0.87698486  0.14033532  0.11465856  1
  O  O296  1  0.88795515  0.12921221  0.62331392  1
  O  O297  1  0.87743952  0.63217931  0.13023450  1
  O  O298  1  0.87032449  0.63138251  0.64026762  1
  O  O299  1  0.25729920  0.26010019  0.11642729  1
  O  O300  1  0.25052000  0.25795196  0.62155483  1
  O  O301  1  0.26957720  0.73101328  0.11060810  1
  O  O302  1  0.25648451  0.76413760  0.61679560  1
  O  O303  1  0.75971887  0.25640799  0.11477097  1
  O  O304  1  0.74762193  0.25914505  0.62124975  1
  O  O305  1  0.75734275  0.75073139  0.11713284  1
  O  O306  1  0.74729677  0.76645774  0.62782183  1
  O  O307  1  0.23602377  0.26904236  0.39163283  1
  O  O308  1  0.24117467  0.25170980  0.87940093  1
  O  O309  1  0.24345449  0.74346275  0.38186609  1
  O  O310  1  0.24240210  0.75026584  0.88376525  1
  O  O311  1  0.73675551  0.25630105  0.39610358  1
  O  O312  1  0.75238255  0.24759596  0.88903797  1
  O  O313  1  0.76719299  0.71950325  0.38263796  1
  O  O314  1  0.74080395  0.75810455  0.88298004  1
  O  O315  1  0.00699776  0.11604637  0.00145247  1
  O  O316  1  0.00234053  0.12731532  0.51557556  1
  O  O317  1  0.01032589  0.62214056  0.00472470  1
  O  O318  1  -0.01079594  0.61346118  0.49557281  1
  O  O319  1  0.50302405  0.12296919  0.00808091  1
  O  O320  1  0.50513058  0.13020684  0.51287716  1
  O  O321  1  0.50478009  0.62655772  0.01344240  1
  O  O322  1  0.51031017  0.61592049  0.49805567  1
  O  O323  1  0.49354730  0.38199490  0.49963521  1
  O  O324  1  0.49497920  0.37398360  1.00293635  1
  O  O325  1  0.48463410  0.86761047  0.49983663  1
  O  O326  1  0.50346067  0.86687163  0.99019754  1
  O  O327  1  0.99096266  0.38148771  0.49908162  1
  O  O328  1  0.99313190  0.38017799  0.99175034  1
  O  O329  1  0.98897827  0.88423104  0.48446955  1
  O  O330  1  0.99517752  0.88201781  0.99431408  1
  O  O331  1  0.49350962  0.49422847  0.38541756  1
  O  O332  1  0.49423177  0.50190454  0.87747472  1
  O  O333  1  0.48516716  0.99050080  0.36979629  1
  O  O334  1  0.50017144  0.99724723  0.88392255  1
  O  O335  1  1.00700955  0.49034339  0.38903731  1
  O  O336  1  1.00020312  0.49163421  0.88051011  1
  O  O337  1  0.99340911  1.01115786  0.36750998  1
  O  O338  1  0.99464561  0.99611667  0.88309246  1
  O  O339  1  0.01099500  -0.00094881  0.11246038  1
  O  O340  1  0.00081471  0.01321166  0.62927523  1
  O  O341  1  0.00634335  0.50447753  0.11794144  1
  O  O342  1  0.01397502  0.49462210  0.62173707  1
  O  O343  1  0.49869047  0.01613916  0.12933149  1
  O  O344  1  0.51200242  0.01034465  0.63356013  1
  O  O345  1  0.51352802  0.50547161  0.12911332  1
  O  O346  1  0.49228379  0.50150687  0.61158665  1
  O  O347  1  0.24166307  0.38125555  0.24450223  1
  O  O348  1  0.26034364  0.38612099  0.74180810  1
  O  O349  1  0.24542311  0.83017997  0.23282802  1
  O  O350  1  0.24337276  0.87762301  0.74187597  1
  O  O351  1  0.74672987  0.36600816  0.23747656  1
  O  O352  1  0.74598382  0.38034292  0.74307610  1
  O  O353  1  0.73890193  0.86507783  0.24279614  1
  O  O354  1  0.74362982  0.88337541  0.74045700  1
  O  O355  1  0.26437187  0.17369268  0.25473353  1
  O  O356  1  0.25789731  0.12062700  0.75154568  1
  O  O357  1  0.25659843  0.62161974  0.26018042  1
  O  O358  1  0.26451105  0.60926104  0.75338197  1
  O  O359  1  0.74138281  0.13212103  0.26441842  1
  O  O360  1  0.73863447  0.11089847  0.75478401  1
  O  O361  1  0.76002267  0.62393882  0.25997978  1
  O  O362  1  0.74782498  0.61536494  0.74790212  1
  O  O363  1  0.37606809  0.10631752  0.37513590  1
  O  O364  1  0.37355775  0.11676906  0.86845754  1
  O  O365  1  0.36802084  0.61908758  0.37028142  1
  O  O366  1  0.37320560  0.61594868  0.86911420  1
  O  O367  1  0.86971489  0.16229866  0.37037912  1
  O  O368  1  0.87245672  0.11152286  0.88122175  1
  O  O369  1  0.88081224  0.61926343  0.36026638  1
  O  O370  1  0.88257847  0.62543590  0.85630315  1
  O  O371  1  0.12756049  0.38233868  0.13263764  1
  O  O372  1  0.13707285  0.38137037  0.62409432  1
  O  O373  1  0.12552852  0.89057122  0.12037376  1
  O  O374  1  0.13449606  0.87961743  0.63118078  1
  O  O375  1  0.63181142  0.37914548  0.13270644  1
  O  O376  1  0.63768580  0.37366265  0.62772212  1
  O  O377  1  0.63479588  0.86421407  0.13896157  1
  O  O378  1  0.63324130  0.88092066  0.62452261  1
  O  O379  1  0.12171833  0.26704427  0.25780340  1
  O  O380  1  0.11529776  0.24626042  0.76437752  1
  O  O381  1  0.10875339  0.73594106  0.26224106  1
  O  O382  1  0.12892601  0.75963502  0.76146709  1
  O  O383  1  0.61338346  0.25951569  0.25449533  1
  O  O384  1  0.61093000  0.25260666  0.75245780  1
  O  O385  1  0.61520828  0.74775941  0.24830820  1
  O  O386  1  0.61990008  0.75305085  0.75601814  1
  O  O387  1  0.39305229  0.26758177  0.23694500  1
  O  O388  1  0.38069444  0.23881968  0.75022037  1
  O  O389  1  0.39069717  0.74117658  0.24124476  1
  O  O390  1  0.37492956  0.74141214  0.74594152  1
  O  O391  1  0.87942657  0.26328923  0.22712031  1
  O  O392  1  0.88620027  0.25159360  0.75422394  1
  O  O393  1  0.87973916  0.73902235  0.24128204  1
  O  O394  1  0.87378218  0.73620596  0.74820530  1
  O  O395  1  0.38025142  0.49474863  0.49641922  1
  O  O396  1  0.36990842  0.49564847  0.98834844  1
  O  O397  1  0.37552698  0.98711538  0.50172658  1
  O  O398  1  0.37064768  1.00379354  0.98875115  1
  O  O399  1  0.88223120  0.48992759  0.51219348  1
  O  O400  1  0.88108615  0.49378147  0.99703734  1
  O  O401  1  0.87856414  0.98194451  0.50708125  1
  O  O402  1  0.88243670  0.99297582  0.99577844  1
  O  O403  1  0.11843221  0.00811417  -0.00024965  1
  O  O404  1  0.11950079  0.00419942  0.50032099  1
  O  O405  1  0.12069671  0.50832929  0.00333268  1
  O  O406  1  0.11698506  0.49860395  0.51592054  1
  O  O407  1  0.62371737  -0.00685537  0.00024768  1
  O  O408  1  0.62941128  0.00588696  0.50957453  1
  O  O409  1  0.61786078  0.49286006  -0.00040138  1
  O  O410  1  0.61173088  0.50047911  0.49677785  1
  O  O411  1  0.37256686  0.37266810  0.11384563  1
  O  O412  1  0.36453933  0.37504617  0.61427213  1
  O  O413  1  0.38079248  0.86034723  0.12637725  1
  O  O414  1  0.37066341  0.87228112  0.61698708  1
  O  O415  1  0.86981057  0.37214272  0.11380905  1
  O  O416  1  0.86248142  0.37273461  0.62311743  1
  O  O417  1  0.86875835  0.85901102  0.11728269  1
  O  O418  1  0.86237630  0.87172045  0.63019248  1
  O  O419  1  0.13835882  0.13962320  0.37820589  1
  O  O420  1  0.12555917  0.13200106  0.88535842  1
  O  O421  1  0.13578480  0.62891231  0.37464866  1
  O  O422  1  0.12605662  0.63366664  0.88253637  1
  O  O423  1  0.61592223  0.13029934  0.39093546  1
  O  O424  1  0.61618743  0.10648525  0.88503219  1
  O  O425  1  0.63203164  0.62268946  0.38394482  1
  O  O426  1  0.61733067  0.63886935  0.87729166  1
