# generated using pymatgen
data_V85Zn86O256
_symmetry_space_group_name_H-M   'P 1'
_cell_length_a   16.91452826
_cell_length_b   16.91168976
_cell_length_c   16.91240422
_cell_angle_alpha   90.02226971
_cell_angle_beta   90.00965485
_cell_angle_gamma   89.94935037
_symmetry_Int_Tables_number   1
_chemical_formula_structural   V85Zn86O256
_chemical_formula_sum   'V85 Zn86 O256'
_cell_volume   4837.84594241
_cell_formula_units_Z   1
loop_
 _symmetry_equiv_pos_site_id
 _symmetry_equiv_pos_as_xyz
  1  'x, y, z'
loop_
 _atom_site_type_symbol
 _atom_site_label
 _atom_site_symmetry_multiplicity
 _atom_site_fract_x
 _atom_site_fract_y
 _atom_site_fract_z
 _atom_site_occupancy
  V  V0  1  0.24911255  0.36879882  0.12015547  1
  V  V1  1  0.12679291  0.13020401  0.00336318  1
  V  V2  1  0.24781896  0.62981495  0.37389748  1
  V  V3  1  0.62217219  0.24561363  0.87725504  1
  V  V4  1  0.74976970  0.00155216  0.75296732  1
  V  V5  1  0.74973209  0.87574940  0.62743295  1
  V  V6  1  0.24047234  0.87486079  0.62889278  1
  V  V7  1  0.13345654  0.49469099  0.62021721  1
  V  V8  1  0.74719987  0.62706010  0.37409325  1
  V  V9  1  0.87525764  0.37506527  -0.00169856  1
  V  V10  1  0.00310457  0.63224013  0.12477137  1
  V  V11  1  0.87420634  0.75951560  0.12376215  1
  V  V12  1  0.50113054  0.75293639  0.76649404  1
  V  V13  1  0.00404458  0.24714854  0.74938321  1
  V  V14  1  0.37401763  0.24264285  0.14167622  1
  V  V15  1  0.36816998  0.37229218  0.50653061  1
  V  V16  1  0.74578133  0.38279894  0.62453693  1
  V  V17  1  0.62263165  0.62454552  0.50523905  1
  V  V18  1  0.62027694  0.87201955  0.76303548  1
  V  V19  1  0.88035013  0.63071608  0.24858322  1
  V  V20  1  0.12445730  0.50104337  0.12517999  1
  V  V21  1  0.12701671  0.86708839  0.24762565  1
  V  V22  1  0.62135041  0.37058604  0.25040766  1
  V  V23  1  0.12940328  0.62360603  -0.01110911  1
  V  V24  1  0.37681965  0.87930260  0.50510048  1
  V  V25  1  0.01052038  0.75221691  0.75004426  1
  V  V26  1  0.37553091  0.62977008  0.24862052  1
  V  V27  1  0.87342636  0.50100641  0.87313181  1
  V  V28  1  0.37558455  -0.00930550  0.88218892  1
  V  V29  1  0.11369930  0.00729657  0.62509734  1
  V  V30  1  0.25142546  0.74924096  -0.00508674  1
  V  V31  1  0.37747008  0.74751482  0.62688956  1
  V  V32  1  0.26579284  0.10887335  0.36914282  1
  V  V33  1  0.88654545  0.12926564  0.25283819  1
  V  V34  1  0.46681695  0.89733248  0.34308025  1
  V  V35  1  0.87882874  0.24757762  0.62575744  1
  V  V36  1  0.11275378  0.12107807  0.49232044  1
  V  V37  1  0.74872743  0.50040376  0.24958970  1
  V  V38  1  0.00260925  0.36349109  0.36981463  1
  V  V39  1  0.24787980  0.49887239  0.24975111  1
  V  V40  1  0.62108341  0.12438093  0.50329260  1
  V  V41  1  0.63081831  -0.00158670  0.12113891  1
  V  V42  1  0.74781346  0.24936952  0.50152318  1
  V  V43  1  0.62231621  0.38298130  0.74706521  1
  V  V44  1  0.62140441  0.50072581  0.12045437  1
  V  V45  1  0.24811869  0.75344170  0.49114225  1
  V  V46  1  0.37561338  0.36379180  -0.00201182  1
  V  V47  1  0.24889882  0.50149974  0.75654065  1
  V  V48  1  0.24157549  0.24679964  0.49716615  1
  V  V49  1  0.50602012  -0.00057636  -0.00478150  1
  V  V50  1  0.25287408  0.13491376  0.87793995  1
  V  V51  1  0.74900187  0.37405284  0.12539155  1
  V  V52  1  0.87580033  0.50062856  0.37383945  1
  V  V53  1  0.00583380  0.85852364  0.36968329  1
  V  V54  1  0.12395321  0.62995118  0.49492630  1
  V  V55  1  0.37072390  0.62477184  0.75894118  1
  V  V56  1  0.74941838  0.75262020  0.50127768  1
  V  V57  1  0.00895431  0.87935637  0.87510988  1
  V  V58  1  0.74999420  0.12318666  0.37476485  1
  V  V59  1  0.62030783  0.24789824  0.37183851  1
  V  V60  1  0.24556135  -0.00231039  0.75151693  1
  V  V61  1  0.87542991  0.62812351  0.74982443  1
  V  V62  1  0.88718456  0.00085331  0.37905814  1
  V  V63  1  0.88305983  0.87952119  0.50276356  1
  V  V64  1  0.87943180  0.12378162  0.74917078  1
  V  V65  1  0.37560198  0.75309554  0.11899594  1
  V  V66  1  0.87548724  0.37562151  0.49994518  1
  V  V67  1  0.49521033  0.37092197  0.37073543  1
  V  V68  1  0.12098325  0.36048078  0.25035413  1
  V  V69  1  0.13079565  0.37214877  0.74512373  1
  V  V70  1  0.50108568  0.50110659  0.50505840  1
  V  V71  1  0.74043041  0.62948737  0.87604946  1
  V  V72  1  0.37905640  0.12303953  0.74360808  1
  V  V73  1  0.49702812  0.00180837  0.50318913  1
  V  V74  1  0.62091804  0.76130746  0.37437250  1
  V  V75  1  0.74275964  0.75954507  0.00035007  1
  V  V76  1  0.75359427  -0.00458342  0.24673162  1
  V  V77  1  0.88354696  0.25166549  0.13007982  1
  V  V78  1  0.25306046  0.88486903  0.12003408  1
  V  V79  1  0.37403842  0.50152949  0.37549963  1
  V  V80  1  0.74738124  0.24162149  0.00056877  1
  V  V81  1  0.61832917  0.00417602  0.62855850  1
  V  V82  1  0.00184963  0.49893423  0.49930288  1
  V  V83  1  0.50581958  0.12904517  0.13269887  1
  V  V84  1  0.50181122  0.24677645  0.73876587  1
  Zn  Zn85  1  0.62066562  0.63049362  -0.00212430  1
  Zn  Zn86  1  0.37314209  0.24542364  0.62176146  1
  Zn  Zn87  1  0.37187109  0.50088700  0.88194381  1
  Zn  Zn88  1  0.00522679  0.12707518  0.12920925  1
  Zn  Zn89  1  0.13290020  0.75122058  0.86914298  1
  Zn  Zn90  1  0.12417667  0.00260517  0.13113280  1
  Zn  Zn91  1  0.74927787  0.12395269  0.87777747  1
  Zn  Zn92  1  -0.00063739  0.50166490  -0.00102981  1
  Zn  Zn93  1  -0.00032745  0.00188939  0.00545823  1
  Zn  Zn94  1  0.49956106  0.62570994  0.12153995  1
  Zn  Zn95  1  0.74504070  0.50500085  0.74574210  1
  Zn  Zn96  1  0.49588405  0.49973105  -0.00208279  1
  Zn  Zn97  1  0.12797051  0.25405301  0.87935680  1
  Zn  Zn98  1  0.87683749  -0.00009551  0.87765660  1
  Zn  Zn99  1  0.63644861  0.87072176  0.24129948  1
  Zn  Zn100  1  0.00225002  0.37634081  0.87338558  1
  Zn  Zn101  1  0.87719999  0.75150831  0.62717548  1
  Zn  Zn102  1  0.87639863  0.87892797  -0.00025244  1
  Zn  Zn103  1  0.00095787  0.62584703  0.62531445  1
  Zn  Zn104  1  0.49826409  0.37414598  0.87385888  1
  Zn  Zn105  1  0.50573518  0.75035712  0.24504507  1
  Zn  Zn106  1  0.50289774  0.62315809  0.62965882  1
  Zn  Zn107  1  0.19349111  0.18374137  0.19202690  1
  Zn  Zn108  1  0.19165585  0.18465227  0.68292093  1
  Zn  Zn109  1  0.18778388  0.69342623  0.18528446  1
  Zn  Zn110  1  0.18912958  0.68322611  0.68125866  1
  Zn  Zn111  1  0.69023056  0.18428153  0.18803101  1
  Zn  Zn112  1  0.68852588  0.18906097  0.68859339  1
  Zn  Zn113  1  0.69053293  0.68715612  0.18423576  1
  Zn  Zn114  1  0.68595210  0.69063974  0.68915219  1
  Zn  Zn115  1  0.30554628  0.30777424  0.31724378  1
  Zn  Zn116  1  0.31285884  0.31293763  0.80608734  1
  Zn  Zn117  1  0.31462752  0.82670073  0.30471303  1
  Zn  Zn118  1  0.31306898  0.81401976  0.81209792  1
  Zn  Zn119  1  0.81104728  0.31198661  0.31371699  1
  Zn  Zn120  1  0.80966715  0.31253071  0.81203065  1
  Zn  Zn121  1  0.81511389  0.81257045  0.31441423  1
  Zn  Zn122  1  0.81703084  0.81327255  0.81693706  1
  Zn  Zn123  1  0.18711788  0.43462093  0.43375621  1
  Zn  Zn124  1  0.18875447  0.43409242  0.93769988  1
  Zn  Zn125  1  0.18247185  0.93886966  0.43856016  1
  Zn  Zn126  1  0.18548438  0.94148831  0.94089088  1
  Zn  Zn127  1  0.68506658  0.43834708  0.43762470  1
  Zn  Zn128  1  0.68877515  0.43408883  0.93439874  1
  Zn  Zn129  1  0.69212392  0.94128073  0.43955678  1
  Zn  Zn130  1  0.68583839  0.93990429  0.93933205  1
  Zn  Zn131  1  0.31443905  0.06843375  0.06023986  1
  Zn  Zn132  1  0.30692079  0.06303507  0.55982968  1
  Zn  Zn133  1  0.31205501  0.56096262  0.06185173  1
  Zn  Zn134  1  0.31263888  0.56400467  0.56502720  1
  Zn  Zn135  1  0.81939992  0.06241959  0.06446000  1
  Zn  Zn136  1  0.81287683  0.06215329  0.56530026  1
  Zn  Zn137  1  0.81031173  0.56595948  0.06127983  1
  Zn  Zn138  1  0.81240043  0.56424403  0.56272839  1
  Zn  Zn139  1  0.43507984  0.43665302  0.18647593  1
  Zn  Zn140  1  0.43635345  0.43758558  0.68730008  1
  Zn  Zn141  1  0.44005374  0.93763759  0.17732120  1
  Zn  Zn142  1  0.43582375  0.93687402  0.69004131  1
  Zn  Zn143  1  0.93940519  0.44139394  0.18641033  1
  Zn  Zn144  1  0.94077114  0.43757537  0.68675608  1
  Zn  Zn145  1  0.94467526  0.94098083  0.19129619  1
  Zn  Zn146  1  0.93838135  0.93366966  0.69432338  1
  Zn  Zn147  1  0.06891023  0.05571822  0.31182163  1
  Zn  Zn148  1  0.06560283  0.06533111  0.81286942  1
  Zn  Zn149  1  0.06184151  0.56093742  0.31201740  1
  Zn  Zn150  1  0.05996036  0.56004522  0.81026964  1
  Zn  Zn151  1  0.56287654  0.06111717  0.30936066  1
  Zn  Zn152  1  0.56165387  0.06499208  0.81428237  1
  Zn  Zn153  1  0.56122540  0.56297327  0.31443198  1
  Zn  Zn154  1  0.55480382  0.56062273  0.81515098  1
  Zn  Zn155  1  0.43450563  0.18569296  0.43437793  1
  Zn  Zn156  1  0.43997891  0.18428095  0.93948895  1
  Zn  Zn157  1  0.43965600  0.69598382  0.43372548  1
  Zn  Zn158  1  0.43763091  0.68494286  0.94038788  1
  Zn  Zn159  1  0.93807996  0.18690967  0.43903363  1
  Zn  Zn160  1  0.93960551  0.18753789  0.93503616  1
  Zn  Zn161  1  0.93427335  0.68736743  0.44078580  1
  Zn  Zn162  1  0.93846005  0.69137423  0.93725088  1
  Zn  Zn163  1  0.06279056  0.31140292  0.06053362  1
  Zn  Zn164  1  0.06300634  0.31008758  0.56170987  1
  Zn  Zn165  1  0.06541315  0.81177077  0.06009864  1
  Zn  Zn166  1  0.06195746  0.81352208  0.56326618  1
  Zn  Zn167  1  0.55933950  0.30903034  0.06297778  1
  Zn  Zn168  1  0.56035333  0.31450306  0.56080351  1
  Zn  Zn169  1  0.55994056  0.81867315  0.06002577  1
  Zn  Zn170  1  0.56184218  0.81553952  0.56773393  1
  O  O171  1  0.12780808  0.12653098  0.11605574  1
  O  O172  1  0.12838746  0.11253351  0.61624656  1
  O  O173  1  0.11881855  0.62038682  0.12078961  1
  O  O174  1  0.12379185  0.61564485  0.61024468  1
  O  O175  1  0.61307220  0.11985328  0.12800029  1
  O  O176  1  0.63138452  0.11371966  0.61927886  1
  O  O177  1  0.62377361  0.61322378  0.12491630  1
  O  O178  1  0.62358130  0.63075297  0.60984767  1
  O  O179  1  0.37972465  0.37880091  0.38173748  1
  O  O180  1  0.37014117  0.37008294  0.88944891  1
  O  O181  1  0.37766700  0.85546019  0.39991923  1
  O  O182  1  0.37478702  0.89247776  0.87143736  1
  O  O183  1  0.87874572  0.38176959  0.38045709  1
  O  O184  1  0.87368154  0.38270160  0.88145194  1
  O  O185  1  0.88392773  0.88022104  0.38159451  1
  O  O186  1  0.89059751  0.87792100  0.87609012  1
  O  O187  1  0.25230377  0.00916069  0.38486109  1
  O  O188  1  0.25914715  0.00506076  0.86972614  1
  O  O189  1  0.25540408  0.50706594  0.36928643  1
  O  O190  1  0.25121996  0.49588136  0.86076122  1
  O  O191  1  0.75922132  0.00661074  0.36893521  1
  O  O192  1  0.74997963  0.00222074  0.86339742  1
  O  O193  1  0.75532670  0.50639000  0.37102706  1
  O  O194  1  0.75961317  0.50787032  0.87250926  1
  O  O195  1  0.24449247  0.49011607  0.13159169  1
  O  O196  1  0.23840258  0.50181016  0.63045030  1
  O  O197  1  0.25242971  0.98762413  0.11945877  1
  O  O198  1  0.24441394  0.99285612  0.63312807  1
  O  O199  1  0.74356582  0.49379151  0.12989725  1
  O  O200  1  0.75248630  0.48719281  0.62461037  1
  O  O201  1  0.74287915  1.01185468  0.13409235  1
  O  O202  1  0.74322850  0.99493804  0.63583312  1
  O  O203  1  0.00832670  0.38244047  0.25772616  1
  O  O204  1  0.01197384  0.36847813  0.74915432  1
  O  O205  1  0.00306594  0.87057982  0.26399298  1
  O  O206  1  0.00017213  0.86424377  0.76139085  1
  O  O207  1  0.50369302  0.38115703  0.26400563  1
  O  O208  1  0.50575243  0.36673196  0.74852556  1
  O  O209  1  0.51745076  0.87247228  0.24739833  1
  O  O210  1  0.50800592  0.86592271  0.74472236  1
  O  O211  1  0.49561574  0.11362650  0.23224494  1
  O  O212  1  0.49159825  0.13356011  0.75362101  1
  O  O213  1  0.48629744  0.62715736  0.25116198  1
  O  O214  1  0.49280735  0.63368611  0.74775535  1
  O  O215  1  0.98958678  0.12453455  0.25592505  1
  O  O216  1  0.99335415  0.13421759  0.75058895  1
  O  O217  1  0.99008891  0.62035537  0.24191038  1
  O  O218  1  0.99204869  0.63142990  0.74898861  1
  O  O219  1  0.37775594  0.26013270  0.01141915  1
  O  O220  1  0.36801962  0.25597009  0.50066355  1
  O  O221  1  0.36720274  0.74325435  0.01110841  1
  O  O222  1  0.36754615  0.75165702  0.51131435  1
  O  O223  1  0.86953428  0.25720434  0.00579597  1
  O  O224  1  0.86937993  0.25432250  0.50767590  1
  O  O225  1  0.86714799  0.75125350  0.00856354  1
  O  O226  1  0.86667288  0.75832858  0.50363864  1
  O  O227  1  0.13235660  0.23652413  0.50457597  1
  O  O228  1  0.12436863  0.23773371  0.99780443  1
  O  O229  1  0.13470437  0.74145851  0.50581273  1
  O  O230  1  0.13340552  0.73955157  0.99804322  1
  O  O231  1  0.62831896  0.24416423  0.49490426  1
  O  O232  1  0.63478349  0.25902880  0.99105717  1
  O  O233  1  0.62794790  0.74713237  0.49414467  1
  O  O234  1  0.63862831  0.75127085  1.00601703  1
  O  O235  1  0.49188935  0.23744666  0.12520279  1
  O  O236  1  0.49825618  0.24994855  0.63464365  1
  O  O237  1  0.49095298  0.75000521  0.12456929  1
  O  O238  1  0.48625136  0.74953684  0.62800365  1
  O  O239  1  0.98657449  0.25038679  0.12417365  1
  O  O240  1  0.98663683  0.25618857  0.63325427  1
  O  O241  1  0.99268056  0.73826656  0.11957003  1
  O  O242  1  0.99790161  0.74865410  0.63397659  1
  O  O243  1  -0.00767364  0.26446651  0.37559880  1
  O  O244  1  0.00179551  0.25438009  0.86040817  1
  O  O245  1  -0.00415061  0.76036344  0.37671582  1
  O  O246  1  0.00502352  0.75810589  0.86788474  1
  O  O247  1  0.50802064  0.25897565  0.38113231  1
  O  O248  1  0.50660414  0.25265872  0.86805624  1
  O  O249  1  0.50627035  0.76876341  0.36923634  1
  O  O250  1  0.49468535  0.75152994  0.86584354  1
  O  O251  1  0.24195329  0.13056712  0.49163760  1
  O  O252  1  0.24043278  0.12277282  0.99047016  1
  O  O253  1  0.24429496  0.63326171  0.49500186  1
  O  O254  1  0.24007273  0.63371888  1.00665381  1
  O  O255  1  0.74362178  0.12917085  0.49449629  1
  O  O256  1  0.75552679  0.13868885  0.99993670  1
  O  O257  1  0.74259502  0.63003898  0.49425045  1
  O  O258  1  0.74653905  0.63396946  0.99156492  1
  O  O259  1  0.25683649  0.37386684  0.01327819  1
  O  O260  1  0.25468433  0.35996640  0.49082399  1
  O  O261  1  0.24181175  0.86704040  0.01276544  1
  O  O262  1  0.25447915  0.86971902  0.50773242  1
  O  O263  1  0.76080191  0.36851944  0.00491360  1
  O  O264  1  0.75351113  0.36999632  0.50527591  1
  O  O265  1  0.75385718  0.86300124  -0.00575081  1
  O  O266  1  0.75979590  0.87248170  0.50705219  1
  O  O267  1  0.13048738  0.49620243  0.24103566  1
  O  O268  1  0.12994972  0.49450330  0.74141573  1
  O  O269  1  0.11909896  0.97839601  0.24747203  1
  O  O270  1  0.13738009  1.00739139  0.73981188  1
  O  O271  1  0.62910667  0.49292803  0.24446846  1
  O  O272  1  0.62358193  0.48701607  0.75125029  1
  O  O273  1  0.63750709  1.00079008  0.24151937  1
  O  O274  1  0.62917927  0.99624709  0.74517959  1
  O  O275  1  0.38860582  -0.06503753  0.27976455  1
  O  O276  1  0.36987443  0.00572731  0.75929236  1
  O  O277  1  0.36806739  0.50795663  0.25460807  1
  O  O278  1  0.36538278  0.50652543  0.74716745  1
  O  O279  1  0.87139014  0.00923045  0.25819270  1
  O  O280  1  0.86699536  0.00779510  0.74929364  1
  O  O281  1  0.86873563  0.50922287  0.25343568  1
  O  O282  1  0.87311904  0.50699069  0.75630094  1
  O  O283  1  0.11493613  0.37883374  0.36326381  1
  O  O284  1  0.12325324  0.37266240  0.86485725  1
  O  O285  1  0.11218485  0.87493424  0.37162859  1
  O  O286  1  0.11444691  0.87289998  0.87623278  1
  O  O287  1  0.61648485  0.36945968  0.37094921  1
  O  O288  1  0.62585717  0.36525885  0.86378818  1
  O  O289  1  0.63536656  0.86394402  0.37531575  1
  O  O290  1  0.62571514  0.87934362  0.86202455  1
  O  O291  1  0.37924917  0.13726436  0.12723954  1
  O  O292  1  0.37006388  0.12089352  0.63990889  1
  O  O293  1  0.37423072  0.63194490  0.13374453  1
  O  O294  1  0.37596095  0.63338300  0.63402394  1
  O  O295  1  0.87661482  0.13549013  0.13669267  1
  O  O296  1  0.86952981  0.13476733  0.63627191  1
  O  O297  1  0.88266178  0.62976516  0.13088589  1
  O  O298  1  0.87529087  0.62551279  0.63791943  1
  O  O299  1  0.26361373  0.25535788  0.13067619  1
  O  O300  1  0.25457487  0.24268983  0.60492509  1
  O  O301  1  0.25690839  0.75790990  0.11558187  1
  O  O302  1  0.25732260  0.75750216  0.61927216  1
  O  O303  1  0.75611711  0.25627300  0.11856671  1
  O  O304  1  0.75965922  0.25880484  0.62107736  1
  O  O305  1  0.75983816  0.74459503  0.11015033  1
  O  O306  1  0.75141239  0.75952867  0.61980535  1
  O  O307  1  0.25322647  0.23660714  0.39008167  1
  O  O308  1  0.24949318  0.23787374  0.86743728  1
  O  O309  1  0.25482574  0.74972215  0.38635981  1
  O  O310  1  0.25143691  0.75651126  0.88905808  1
  O  O311  1  0.74219682  0.24485408  0.38309686  1
  O  O312  1  0.74342033  0.25052022  0.88391317  1
  O  O313  1  0.74479739  0.74472393  0.38217590  1
  O  O314  1  0.75642103  0.74224077  0.88898818  1
  O  O315  1  0.01333107  0.12633240  -0.00062455  1
  O  O316  1  0.01344595  0.12861936  0.50129174  1
  O  O317  1  0.00862304  0.62367092  0.00683736  1
  O  O318  1  0.00698780  0.61858719  0.49956621  1
  O  O319  1  0.49185653  0.11337087  0.01573895  1
  O  O320  1  0.50464550  0.11025686  0.49390283  1
  O  O321  1  0.50477617  0.61853984  0.00272363  1
  O  O322  1  0.50537657  0.61985313  0.49808100  1
  O  O323  1  0.49310243  0.38222884  0.49057019  1
  O  O324  1  0.48573296  0.37470059  1.00074655  1
  O  O325  1  0.49175290  0.88631824  0.50581287  1
  O  O326  1  0.49797777  0.89896045  1.00514225  1
  O  O327  1  0.99574208  0.38015679  0.49278437  1
  O  O328  1  0.98693542  0.37703012  0.99869534  1
  O  O329  1  0.98933574  0.87075514  0.49118251  1
  O  O330  1  1.00057967  0.87508636  0.98707078  1
  O  O331  1  0.49254751  0.49408318  0.38364474  1
  O  O332  1  0.49119666  0.49139120  0.87784705  1
  O  O333  1  0.51016541  0.98584564  0.38379301  1
  O  O334  1  0.49025648  1.00881879  0.88608700  1
  O  O335  1  0.99329668  0.49473480  0.38262141  1
  O  O336  1  0.98602786  0.49838400  0.87658097  1
  O  O337  1  0.98911612  0.99073537  0.37446419  1
  O  O338  1  1.00173258  0.98812745  0.87090624  1
  O  O339  1  0.00359453  0.00845063  0.12409346  1
  O  O340  1  0.01584648  -0.00522648  0.63381292  1
  O  O341  1  0.00695915  0.51100391  0.12145521  1
  O  O342  1  0.00951036  0.50160728  0.61512662  1
  O  O343  1  0.50604711  0.00871034  0.11617809  1
  O  O344  1  0.50988224  -0.00215092  0.62003427  1
  O  O345  1  0.50945187  0.49984134  0.12520837  1
  O  O346  1  0.49533738  0.50233273  0.60933000  1
  O  O347  1  0.24196955  0.37819552  0.24318370  1
  O  O348  1  0.23872442  0.38095795  0.74684836  1
  O  O349  1  0.23893612  0.87018186  0.23260889  1
  O  O350  1  0.25386562  0.88461688  0.74121900  1
  O  O351  1  0.74344647  0.38180978  0.24602621  1
  O  O352  1  0.74184027  0.37631013  0.74087042  1
  O  O353  1  0.75533132  0.89063557  0.25301236  1
  O  O354  1  0.74511984  0.88065118  0.74617608  1
  O  O355  1  0.24433109  0.12184372  0.27030544  1
  O  O356  1  0.25676288  0.11634703  0.75703742  1
  O  O357  1  0.25774568  0.62306403  0.25408172  1
  O  O358  1  0.25770363  0.61501924  0.74423809  1
  O  O359  1  0.75938116  0.11827998  0.25883102  1
  O  O360  1  0.75713048  0.11709510  0.75037920  1
  O  O361  1  0.75649255  0.61837438  0.25566919  1
  O  O362  1  0.75590967  0.62646290  0.75658062  1
  O  O363  1  0.36650006  0.11846848  0.37489922  1
  O  O364  1  0.36855356  0.11926189  0.86714429  1
  O  O365  1  0.36863342  0.62434641  0.36882576  1
  O  O366  1  0.37458429  0.62305290  0.86270629  1
  O  O367  1  0.87093731  0.11889342  0.37289827  1
  O  O368  1  0.87221081  0.12491820  0.86152767  1
  O  O369  1  0.87010009  0.62115435  0.36757468  1
  O  O370  1  0.86895742  0.61996294  0.86653216  1
  O  O371  1  0.13117120  0.37987410  0.12785610  1
  O  O372  1  0.12120328  0.38343664  0.62996076  1
  O  O373  1  0.13339043  0.87502702  0.13044864  1
  O  O374  1  0.13505316  0.88666146  0.61814919  1
  O  O375  1  0.62793174  0.37840195  0.13240355  1
  O  O376  1  0.63411521  0.36838107  0.63240995  1
  O  O377  1  0.62708928  0.89335605  0.12180373  1
  O  O378  1  0.63291402  0.88581360  0.63094409  1
  O  O379  1  0.12354527  0.26158371  0.24265744  1
  O  O380  1  0.11968861  0.25508798  0.74442170  1
  O  O381  1  0.12286981  0.76416202  0.24773526  1
  O  O382  1  0.11525901  0.73979869  0.75006317  1
  O  O383  1  0.63138346  0.25897415  0.25819859  1
  O  O384  1  0.61849490  0.25694120  0.75419025  1
  O  O385  1  0.62853859  0.75022073  0.25832588  1
  O  O386  1  0.61297447  0.75958258  0.74486917  1
  O  O387  1  0.37763073  0.25795963  0.23955178  1
  O  O388  1  0.38336464  0.24315044  0.74561541  1
  O  O389  1  0.37467202  0.74478094  0.23915302  1
  O  O390  1  0.37883704  0.74407171  0.74496078  1
  O  O391  1  0.86713447  0.24216153  0.24195376  1
  O  O392  1  0.88088364  0.24576630  0.74399072  1
  O  O393  1  0.86570129  0.73740945  0.24146021  1
  O  O394  1  0.88421804  0.74213588  0.75015908  1
  O  O395  1  0.37686137  0.49425803  0.49357470  1
  O  O396  1  0.37224632  0.48297885  1.00283831  1
  O  O397  1  0.38344737  0.99119434  0.50897295  1
  O  O398  1  0.38065652  1.00450663  0.98702898  1
  O  O399  1  0.88130894  0.49586017  0.49533057  1
  O  O400  1  0.87304834  0.49309342  0.99266530  1
  O  O401  1  0.86920909  0.99177245  0.49219604  1
  O  O402  1  0.87990664  0.99786067  0.99580372  1
  O  O403  1  0.12245172  0.01532637  0.00347045  1
  O  O404  1  0.12595341  0.01048969  0.51319170  1
  O  O405  1  0.12620924  0.50552063  0.00782696  1
  O  O406  1  0.12182659  0.50373746  0.50358503  1
  O  O407  1  0.61557261  0.00610956  0.00287810  1
  O  O408  1  0.61956512  0.00308015  0.50921349  1
  O  O409  1  0.62713029  0.49433768  0.01261645  1
  O  O410  1  0.61374472  0.51165545  0.49116148  1
  O  O411  1  0.36894330  0.36511291  0.11991032  1
  O  O412  1  0.37703566  0.37416005  0.60919045  1
  O  O413  1  0.36165105  0.86791624  0.12353234  1
  O  O414  1  0.36536803  0.86827318  0.62034117  1
  O  O415  1  0.86968425  0.37105795  0.11997459  1
  O  O416  1  0.86877847  0.36952242  0.61923473  1
  O  O417  1  0.88328909  0.86177394  0.12766927  1
  O  O418  1  0.86919633  0.87724845  0.61871536  1
  O  O419  1  0.12645290  0.11748539  0.39005472  1
  O  O420  1  0.13470966  0.12763293  0.88299874  1
  O  O421  1  0.13080867  0.61966750  0.38638315  1
  O  O422  1  0.12177326  0.62310384  0.88613872  1
  O  O423  1  0.62907152  0.12903619  0.37996476  1
  O  O424  1  0.62973757  0.14059179  0.86936899  1
  O  O425  1  0.62660779  0.63679583  0.38301885  1
  O  O426  1  0.63756370  0.61946952  0.87357158  1
