# generated using pymatgen
data_V85Zn86O256
_symmetry_space_group_name_H-M   'P 1'
_cell_length_a   16.91742358
_cell_length_b   16.92084526
_cell_length_c   16.92212879
_cell_angle_alpha   90.01825783
_cell_angle_beta   89.98822514
_cell_angle_gamma   89.96812172
_symmetry_Int_Tables_number   1
_chemical_formula_structural   V85Zn86O256
_chemical_formula_sum   'V85 Zn86 O256'
_cell_volume   4844.07852542
_cell_formula_units_Z   1
loop_
 _symmetry_equiv_pos_site_id
 _symmetry_equiv_pos_as_xyz
  1  'x, y, z'
loop_
 _atom_site_type_symbol
 _atom_site_label
 _atom_site_symmetry_multiplicity
 _atom_site_fract_x
 _atom_site_fract_y
 _atom_site_fract_z
 _atom_site_occupancy
  V  V0  1  0.00194291  0.49394629  -0.00684447  1
  V  V1  1  0.62828569  0.38563765  0.75712694  1
  V  V2  1  0.68561062  0.44440792  0.57773055  1
  V  V3  1  0.60998274  0.25338417  0.87172074  1
  V  V4  1  0.24661441  0.62733306  0.37395213  1
  V  V5  1  0.87759566  0.50020304  0.37810912  1
  V  V6  1  -0.00397660  0.24358925  0.24911539  1
  V  V7  1  0.11563916  0.12380566  0.50046579  1
  V  V8  1  0.50231199  0.76331067  0.75292810  1
  V  V9  1  0.12571506  0.62305496  0.50154687  1
  V  V10  1  0.64309387  0.13243506  0.47280747  1
  V  V11  1  0.86515881  0.62479106  0.75043640  1
  V  V12  1  0.12735659  0.87620568  0.74971314  1
  V  V13  1  -0.00015919  -0.00137653  0.00183881  1
  V  V14  1  0.24604221  0.50207563  0.74655119  1
  V  V15  1  0.75063282  0.63172452  0.37739810  1
  V  V16  1  0.74577321  0.12688482  0.87480846  1
  V  V17  1  0.37819852  0.62472668  0.75027900  1
  V  V18  1  -0.00151990  0.25469101  0.75992023  1
  V  V19  1  0.61630835  0.62833731  0.00563385  1
  V  V20  1  0.37733855  0.86970090  0.49870457  1
  V  V21  1  0.00165829  0.49504893  0.50632405  1
  V  V22  1  0.62811289  0.87655532  0.25307390  1
  V  V23  1  0.61988162  0.76350134  0.87416049  1
  V  V24  1  0.87439008  0.62267730  0.24727265  1
  V  V25  1  0.37548701  0.37427515  0.51172474  1
  V  V26  1  0.87643489  0.00687028  0.38015351  1
  V  V27  1  0.62751682  0.50064613  0.12702711  1
  V  V28  1  0.87601860  0.74750367  0.12430732  1
  V  V29  1  0.75019048  0.74802364  -0.00175146  1
  V  V30  1  0.50262344  0.87537703  0.37873837  1
  V  V31  1  0.24971930  0.00544494  0.25041916  1
  V  V32  1  -0.00276739  0.12527668  0.62685327  1
  V  V33  1  0.12682342  0.62704826  -0.00181714  1
  V  V34  1  0.00679506  0.74707217  0.25282803  1
  V  V35  1  0.48770451  0.24575491  0.72857388  1
  V  V36  1  0.62778945  0.36471645  0.24603702  1
  V  V37  1  0.74579644  0.87457441  0.60467987  1
  V  V38  1  0.87198470  0.75724013  0.61297054  1
  V  V39  1  0.25519959  0.00444765  0.74824037  1
  V  V40  1  0.24650914  0.24979919  0.50811638  1
  V  V41  1  0.38046471  0.49395831  0.87449496  1
  V  V42  1  0.38293602  0.87481405  -0.00543661  1
  V  V43  1  0.25617886  0.36566621  0.12606487  1
  V  V44  1  0.37956888  0.36657453  0.00178905  1
  V  V45  1  0.86919345  0.24778020  0.12761228  1
  V  V46  1  0.49973006  0.36424177  0.37595000  1
  V  V47  1  0.74509471  0.25978072  0.00146209  1
  V  V48  1  0.37629182  0.49940461  0.37694700  1
  V  V49  1  -0.00097178  0.37529365  0.37656728  1
  V  V50  1  0.87771645  0.37341399  -0.00077461  1
  V  V51  1  0.50272144  0.49858429  0.50468466  1
  V  V52  1  0.48335821  0.24600453  0.24883412  1
  V  V53  1  0.12536645  0.49812759  0.12302483  1
  V  V54  1  0.87086605  0.26770541  0.62371473  1
  V  V55  1  0.48579874  0.03541415  0.51252681  1
  V  V56  1  0.25131931  0.12772693  0.37491589  1
  V  V57  1  0.49790376  0.50032333  0.00506015  1
  V  V58  1  0.38423573  0.74702208  0.12415926  1
  V  V59  1  0.12574891  0.12480742  0.00160503  1
  V  V60  1  0.86798799  0.49684779  0.87257033  1
  V  V61  1  -0.00187572  0.75229923  0.75160459  1
  V  V62  1  0.38394717  -0.00053135  0.87046582  1
  V  V63  1  0.24153302  0.37564380  0.62769259  1
  V  V64  1  0.12733876  0.87094793  0.25677527  1
  V  V65  1  0.48254096  0.12568274  0.12877295  1
  V  V66  1  0.25235820  0.87359026  0.12471318  1
  V  V67  1  0.24680267  0.74980699  0.49786871  1
  V  V68  1  0.25145817  0.49934125  0.24969352  1
  V  V69  1  -0.00374605  0.87005208  0.38217086  1
  V  V70  1  0.74312307  -0.01226436  0.75088416  1
  V  V71  1  0.63144896  0.63547811  0.50554418  1
  V  V72  1  0.37604925  0.00131773  0.36959983  1
  V  V73  1  0.75205088  0.87569828  0.12770216  1
  V  V74  1  0.38439483  0.62436727  0.24750899  1
  V  V75  1  0.50811302  0.61998553  0.63004526  1
  V  V76  1  0.62408868  0.01389924  0.62414037  1
  V  V77  1  0.00437546  0.62380114  0.62805545  1
  V  V78  1  0.12432888  0.37421157  0.24931856  1
  V  V79  1  0.25384206  0.12748973  0.87194115  1
  V  V80  1  0.12092089  0.37973609  0.75915167  1
  V  V81  1  0.62315746  0.12649842  0.00549494  1
  V  V82  1  0.87423261  -0.00158614  0.87512284  1
  V  V83  1  0.75950247  0.01326061  0.25157215  1
  V  V84  1  0.87202324  0.12597898  0.75009925  1
  Zn  Zn85  1  -0.00304511  -0.00991158  0.50538667  1
  Zn  Zn86  1  0.25130737  0.87608564  0.62342217  1
  Zn  Zn87  1  0.37702582  0.75061440  0.62612636  1
  Zn  Zn88  1  0.63098122  0.75441853  0.37987636  1
  Zn  Zn89  1  0.12238410  -0.00146682  0.12636898  1
  Zn  Zn90  1  0.50576126  0.74691556  0.25122261  1
  Zn  Zn91  1  0.75112224  0.26622527  0.50023948  1
  Zn  Zn92  1  0.50361144  -0.00148541  -0.00250392  1
  Zn  Zn93  1  0.62435479  0.00306877  0.12731795  1
  Zn  Zn94  1  0.75182881  0.49633659  0.24307214  1
  Zn  Zn95  1  -0.00426668  0.12172600  0.12950120  1
  Zn  Zn96  1  0.25171030  0.24784351  0.00208479  1
  Zn  Zn97  1  0.87687772  0.87307168  -0.00056712  1
  Zn  Zn98  1  0.11947850  0.24889298  0.37646340  1
  Zn  Zn99  1  0.74384408  0.62390839  0.87093785  1
  Zn  Zn100  1  0.00161454  0.87518460  0.87559094  1
  Zn  Zn101  1  0.25093576  0.75110364  -0.00326362  1
  Zn  Zn102  1  0.24969503  0.62707619  0.87324058  1
  Zn  Zn103  1  0.12438003  -0.00044833  0.62528149  1
  Zn  Zn104  1  0.12379149  0.25426617  0.87968355  1
  Zn  Zn105  1  0.00126557  0.62253720  0.12395776  1
  Zn  Zn106  1  0.12765499  0.75045796  0.87487376  1
  Zn  Zn107  1  0.18375441  0.18695554  0.18824451  1
  Zn  Zn108  1  0.18468193  0.18968689  0.69011845  1
  Zn  Zn109  1  0.19121137  0.68725757  0.18445877  1
  Zn  Zn110  1  0.18827278  0.68946400  0.68534588  1
  Zn  Zn111  1  0.68497188  0.19123720  0.18686895  1
  Zn  Zn112  1  0.68879092  0.19282292  0.68864013  1
  Zn  Zn113  1  0.68727681  0.68729631  0.18767733  1
  Zn  Zn114  1  0.68565124  0.69563968  0.68661234  1
  Zn  Zn115  1  0.31118948  0.31245173  0.31915668  1
  Zn  Zn116  1  0.31402213  0.31204375  0.81396208  1
  Zn  Zn117  1  0.31381322  0.81022390  0.31214550  1
  Zn  Zn118  1  0.31222415  0.81244568  0.81347743  1
  Zn  Zn119  1  0.80944154  0.31372179  0.31221952  1
  Zn  Zn120  1  0.80634475  0.31522140  0.81272046  1
  Zn  Zn121  1  0.81661429  0.81298557  0.31413335  1
  Zn  Zn122  1  0.81238878  0.81135356  0.81221012  1
  Zn  Zn123  1  0.18446305  0.43969889  0.43881163  1
  Zn  Zn124  1  0.19441501  0.43929329  0.93604052  1
  Zn  Zn125  1  0.18436794  0.93758331  0.43754937  1
  Zn  Zn126  1  0.19049549  0.93796606  0.93490728  1
  Zn  Zn127  1  0.68645598  0.44055181  0.41491875  1
  Zn  Zn128  1  0.68472879  0.43823384  0.93559772  1
  Zn  Zn129  1  0.68496649  0.95114117  0.43637562  1
  Zn  Zn130  1  0.68780271  0.93886192  0.94116962  1
  Zn  Zn131  1  0.31074535  0.05740030  0.05776978  1
  Zn  Zn132  1  0.30972707  0.06103513  0.56004452  1
  Zn  Zn133  1  0.31203284  0.56058390  0.06423306  1
  Zn  Zn134  1  0.31486172  0.56149792  0.56693168  1
  Zn  Zn135  1  0.81133972  0.06621227  0.06277126  1
  Zn  Zn136  1  0.81554647  0.06088939  0.56304813  1
  Zn  Zn137  1  0.80970460  0.56101240  0.06054449  1
  Zn  Zn138  1  0.81974525  0.56837855  0.56107830  1
  Zn  Zn139  1  0.44120448  0.43741419  0.18560903  1
  Zn  Zn140  1  0.44446607  0.43206465  0.69194461  1
  Zn  Zn141  1  0.43911967  0.93888144  0.18762064  1
  Zn  Zn142  1  0.43629804  0.94173428  0.68305807  1
  Zn  Zn143  1  0.93759922  0.43330108  0.18279819  1
  Zn  Zn144  1  0.93880799  0.44121628  0.69275367  1
  Zn  Zn145  1  0.93774520  0.93517167  0.18970135  1
  Zn  Zn146  1  0.93363803  0.93709159  0.68661622  1
  Zn  Zn147  1  0.06153834  0.05959821  0.31595902  1
  Zn  Zn148  1  0.06445811  0.06336031  0.81379028  1
  Zn  Zn149  1  0.06468956  0.56298705  0.31340560  1
  Zn  Zn150  1  0.05997801  0.56239470  0.81454536  1
  Zn  Zn151  1  0.56338904  0.06426344  0.31301531  1
  Zn  Zn152  1  0.56193794  0.06978372  0.80663716  1
  Zn  Zn153  1  0.56464071  0.55800073  0.31678811  1
  Zn  Zn154  1  0.56216928  0.56611258  0.82072748  1
  Zn  Zn155  1  0.43068999  0.18682915  0.45519767  1
  Zn  Zn156  1  0.43618937  0.18357413  0.93705873  1
  Zn  Zn157  1  0.44218636  0.68710552  0.43612665  1
  Zn  Zn158  1  0.43792188  0.68670185  0.93495709  1
  Zn  Zn159  1  0.89830521  0.20720679  0.41975440  1
  Zn  Zn160  1  0.93546877  0.18432034  0.94018401  1
  Zn  Zn161  1  0.94060251  0.68627643  0.43601063  1
  Zn  Zn162  1  0.93942173  0.68363833  0.93580331  1
  Zn  Zn163  1  0.06105041  0.31147843  0.06274932  1
  Zn  Zn164  1  0.05940604  0.31114358  0.56773377  1
  Zn  Zn165  1  0.06379143  0.81319854  0.06601728  1
  Zn  Zn166  1  0.06660084  0.80787407  0.56573437  1
  Zn  Zn167  1  0.55705279  0.31106991  0.06652903  1
  Zn  Zn168  1  0.56518401  0.30053083  0.56002819  1
  Zn  Zn169  1  0.56352025  0.81464265  0.06522287  1
  Zn  Zn170  1  0.56313823  0.81540832  0.56822739  1
  O  O171  1  0.12381659  0.12075156  0.11306971  1
  O  O172  1  0.11249533  0.12636851  0.62104416  1
  O  O173  1  0.12572976  0.61569818  0.11851849  1
  O  O174  1  0.11208450  0.62926532  0.61932454  1
  O  O175  1  0.62101908  0.12620458  0.11428136  1
  O  O176  1  0.63256224  0.11557360  0.62100298  1
  O  O177  1  0.62591816  0.61960256  0.11533642  1
  O  O178  1  0.62020306  0.62655216  0.61955064  1
  O  O179  1  0.37934135  0.38235363  0.38587974  1
  O  O180  1  0.36843836  0.38749922  0.88539409  1
  O  O181  1  0.38381168  0.87916696  0.37683296  1
  O  O182  1  0.37023117  0.88462952  0.88406993  1
  O  O183  1  0.88734547  0.39255929  0.36688209  1
  O  O184  1  0.86973061  0.38246814  0.88536788  1
  O  O185  1  0.88860531  0.88309820  0.36782365  1
  O  O186  1  0.87539400  0.88717344  0.87681599  1
  O  O187  1  0.25446871  0.00521636  0.36882397  1
  O  O188  1  0.25814044  0.00621814  0.86646788  1
  O  O189  1  0.25604859  0.50524929  0.36995264  1
  O  O190  1  0.25977896  0.50454099  0.86294798  1
  O  O191  1  0.76538548  -0.00501598  0.36263216  1
  O  O192  1  0.75375304  0.00473302  0.86980921  1
  O  O193  1  0.76199989  0.51124896  0.36721878  1
  O  O194  1  0.76306897  0.50686655  0.88499263  1
  O  O195  1  0.24426276  0.49080773  0.13220629  1
  O  O196  1  0.25314464  0.49308125  0.63824207  1
  O  O197  1  0.25207400  0.98979207  0.13447455  1
  O  O198  1  0.24870427  1.00068160  0.63273403  1
  O  O199  1  0.73394271  0.50094738  0.12363725  1
  O  O200  1  0.74947902  0.50210387  0.62727076  1
  O  O201  1  0.75231695  0.99297456  0.13473422  1
  O  O202  1  0.74646986  0.99096233  0.63086948  1
  O  O203  1  0.00591714  0.36989601  0.25633283  1
  O  O204  1  0.00960538  0.36871528  0.74833525  1
  O  O205  1  0.00893086  0.86631127  0.25488118  1
  O  O206  1  0.00631476  0.86868687  0.74999572  1
  O  O207  1  0.50302643  0.36698530  0.25633996  1
  O  O208  1  0.51522140  0.36024211  0.74352816  1
  O  O209  1  0.51014685  0.87995983  0.26164359  1
  O  O210  1  0.49519467  0.86174638  0.74245495  1
  O  O211  1  0.50274659  0.13104320  0.23918864  1
  O  O212  1  0.50119204  0.14624185  0.75046085  1
  O  O213  1  0.48784130  0.62448139  0.25914589  1
  O  O214  1  0.49550232  0.62829048  0.74514644  1
  O  O215  1  1.00919992  0.13987184  0.24979000  1
  O  O216  1  0.99460228  0.13061101  0.74504012  1
  O  O217  1  0.99534206  0.63034018  0.24836391  1
  O  O218  1  0.99472467  0.63228405  0.74362287  1
  O  O219  1  0.37408081  0.26313902  -0.00400642  1
  O  O220  1  0.35726908  0.26388242  0.49514398  1
  O  O221  1  0.37460362  0.75519697  0.00671499  1
  O  O222  1  0.37070002  0.75661557  0.49867303  1
  O  O223  1  0.86676161  0.25642024  0.00132958  1
  O  O224  1  0.88971466  0.25625299  0.52449863  1
  O  O225  1  0.86830508  0.74959965  0.00397832  1
  O  O226  1  0.88012469  0.74423329  0.51416132  1
  O  O227  1  0.12978731  0.24477121  0.49918679  1
  O  O228  1  0.12561767  0.24034508  0.99814251  1
  O  O229  1  0.13340595  0.73591939  0.50160370  1
  O  O230  1  0.12617160  0.74102305  1.00086628  1
  O  O231  1  0.63613052  0.23764206  0.49632486  1
  O  O232  1  0.62840284  0.24802131  0.99552593  1
  O  O233  1  0.62281995  0.73866913  0.49993801  1
  O  O234  1  0.62947340  0.74538482  0.99870847  1
  O  O235  1  0.49871660  0.23494908  0.13331060  1
  O  O236  1  0.49253815  0.24834531  0.62737201  1
  O  O237  1  0.48836440  0.75489546  0.13160466  1
  O  O238  1  0.50040905  0.73911681  0.63393334  1
  O  O239  1  0.99202273  0.24960495  0.13313184  1
  O  O240  1  0.99326693  0.24443466  0.63996563  1
  O  O241  1  0.99365896  0.74872941  0.13562583  1
  O  O242  1  0.99285363  0.74623967  0.63429951  1
  O  O243  1  -0.00629742  0.26091668  0.36884567  1
  O  O244  1  -0.00057895  0.24286572  0.86358461  1
  O  O245  1  -0.00385076  0.75416557  0.36151330  1
  O  O246  1  0.00015886  0.75224072  0.86252080  1
  O  O247  1  0.49042792  0.26038684  0.37136125  1
  O  O248  1  0.50900234  0.24943799  0.87716934  1
  O  O249  1  0.50522811  0.76072147  0.37135231  1
  O  O250  1  0.50631630  0.74774638  0.86464543  1
  O  O251  1  0.23781618  0.13298671  0.49707685  1
  O  O252  1  0.24256740  0.12523736  0.99426908  1
  O  O253  1  0.24585125  0.62726783  0.49577656  1
  O  O254  1  0.23752215  0.62281491  1.00006607  1
  O  O255  1  0.74160849  0.11884362  0.49935993  1
  O  O256  1  0.74091099  0.13404160  0.99512047  1
  O  O257  1  0.74265966  0.61957720  0.49144840  1
  O  O258  1  0.74275692  0.63833683  1.00188261  1
  O  O259  1  0.25856281  0.37521473  0.00968517  1
  O  O260  1  0.25098771  0.37185693  0.50857860  1
  O  O261  1  0.25942126  0.87642547  0.00978841  1
  O  O262  1  0.25543946  0.86564354  0.49681594  1
  O  O263  1  0.75406611  0.36436850  -0.00377249  1
  O  O264  1  0.73761217  0.38874273  0.50784414  1
  O  O265  1  0.75083035  0.86518641  0.00986974  1
  O  O266  1  0.74883138  0.88083402  0.50628143  1
  O  O267  1  0.13033870  0.49424768  0.24421474  1
  O  O268  1  0.13346422  0.49476770  0.75448363  1
  O  O269  1  0.13324713  0.99161790  0.24866626  1
  O  O270  1  0.13447801  0.99352531  0.74967694  1
  O  O271  1  0.62324057  0.49195518  0.24215853  1
  O  O272  1  0.61767535  0.48602539  0.75982834  1
  O  O273  1  0.63869175  0.99080973  0.25159064  1
  O  O274  1  0.63259051  1.00588838  0.74073295  1
  O  O275  1  0.36628258  -0.00569145  0.26218891  1
  O  O276  1  0.36461884  -0.00354529  0.75473407  1
  O  O277  1  0.37126553  0.50590822  0.25432380  1
  O  O278  1  0.37300875  0.50349912  0.75692207  1
  O  O279  1  0.86504185  -0.00260226  0.25492354  1
  O  O280  1  0.86699152  0.00556481  0.75798454  1
  O  O281  1  0.87826229  0.50980493  0.25221664  1
  O  O282  1  0.88050938  0.51112559  0.76138078  1
  O  O283  1  0.11394709  0.37557632  0.36949018  1
  O  O284  1  0.13149095  0.37398900  0.86376679  1
  O  O285  1  0.11849842  0.87713348  0.36244328  1
  O  O286  1  0.12374929  0.87394837  0.86269805  1
  O  O287  1  0.61166983  0.37826768  0.35899148  1
  O  O288  1  0.62511630  0.36718910  0.86709823  1
  O  O289  1  0.62035966  0.87746301  0.37138285  1
  O  O290  1  0.62441070  0.86289855  0.88388357  1
  O  O291  1  0.38388221  0.12132356  0.12217420  1
  O  O292  1  0.41175785  0.10609216  0.55234638  1
  O  O293  1  0.36793181  0.63368417  0.13570207  1
  O  O294  1  0.38400164  0.62591575  0.63677907  1
  O  O295  1  0.87857316  0.14211102  0.11691473  1
  O  O296  1  0.88506108  0.12722944  0.63127988  1
  O  O297  1  0.87686397  0.62771146  0.13135578  1
  O  O298  1  0.88463086  0.63377795  0.63272233  1
  O  O299  1  0.24666897  0.26206054  0.12568865  1
  O  O300  1  0.24631017  0.25773256  0.61739269  1
  O  O301  1  0.26070995  0.76130694  0.12483438  1
  O  O302  1  0.25517479  0.74980273  0.61067454  1
  O  O303  1  0.75569997  0.24885123  0.11509153  1
  O  O304  1  0.76674426  0.24759042  0.62109779  1
  O  O305  1  0.75523790  0.75670284  0.11967454  1
  O  O306  1  0.75482032  0.76691441  0.62587340  1
  O  O307  1  0.24400590  0.24248921  0.38336885  1
  O  O308  1  0.24771362  0.24068310  0.87700884  1
  O  O309  1  0.25613994  0.74019115  0.38648122  1
  O  O310  1  0.24743107  0.74503421  0.87852229  1
  O  O311  1  0.79248777  0.24761797  0.39698984  1
  O  O312  1  0.74027463  0.24378861  0.88230357  1
  O  O313  1  0.75213259  0.73656240  0.37169636  1
  O  O314  1  0.74304589  0.74958888  0.88352945  1
  O  O315  1  0.00701552  0.11348965  -0.00003339  1
  O  O316  1  0.00977290  0.12714751  0.50816958  1
  O  O317  1  0.01123939  0.61767259  0.00249314  1
  O  O318  1  0.00833094  0.62001855  0.50595059  1
  O  O319  1  0.50479453  0.12475816  0.01246365  1
  O  O320  1  0.52746019  0.12893976  0.47489431  1
  O  O321  1  0.50638014  0.61853628  0.00033507  1
  O  O322  1  0.51014631  0.61868828  0.50680715  1
  O  O323  1  0.49346518  0.37556589  0.49620909  1
  O  O324  1  0.49044761  0.38417387  1.00626860  1
  O  O325  1  0.49407620  0.87332495  0.49030456  1
  O  O326  1  0.48749434  0.87918159  1.00742084  1
  O  O327  1  1.00878260  0.38614803  0.49317736  1
  O  O328  1  0.99246745  0.38188275  0.99892248  1
  O  O329  1  1.01102737  0.87026679  0.48616142  1
  O  O330  1  0.99962200  0.88572845  0.99876942  1
  O  O331  1  0.49534901  0.49001702  0.38490598  1
  O  O332  1  0.49076479  0.50350147  0.88937119  1
  O  O333  1  0.49128343  0.99866065  0.38452962  1
  O  O334  1  0.48717620  1.00835235  0.87262696  1
  O  O335  1  0.99672825  0.49650498  0.38237259  1
  O  O336  1  0.98813727  0.50505878  0.88745481  1
  O  O337  1  0.99234621  0.98782614  0.37491417  1
  O  O338  1  0.99083302  0.99999384  0.88167895  1
  O  O339  1  -0.00045761  0.00146110  0.11753132  1
  O  O340  1  -0.00000542  0.00916216  0.62417216  1
  O  O341  1  0.00757634  0.49895699  0.11321450  1
  O  O342  1  -0.00568756  0.51026860  0.61660245  1
  O  O343  1  0.50307654  0.01367691  0.12680463  1
  O  O344  1  0.51039739  -0.00490829  0.61317382  1
  O  O345  1  0.50967231  0.50043375  0.11445584  1
  O  O346  1  0.49614012  0.51170433  0.62052762  1
  O  O347  1  0.24578567  0.37917068  0.24587980  1
  O  O348  1  0.24465917  0.38148238  0.74465793  1
  O  O349  1  0.24540568  0.88105831  0.24680410  1
  O  O350  1  0.24399324  0.88245924  0.74677122  1
  O  O351  1  0.73258292  0.37724601  0.25517510  1
  O  O352  1  0.72910121  0.37074422  0.74900183  1
  O  O353  1  0.74661437  0.87911856  0.24402782  1
  O  O354  1  0.75061226  0.88621374  0.74838328  1
  O  O355  1  0.24259590  0.11422121  0.25867988  1
  O  O356  1  0.24418904  0.11692101  0.75812568  1
  O  O357  1  0.25731090  0.62096715  0.25823832  1
  O  O358  1  0.25891218  0.61879103  0.74653054  1
  O  O359  1  0.74872811  0.11110015  0.24224484  1
  O  O360  1  0.75450470  0.11873040  0.75659458  1
  O  O361  1  0.75891064  0.62222328  0.25479018  1
  O  O362  1  0.76195899  0.63313116  0.74948979  1
  O  O363  1  0.35903953  0.11611955  0.38293811  1
  O  O364  1  0.36138519  0.11586295  0.88148900  1
  O  O365  1  0.36693043  0.61933033  0.37078975  1
  O  O366  1  0.37529491  0.61592317  0.86357527  1
  O  O367  1  0.89137601  0.10420985  0.36964878  1
  O  O368  1  0.86749929  0.11496625  0.87211060  1
  O  O369  1  0.87251876  0.61836180  0.36720885  1
  O  O370  1  0.87195878  0.61942927  0.86657198  1
  O  O371  1  0.13205470  0.38051470  0.12923580  1
  O  O372  1  0.13565965  0.37313172  0.63564054  1
  O  O373  1  0.13517026  0.87601248  0.13563526  1
  O  O374  1  0.12807303  0.87674359  0.63659032  1
  O  O375  1  0.61677933  0.38196361  0.13913843  1
  O  O376  1  0.62514199  0.37877156  0.63036081  1
  O  O377  1  0.63575659  0.87851929  0.13294216  1
  O  O378  1  0.63934023  0.88684068  0.61781747  1
  O  O379  1  0.11665066  0.25836747  0.25328398  1
  O  O380  1  0.11568122  0.25933928  0.75418187  1
  O  O381  1  0.11826166  0.75560493  0.24523766  1
  O  O382  1  0.11704969  0.75730054  0.74894780  1
  O  O383  1  0.61428521  0.26152675  0.24650037  1
  O  O384  1  0.61847642  0.25534672  0.75760496  1
  O  O385  1  0.62628827  0.76363258  0.25252874  1
  O  O386  1  0.61399394  0.74631829  0.76108957  1
  O  O387  1  0.38368513  0.25372651  0.25234638  1
  O  O388  1  0.38905368  0.25964613  0.74890271  1
  O  O389  1  0.37685911  0.74127243  0.24327885  1
  O  O390  1  0.38340145  0.74114858  0.75017716  1
  O  O391  1  0.88274893  0.26052147  0.23746328  1
  O  O392  1  0.87893220  0.24584613  0.74573133  1
  O  O393  1  0.88188001  0.73817371  0.24546994  1
  O  O394  1  0.88185138  0.74503977  0.74388083  1
  O  O395  1  0.38120531  0.49398850  0.49683129  1
  O  O396  1  0.38044958  0.49632717  0.99447441  1
  O  O397  1  0.37427381  0.98194160  0.48538519  1
  O  O398  1  0.37771123  0.99180551  0.98971678  1
  O  O399  1  0.88872195  0.50805951  0.48953255  1
  O  O400  1  0.88181610  0.49310948  0.99726441  1
  O  O401  1  0.87825615  0.99956625  0.48557662  1
  O  O402  1  0.88045903  0.99959225  0.99305878  1
  O  O403  1  0.11763656  0.00451233  0.00079886  1
  O  O404  1  0.12128250  0.00882548  0.50375362  1
  O  O405  1  0.11936740  0.50344758  0.00158336  1
  O  O406  1  0.11740393  0.51314042  0.49891130  1
  O  O407  1  0.62314031  0.01091775  0.00330631  1
  O  O408  1  0.61567022  0.01637906  0.50363171  1
  O  O409  1  0.61746478  0.50652786  0.00472864  1
  O  O410  1  0.62536789  0.50161156  0.50724616  1
  O  O411  1  0.36664271  0.38251029  0.11601004  1
  O  O412  1  0.36435510  0.38278767  0.61562236  1
  O  O413  1  0.36971918  0.86914328  0.12104674  1
  O  O414  1  0.37315217  0.87257803  0.61175507  1
  O  O415  1  0.87644457  0.36588428  0.10917930  1
  O  O416  1  0.87467948  0.36661849  0.63465639  1
  O  O417  1  0.86553379  0.86791937  0.12471047  1
  O  O418  1  0.86040992  0.86992675  0.62706735  1
  O  O419  1  0.13257788  0.12482471  0.38412833  1
  O  O420  1  0.13502845  0.12356371  0.88589264  1
  O  O421  1  0.13940324  0.62088952  0.38179522  1
  O  O422  1  0.12604755  0.62690657  0.88418363  1
  O  O423  1  0.64346730  0.12193894  0.37347530  1
  O  O424  1  0.62595184  0.13283523  0.88664700  1
  O  O425  1  0.63444297  0.62422586  0.38411602  1
  O  O426  1  0.62664494  0.63404775  0.88968474  1
