# generated using pymatgen
data_V85Zn86O256
_symmetry_space_group_name_H-M   'P 1'
_cell_length_a   16.90985936
_cell_length_b   16.90899483
_cell_length_c   16.91112969
_cell_angle_alpha   89.99541154
_cell_angle_beta   90.02117527
_cell_angle_gamma   90.02337603
_symmetry_Int_Tables_number   1
_chemical_formula_structural   V85Zn86O256
_chemical_formula_sum   'V85 Zn86 O256'
_cell_volume   4835.37699587
_cell_formula_units_Z   1
loop_
 _symmetry_equiv_pos_site_id
 _symmetry_equiv_pos_as_xyz
  1  'x, y, z'
loop_
 _atom_site_type_symbol
 _atom_site_label
 _atom_site_symmetry_multiplicity
 _atom_site_fract_x
 _atom_site_fract_y
 _atom_site_fract_z
 _atom_site_occupancy
  V  V0  1  0.37751316  0.87511977  -0.00231378  1
  V  V1  1  0.63388773  0.63419554  0.00206371  1
  V  V2  1  0.87350752  0.37925681  0.49235542  1
  V  V3  1  -0.00660370  0.61700581  0.11695493  1
  V  V4  1  0.62324220  0.50317378  0.62401531  1
  V  V5  1  0.87762988  0.61378214  0.25608555  1
  V  V6  1  0.36631722  0.62431468  0.25735897  1
  V  V7  1  0.00344454  0.37648086  0.86818786  1
  V  V8  1  0.62055567  0.37209330  0.25048774  1
  V  V9  1  0.62740254  0.87384964  0.25287776  1
  V  V10  1  0.86999579  0.12251596  0.75123330  1
  V  V11  1  0.37643678  0.00629810  0.87165870  1
  V  V12  1  -0.00230213  0.87169176  0.38062533  1
  V  V13  1  0.74706157  0.24649537  0.00115245  1
  V  V14  1  0.11493073  0.87092218  0.75455013  1
  V  V15  1  -0.00186379  0.12468053  0.62578189  1
  V  V16  1  0.25438662  -0.00048185  0.25307150  1
  V  V17  1  0.87102823  0.86145093  0.00039163  1
  V  V18  1  0.61876447  0.24819036  0.37214339  1
  V  V19  1  0.13208801  0.61975811  0.49708263  1
  V  V20  1  0.50287087  0.49880452  -0.00131110  1
  V  V21  1  0.87369436  0.24983180  0.62628493  1
  V  V22  1  0.12648731  0.00073736  0.11769345  1
  V  V23  1  0.12340397  -0.00169615  0.62416807  1
  V  V24  1  0.24606844  0.12600136  0.88216804  1
  V  V25  1  0.36639245  0.36871418  0.50306747  1
  V  V26  1  0.13025588  0.74456433  0.36997491  1
  V  V27  1  0.49672200  0.37686457  0.37754819  1
  V  V28  1  0.38257872  0.25883794  0.12867795  1
  V  V29  1  0.87514744  0.24964104  0.12407675  1
  V  V30  1  0.49850425  0.86992622  0.86267573  1
  V  V31  1  -0.00201684  -0.00091734  -0.00564144  1
  V  V32  1  0.75019938  0.37719780  0.62563636  1
  V  V33  1  0.25225166  0.74743784  0.49781211  1
  V  V34  1  0.24574751  0.36470203  0.63207157  1
  V  V35  1  0.50744463  0.00533343  0.00142433  1
  V  V36  1  0.24814157  0.74825553  -0.00214979  1
  V  V37  1  0.87989120  0.63930405  0.74705086  1
  V  V38  1  0.50138911  0.63510027  0.62936415  1
  V  V39  1  0.24759910  0.62414439  0.87422919  1
  V  V40  1  0.75008067  0.12306880  0.37428860  1
  V  V41  1  0.62197355  0.25079567  0.87744863  1
  V  V42  1  0.87951231  0.37791482  -0.00007411  1
  V  V43  1  0.12331056  0.87305407  0.24531622  1
  V  V44  1  0.25399279  0.12475628  0.37590112  1
  V  V45  1  0.24945961  0.87538469  0.12325380  1
  V  V46  1  0.62661731  0.74810455  0.86651364  1
  V  V47  1  0.12503882  0.12753928  0.49927042  1
  V  V48  1  0.25410672  0.00593613  0.74900389  1
  V  V49  1  0.25747542  0.87477333  0.62478024  1
  V  V50  1  0.50174827  0.62671370  0.12687565  1
  V  V51  1  0.00508848  0.12525401  0.11927160  1
  V  V52  1  0.75280737  0.50465082  0.75099151  1
  V  V53  1  0.74777169  0.24964330  0.50190241  1
  V  V54  1  0.24289622  0.25348674  0.01070851  1
  V  V55  1  0.50540426  0.74827130  0.25917558  1
  V  V56  1  0.76177282  0.87503313  0.62850790  1
  V  V57  1  0.49369921  0.24167561  0.74401757  1
  V  V58  1  0.49809801  0.87986015  0.37537331  1
  V  V59  1  0.88005796  0.50116271  0.87702051  1
  V  V60  1  0.87123142  -0.00353064  0.87574025  1
  V  V61  1  -0.00041582  0.63854696  0.62703185  1
  V  V62  1  0.12486354  0.49612297  0.63222256  1
  V  V63  1  0.75129304  0.62109661  0.37837381  1
  V  V64  1  0.62917008  0.49984174  0.12750670  1
  V  V65  1  0.75188625  0.86199912  0.12294324  1
  V  V66  1  0.12650086  0.25137661  0.37813979  1
  V  V67  1  -0.00297501  0.50079368  0.49585521  1
  V  V68  1  0.62400214  0.63932963  0.49661499  1
  V  V69  1  0.49198390  0.00308103  0.49935702  1
  V  V70  1  0.12527791  0.24994844  0.87060865  1
  V  V71  1  0.13229633  0.37534557  0.24744412  1
  V  V72  1  0.00110478  0.25051445  0.24943867  1
  V  V73  1  0.13123312  0.49610786  0.11698215  1
  V  V74  1  0.37590448  0.49894066  0.87330333  1
  V  V75  1  -0.00714474  0.74763913  0.24090068  1
  V  V76  1  0.37784641  0.74949883  0.12517535  1
  V  V77  1  0.62003309  0.12250429  0.50466231  1
  V  V78  1  0.76728367  0.75825270  0.49669213  1
  V  V79  1  0.74601991  0.12100900  0.87663690  1
  V  V80  1  0.87419411  -0.00594045  0.37885175  1
  V  V81  1  0.37845215  0.63297942  0.75022566  1
  V  V82  1  0.38189673  0.12591911  0.24905272  1
  V  V83  1  0.62330663  -0.00088062  0.63196189  1
  V  V84  1  0.87602559  0.12374776  0.25060177  1
  Zn  Zn85  1  0.37067662  0.37873712  0.00440109  1
  Zn  Zn86  1  0.37341792  0.23629298  0.62449360  1
  Zn  Zn87  1  0.62476051  0.87207901  0.74593931  1
  Zn  Zn88  1  0.00320170  0.25321632  0.74802426  1
  Zn  Zn89  1  0.50642909  0.13023814  0.12406995  1
  Zn  Zn90  1  0.36503380  0.50460586  0.38315338  1
  Zn  Zn91  1  0.37054761  0.87928676  0.49119654  1
  Zn  Zn92  1  0.11237092  0.74497007  0.86158795  1
  Zn  Zn93  1  0.75132938  -0.00207704  0.24644811  1
  Zn  Zn94  1  0.37841782  0.75374380  0.62732332  1
  Zn  Zn95  1  0.24847978  0.49582972  0.75099514  1
  Zn  Zn96  1  -0.00518126  -0.00586295  0.50224260  1
  Zn  Zn97  1  -0.00322210  0.37976015  0.37159840  1
  Zn  Zn98  1  0.75594802  0.63181723  0.88005647  1
  Zn  Zn99  1  0.49954215  0.37374269  0.87237193  1
  Zn  Zn100  1  0.11681099  0.61992641  -0.00592451  1
  Zn  Zn101  1  0.49683109  0.50161438  0.50312526  1
  Zn  Zn102  1  0.24958327  0.49830281  0.25258706  1
  Zn  Zn103  1  0.62214585  0.37542557  0.75014524  1
  Zn  Zn104  1  0.75373444  0.49550034  0.25931490  1
  Zn  Zn105  1  0.75137593  0.37445312  0.12816080  1
  Zn  Zn106  1  0.63336090  0.00602831  0.12066311  1
  Zn  Zn107  1  0.18806407  0.18556160  0.18824518  1
  Zn  Zn108  1  0.18861735  0.18534547  0.69001338  1
  Zn  Zn109  1  0.18343981  0.68624327  0.17938478  1
  Zn  Zn110  1  0.18816178  0.68617618  0.68572607  1
  Zn  Zn111  1  0.68504669  0.18541878  0.18698120  1
  Zn  Zn112  1  0.68491361  0.18539962  0.69171181  1
  Zn  Zn113  1  0.68990043  0.68692908  0.19224536  1
  Zn  Zn114  1  0.69321026  0.69124214  0.68448788  1
  Zn  Zn115  1  0.31085477  0.31052826  0.31327274  1
  Zn  Zn116  1  0.31436344  0.31116589  0.81394500  1
  Zn  Zn117  1  0.31448191  0.81131638  0.31162835  1
  Zn  Zn118  1  0.30799113  0.81525327  0.81212032  1
  Zn  Zn119  1  0.80766789  0.31035607  0.31258332  1
  Zn  Zn120  1  0.81144647  0.31277029  0.81210274  1
  Zn  Zn121  1  0.81259092  0.80649961  0.31274473  1
  Zn  Zn122  1  0.80768187  0.81534305  0.81482262  1
  Zn  Zn123  1  0.18999117  0.43761900  0.43592149  1
  Zn  Zn124  1  0.18817881  0.43342604  0.93669345  1
  Zn  Zn125  1  0.18435691  0.93661140  0.43543160  1
  Zn  Zn126  1  0.18691236  0.93705477  0.93661935  1
  Zn  Zn127  1  0.68505168  0.44089613  0.43989165  1
  Zn  Zn128  1  0.69087029  0.43584152  0.93690292  1
  Zn  Zn129  1  0.68419007  0.93504070  0.43657285  1
  Zn  Zn130  1  0.68892970  0.93175412  0.93654688  1
  Zn  Zn131  1  0.31658939  0.06736526  0.06113466  1
  Zn  Zn132  1  0.30820268  0.06372497  0.55861480  1
  Zn  Zn133  1  0.31282865  0.56247232  0.06396509  1
  Zn  Zn134  1  0.31303387  0.55753679  0.56525047  1
  Zn  Zn135  1  0.81040399  0.06071879  0.06367073  1
  Zn  Zn136  1  0.80832449  0.05826011  0.56208678  1
  Zn  Zn137  1  0.81357464  0.56204424  0.06418425  1
  Zn  Zn138  1  0.81467746  0.56660935  0.56312487  1
  Zn  Zn139  1  0.44104594  0.43892703  0.19019803  1
  Zn  Zn140  1  0.43752577  0.43582243  0.68914469  1
  Zn  Zn141  1  0.43791069  0.93774489  0.18736673  1
  Zn  Zn142  1  0.44106170  1.06258474  0.68669331  1
  Zn  Zn143  1  0.94191849  0.43712187  0.18666065  1
  Zn  Zn144  1  0.93697923  0.44169556  0.68521883  1
  Zn  Zn145  1  0.93510193  0.93584464  0.18501934  1
  Zn  Zn146  1  0.93642832  0.93866364  0.69137434  1
  Zn  Zn147  1  0.06290173  0.05975731  0.30974893  1
  Zn  Zn148  1  0.06281264  0.06427568  0.81245483  1
  Zn  Zn149  1  0.06596967  0.56070281  0.31161311  1
  Zn  Zn150  1  0.05990636  0.56133137  0.81020754  1
  Zn  Zn151  1  0.56477086  0.05805608  0.31193711  1
  Zn  Zn152  1  0.56644740  0.06173287  0.81824369  1
  Zn  Zn153  1  0.56228838  0.56096770  0.31638157  1
  Zn  Zn154  1  0.56289668  0.56577776  0.81119649  1
  Zn  Zn155  1  0.43676938  0.18913058  0.43837643  1
  Zn  Zn156  1  0.43265112  0.18862502  0.93813793  1
  Zn  Zn157  1  0.43984370  0.68907136  0.43865138  1
  Zn  Zn158  1  0.44142653  0.68656796  0.93705886  1
  Zn  Zn159  1  0.93937563  0.18762550  0.43857036  1
  Zn  Zn160  1  0.93774905  0.18743838  0.93747924  1
  Zn  Zn161  1  0.94174070  0.68521169  0.43485741  1
  Zn  Zn162  1  0.93851070  0.68774920  0.93164323  1
  Zn  Zn163  1  0.06231611  0.31536858  0.05771266  1
  Zn  Zn164  1  0.06173762  0.31247023  0.56162677  1
  Zn  Zn165  1  0.04321535  0.79370216  0.03226798  1
  Zn  Zn166  1  0.06897862  0.81285364  0.56095924  1
  Zn  Zn167  1  0.56278573  0.31405869  0.05999867  1
  Zn  Zn168  1  0.55980231  0.31363912  0.56382071  1
  Zn  Zn169  1  0.56408445  0.81643694  0.06224461  1
  Zn  Zn170  1  0.56301662  0.81740528  0.56149849  1
  O  O171  1  0.11611516  0.11492174  0.12940091  1
  O  O172  1  0.12212940  0.11870229  0.61833357  1
  O  O173  1  0.11506290  0.61140148  0.12337900  1
  O  O174  1  0.11943930  0.61646293  0.61827282  1
  O  O175  1  0.61818261  0.11860781  0.13067514  1
  O  O176  1  0.63601854  0.11175059  0.61583936  1
  O  O177  1  0.62202345  0.61948592  0.12050044  1
  O  O178  1  0.61978556  0.62234061  0.62062296  1
  O  O179  1  0.38025085  0.37031164  0.38503990  1
  O  O180  1  0.37607959  0.38836255  0.87732128  1
  O  O181  1  0.39041419  0.87147104  0.37294605  1
  O  O182  1  0.37987968  0.88082124  0.87876953  1
  O  O183  1  0.87491852  0.36801300  0.38836715  1
  O  O184  1  0.87899739  0.38134590  0.88042621  1
  O  O185  1  0.88508491  0.88158782  0.36580923  1
  O  O186  1  0.86527077  0.88262803  0.88974677  1
  O  O187  1  0.24231448  0.00868397  0.36335463  1
  O  O188  1  0.25580189  0.00584840  0.87077657  1
  O  O189  1  0.25272839  0.49747286  0.36675399  1
  O  O190  1  0.25689403  0.50596368  0.87410542  1
  O  O191  1  0.75667778  0.00329411  0.37134329  1
  O  O192  1  0.75681975  0.00934535  0.88228945  1
  O  O193  1  0.74863354  0.51467899  0.37878344  1
  O  O194  1  0.75886983  0.50298921  0.86620145  1
  O  O195  1  0.23558397  0.50518965  0.13044629  1
  O  O196  1  0.24142097  0.48915174  0.62711461  1
  O  O197  1  0.24334224  0.99769822  0.12670928  1
  O  O198  1  0.24242287  0.99418805  0.63116218  1
  O  O199  1  0.73820677  0.49733727  0.12732377  1
  O  O200  1  0.74477431  0.49863565  0.63175215  1
  O  O201  1  0.75095434  0.98887953  0.12846014  1
  O  O202  1  0.73720475  0.98466628  0.61416683  1
  O  O203  1  0.00823564  0.36730799  0.25246307  1
  O  O204  1  -0.00872679  0.37281474  0.76317445  1
  O  O205  1  0.00439175  0.86467184  0.25058666  1
  O  O206  1  0.01584569  0.87800744  0.74636011  1
  O  O207  1  0.51124229  0.37788914  0.26037682  1
  O  O208  1  0.50280966  0.36281609  0.75240125  1
  O  O209  1  0.50610591  0.86935211  0.25389224  1
  O  O210  1  0.50294677  0.87782807  0.76403570  1
  O  O211  1  0.48432081  0.11777123  0.25434092  1
  O  O212  1  0.50298800  0.13525133  0.75507672  1
  O  O213  1  0.49719250  0.63199995  0.24603882  1
  O  O214  1  0.49145187  0.62409150  0.74177615  1
  O  O215  1  0.99536309  0.12986806  0.24094472  1
  O  O216  1  0.98856572  0.12652289  0.74441319  1
  O  O217  1  0.99468644  0.62820461  0.24457874  1
  O  O218  1  0.99375186  0.62363108  0.73925894  1
  O  O219  1  0.36607571  0.25264148  0.01291226  1
  O  O220  1  0.38060514  0.26406289  0.50630773  1
  O  O221  1  0.36835086  0.75321170  0.00382303  1
  O  O222  1  0.36133927  0.74942439  0.49883183  1
  O  O223  1  0.86915706  0.25588331  0.00522366  1
  O  O224  1  0.86828379  0.25476606  0.50652595  1
  O  O225  1  0.87223169  0.76308071  -0.00183528  1
  O  O226  1  0.86601147  0.74869509  0.49856073  1
  O  O227  1  0.11929251  0.24012009  0.49064446  1
  O  O228  1  0.13671559  0.25170065  0.99349550  1
  O  O229  1  0.13445321  0.74221078  0.49142829  1
  O  O230  1  0.14605728  0.73972669  1.01619437  1
  O  O231  1  0.62796321  0.24236794  0.49682574  1
  O  O232  1  0.63271885  0.25466836  0.98882479  1
  O  O233  1  0.63193329  0.74122590  0.50351369  1
  O  O234  1  0.61755957  0.73990791  0.99295398  1
  O  O235  1  0.48636973  0.24971821  0.11983305  1
  O  O236  1  0.50220040  0.24878042  0.64071799  1
  O  O237  1  0.49553064  0.74786995  0.13359150  1
  O  O238  1  0.49777983  0.73981044  0.61907170  1
  O  O239  1  0.99746276  0.24268184  0.12751002  1
  O  O240  1  0.99285586  0.24334529  0.62622179  1
  O  O241  1  1.00818529  0.73125505  0.13073397  1
  O  O242  1  1.00650989  0.73752835  0.61857021  1
  O  O243  1  0.01003163  0.24866980  0.36732673  1
  O  O244  1  0.00854705  0.25546430  0.87547453  1
  O  O245  1  0.01002731  0.75440755  0.36591290  1
  O  O246  1  0.02013188  0.76086098  0.92155233  1
  O  O247  1  0.51129351  0.26031012  0.38044281  1
  O  O248  1  0.50625801  0.24982917  0.87114865  1
  O  O249  1  0.50050617  0.75519743  0.36379899  1
  O  O250  1  0.51096496  0.75800882  0.87963329  1
  O  O251  1  0.23523655  0.11830490  0.48866030  1
  O  O252  1  0.25229102  0.13845467  0.99391267  1
  O  O253  1  0.23968128  0.63042618  0.50706410  1
  O  O254  1  0.25392181  0.62943124  0.98695323  1
  O  O255  1  0.73985487  0.12827539  0.49323543  1
  O  O256  1  0.75823503  0.13881308  0.99233892  1
  O  O257  1  0.74614196  0.63600881  0.49784082  1
  O  O258  1  0.73787105  0.62033231  0.99933929  1
  O  O259  1  0.25308647  0.35827034  -0.00249666  1
  O  O260  1  0.26058584  0.37429649  0.50925827  1
  O  O261  1  0.25672584  0.86739552  0.00216027  1
  O  O262  1  0.24766396  0.86741504  0.50496910  1
  O  O263  1  0.76044009  0.36342780  0.00020474  1
  O  O264  1  0.75503206  0.37163428  0.50547784  1
  O  O265  1  0.75917148  0.87739138  0.01175053  1
  O  O266  1  0.74813822  0.86309593  0.50306374  1
  O  O267  1  0.12511051  0.49140475  0.24076353  1
  O  O268  1  0.12531070  0.50050512  0.73615373  1
  O  O269  1  0.13340337  0.99513296  0.23862294  1
  O  O270  1  0.12998194  0.99461416  0.74032931  1
  O  O271  1  0.62630947  0.49397142  0.24307396  1
  O  O272  1  0.63381757  0.50305213  0.74073831  1
  O  O273  1  0.62710578  0.98496399  0.24792118  1
  O  O274  1  0.62265405  1.00084251  0.73509664  1
  O  O275  1  0.36131356  0.00760335  0.24183178  1
  O  O276  1  0.36933418  0.00022946  0.76286376  1
  O  O277  1  0.37513760  0.51522025  0.24690467  1
  O  O278  1  0.37389295  0.50972937  0.75833219  1
  O  O279  1  0.87696427  0.00782710  0.25939062  1
  O  O280  1  0.87979016  0.00616477  0.76681556  1
  O  O281  1  0.87425740  0.50855404  0.24937759  1
  O  O282  1  0.86884115  0.50730369  0.75649379  1
  O  O283  1  0.12187053  0.36579869  0.36873041  1
  O  O284  1  0.11469565  0.36684682  0.87861860  1
  O  O285  1  0.11736613  0.86801065  0.36487883  1
  O  O286  1  0.13150363  0.87703864  0.85664717  1
  O  O287  1  0.61828150  0.36970870  0.37258423  1
  O  O288  1  0.62449459  0.36609960  0.87175200  1
  O  O289  1  0.61375479  0.87477675  0.36550852  1
  O  O290  1  0.61960565  0.86377769  0.87283876  1
  O  O291  1  0.38007762  0.13532200  0.13248526  1
  O  O292  1  0.36830670  0.12373094  0.62847858  1
  O  O293  1  0.38286267  0.63028281  0.13255926  1
  O  O294  1  0.38280157  0.62553296  0.63269779  1
  O  O295  1  0.88230530  0.12968009  0.13177153  1
  O  O296  1  0.87531049  0.12604162  0.63221280  1
  O  O297  1  0.88695470  0.61866894  0.13352627  1
  O  O298  1  0.88781687  0.62154514  0.63357428  1
  O  O299  1  0.25567220  0.24516662  0.11444440  1
  O  O300  1  0.24933758  0.26111402  0.62771696  1
  O  O301  1  0.26027648  0.75471198  0.12094904  1
  O  O302  1  0.24869150  0.75735921  0.61506749  1
  O  O303  1  0.75555104  0.25180515  0.11725130  1
  O  O304  1  0.75247181  0.25586852  0.62114357  1
  O  O305  1  0.74713467  0.76236491  0.12586312  1
  O  O306  1  0.74805774  0.76399833  0.61175933  1
  O  O307  1  0.23508010  0.23951349  0.36934981  1
  O  O308  1  0.24586765  0.24424690  0.88237193  1
  O  O309  1  0.23801830  0.75557110  0.37954841  1
  O  O310  1  0.24526044  0.74285485  0.88223370  1
  O  O311  1  0.73891865  0.24500596  0.38342173  1
  O  O312  1  0.74354581  0.24430841  0.88066052  1
  O  O313  1  0.75240966  0.74151042  0.38881066  1
  O  O314  1  0.73250214  0.74956223  0.87697464  1
  O  O315  1  -0.00544802  0.11688258  0.01223281  1
  O  O316  1  0.00989597  0.12065757  0.50556944  1
  O  O317  1  -0.00404626  0.61990303  0.01414987  1
  O  O318  1  0.00922031  0.61920315  0.50618487  1
  O  O319  1  0.49317000  0.10819786  -0.00221731  1
  O  O320  1  0.51209725  0.11952408  0.49296184  1
  O  O321  1  0.50780768  0.61549943  0.00699784  1
  O  O322  1  0.50798583  0.62338115  0.50604388  1
  O  O323  1  0.49114615  0.37818634  0.49565614  1
  O  O324  1  0.49794195  0.38875379  0.99748932  1
  O  O325  1  0.49820245  0.88307244  0.49209351  1
  O  O326  1  0.49295952  0.88350702  0.99286009  1
  O  O327  1  0.99054320  0.38188740  0.49932585  1
  O  O328  1  0.98624816  0.37011367  0.98831364  1
  O  O329  1  1.00652592  0.87364067  0.48479279  1
  O  O330  1  0.97811363  0.88886699  1.01656158  1
  O  O331  1  0.49581812  0.48738219  0.37914025  1
  O  O332  1  0.49420504  0.50191843  0.88215660  1
  O  O333  1  0.50445445  0.99186860  0.38561595  1
  O  O334  1  0.49378052  0.99418327  0.88228800  1
  O  O335  1  1.00618891  0.49912661  0.39069741  1
  O  O336  1  0.98890027  0.49332725  0.87257835  1
  O  O337  1  0.99480087  0.98902196  0.37352528  1
  O  O338  1  0.99480859  1.00639795  0.88850452  1
  O  O339  1  0.00658918  0.00706700  0.12000418  1
  O  O340  1  0.00658196  0.00528775  0.62348970  1
  O  O341  1  0.01088097  0.51079708  0.12932783  1
  O  O342  1  0.00870765  0.50317496  0.61496377  1
  O  O343  1  0.49774639  -0.00237566  0.10823890  1
  O  O344  1  0.51483041  0.00219317  0.61586507  1
  O  O345  1  0.51110978  0.50462888  0.11932946  1
  O  O346  1  0.50859681  0.50957176  0.62643775  1
  O  O347  1  0.23566206  0.37072503  0.24831621  1
  O  O348  1  0.25512543  0.37587987  0.73605251  1
  O  O349  1  0.24653542  0.88178744  0.24468342  1
  O  O350  1  0.24492551  0.88713032  0.74242428  1
  O  O351  1  0.73732150  0.37761028  0.25085719  1
  O  O352  1  0.75030104  0.38780194  0.74378761  1
  O  O353  1  0.74480752  0.87114569  0.24188862  1
  O  O354  1  0.74602470  0.87012202  0.73287504  1
  O  O355  1  0.25578091  0.11744429  0.25608567  1
  O  O356  1  0.24432648  0.11107069  0.75886944  1
  O  O357  1  0.26521419  0.63118280  0.24517069  1
  O  O358  1  0.25463918  0.62215740  0.76049543  1
  O  O359  1  0.75971200  0.12528844  0.25770872  1
  O  O360  1  0.76190633  0.12775882  0.75939288  1
  O  O361  1  0.75906734  0.62453925  0.26003143  1
  O  O362  1  0.75841811  0.61742894  0.74927368  1
  O  O363  1  0.36132653  0.13487256  0.36815814  1
  O  O364  1  0.36124935  0.11751262  0.87905557  1
  O  O365  1  0.38175420  0.62455271  0.36090361  1
  O  O366  1  0.37072479  0.61760607  0.87000569  1
  O  O367  1  0.87161789  0.12024178  0.36901620  1
  O  O368  1  0.86760646  0.12036056  0.86941844  1
  O  O369  1  0.86852646  0.62719911  0.36731507  1
  O  O370  1  0.87567788  0.61772930  0.86916517  1
  O  O371  1  0.11672463  0.38826485  0.13023716  1
  O  O372  1  0.13815157  0.37935323  0.61820337  1
  O  O373  1  0.13263808  0.88188730  0.12929659  1
  O  O374  1  0.13323757  0.88229880  0.63073452  1
  O  O375  1  0.62443829  0.38124726  0.13361588  1
  O  O376  1  0.63187883  0.38527244  0.62555137  1
  O  O377  1  0.63683313  0.87878424  0.12910312  1
  O  O378  1  0.63012177  0.88559034  0.62542231  1
  O  O379  1  0.11889695  0.25453090  0.25359279  1
  O  O380  1  0.12388770  0.24599058  0.76489646  1
  O  O381  1  0.11873404  0.75110298  0.25410452  1
  O  O382  1  0.13001096  0.76540955  0.74732581  1
  O  O383  1  0.62940735  0.25836359  0.26178161  1
  O  O384  1  0.61762087  0.25025508  0.76094291  1
  O  O385  1  0.61658181  0.76066630  0.24413521  1
  O  O386  1  0.62459198  0.74681341  0.76254537  1
  O  O387  1  0.36657311  0.24262770  0.23543591  1
  O  O388  1  0.39033046  0.25089455  0.75039149  1
  O  O389  1  0.38347243  0.74057098  0.24581405  1
  O  O390  1  0.36716574  0.73732163  0.74905842  1
  O  O391  1  0.88071996  0.24534083  0.24470808  1
  O  O392  1  0.87557258  0.24162150  0.74378406  1
  O  O393  1  0.88859421  0.73907726  0.25234445  1
  O  O394  1  0.87227501  0.73847211  0.75933659  1
  O  O395  1  0.37728445  0.48593200  0.50102553  1
  O  O396  1  0.38347584  0.50106139  0.99423954  1
  O  O397  1  0.38795764  0.99991250  0.50171862  1
  O  O398  1  0.37912409  0.99405678  0.98945934  1
  O  O399  1  0.88319312  0.49092572  0.50637447  1
  O  O400  1  0.86719964  0.49043871  0.98980497  1
  O  O401  1  0.87720418  1.00614756  0.48362450  1
  O  O402  1  0.88012356  0.99848517  0.99100619  1
  O  O403  1  0.11603918  -0.00789698  0.01007460  1
  O  O404  1  0.12256916  0.00378391  0.51127087  1
  O  O405  1  0.12882385  0.49950528  0.01264702  1
  O  O406  1  0.12080828  0.50521367  0.50781149  1
  O  O407  1  0.61004321  -0.00567786  -0.00322817  1
  O  O408  1  0.61771334  0.00623355  0.50564783  1
  O  O409  1  0.62028176  0.50467048  0.00593608  1
  O  O410  1  0.62622139  0.51025882  0.51390483  1
  O  O411  1  0.37749961  0.36339700  0.12747802  1
  O  O412  1  0.36409889  0.37241995  0.61802375  1
  O  O413  1  0.36944099  0.86964455  0.11878956  1
  O  O414  1  0.36010680  0.87321034  0.61946419  1
  O  O415  1  0.87546417  0.36975093  0.11752958  1
  O  O416  1  0.86870195  0.37040738  0.61704529  1
  O  O417  1  0.86157595  0.87575606  0.11714848  1
  O  O418  1  0.86105590  0.88505278  0.62385746  1
  O  O419  1  0.12864230  0.12891892  0.38028787  1
  O  O420  1  0.13631827  0.13051863  0.87557407  1
  O  O421  1  0.12104956  0.63322032  0.38397949  1
  O  O422  1  0.13210156  0.62476710  0.87605697  1
  O  O423  1  0.62921435  0.13186214  0.37913159  1
  O  O424  1  0.63899510  0.13129012  0.87393906  1
  O  O425  1  0.63272265  0.62206284  0.38605882  1
  O  O426  1  0.62440064  0.63488475  0.88284872  1
