# generated using pymatgen
data_V85Zn86O256
_symmetry_space_group_name_H-M   'P 1'
_cell_length_a   16.93580558
_cell_length_b   16.93900964
_cell_length_c   16.93385158
_cell_angle_alpha   89.99341589
_cell_angle_beta   89.98362165
_cell_angle_gamma   90.04740948
_symmetry_Int_Tables_number   1
_chemical_formula_structural   V85Zn86O256
_chemical_formula_sum   'V85 Zn86 O256'
_cell_volume   4857.90988365
_cell_formula_units_Z   1
loop_
 _symmetry_equiv_pos_site_id
 _symmetry_equiv_pos_as_xyz
  1  'x, y, z'
loop_
 _atom_site_type_symbol
 _atom_site_label
 _atom_site_symmetry_multiplicity
 _atom_site_fract_x
 _atom_site_fract_y
 _atom_site_fract_z
 _atom_site_occupancy
  V  V0  1  0.87506051  -0.00090098  0.37387307  1
  V  V1  1  0.49311110  0.62365051  0.63045942  1
  V  V2  1  -0.00124477  0.12476675  0.62632530  1
  V  V3  1  0.62185180  0.37634954  0.25309472  1
  V  V4  1  0.75104214  0.73874100  -0.00123933  1
  V  V5  1  0.74245403  0.12058706  0.38137472  1
  V  V6  1  0.49824539  0.24555556  0.74939702  1
  V  V7  1  0.76345820  0.49564596  0.25409206  1
  V  V8  1  0.36464336  0.37701484  0.50460567  1
  V  V9  1  0.74880305  0.87474548  0.62490878  1
  V  V10  1  0.12857769  0.87787242  0.75505975  1
  V  V11  1  0.74973332  0.37464654  0.62261433  1
  V  V12  1  -0.00538871  0.11577252  0.11767076  1
  V  V13  1  0.87212217  0.12212255  0.24564490  1
  V  V14  1  0.61946502  0.24573049  0.37837721  1
  V  V15  1  0.76093151  0.61765420  0.37691217  1
  V  V16  1  0.62621508  0.50341546  0.11925761  1
  V  V17  1  0.87181382  0.61837191  0.75185500  1
  V  V18  1  0.11657855  0.49659870  0.12385980  1
  V  V19  1  0.62408047  0.37424355  0.75121297  1
  V  V20  1  0.26410645  0.62177967  0.87446710  1
  V  V21  1  0.49413878  -0.00348252  -0.00111978  1
  V  V22  1  -0.00267165  0.75557419  0.25080801  1
  V  V23  1  0.62358525  0.50021989  0.62564974  1
  V  V24  1  0.75390098  0.86861380  0.12193553  1
  V  V25  1  0.74860131  0.37308615  0.11916187  1
  V  V26  1  0.75230764  0.25224220  0.49783327  1
  V  V27  1  0.49809691  0.12538025  0.12350891  1
  V  V28  1  0.38106135  0.00066544  0.38344129  1
  V  V29  1  0.62435558  0.62279220  0.50064255  1
  V  V30  1  0.74918720  -0.00230463  0.75128133  1
  V  V31  1  0.12262885  0.25239275  0.87615567  1
  V  V32  1  0.87629794  0.25804625  0.11963982  1
  V  V33  1  0.12179699  0.62378709  0.00087169  1
  V  V34  1  0.37931643  0.63430417  0.24922745  1
  V  V35  1  0.86996375  0.50239877  0.88892174  1
  V  V36  1  0.24338493  0.12410321  0.37380081  1
  V  V37  1  0.24924190  0.87195420  0.61922166  1
  V  V38  1  0.37208257  0.11686646  0.74723892  1
  V  V39  1  0.37970878  0.75753387  0.12279275  1
  V  V40  1  0.36699050  0.11663962  0.24580004  1
  V  V41  1  0.50746210  0.63114266  0.12781410  1
  V  V42  1  -0.00415169  0.63037632  0.12485890  1
  V  V43  1  0.62880818  0.73732953  0.87779062  1
  V  V44  1  0.26325599  0.49839196  0.75404840  1
  V  V45  1  0.36516509  0.25168172  0.62482025  1
  V  V46  1  0.49636251  0.87246150  0.87942530  1
  V  V47  1  0.75107203  0.24961788  -0.00075171  1
  V  V48  1  0.11927157  0.75073069  0.87721268  1
  V  V49  1  0.13142477  -0.00057689  0.12781009  1
  V  V50  1  0.74866015  -0.00384206  0.24733561  1
  V  V51  1  0.62373097  0.87381284  0.75176982  1
  V  V52  1  0.48946446  0.74618078  0.75319979  1
  V  V53  1  0.61722616  0.86893351  0.24742117  1
  V  V54  1  0.24726001  0.50273713  0.24518931  1
  V  V55  1  0.61798054  0.74599272  0.37047034  1
  V  V56  1  0.13217011  0.00120259  0.62769426  1
  V  V57  1  0.62294869  0.12288759  -0.00147727  1
  V  V58  1  0.24836839  0.12473474  0.86950607  1
  V  V59  1  0.12784044  0.38045441  0.74812926  1
  V  V60  1  -0.00153891  0.75369105  0.75128528  1
  V  V61  1  0.74940240  0.12183768  0.87417902  1
  V  V62  1  0.00513696  0.25604817  0.24917275  1
  V  V63  1  0.36989554  0.74701555  0.61791427  1
  V  V64  1  0.49539607  0.37481944  0.37360889  1
  V  V65  1  0.25603799  0.75839299  -0.00031851  1
  V  V66  1  0.37040025  0.25367497  0.12601932  1
  V  V67  1  0.88398819  0.87366361  -0.00186187  1
  V  V68  1  0.61917913  -0.00032015  0.61052848  1
  V  V69  1  0.62453774  0.24806879  0.87392579  1
  V  V70  1  0.12757882  0.50574108  0.62620208  1
  V  V71  1  0.13730127  0.75515372  0.37987369  1
  V  V72  1  -0.00370046  0.25673915  0.74865434  1
  V  V73  1  0.37473033  0.50361603  0.37338168  1
  V  V74  1  0.88819053  -0.00421531  0.87739487  1
  V  V75  1  0.87537722  0.87484896  0.50010362  1
  V  V76  1  -0.00521824  0.38408537  0.88558055  1
  V  V77  1  0.00187953  0.00187287  0.49979338  1
  V  V78  1  0.50006221  0.49848249  0.50029616  1
  V  V79  1  0.50061995  0.12030178  0.61073478  1
  V  V80  1  0.49161528  0.50403343  -0.00220622  1
  V  V81  1  0.11857057  0.11838716  -0.00502646  1
  V  V82  1  0.87384278  0.12472736  0.74983425  1
  V  V83  1  0.75198899  0.74805247  0.49900940  1
  V  V84  1  0.36615396  -0.00759754  0.87363704  1
  Zn  Zn85  1  0.36810384  0.37985163  -0.00480120  1
  Zn  Zn86  1  0.12268873  0.13135108  0.49940256  1
  Zn  Zn87  1  0.13329776  0.87911333  0.25122254  1
  Zn  Zn88  1  0.62435796  -0.00312842  0.12274909  1
  Zn  Zn89  1  0.74497453  0.50741206  0.75687573  1
  Zn  Zn90  1  0.50206979  0.87810543  0.38079335  1
  Zn  Zn91  1  0.87680042  0.75047892  0.62773554  1
  Zn  Zn92  1  0.00449035  0.87722204  0.37388382  1
  Zn  Zn93  1  0.26203263  0.88498594  0.12201424  1
  Zn  Zn94  1  0.38018223  0.87682982  0.50172209  1
  Zn  Zn95  1  0.24466295  0.37578268  0.12127032  1
  Zn  Zn96  1  0.49648728  0.38258824  0.87548732  1
  Zn  Zn97  1  0.49668664  0.24968058  0.24832961  1
  Zn  Zn98  1  0.87892229  0.62575184  0.25067861  1
  Zn  Zn99  1  0.24168118  0.25412591  0.49916465  1
  Zn  Zn100  1  0.87668589  0.25336602  0.61730128  1
  Zn  Zn101  1  0.12885410  0.63119931  0.50173819  1
  Zn  Zn102  1  0.00018308  0.62693629  0.61929665  1
  Zn  Zn103  1  0.10592337  0.27458561  0.38115725  1
  Zn  Zn104  1  0.24790743  0.25285919  -0.00033543  1
  Zn  Zn105  1  -0.01613771  0.49388560  0.48006906  1
  Zn  Zn106  1  0.25564162  0.63295502  0.38202523  1
  Zn  Zn107  1  0.18673424  0.18440752  0.18652933  1
  Zn  Zn108  1  0.18478293  0.18785781  0.69025270  1
  Zn  Zn109  1  0.18862861  0.69310882  0.18974195  1
  Zn  Zn110  1  0.19146841  0.68620684  0.69354405  1
  Zn  Zn111  1  0.68360397  0.18585586  0.18894627  1
  Zn  Zn112  1  0.68446822  0.18401895  0.68309875  1
  Zn  Zn113  1  0.69347707  0.68584694  0.18789353  1
  Zn  Zn114  1  0.68671158  0.68835957  0.68988552  1
  Zn  Zn115  1  0.27892554  0.33009486  0.32760444  1
  Zn  Zn116  1  0.31360916  0.31348750  0.81611576  1
  Zn  Zn117  1  0.31188984  0.82211906  0.30311335  1
  Zn  Zn118  1  0.30714972  0.81161374  0.80942430  1
  Zn  Zn119  1  0.80738939  0.30346364  0.30379395  1
  Zn  Zn120  1  0.81322989  0.31626867  0.81157193  1
  Zn  Zn121  1  0.81277656  0.81060269  0.31372435  1
  Zn  Zn122  1  0.81315099  0.81030347  0.81766479  1
  Zn  Zn123  1  0.17967529  0.44537451  0.43272076  1
  Zn  Zn124  1  0.18658809  0.44005775  0.93864186  1
  Zn  Zn125  1  0.19112425  0.94076195  0.43636793  1
  Zn  Zn126  1  0.18386785  0.93726208  0.93974407  1
  Zn  Zn127  1  0.80926200  0.43447343  0.44027624  1
  Zn  Zn128  1  0.68488583  0.43860924  0.93751252  1
  Zn  Zn129  1  0.68613158  0.93271742  0.43423116  1
  Zn  Zn130  1  0.68738766  0.93367501  0.93766800  1
  Zn  Zn131  1  0.31140835  0.06712709  0.05351049  1
  Zn  Zn132  1  0.30832583  0.06443965  0.55927309  1
  Zn  Zn133  1  0.31154562  0.57165412  0.06472343  1
  Zn  Zn134  1  0.30764576  0.56412235  0.56415099  1
  Zn  Zn135  1  0.81185220  0.05684611  0.05948636  1
  Zn  Zn136  1  0.81031147  0.06296842  0.56274381  1
  Zn  Zn137  1  0.81628468  0.55982189  0.06791465  1
  Zn  Zn138  1  0.81177161  0.56504151  0.57203631  1
  Zn  Zn139  1  0.43448049  0.44059239  0.18468573  1
  Zn  Zn140  1  0.43753315  0.43387569  0.68879639  1
  Zn  Zn141  1  0.43813199  0.93964485  0.19076663  1
  Zn  Zn142  1  0.43753233  0.93561506  0.68671701  1
  Zn  Zn143  1  0.94662039  0.42948027  0.31260626  1
  Zn  Zn144  1  0.95077377  0.42482231  0.64920885  1
  Zn  Zn145  1  0.93913696  0.93419439  0.18250323  1
  Zn  Zn146  1  0.94023841  0.93541944  0.68869909  1
  Zn  Zn147  1  0.06048093  0.06661435  0.30789398  1
  Zn  Zn148  1  0.06223337  0.06222714  0.80878384  1
  Zn  Zn149  1  0.06715715  0.57055327  0.31337331  1
  Zn  Zn150  1  0.06066969  0.56427314  0.81095178  1
  Zn  Zn151  1  0.56100376  0.06024944  0.30840395  1
  Zn  Zn152  1  0.55919227  0.05987268  0.80890988  1
  Zn  Zn153  1  0.56631571  0.56133620  0.30980459  1
  Zn  Zn154  1  0.55882703  0.56272590  0.81259584  1
  Zn  Zn155  1  0.42912952  0.18992646  0.43449154  1
  Zn  Zn156  1  0.43296544  0.19151895  0.93573417  1
  Zn  Zn157  1  0.43772186  0.68854333  0.44000848  1
  Zn  Zn158  1  0.44194115  0.68544117  0.94463922  1
  Zn  Zn159  1  0.93335404  0.18747217  0.43325789  1
  Zn  Zn160  1  0.93595387  0.18923930  0.93507632  1
  Zn  Zn161  1  0.94693182  0.68478912  0.43948405  1
  Zn  Zn162  1  0.93658983  0.68734909  0.93767153  1
  Zn  Zn163  1  0.06180192  0.31046433  0.06364109  1
  Zn  Zn164  1  0.06388614  0.31972039  0.56129076  1
  Zn  Zn165  1  0.06382809  0.81026715  0.06283354  1
  Zn  Zn166  1  0.06157720  0.81388470  0.56406687  1
  Zn  Zn167  1  0.56005952  0.31431675  0.06161366  1
  Zn  Zn168  1  0.56058336  0.31018532  0.56002603  1
  Zn  Zn169  1  0.56711863  0.81051135  0.05996997  1
  Zn  Zn170  1  0.55949275  0.81172805  0.56050006  1
  O  O171  1  0.11732077  0.11703673  0.11496619  1
  O  O172  1  0.11700841  0.11765223  0.62645635  1
  O  O173  1  0.12126457  0.62396695  0.11678798  1
  O  O174  1  0.12831546  0.61649189  0.62819987  1
  O  O175  1  0.61554435  0.12123136  0.11828618  1
  O  O176  1  0.61311963  0.11131788  0.63015742  1
  O  O177  1  0.61949594  0.61566711  0.13344049  1
  O  O178  1  0.61539911  0.62157184  0.62294270  1
  O  O179  1  0.37654069  0.38320697  0.38260218  1
  O  O180  1  0.38771863  0.35661560  0.88508255  1
  O  O181  1  0.37447156  0.89072748  0.37313587  1
  O  O182  1  0.38175136  0.88203134  0.86661235  1
  O  O183  1  0.86600754  0.37227886  0.36637190  1
  O  O184  1  0.88635489  0.38781415  0.86740737  1
  O  O185  1  0.87584460  0.88225730  0.38339779  1
  O  O186  1  0.86961737  0.88389208  0.88665845  1
  O  O187  1  0.26175501  0.01470080  0.37789359  1
  O  O188  1  0.26052722  0.00460992  0.87963482  1
  O  O189  1  0.25739287  0.50709323  0.35951803  1
  O  O190  1  0.24858797  0.51384974  0.87043034  1
  O  O191  1  0.75268202  0.00442651  0.36891057  1
  O  O192  1  0.75338326  0.00389088  0.86801460  1
  O  O193  1  0.74512137  0.50737433  0.36574459  1
  O  O194  1  0.76487966  0.49129350  0.87269124  1
  O  O195  1  0.24212393  0.50636050  0.13049440  1
  O  O196  1  0.24330668  0.50606854  0.64683087  1
  O  O197  1  0.23526007  1.00425155  0.11395580  1
  O  O198  1  0.23747523  0.99633160  0.62408523  1
  O  O199  1  0.74537309  0.49109005  0.13048558  1
  O  O200  1  0.73901447  0.49230185  0.63265790  1
  O  O201  1  0.74642607  0.98897541  0.12924111  1
  O  O202  1  0.74148963  0.99487800  0.63210732  1
  O  O203  1  -0.00567925  0.35371675  0.23656687  1
  O  O204  1  0.00546854  0.36799590  0.75148905  1
  O  O205  1  0.00536793  0.86703606  0.24934720  1
  O  O206  1  0.01052956  0.86278186  0.74623630  1
  O  O207  1  0.50463209  0.37566216  0.25425432  1
  O  O208  1  0.50934801  0.36442176  0.74963027  1
  O  O209  1  0.51466689  0.87727203  0.25350363  1
  O  O210  1  0.50591597  0.86803706  0.75918967  1
  O  O211  1  0.49428247  0.12271816  0.23415380  1
  O  O212  1  0.49030765  0.12926720  0.74338328  1
  O  O213  1  0.49405874  0.62019786  0.23854117  1
  O  O214  1  0.50267531  0.63415111  0.74284395  1
  O  O215  1  0.98927588  0.12849030  0.23794316  1
  O  O216  1  0.99398727  0.13466163  0.74657933  1
  O  O217  1  1.00032114  0.63776762  0.24449941  1
  O  O218  1  0.98900758  0.63787744  0.75387560  1
  O  O219  1  0.37048975  0.24176162  0.01560635  1
  O  O220  1  0.37487519  0.25949364  0.50959868  1
  O  O221  1  0.36802698  0.74595631  0.00844866  1
  O  O222  1  0.37644456  0.75100550  0.51474756  1
  O  O223  1  0.86273115  0.24310821  0.00621209  1
  O  O224  1  0.85774121  0.24278502  0.49980192  1
  O  O225  1  0.86140986  0.76173418  -0.01053646  1
  O  O226  1  0.86900418  0.75603374  0.50062512  1
  O  O227  1  0.12327337  0.25053611  0.49594058  1
  O  O228  1  0.12342143  0.23856482  0.99298553  1
  O  O229  1  0.11892077  0.75542989  0.48345842  1
  O  O230  1  0.13371141  0.74513839  0.99405952  1
  O  O231  1  0.63104848  0.25336657  0.48441563  1
  O  O232  1  0.62879076  0.24268805  0.99403224  1
  O  O233  1  0.63346704  0.74231952  0.49420255  1
  O  O234  1  0.63906046  0.75207523  0.99081358  1
  O  O235  1  0.49409344  0.24007759  0.12366927  1
  O  O236  1  0.49552967  0.24108871  0.63461199  1
  O  O237  1  0.49686539  0.73973456  0.11674911  1
  O  O238  1  0.49453891  0.74230251  0.63467167  1
  O  O239  1  0.99152619  0.23981930  0.12738015  1
  O  O240  1  0.99783514  0.24342069  0.63526420  1
  O  O241  1  1.00965108  0.74443887  0.14041510  1
  O  O242  1  0.99880690  0.74763980  0.63534993  1
  O  O243  1  -0.00304024  0.24378599  0.35693618  1
  O  O244  1  0.00137980  0.26024808  0.86554294  1
  O  O245  1  0.00846982  0.75449210  0.36422449  1
  O  O246  1  0.01290146  0.74786667  0.87077111  1
  O  O247  1  0.50363244  0.25430300  0.37134373  1
  O  O248  1  0.50738971  0.24048202  0.86085444  1
  O  O249  1  0.51537636  0.74606109  0.37606120  1
  O  O250  1  0.50452465  0.75475335  0.87148219  1
  O  O251  1  0.24398614  0.12806402  0.48920676  1
  O  O252  1  0.24055263  0.12798000  0.98423147  1
  O  O253  1  0.24350162  0.62041590  0.49479612  1
  O  O254  1  0.24329919  0.63320050  0.98978541  1
  O  O255  1  0.74834826  0.12763649  0.48662726  1
  O  O256  1  0.74186868  0.12710666  0.99373663  1
  O  O257  1  0.74401861  0.63098078  0.49631192  1
  O  O258  1  0.75710916  0.64016675  1.00838690  1
  O  O259  1  0.24995467  0.37182710  0.00259301  1
  O  O260  1  0.26290788  0.37675712  0.50298942  1
  O  O261  1  0.24859066  0.86280926  0.00247274  1
  O  O262  1  0.25499147  0.88121285  0.51545458  1
  O  O263  1  0.74010286  0.36737191  0.01233162  1
  O  O264  1  0.74484706  0.36446368  0.51061922  1
  O  O265  1  0.75415835  0.86870543  0.00760261  1
  O  O266  1  0.75487962  0.86662967  0.50340617  1
  O  O267  1  0.14073000  0.51263284  0.23668185  1
  O  O268  1  0.13634823  0.49625126  0.75168010  1
  O  O269  1  0.12031444  1.00279884  0.23092682  1
  O  O270  1  0.11753681  0.98972395  0.74040650  1
  O  O271  1  0.63293714  0.49110178  0.24132021  1
  O  O272  1  0.62328052  0.49092500  0.74628146  1
  O  O273  1  0.63337986  0.98888642  0.24852320  1
  O  O274  1  0.62788265  0.98639538  0.74752872  1
  O  O275  1  0.37679394  0.01131957  0.25629736  1
  O  O276  1  0.37911191  0.01021747  0.75752238  1
  O  O277  1  0.37033192  0.51457192  0.25045259  1
  O  O278  1  0.36284092  0.49394447  0.75135661  1
  O  O279  1  0.86862238  0.00185776  0.25307701  1
  O  O280  1  0.86942898  0.00323568  0.75578634  1
  O  O281  1  0.86516449  0.49963423  0.24804497  1
  O  O282  1  0.87368251  0.51500617  0.75390818  1
  O  O283  1  0.17170262  0.36131077  0.36212783  1
  O  O284  1  0.11151332  0.37560934  0.86830913  1
  O  O285  1  0.12496333  0.87044396  0.37279329  1
  O  O286  1  0.13136016  0.86571466  0.86701410  1
  O  O287  1  0.61580981  0.36527554  0.36051741  1
  O  O288  1  0.61879186  0.36771402  0.86797798  1
  O  O289  1  0.62704596  0.86360343  0.36531496  1
  O  O290  1  0.61641799  0.86841647  0.86762747  1
  O  O291  1  0.37936767  0.12492803  0.12867877  1
  O  O292  1  0.37911443  0.12758480  0.63145130  1
  O  O293  1  0.38588777  0.63495259  0.13114800  1
  O  O294  1  0.38568367  0.63027780  0.62490221  1
  O  O295  1  0.87859797  0.12764955  0.12496534  1
  O  O296  1  0.88002950  0.12606370  0.63303998  1
  O  O297  1  0.89213339  0.62214765  0.12681025  1
  O  O298  1  0.87829207  0.63045483  0.64057148  1
  O  O299  1  0.25555262  0.25249156  0.12451483  1
  O  O300  1  0.26187810  0.24381550  0.62422404  1
  O  O301  1  0.26179392  0.74634655  0.11375684  1
  O  O302  1  0.25951384  0.75747690  0.63379534  1
  O  O303  1  0.75210094  0.25374674  0.11991261  1
  O  O304  1  0.74370035  0.25414056  0.61320425  1
  O  O305  1  0.74768093  0.75903701  0.11355781  1
  O  O306  1  0.74900756  0.75464349  0.61296292  1
  O  O307  1  0.26751302  0.22772687  0.38039207  1
  O  O308  1  0.23911324  0.24079081  0.87285988  1
  O  O309  1  0.24052740  0.75580829  0.37091336  1
  O  O310  1  0.24294583  0.74027884  0.87866739  1
  O  O311  1  0.73967654  0.23993968  0.37846503  1
  O  O312  1  0.74466455  0.24462133  0.87922485  1
  O  O313  1  0.74407052  0.74362746  0.38561097  1
  O  O314  1  0.74115297  0.75341030  0.88784053  1
  O  O315  1  0.00582668  0.12983998  0.00509730  1
  O  O316  1  -0.00243375  0.11599108  0.50514683  1
  O  O317  1  0.01190310  0.63696687  0.00947117  1
  O  O318  1  0.01003824  0.61523511  0.50279763  1
  O  O319  1  0.50190879  0.11780643  0.00622168  1
  O  O320  1  0.49451735  0.13174726  0.51230717  1
  O  O321  1  0.50301911  0.61356635  0.01165202  1
  O  O322  1  0.50504980  0.62023707  0.50947693  1
  O  O323  1  0.49391764  0.38034689  0.49285826  1
  O  O324  1  0.50187979  0.39341862  1.00291820  1
  O  O325  1  0.49494934  0.87120276  0.49454709  1
  O  O326  1  0.50482475  0.88088367  0.98704482  1
  O  O327  1  0.98574035  0.39453649  0.54213746  1
  O  O328  1  0.99975163  0.36940661  0.98321294  1
  O  O329  1  0.99302342  0.88792661  0.50111050  1
  O  O330  1  0.98261893  0.86575885  1.00237981  1
  O  O331  1  0.49464281  0.49571175  0.37933790  1
  O  O332  1  0.50551360  0.50310452  0.89343931  1
  O  O333  1  0.48545438  1.00149540  0.37128397  1
  O  O334  1  0.49044941  0.99188141  0.87856910  1
  O  O335  1  1.02185797  0.48748716  0.37158592  1
  O  O336  1  0.99062106  0.48998012  0.87186809  1
  O  O337  1  0.99493595  1.00172060  0.38246508  1
  O  O338  1  0.98721731  1.00195671  0.87091365  1
  O  O339  1  0.00522083  0.01155171  0.12291358  1
  O  O340  1  0.00652873  0.00523996  0.61891145  1
  O  O341  1  0.01781674  0.51414082  0.13303638  1
  O  O342  1  0.02404397  0.51311829  0.64947874  1
  O  O343  1  0.50015086  0.00479976  0.11423560  1
  O  O344  1  0.50742715  0.00730016  0.62941461  1
  O  O345  1  0.50826101  0.50834027  0.11910675  1
  O  O346  1  0.50316195  0.50686844  0.62408907  1
  O  O347  1  0.26609468  0.40015229  0.23612826  1
  O  O348  1  0.24258872  0.38991812  0.76392848  1
  O  O349  1  0.24475001  0.87387456  0.23233059  1
  O  O350  1  0.23565504  0.87278612  0.74022284  1
  O  O351  1  0.74019213  0.37815525  0.23875854  1
  O  O352  1  0.73300152  0.37120029  0.74697794  1
  O  O353  1  0.74697634  0.87695561  0.24092117  1
  O  O354  1  0.74238861  0.87615887  0.74581308  1
  O  O355  1  0.25608344  0.12546876  0.25933331  1
  O  O356  1  0.25606881  0.12568749  0.76017139  1
  O  O357  1  0.26241197  0.62009497  0.24906391  1
  O  O358  1  0.24973152  0.61535592  0.76668160  1
  O  O359  1  0.75297709  0.11633473  0.25503333  1
  O  O360  1  0.75417847  0.11881895  0.75383465  1
  O  O361  1  0.75473804  0.61475942  0.25789780  1
  O  O362  1  0.76567048  0.62873846  0.75018969  1
  O  O363  1  0.37215091  0.11543419  0.36537548  1
  O  O364  1  0.36672509  0.11885588  0.86709079  1
  O  O365  1  0.37840268  0.62194084  0.36644412  1
  O  O366  1  0.36244878  0.62981489  0.87932651  1
  O  O367  1  0.86330245  0.11760393  0.36673105  1
  O  O368  1  0.86844862  0.11651869  0.86950151  1
  O  O369  1  0.86316907  0.63176541  0.37460464  1
  O  O370  1  0.88013102  0.61028839  0.86953154  1
  O  O371  1  0.12210304  0.39246095  0.11988522  1
  O  O372  1  0.12914423  0.38593528  0.64272436  1
  O  O373  1  0.12066053  0.89546487  0.11599158  1
  O  O374  1  0.13086883  0.88133275  0.63052551  1
  O  O375  1  0.62870740  0.37873885  0.13480336  1
  O  O376  1  0.62870470  0.37832207  0.63155959  1
  O  O377  1  0.63309196  0.87462306  0.13139250  1
  O  O378  1  0.62881558  0.87839691  0.63325925  1
  O  O379  1  0.10698723  0.24216516  0.24616032  1
  O  O380  1  0.11755701  0.25902008  0.75582320  1
  O  O381  1  0.11713168  0.75499529  0.25975043  1
  O  O382  1  0.11916458  0.75485444  0.75859258  1
  O  O383  1  0.62132690  0.25697900  0.25735806  1
  O  O384  1  0.61669258  0.25316570  0.75228804  1
  O  O385  1  0.63548053  0.75689468  0.25913276  1
  O  O386  1  0.61760634  0.75954168  0.75521116  1
  O  O387  1  0.37773612  0.23464186  0.23545545  1
  O  O388  1  0.38054075  0.23976037  0.74342985  1
  O  O389  1  0.37507472  0.74068397  0.24266900  1
  O  O390  1  0.38612031  0.75352289  0.74414264  1
  O  O391  1  0.87776661  0.23772804  0.23644489  1
  O  O392  1  0.88199700  0.24261582  0.75160422  1
  O  O393  1  0.89192131  0.75074694  0.25433296  1
  O  O394  1  0.88266598  0.74462048  0.75455015  1
  O  O395  1  0.38139903  0.49415635  0.49795053  1
  O  O396  1  0.38864400  0.50274029  1.00802688  1
  O  O397  1  0.37526945  1.00276930  0.48657437  1
  O  O398  1  0.38603953  1.00330292  0.98885892  1
  O  O399  1  0.87056141  0.50391560  0.50240750  1
  O  O400  1  0.87356361  0.50054993  0.98757853  1
  O  O401  1  0.88029213  0.99557988  0.49542094  1
  O  O402  1  0.87095473  0.98598511  0.98997409  1
  O  O403  1  0.12284999  0.01239527  0.00333809  1
  O  O404  1  0.11574590  0.00226594  0.50792738  1
  O  O405  1  0.12929780  0.51295087  0.01232098  1
  O  O406  1  0.13158447  0.49396902  0.52316734  1
  O  O407  1  0.61183969  0.00483920  -0.00345251  1
  O  O408  1  0.62957541  -0.00533103  0.51157570  1
  O  O409  1  0.62121212  0.49781863  0.01453844  1
  O  O410  1  0.61582917  0.50901981  0.51127283  1
  O  O411  1  0.37699618  0.36412717  0.11926284  1
  O  O412  1  0.38280052  0.36251304  0.61762917  1
  O  O413  1  0.38280375  0.86203282  0.12701968  1
  O  O414  1  0.36654894  0.86669233  0.62859283  1
  O  O415  1  0.86179044  0.35909731  0.12528485  1
  O  O416  1  0.85119896  0.36764398  0.64586946  1
  O  O417  1  0.86641691  0.87926350  0.11029768  1
  O  O418  1  0.86637975  0.87472033  0.61849514  1
  O  O419  1  0.13721957  0.12461464  0.37293856  1
  O  O420  1  0.12900818  0.12787595  0.87674140  1
  O  O421  1  0.13160396  0.64525801  0.37365644  1
  O  O422  1  0.12916227  0.63161594  0.88362316  1
  O  O423  1  0.63097042  0.13237306  0.36581492  1
  O  O424  1  0.62969591  0.12751144  0.87709512  1
  O  O425  1  0.63468761  0.62921447  0.37951200  1
  O  O426  1  0.62511617  0.63844760  0.86788918  1
