# generated using pymatgen
data_V85Zn86O256
_symmetry_space_group_name_H-M   'P 1'
_cell_length_a   16.96296742
_cell_length_b   16.94330099
_cell_length_c   16.95572026
_cell_angle_alpha   90.03135976
_cell_angle_beta   89.97449336
_cell_angle_gamma   89.93271162
_symmetry_Int_Tables_number   1
_chemical_formula_structural   V85Zn86O256
_chemical_formula_sum   'V85 Zn86 O256'
_cell_volume   4873.21630986
_cell_formula_units_Z   1
loop_
 _symmetry_equiv_pos_site_id
 _symmetry_equiv_pos_as_xyz
  1  'x, y, z'
loop_
 _atom_site_type_symbol
 _atom_site_label
 _atom_site_symmetry_multiplicity
 _atom_site_fract_x
 _atom_site_fract_y
 _atom_site_fract_z
 _atom_site_occupancy
  V  V0  1  0.74422876  0.62830757  0.37531177  1
  V  V1  1  0.75322214  0.37471430  0.62444707  1
  V  V2  1  0.37141009  0.24541284  0.62458341  1
  V  V3  1  0.24906250  0.49789336  0.75261999  1
  V  V4  1  0.88704539  0.51278108  0.37971242  1
  V  V5  1  0.88244437  0.74284502  0.63272854  1
  V  V6  1  0.38168124  0.12710013  0.25094233  1
  V  V7  1  0.37610449  0.37251021  0.49941568  1
  V  V8  1  0.62458823  0.36087070  0.25268139  1
  V  V9  1  0.63024885  0.86739904  0.74680602  1
  V  V10  1  0.75019036  0.50190236  0.25091058  1
  V  V11  1  0.12047766  0.12495397  -0.00262088  1
  V  V12  1  0.23942245  0.25050826  0.49702350  1
  V  V13  1  0.50511459  0.36082402  0.37254011  1
  V  V14  1  0.24796619  0.24803469  -0.00642349  1
  V  V15  1  0.49611905  0.62811884  0.12493058  1
  V  V16  1  0.87888736  0.50193707  0.86865343  1
  V  V17  1  0.75276975  0.75542747  -0.00527294  1
  V  V18  1  0.74948272  0.24502791  0.48708884  1
  V  V19  1  0.87153897  0.63134929  0.24470025  1
  V  V20  1  0.37061365  0.62321895  0.24722215  1
  V  V21  1  0.37623404  0.37337232  0.00038155  1
  V  V22  1  0.24060428  0.12815766  0.37163516  1
  V  V23  1  0.75198012  0.37735794  0.12549877  1
  V  V24  1  0.01237402  0.75430553  0.24784676  1
  V  V25  1  0.50026377  0.24835264  0.74653352  1
  V  V26  1  0.50426476  0.50033434  0.49959668  1
  V  V27  1  0.87802566  0.12846567  0.75065661  1
  V  V28  1  0.37568622  0.50035952  0.87564577  1
  V  V29  1  0.62257858  0.63416741  -0.00163017  1
  V  V30  1  0.23696944  0.62584988  0.88595186  1
  V  V31  1  0.12080735  0.35680108  0.75064145  1
  V  V32  1  0.49764737  0.87368041  0.37443006  1
  V  V33  1  0.00134178  0.62380472  0.12132745  1
  V  V34  1  0.38309370  0.24964790  0.12927075  1
  V  V35  1  0.87677980  0.75346390  0.12067284  1
  V  V36  1  0.89216176  0.87660035  -0.00446386  1
  V  V37  1  0.13140388  -0.01073542  0.12847773  1
  V  V38  1  0.11759466  0.77089956  0.88038175  1
  V  V39  1  -0.00031422  0.87593379  0.37430122  1
  V  V40  1  0.36696816  0.86989246  0.50273829  1
  V  V41  1  0.01214795  0.24393054  0.25193690  1
  V  V42  1  0.62647119  0.87744397  0.24370317  1
  V  V43  1  0.37476010  0.49930049  0.37609114  1
  V  V44  1  0.12059858  0.74935135  0.40277467  1
  V  V45  1  0.75222557  0.50507351  0.74803972  1
  V  V46  1  0.24637281  0.37304888  0.62548404  1
  V  V47  1  0.74933722  0.24889759  -0.00301648  1
  V  V48  1  0.75272387  -0.00322612  0.74240864  1
  V  V49  1  0.36829881  0.88017896  -0.01346623  1
  V  V50  1  0.24420062  0.62682250  0.39111630  1
  V  V51  1  0.50020122  0.37466191  0.87381419  1
  V  V52  1  0.62718829  0.37422989  0.74771995  1
  V  V53  1  0.25086577  0.37236103  0.12627674  1
  V  V54  1  0.25616140  0.11593737  0.87009666  1
  V  V55  1  0.62461258  0.75391644  0.37341372  1
  V  V56  1  0.50047673  0.74880225  0.76179256  1
  V  V57  1  0.75149980  0.00388241  0.24895411  1
  V  V58  1  0.49799724  0.75077382  0.24618393  1
  V  V59  1  0.00528230  0.50003136  -0.00132920  1
  V  V60  1  0.24489909  0.88871582  0.63448599  1
  V  V61  1  0.37512923  0.62839269  0.75537141  1
  V  V62  1  0.61889072  0.11858339  -0.00330263  1
  V  V63  1  0.12207458  0.52042785  0.62677951  1
  V  V64  1  0.50173041  0.50060697  0.00053835  1
  V  V65  1  0.12513654  0.49934845  0.12278357  1
  V  V66  1  0.31672704  0.80804099  0.17459581  1
  V  V67  1  0.00038087  0.11720737  0.12417405  1
  V  V68  1  0.87710445  0.37449985  0.00216690  1
  V  V69  1  0.74618942  0.62628183  0.87452508  1
  V  V70  1  0.87368085  0.12623411  0.25843469  1
  V  V71  1  0.50465987  0.89584219  0.87791543  1
  V  V72  1  0.74570172  0.76645541  0.50742663  1
  V  V73  1  0.00865026  0.37115127  0.37317584  1
  V  V74  1  0.24181380  0.49936227  0.25459751  1
  V  V75  1  0.37046312  0.00044474  0.37441535  1
  V  V76  1  0.00347735  -0.00229439  0.50990216  1
  V  V77  1  0.87632277  0.37882235  0.49693051  1
  V  V78  1  0.50317173  -0.00031268  0.50253728  1
  V  V79  1  0.62535837  0.50027074  0.12622525  1
  V  V80  1  0.00443422  0.36134101  0.87215799  1
  V  V81  1  0.36841195  0.74788834  0.62505997  1
  V  V82  1  0.88469845  -0.00593160  0.87634835  1
  V  V83  1  0.01014788  0.12639349  0.62882602  1
  V  V84  1  0.88089518  0.25171532  0.62899459  1
  Zn  Zn85  1  0.00223927  0.73969583  0.74994683  1
  Zn  Zn86  1  0.75122613  0.87716787  0.11958282  1
  Zn  Zn87  1  0.25316674  0.74976608  0.00312180  1
  Zn  Zn88  1  0.62354757  0.13577864  0.49168874  1
  Zn  Zn89  1  0.13017803  0.36590419  0.25594305  1
  Zn  Zn90  1  0.50059509  0.62815592  0.62511084  1
  Zn  Zn91  1  0.62330137  -0.00060692  0.11874317  1
  Zn  Zn92  1  0.11410454  0.89900506  0.75482681  1
  Zn  Zn93  1  0.75174280  0.12247732  0.87427850  1
  Zn  Zn94  1  0.37905393  0.11348616  0.75432502  1
  Zn  Zn95  1  0.00231624  0.50871365  0.51307125  1
  Zn  Zn96  1  0.62276811  0.62881077  0.50361069  1
  Zn  Zn97  1  0.62440750  0.50333314  0.62359559  1
  Zn  Zn98  1  0.62731328  0.24863622  0.87185906  1
  Zn  Zn99  1  0.12379424  0.12520619  0.49871770  1
  Zn  Zn100  1  0.50593425  0.12368709  0.62393171  1
  Zn  Zn101  1  0.24961836  -0.00759517  0.24608956  1
  Zn  Zn102  1  0.86890349  0.87995281  0.50520039  1
  Zn  Zn103  1  0.87848058  0.24801137  0.12573297  1
  Zn  Zn104  1  0.50267137  0.12437367  0.12635014  1
  Zn  Zn105  1  0.63180459  0.00007000  0.62292408  1
  Zn  Zn106  1  0.87778497  0.00301948  0.37688489  1
  Zn  Zn107  1  0.19294846  0.18168610  0.18321379  1
  Zn  Zn108  1  0.18979621  0.06838578  0.68997726  1
  Zn  Zn109  1  0.18175604  0.67831913  0.19098412  1
  Zn  Zn110  1  0.19499385  0.69626759  0.70109923  1
  Zn  Zn111  1  0.69337248  0.18584957  0.18091318  1
  Zn  Zn112  1  0.69106855  0.18359643  0.67835422  1
  Zn  Zn113  1  0.68607675  0.69180117  0.18230972  1
  Zn  Zn114  1  0.68676520  0.68665727  0.68563224  1
  Zn  Zn115  1  0.31516032  0.31085606  0.31407245  1
  Zn  Zn116  1  0.31047469  0.30794830  0.81122894  1
  Zn  Zn117  1  0.30149115  0.81117080  0.33721513  1
  Zn  Zn118  1  0.31098189  0.93899058  0.81097369  1
  Zn  Zn119  1  0.82027319  0.31448537  0.31074122  1
  Zn  Zn120  1  0.81558816  0.31427201  0.81284517  1
  Zn  Zn121  1  0.81299410  0.81687005  0.31249601  1
  Zn  Zn122  1  0.81544923  0.81096689  0.81164200  1
  Zn  Zn123  1  0.18406767  0.44096846  0.44368723  1
  Zn  Zn124  1  0.18683415  0.43388508  0.93508991  1
  Zn  Zn125  1  0.18255573  0.93672891  0.44093145  1
  Zn  Zn126  1  0.18363428  0.94247490  0.94765086  1
  Zn  Zn127  1  0.68952322  0.43627512  0.43473444  1
  Zn  Zn128  1  0.68703390  0.43809777  0.93590669  1
  Zn  Zn129  1  0.67526410  0.96849589  0.41937386  1
  Zn  Zn130  1  0.69176859  0.93860968  0.92657175  1
  Zn  Zn131  1  0.31434098  0.06013584  0.06196063  1
  Zn  Zn132  1  0.31745063  0.06456095  0.55792899  1
  Zn  Zn133  1  0.31288375  0.56004734  0.06435886  1
  Zn  Zn134  1  0.31538413  0.55810241  0.56815502  1
  Zn  Zn135  1  0.81179745  0.06117504  0.06340489  1
  Zn  Zn136  1  0.81867896  0.06407296  0.56298176  1
  Zn  Zn137  1  0.81385008  0.56340617  0.05808958  1
  Zn  Zn138  1  0.80599295  0.56612012  0.55985244  1
  Zn  Zn139  1  0.43921829  0.43637231  0.19047700  1
  Zn  Zn140  1  0.43668909  0.43630493  0.68532333  1
  Zn  Zn141  1  0.44418200  0.94743857  0.18513971  1
  Zn  Zn142  1  0.44100793  0.93490080  0.68616228  1
  Zn  Zn143  1  0.94006402  0.43758425  0.19506094  1
  Zn  Zn144  1  0.94320306  0.44042683  0.68833131  1
  Zn  Zn145  1  0.93996593  0.93716490  0.18570395  1
  Zn  Zn146  1  0.93457404  0.92701183  0.68723656  1
  Zn  Zn147  1  0.06332910  0.05563379  0.30943435  1
  Zn  Zn148  1  0.05859067  0.07414192  0.81916198  1
  Zn  Zn149  1  0.04901893  0.57487152  0.33263213  1
  Zn  Zn150  1  0.06238319  0.55920602  0.80542120  1
  Zn  Zn151  1  0.56305247  0.06535930  0.31524504  1
  Zn  Zn152  1  0.56985365  0.06465055  0.80868239  1
  Zn  Zn153  1  0.56158057  0.55865277  0.31292464  1
  Zn  Zn154  1  0.56451395  0.56265794  0.81184408  1
  Zn  Zn155  1  0.43377958  0.18424608  0.43830386  1
  Zn  Zn156  1  0.43688138  0.18937047  0.93546198  1
  Zn  Zn157  1  0.43520643  0.68669115  0.43789566  1
  Zn  Zn158  1  0.42954330  0.69457716  0.94036559  1
  Zn  Zn159  1  0.93917595  0.18923544  0.44022543  1
  Zn  Zn160  1  0.93528478  0.18353551  0.93831450  1
  Zn  Zn161  1  0.93071447  0.69182722  0.43864622  1
  Zn  Zn162  1  0.95730496  0.66658074  0.90577178  1
  Zn  Zn163  1  0.06369844  0.30967789  0.06667748  1
  Zn  Zn164  1  0.06097528  0.31671827  0.56432655  1
  Zn  Zn165  1  0.06650815  0.80833808  0.05732758  1
  Zn  Zn166  1  0.04649387  0.82145813  0.59022892  1
  Zn  Zn167  1  0.56566921  0.30968123  0.06299330  1
  Zn  Zn168  1  0.56543179  0.31297119  0.56167064  1
  Zn  Zn169  1  0.55599218  0.81375906  0.05949589  1
  Zn  Zn170  1  0.55667007  0.81358120  0.56542581  1
  O  O171  1  0.11976658  0.11932284  0.11738964  1
  O  O172  1  0.11248860  0.13003461  0.62355089  1
  O  O173  1  0.11780322  0.60809327  0.12682387  1
  O  O174  1  0.13656412  0.61782302  0.63439066  1
  O  O175  1  0.62522970  0.12956757  0.10761656  1
  O  O176  1  0.62467244  0.11887034  0.61203628  1
  O  O177  1  0.61846083  0.61920688  0.11721437  1
  O  O178  1  0.61864733  0.62116821  0.62204087  1
  O  O179  1  0.38325614  0.38140511  0.37892926  1
  O  O180  1  0.38022306  0.37980650  0.87949455  1
  O  O181  1  0.37726742  0.88062676  0.38257078  1
  O  O182  1  0.38681662  0.88024144  0.88006649  1
  O  O183  1  0.88237095  0.38412348  0.38353051  1
  O  O184  1  0.88139366  0.38343909  0.88234708  1
  O  O185  1  0.89087497  0.86930774  0.38149598  1
  O  O186  1  0.87462381  0.88575189  0.87906894  1
  O  O187  1  0.25763932  0.00336483  0.37386678  1
  O  O188  1  0.25000002  0.01251643  0.88091469  1
  O  O189  1  0.25204383  0.50491750  0.36994571  1
  O  O190  1  0.25853319  0.50219043  0.87164532  1
  O  O191  1  0.76556724  -0.01681197  0.35231706  1
  O  O192  1  0.76074304  0.00255747  0.85945540  1
  O  O193  1  0.75881810  0.51103686  0.37118766  1
  O  O194  1  0.75639648  0.50177486  0.86659241  1
  O  O195  1  0.24379383  0.49407044  0.13255449  1
  O  O196  1  0.24325685  0.49258501  0.63305486  1
  O  O197  1  0.23631325  1.00355417  0.12697092  1
  O  O198  1  0.25153754  0.99477853  0.62157683  1
  O  O199  1  0.74599774  0.49623369  0.12898379  1
  O  O200  1  0.74948531  0.49353762  0.63342190  1
  O  O201  1  0.74526389  0.99586773  0.13363561  1
  O  O202  1  0.75607568  0.99985563  0.63709884  1
  O  O203  1  0.00289259  0.35776215  0.25265147  1
  O  O204  1  0.01210231  0.37638854  0.75751411  1
  O  O205  1  -0.00465916  0.86548058  0.26008415  1
  O  O206  1  0.01973972  0.85377516  0.70888488  1
  O  O207  1  0.51170157  0.37990185  0.25984308  1
  O  O208  1  0.50776957  0.36808718  0.75151509  1
  O  O209  1  0.50399104  0.86850184  0.25463535  1
  O  O210  1  0.50603768  0.86827237  0.76230741  1
  O  O211  1  0.48598621  0.12450351  0.25573695  1
  O  O212  1  0.50132287  0.13848007  0.74867910  1
  O  O213  1  0.48937954  0.62988795  0.24811725  1
  O  O214  1  0.49346992  0.62930090  0.75055846  1
  O  O215  1  0.99496813  0.12808793  0.24448254  1
  O  O216  1  0.98606610  0.12548167  0.74280589  1
  O  O217  1  0.99089529  0.63477901  0.24371365  1
  O  O218  1  0.98371664  0.63437409  0.79636445  1
  O  O219  1  0.36899856  0.25603228  0.00674755  1
  O  O220  1  0.36957599  0.25560114  0.50672785  1
  O  O221  1  0.37219918  0.76812428  0.00352417  1
  O  O222  1  0.37812470  0.75702255  0.51058133  1
  O  O223  1  0.87022147  0.26116983  0.00097549  1
  O  O224  1  0.87047951  0.26316156  0.50495918  1
  O  O225  1  0.86793607  0.76001231  0.00299090  1
  O  O226  1  0.85668155  0.75070730  0.50211316  1
  O  O227  1  0.13660840  0.25142883  0.50238755  1
  O  O228  1  0.13608234  0.23744596  1.01062889  1
  O  O229  1  0.10849164  0.74703830  0.49869556  1
  O  O230  1  0.13437515  0.75198799  0.98586633  1
  O  O231  1  0.64379305  0.25315484  0.50120137  1
  O  O232  1  0.63477660  0.24544540  0.99541821  1
  O  O233  1  0.62898004  0.75355021  0.49142123  1
  O  O234  1  0.63146197  0.73865772  1.00414329  1
  O  O235  1  0.48695368  0.24753979  0.12020916  1
  O  O236  1  0.49280383  0.25176716  0.63067479  1
  O  O237  1  0.50407250  0.73873197  0.13260384  1
  O  O238  1  0.48612425  0.75185265  0.63765512  1
  O  O239  1  1.00033527  0.23814344  0.13432875  1
  O  O240  1  0.98800858  0.24343662  0.61674907  1
  O  O241  1  0.99833306  0.74440103  0.12927029  1
  O  O242  1  0.98298415  0.72649734  0.61592046  1
  O  O243  1  -0.00433583  0.25923869  0.36635176  1
  O  O244  1  -0.00495099  0.26255924  0.88002811  1
  O  O245  1  0.00861388  0.75322115  0.36998541  1
  O  O246  1  0.01564441  0.76391617  0.88598537  1
  O  O247  1  0.49680984  0.26166325  0.38049167  1
  O  O248  1  0.50076065  0.25832803  0.86379919  1
  O  O249  1  0.50443896  0.75398933  0.36760869  1
  O  O250  1  0.49685751  0.74990364  0.86346581  1
  O  O251  1  0.24850124  0.13345302  0.49166221  1
  O  O252  1  0.24499007  0.13095471  0.99510163  1
  O  O253  1  0.25753813  0.61706600  0.48893088  1
  O  O254  1  0.25887637  0.62421055  0.98878249  1
  O  O255  1  0.76000047  0.14375921  0.50170702  1
  O  O256  1  0.74551821  0.13535794  0.99869794  1
  O  O257  1  0.74270285  0.63460136  0.48674658  1
  O  O258  1  0.74100653  0.63172016  0.99532804  1
  O  O259  1  0.25543168  0.36790143  0.00541872  1
  O  O260  1  0.25571563  0.36939488  0.50283073  1
  O  O261  1  0.26376050  0.87184350  -0.00905010  1
  O  O262  1  0.26377160  0.88152646  0.50258462  1
  O  O263  1  0.75791566  0.37238427  0.00390161  1
  O  O264  1  0.75822167  0.37081845  0.50547871  1
  O  O265  1  0.74858348  0.86366472  -0.00394106  1
  O  O266  1  0.74674806  0.86574489  0.48931092  1
  O  O267  1  0.13646879  0.50050350  0.24650925  1
  O  O268  1  0.13212233  0.49610315  0.74042783  1
  O  O269  1  0.13048437  0.99967981  0.23532426  1
  O  O270  1  0.12044315  1.01002599  0.75358884  1
  O  O271  1  0.63283135  0.49625515  0.24368869  1
  O  O272  1  0.63333243  0.49099199  0.74903802  1
  O  O273  1  0.63385015  0.99205003  0.24796812  1
  O  O274  1  0.63506769  0.99138586  0.74654699  1
  O  O275  1  0.37029849  0.00523387  0.25869221  1
  O  O276  1  0.37526011  0.00184516  0.74565337  1
  O  O277  1  0.36526410  0.50574734  0.25621102  1
  O  O278  1  0.37060505  0.50709099  0.75373136  1
  O  O279  1  0.87149948  0.00992933  0.24684028  1
  O  O280  1  0.87311993  0.00108259  0.75716992  1
  O  O281  1  0.86703015  0.51270919  0.25217479  1
  O  O282  1  0.86617353  0.49280857  0.75885837  1
  O  O283  1  0.11345320  0.38019626  0.37448575  1
  O  O284  1  0.11807424  0.37786396  0.86111016  1
  O  O285  1  0.11540702  0.85909381  0.38323545  1
  O  O286  1  0.12962187  0.87292077  0.87267295  1
  O  O287  1  0.61725785  0.37976645  0.36426597  1
  O  O288  1  0.62008163  0.37408461  0.86293737  1
  O  O289  1  0.61758775  0.87265775  0.36067702  1
  O  O290  1  0.61207239  0.87951061  0.86416177  1
  O  O291  1  0.37492485  0.13262308  0.13328162  1
  O  O292  1  0.37722400  0.13822153  0.62597040  1
  O  O293  1  0.37889210  0.61865182  0.13940136  1
  O  O294  1  0.37537355  0.63036866  0.63516741  1
  O  O295  1  0.88589134  0.12511667  0.12804967  1
  O  O296  1  0.88303308  0.13467325  0.63187115  1
  O  O297  1  0.88145051  0.63137898  0.12608720  1
  O  O298  1  0.84887566  0.64666724  0.62517601  1
  O  O299  1  0.26005342  0.25505754  0.11716308  1
  O  O300  1  0.25967307  0.25870935  0.61363953  1
  O  O301  1  0.24958222  0.74724800  0.12543894  1
  O  O302  1  0.26404616  0.76037451  0.63448258  1
  O  O303  1  0.75508307  0.25952264  0.11203486  1
  O  O304  1  0.76361253  0.25825896  0.61854648  1
  O  O305  1  0.75796552  0.75014878  0.11188992  1
  O  O306  1  0.73947534  0.75574638  0.60827665  1
  O  O307  1  0.25702848  0.24056516  0.38477565  1
  O  O308  1  0.25291812  0.24448332  0.88944381  1
  O  O309  1  0.23059265  0.74190275  0.38503235  1
  O  O310  1  0.23662180  0.72932293  0.87716029  1
  O  O311  1  0.75772438  0.25765373  0.38887667  1
  O  O312  1  0.75165247  0.25219294  0.88676724  1
  O  O313  1  0.74055827  0.74666144  0.37814584  1
  O  O314  1  0.75653541  0.73744436  0.88212055  1
  O  O315  1  0.01297243  0.13230654  0.00730490  1
  O  O316  1  0.00064423  0.11751848  0.50751330  1
  O  O317  1  -0.00538990  0.60658427  0.00314110  1
  O  O318  1  -0.02343417  0.58765289  0.43540240  1
  O  O319  1  0.51693612  0.13286731  -0.00481985  1
  O  O320  1  0.50040759  0.11285539  0.49892393  1
  O  O321  1  0.50497249  0.62244524  0.00361898  1
  O  O322  1  0.50087446  0.61503859  0.49935986  1
  O  O323  1  0.49702412  0.38025343  0.49257738  1
  O  O324  1  0.49726811  0.37962299  0.99446992  1
  O  O325  1  0.48561497  0.87619585  0.49353239  1
  O  O326  1  0.49582655  0.87035881  0.98100661  1
  O  O327  1  0.99413074  0.38291662  0.49054452  1
  O  O328  1  0.99468021  0.37915382  0.99726604  1
  O  O329  1  0.99892680  0.88675042  0.49976121  1
  O  O330  1  0.99025753  0.87792634  1.00463654  1
  O  O331  1  0.49377189  0.49492168  0.38422218  1
  O  O332  1  0.49531003  0.49453071  0.88028527  1
  O  O333  1  0.48534341  0.99152604  0.37915230  1
  O  O334  1  0.50281811  0.99414902  0.87323910  1
  O  O335  1  0.99024721  0.47681215  0.34066136  1
  O  O336  1  0.99326155  0.48793019  0.88338221  1
  O  O337  1  0.99952603  0.99077635  0.38172666  1
  O  O338  1  0.98313494  1.00544777  0.87636843  1
  O  O339  1  0.01097255  0.01167326  0.13001613  1
  O  O340  1  -0.00867286  0.00925255  0.61429577  1
  O  O341  1  0.00724097  0.50057226  0.12037384  1
  O  O342  1  0.01456597  0.50937521  0.62960977  1
  O  O343  1  0.51090348  0.01114074  0.12690691  1
  O  O344  1  0.49811945  0.00350007  0.61422139  1
  O  O345  1  0.50455502  0.50746584  0.12087038  1
  O  O346  1  0.49872615  0.49805108  0.61004794  1
  O  O347  1  0.25030450  0.38245609  0.24711551  1
  O  O348  1  0.24058549  0.37800893  0.74739377  1
  O  O349  1  0.26424559  0.86649145  0.24054609  1
  O  O350  1  0.23953171  0.88073004  0.73763031  1
  O  O351  1  0.74689269  0.38234742  0.24579053  1
  O  O352  1  0.74413759  0.38207809  0.74600849  1
  O  O353  1  0.74127657  0.87661722  0.24247039  1
  O  O354  1  0.73572639  0.87774014  0.75753307  1
  O  O355  1  0.26161313  0.12378542  0.25786426  1
  O  O356  1  0.25103875  0.13243438  0.76844269  1
  O  O357  1  0.25497964  0.61743267  0.25887897  1
  O  O358  1  0.25877617  0.61726136  0.76390894  1
  O  O359  1  0.76129950  0.11749004  0.24286431  1
  O  O360  1  0.76198598  0.11758755  0.74840549  1
  O  O361  1  0.75072992  0.62198454  0.25193342  1
  O  O362  1  0.74213750  0.61317270  0.75967005  1
  O  O363  1  0.36651760  0.11637724  0.37090122  1
  O  O364  1  0.36012206  0.12834353  0.87649567  1
  O  O365  1  0.36647679  0.62203475  0.36513754  1
  O  O366  1  0.37077087  0.61838629  0.87068884  1
  O  O367  1  0.88135850  0.12495441  0.36146253  1
  O  O368  1  0.87292801  0.11637999  0.86790119  1
  O  O369  1  0.85557830  0.63286895  0.36101692  1
  O  O370  1  0.85719173  0.60543149  0.89160860  1
  O  O371  1  0.13132946  0.38300160  0.13206324  1
  O  O372  1  0.12848438  0.37847227  0.63680671  1
  O  O373  1  0.12148613  0.89101311  0.11603308  1
  O  O374  1  0.14979813  0.87197860  0.60996970  1
  O  O375  1  0.63090906  0.38153507  0.13084462  1
  O  O376  1  0.63148122  0.37754779  0.63541148  1
  O  O377  1  0.62364526  0.87227523  0.13441450  1
  O  O378  1  0.61484754  0.87700635  0.64499850  1
  O  O379  1  0.11613312  0.24503010  0.24708427  1
  O  O380  1  0.12598785  0.26214532  0.74783839  1
  O  O381  1  0.11333285  0.74744778  0.25177247  1
  O  O382  1  0.12284590  0.74256567  0.77542129  1
  O  O383  1  0.63286656  0.26188948  0.24381978  1
  O  O384  1  0.62051333  0.25698050  0.74746496  1
  O  O385  1  0.61984375  0.75678040  0.25466376  1
  O  O386  1  0.61792004  0.75988132  0.74907913  1
  O  O387  1  0.37064422  0.24212474  0.24018375  1
  O  O388  1  0.38379379  0.25041557  0.74098587  1
  O  O389  1  0.37112365  0.74670857  0.24671655  1
  O  O390  1  0.38172419  0.73528449  0.74652855  1
  O  O391  1  0.88348693  0.24165782  0.24593742  1
  O  O392  1  0.87001847  0.24235477  0.74107492  1
  O  O393  1  0.87949492  0.74698051  0.23973337  1
  O  O394  1  0.87885063  0.75308793  0.73778466  1
  O  O395  1  0.38148370  0.49207365  0.49460964  1
  O  O396  1  0.38309464  0.49232299  0.99734257  1
  O  O397  1  0.38324229  0.99327171  0.49254036  1
  O  O398  1  0.37623823  0.97822514  1.01207572  1
  O  O399  1  0.87161242  0.48983182  0.49999442  1
  O  O400  1  0.88116246  0.48781435  0.99547920  1
  O  O401  1  0.88660019  0.99939415  0.49551298  1
  O  O402  1  0.86447404  0.99085421  0.98473452  1
  O  O403  1  0.12592690  0.01656180  0.01225573  1
  O  O404  1  0.10786702  0.00497571  0.49694707  1
  O  O405  1  0.11624354  0.48820578  0.01057408  1
  O  O406  1  0.12411758  0.50049517  0.52181471  1
  O  O407  1  0.63581671  0.01610911  -0.00388332  1
  O  O408  1  0.60505017  -0.02840026  0.50943237  1
  O  O409  1  0.62003770  0.50783072  0.00573329  1
  O  O410  1  0.61670370  0.50052669  0.49909820  1
  O  O411  1  0.37093413  0.36973736  0.12157576  1
  O  O412  1  0.36793411  0.36739263  0.61986820  1
  O  O413  1  0.37966994  0.86848033  0.12328361  1
  O  O414  1  0.36495149  0.86901670  0.62000569  1
  O  O415  1  0.87147376  0.37588956  0.11798511  1
  O  O416  1  0.87595786  0.37082114  0.61909490  1
  O  O417  1  0.87414062  0.87044410  0.11444183  1
  O  O418  1  0.87347639  0.85353807  0.61807438  1
  O  O419  1  0.13786546  0.11991793  0.37362173  1
  O  O420  1  0.13525568  0.12608811  0.89250283  1
  O  O421  1  0.13189476  0.63875913  0.37591713  1
  O  O422  1  0.13940298  0.60621152  0.88256992  1
  O  O423  1  0.63707933  0.07916929  0.39555352  1
  O  O424  1  0.63173577  0.12963409  0.88306787  1
  O  O425  1  0.63227263  0.63238045  0.37123340  1
  O  O426  1  0.63654353  0.61703928  0.88579250  1
