# generated using pymatgen
data_V85Zn86O256
_symmetry_space_group_name_H-M   'P 1'
_cell_length_a   16.93571345
_cell_length_b   16.93915742
_cell_length_c   16.93882408
_cell_angle_alpha   90.02443594
_cell_angle_beta   89.97871380
_cell_angle_gamma   89.98809659
_symmetry_Int_Tables_number   1
_chemical_formula_structural   V85Zn86O256
_chemical_formula_sum   'V85 Zn86 O256'
_cell_volume   4859.35334589
_cell_formula_units_Z   1
loop_
 _symmetry_equiv_pos_site_id
 _symmetry_equiv_pos_as_xyz
  1  'x, y, z'
loop_
 _atom_site_type_symbol
 _atom_site_label
 _atom_site_symmetry_multiplicity
 _atom_site_fract_x
 _atom_site_fract_y
 _atom_site_fract_z
 _atom_site_occupancy
  V  V0  1  0.24893684  0.24758032  0.49813940  1
  V  V1  1  0.25462837  0.11133515  0.87169897  1
  V  V2  1  0.12518024  0.62337779  0.50199827  1
  V  V3  1  0.86957065  0.87368162  -0.00328700  1
  V  V4  1  0.49964650  -0.01306114  0.48850804  1
  V  V5  1  -0.00162655  0.25122224  0.24799999  1
  V  V6  1  -0.00063070  0.87560495  0.87438791  1
  V  V7  1  0.12729783  0.75080347  0.87529277  1
  V  V8  1  0.62512915  0.24204394  0.87549382  1
  V  V9  1  0.74568921  -0.00002594  0.24358286  1
  V  V10  1  0.64295729  0.62523990  0.48856086  1
  V  V11  1  0.37716696  0.37298167  0.00005350  1
  V  V12  1  0.49699238  0.24561879  0.75005181  1
  V  V13  1  -0.00014220  0.00037332  0.00286750  1
  V  V14  1  0.62581102  0.87514323  0.75129984  1
  V  V15  1  0.43454597  -0.05895422  0.93309730  1
  V  V16  1  0.87017647  0.00417891  0.37590597  1
  V  V17  1  0.11369324  0.74840692  0.37189370  1
  V  V18  1  0.49327440  0.25495541  0.26456841  1
  V  V19  1  0.87200980  0.75142891  0.12182276  1
  V  V20  1  0.75941050  0.00869648  0.74713350  1
  V  V21  1  0.51302386  0.61749303  0.62190613  1
  V  V22  1  0.25235631  0.62679500  0.87594248  1
  V  V23  1  0.86885530  0.37456058  0.00697155  1
  V  V24  1  0.87302388  0.62778035  0.75272855  1
  V  V25  1  0.62248659  0.37728085  0.74528506  1
  V  V26  1  0.36114375  -0.01085534  0.37823280  1
  V  V27  1  0.25532428  0.87808965  0.12881503  1
  V  V28  1  0.24992871  0.37544672  0.12442553  1
  V  V29  1  0.25029259  0.37354875  0.62426952  1
  V  V30  1  0.38504630  0.37243539  0.49640720  1
  V  V31  1  0.62539664  0.00630792  0.61724019  1
  V  V32  1  0.74294150  0.50039719  0.74721040  1
  V  V33  1  0.37735105  0.49978497  0.87577078  1
  V  V34  1  0.11928927  0.37133666  0.75035090  1
  V  V35  1  0.24968145  0.62423861  0.37619297  1
  V  V36  1  0.74912125  0.23896674  0.48761925  1
  V  V37  1  0.37734913  0.62439110  0.25026822  1
  V  V38  1  0.87289769  0.25232750  0.62644560  1
  V  V39  1  0.38557685  0.49609495  0.37573720  1
  V  V40  1  0.12745810  0.24562617  0.37354458  1
  V  V41  1  0.12387410  0.62588786  0.00114635  1
  V  V42  1  -0.00607445  0.87386319  0.37299969  1
  V  V43  1  0.12806558  0.12280736  0.49621465  1
  V  V44  1  -0.00535640  0.12473098  0.63111535  1
  V  V45  1  0.36147493  0.11891257  0.25702775  1
  V  V46  1  0.12751161  -0.00017084  0.62543613  1
  V  V47  1  -0.00438852  -0.00355693  0.49907387  1
  V  V48  1  0.25122781  0.75430989  0.49945470  1
  V  V49  1  -0.00090401  0.75153380  0.75033032  1
  V  V50  1  0.12363988  0.50211466  0.12532188  1
  V  V51  1  0.74674833  0.63639059  0.87933107  1
  V  V52  1  0.25085048  0.24669808  -0.00122500  1
  V  V53  1  0.87295376  0.12504189  0.25189193  1
  V  V54  1  -0.00806532  0.49706087  0.49799756  1
  V  V55  1  0.73796572  0.87666907  0.11722363  1
  V  V56  1  0.12782871  0.00053559  0.13115054  1
  V  V57  1  -0.00131849  0.63141932  0.13241825  1
  V  V58  1  0.24955593  0.49936879  0.75010862  1
  V  V59  1  0.75454699  0.87375717  0.61071682  1
  V  V60  1  0.62789747  0.47792426  0.11821614  1
  V  V61  1  0.13073544  0.88033066  0.74981804  1
  V  V62  1  0.37835448  0.62538901  0.74755194  1
  V  V63  1  0.86361600  0.62690989  0.25508591  1
  V  V64  1  0.12360824  0.37613063  0.25193951  1
  V  V65  1  0.37332638  0.10804239  0.75004851  1
  V  V66  1  0.25629754  0.87968847  0.62516787  1
  V  V67  1  0.37971959  0.75026854  0.61992406  1
  V  V68  1  0.00035305  0.62558983  0.62671334  1
  V  V69  1  0.62169721  0.87572162  0.25755829  1
  V  V70  1  0.38567096  0.75253654  0.12564954  1
  V  V71  1  0.37519309  0.24757591  0.62495991  1
  V  V72  1  0.62745815  0.63950027  0.00567229  1
  V  V73  1  0.12510319  0.24837082  0.87483508  1
  V  V74  1  0.62334774  0.37194508  0.27165721  1
  V  V75  1  0.75060163  0.37698013  0.61436338  1
  V  V76  1  0.87564618  0.75319782  0.61214514  1
  V  V77  1  0.87349915  0.49822727  0.87676563  1
  V  V78  1  0.85930624  0.25271020  0.12823433  1
  V  V79  1  0.25858776  0.75437628  0.00180834  1
  V  V80  1  0.50151784  0.75190754  0.26483340  1
  V  V81  1  0.12254491  0.87191233  0.24914771  1
  V  V82  1  0.50996537  0.12065930  0.12971043  1
  V  V83  1  0.12464541  0.49947523  0.62523983  1
  V  V84  1  0.25075508  0.49998630  0.25195241  1
  Zn  Zn85  1  0.76396305  0.13212689  0.87594923  1
  Zn  Zn86  1  -0.00490967  0.37229999  0.38268161  1
  Zn  Zn87  1  -0.00231288  0.37370225  0.87790927  1
  Zn  Zn88  1  0.74175996  0.25072238  0.00580062  1
  Zn  Zn89  1  -0.01311579  0.23779110  0.76119293  1
  Zn  Zn90  1  0.64737881  0.75252407  0.38021300  1
  Zn  Zn91  1  -0.00311579  0.50014071  0.00181397  1
  Zn  Zn92  1  0.50216251  0.50182944  -0.00036802  1
  Zn  Zn93  1  0.62637456  0.11562562  0.00255597  1
  Zn  Zn94  1  0.61959518  0.13293260  0.46350499  1
  Zn  Zn95  1  0.50064369  0.12405349  0.61531518  1
  Zn  Zn96  1  0.74669351  0.49524082  0.25040453  1
  Zn  Zn97  1  0.61823756  0.76671159  0.88778257  1
  Zn  Zn98  1  0.50106015  0.75566425  0.75215625  1
  Zn  Zn99  1  0.50519941  0.62182583  0.12783985  1
  Zn  Zn100  1  0.50149802  0.37271659  0.87517539  1
  Zn  Zn101  1  0.12737202  0.12266898  0.00132583  1
  Zn  Zn102  1  0.51166566  0.49462812  0.50095028  1
  Zn  Zn103  1  0.88174483  0.01112066  0.86884282  1
  Zn  Zn104  1  0.85996366  0.49948919  0.38103551  1
  Zn  Zn105  1  0.00057734  0.12545478  0.12424328  1
  Zn  Zn106  1  0.37373298  0.24365035  0.12734986  1
  Zn  Zn107  1  0.18707586  0.18736565  0.18527623  1
  Zn  Zn108  1  0.18821804  0.18416621  0.68845404  1
  Zn  Zn109  1  0.18945495  0.69047740  0.18854011  1
  Zn  Zn110  1  0.18981997  0.69045880  0.68820035  1
  Zn  Zn111  1  0.66550249  0.16870205  0.25347564  1
  Zn  Zn112  1  0.68620353  0.19050483  0.68332455  1
  Zn  Zn113  1  0.68639058  0.69523651  0.18298499  1
  Zn  Zn114  1  0.69096976  0.69171920  0.68428005  1
  Zn  Zn115  1  0.31163978  0.31067666  0.31444663  1
  Zn  Zn116  1  0.31139834  0.30961779  0.81297525  1
  Zn  Zn117  1  0.30789534  0.81148275  0.31026355  1
  Zn  Zn118  1  0.31743137  0.81505579  0.80869644  1
  Zn  Zn119  1  0.81306746  0.32205737  0.31549986  1
  Zn  Zn120  1  0.80996224  0.31339044  0.81054344  1
  Zn  Zn121  1  0.81766269  0.81470492  0.29972276  1
  Zn  Zn122  1  0.80974999  0.81852699  0.80739242  1
  Zn  Zn123  1  0.18830089  0.43423964  0.43708989  1
  Zn  Zn124  1  0.18842798  0.43695372  0.93757257  1
  Zn  Zn125  1  0.18542738  0.93478566  0.43790190  1
  Zn  Zn126  1  0.19018396  0.93553106  0.94301086  1
  Zn  Zn127  1  0.68889913  0.44411080  0.43657083  1
  Zn  Zn128  1  0.68904822  0.43355685  0.93307678  1
  Zn  Zn129  1  0.68725401  0.94165487  0.43240043  1
  Zn  Zn130  1  0.68984096  0.94736417  0.93231914  1
  Zn  Zn131  1  0.31825303  0.06087882  0.06574557  1
  Zn  Zn132  1  0.31502433  0.06113569  0.55759797  1
  Zn  Zn133  1  0.31370347  0.56484958  0.06324180  1
  Zn  Zn134  1  0.31590778  0.56186018  0.56153403  1
  Zn  Zn135  1  0.80865718  0.06636691  0.06104226  1
  Zn  Zn136  1  0.81290300  0.06582507  0.56111241  1
  Zn  Zn137  1  0.80595370  0.56013812  0.06608496  1
  Zn  Zn138  1  0.81273131  0.56169650  0.56981065  1
  Zn  Zn139  1  0.44180413  0.43665908  0.18480706  1
  Zn  Zn140  1  0.43900105  0.43636962  0.68607404  1
  Zn  Zn141  1  0.43452703  0.93851900  0.19653841  1
  Zn  Zn142  1  0.44317211  0.93653214  0.67993054  1
  Zn  Zn143  1  0.93674234  0.43891408  0.18999638  1
  Zn  Zn144  1  0.93329193  0.43535386  0.68768159  1
  Zn  Zn145  1  0.93757676  0.93544313  0.18694856  1
  Zn  Zn146  1  0.93805899  0.93498610  0.68346343  1
  Zn  Zn147  1  0.06178087  0.06230059  0.31092186  1
  Zn  Zn148  1  0.06600838  0.06128597  0.81470526  1
  Zn  Zn149  1  0.05850627  0.56558862  0.31276792  1
  Zn  Zn150  1  0.06108676  0.56215170  0.81400121  1
  Zn  Zn151  1  0.55149460  0.05572941  0.30984633  1
  Zn  Zn152  1  0.56293908  0.05884998  0.80796986  1
  Zn  Zn153  1  0.56782337  0.56164737  0.31100914  1
  Zn  Zn154  1  0.56159099  0.56846856  0.81554598  1
  Zn  Zn155  1  0.43493308  0.17788846  0.43738684  1
  Zn  Zn156  1  0.44008225  0.17676560  0.93862886  1
  Zn  Zn157  1  0.43841552  0.68463033  0.44076707  1
  Zn  Zn158  1  0.44518951  0.69465890  0.93858852  1
  Zn  Zn159  1  0.93527502  0.18808316  0.44096282  1
  Zn  Zn160  1  0.93525681  0.18614954  0.94222914  1
  Zn  Zn161  1  0.82445754  0.69032199  0.43405226  1
  Zn  Zn162  1  0.93733679  0.68780813  0.94083279  1
  Zn  Zn163  1  0.05819531  0.31523958  0.06176769  1
  Zn  Zn164  1  0.05970878  0.31060812  0.56451252  1
  Zn  Zn165  1  0.06163546  0.81262811  0.06242148  1
  Zn  Zn166  1  0.06169214  0.81279417  0.56010916  1
  Zn  Zn167  1  0.55467500  0.29984630  0.06497161  1
  Zn  Zn168  1  0.56756836  0.30761298  0.56186726  1
  Zn  Zn169  1  0.56061744  0.94225885  0.06581039  1
  Zn  Zn170  1  0.56793425  0.80946725  0.56217544  1
  O  O171  1  0.12413556  0.11445497  0.12306359  1
  O  O172  1  0.12024642  0.11758201  0.61827356  1
  O  O173  1  0.11874467  0.62381457  0.12138351  1
  O  O174  1  0.12154599  0.61984812  0.62367916  1
  O  O175  1  0.60949375  0.13172118  0.14281646  1
  O  O176  1  0.62546076  0.11054278  0.62528644  1
  O  O177  1  0.62749471  0.62124377  0.11341849  1
  O  O178  1  0.61594120  0.62919742  0.61962727  1
  O  O179  1  0.36732184  0.38342146  0.38584122  1
  O  O180  1  0.37266574  0.38306091  0.88184871  1
  O  O181  1  0.36619454  0.88907266  0.36946240  1
  O  O182  1  0.37921390  0.87745260  0.87458793  1
  O  O183  1  0.88709295  0.39078874  0.35925090  1
  O  O184  1  0.87632266  0.38327817  0.87936031  1
  O  O185  1  0.89044411  0.88396214  0.36432768  1
  O  O186  1  0.88097164  0.87837851  0.88044666  1
  O  O187  1  0.26186941  0.00221259  0.38880767  1
  O  O188  1  0.24040456  0.01276351  0.87683172  1
  O  O189  1  0.25483967  0.50548121  0.36950635  1
  O  O190  1  0.25883216  0.50520263  0.87056620  1
  O  O191  1  0.76517758  -0.00924255  0.36169405  1
  O  O192  1  0.75571261  0.00369469  0.85550214  1
  O  O193  1  0.74796975  0.50313939  0.36412097  1
  O  O194  1  0.75886812  0.50548149  0.86597283  1
  O  O195  1  0.24381504  0.49686613  0.13176292  1
  O  O196  1  0.24544310  0.49442178  0.63117917  1
  O  O197  1  0.24239616  0.98700844  0.11853884  1
  O  O198  1  0.24622180  0.98586667  0.61515394  1
  O  O199  1  0.73046385  0.49902573  0.13151392  1
  O  O200  1  0.75470369  0.49230243  0.63863070  1
  O  O201  1  0.76230256  0.98977921  0.13668559  1
  O  O202  1  0.74755472  0.99324909  0.62749973  1
  O  O203  1  0.01051000  0.36794897  0.24751017  1
  O  O204  1  0.01160132  0.37406502  0.75246397  1
  O  O205  1  0.01242888  0.87792421  0.25768333  1
  O  O206  1  0.00813473  0.87059531  0.75395516  1
  O  O207  1  0.49992017  0.36179104  0.24965080  1
  O  O208  1  0.50580052  0.36708097  0.75012923  1
  O  O209  1  0.51151854  0.86533329  0.24350110  1
  O  O210  1  0.52152818  0.87559981  0.73720246  1
  O  O211  1  0.48728580  0.13498174  0.24653998  1
  O  O212  1  0.49106831  0.13113683  0.74457610  1
  O  O213  1  0.49544326  0.63230688  0.24947509  1
  O  O214  1  0.49601685  0.62375101  0.73666242  1
  O  O215  1  0.99094377  0.13274688  0.24842271  1
  O  O216  1  1.01004614  0.12392639  0.73520288  1
  O  O217  1  0.99385122  0.62230409  0.23591211  1
  O  O218  1  0.99519299  0.63092925  0.74601585  1
  O  O219  1  0.36598846  0.25582228  -0.00158756  1
  O  O220  1  0.36976036  0.25414447  0.50347884  1
  O  O221  1  0.36738205  0.74054997  0.01116708  1
  O  O222  1  0.36575066  0.74353636  0.51095423  1
  O  O223  1  0.87818798  0.25707044  0.01467654  1
  O  O224  1  0.86245490  0.24687127  0.51105199  1
  O  O225  1  0.87918648  0.76488036  0.00405900  1
  O  O226  1  0.88935185  0.74136097  0.51432536  1
  O  O227  1  0.12569893  0.24286786  0.49302039  1
  O  O228  1  0.13374452  0.25083935  0.99368822  1
  O  O229  1  0.13104107  0.74191904  0.49525556  1
  O  O230  1  0.13240635  0.74406538  0.99432360  1
  O  O231  1  0.64185280  0.24484009  0.50309485  1
  O  O232  1  0.62282099  0.24919056  0.98806831  1
  O  O233  1  0.62162423  0.73104087  0.49806189  1
  O  O234  1  0.62895130  0.73783370  1.00233082  1
  O  O235  1  0.49082857  0.23950435  0.13861624  1
  O  O236  1  0.49359086  0.24595014  0.63117625  1
  O  O237  1  0.48683179  0.74607115  0.13522562  1
  O  O238  1  0.49337234  0.74004187  0.62589122  1
  O  O239  1  1.00091948  0.24818120  0.13889084  1
  O  O240  1  0.99153539  0.24112632  0.62465658  1
  O  O241  1  0.98905635  0.74208768  0.11736063  1
  O  O242  1  0.99695647  0.74712301  0.63250732  1
  O  O243  1  0.00757811  0.25043096  0.36579429  1
  O  O244  1  0.01339191  0.25084808  0.87625331  1
  O  O245  1  0.01300950  0.76000240  0.38144896  1
  O  O246  1  0.00661842  0.75524010  0.87050226  1
  O  O247  1  0.49021390  0.24855637  0.36363360  1
  O  O248  1  0.50425186  0.24931450  0.86586459  1
  O  O249  1  0.49600302  0.74884460  0.36592635  1
  O  O250  1  0.51104261  0.73955440  0.86331296  1
  O  O251  1  0.23578606  0.13166980  0.50668362  1
  O  O252  1  0.25095739  0.13447525  0.99356667  1
  O  O253  1  0.24424895  0.63257335  0.49731843  1
  O  O254  1  0.24375172  0.63417710  0.99687639  1
  O  O255  1  0.74630813  0.13545922  0.49739692  1
  O  O256  1  0.74574656  0.13293592  0.99548093  1
  O  O257  1  0.74736468  0.62676570  0.50120412  1
  O  O258  1  0.73809433  0.61967169  0.99194689  1
  O  O259  1  0.25797780  0.36744002  0.00261760  1
  O  O260  1  0.25598889  0.36726594  0.50710426  1
  O  O261  1  0.24416118  0.86034646  0.01106511  1
  O  O262  1  0.24188428  0.86029853  0.50848013  1
  O  O263  1  0.76404350  0.36919753  -0.00542677  1
  O  O264  1  0.74129817  0.37117279  0.51215086  1
  O  O265  1  0.76027609  0.88130986  0.00437722  1
  O  O266  1  0.74932812  0.88266556  0.51215498  1
  O  O267  1  0.12932364  0.49602462  0.24610612  1
  O  O268  1  0.12977395  0.49267945  0.74644731  1
  O  O269  1  0.12180983  0.99277806  0.23842685  1
  O  O270  1  0.12240213  0.98712238  0.74331337  1
  O  O271  1  0.61614078  0.48292039  0.23995759  1
  O  O272  1  0.63278542  0.49199881  0.75778200  1
  O  O273  1  0.63615680  0.98973038  0.25078049  1
  O  O274  1  0.63383671  0.99235061  0.73795936  1
  O  O275  1  0.37328853  0.00938021  0.26459604  1
  O  O276  1  0.37705069  0.00939726  0.74011878  1
  O  O277  1  0.37149017  0.50296966  0.25685355  1
  O  O278  1  0.36922150  0.50333748  0.75662541  1
  O  O279  1  0.87348121  0.00753448  0.25527099  1
  O  O280  1  0.86268450  -0.00392638  0.74511003  1
  O  O281  1  0.87068193  0.51919838  0.23722874  1
  O  O282  1  0.86793563  0.50686017  0.75782699  1
  O  O283  1  0.12032936  0.36663992  0.36858418  1
  O  O284  1  0.12484284  0.36847135  0.86758846  1
  O  O285  1  0.11964425  0.86962671  0.36739239  1
  O  O286  1  0.12297078  0.86995964  0.86776168  1
  O  O287  1  0.61503440  0.38005974  0.36952391  1
  O  O288  1  0.62288110  0.36511686  0.86258051  1
  O  O289  1  0.63027874  0.87065353  0.36184955  1
  O  O290  1  0.63689595  0.87751588  0.85553509  1
  O  O291  1  0.37923457  0.12252636  0.14081090  1
  O  O292  1  0.37256734  0.13308838  0.63149690  1
  O  O293  1  0.37580113  0.63118278  0.13503194  1
  O  O294  1  0.38130259  0.63076041  0.62945174  1
  O  O295  1  0.87980478  0.13545634  0.13243567  1
  O  O296  1  0.88540735  0.13298241  0.62123560  1
  O  O297  1  0.88082579  0.63341128  0.12185314  1
  O  O298  1  0.88039910  0.63281355  0.63497881  1
  O  O299  1  0.25129238  0.25590320  0.11473233  1
  O  O300  1  0.25445280  0.25508228  0.61969268  1
  O  O301  1  0.25883859  0.75549958  0.11932289  1
  O  O302  1  0.25607797  0.75607830  0.61745280  1
  O  O303  1  0.76092721  0.24877441  0.12877832  1
  O  O304  1  0.75604560  0.25779874  0.62031292  1
  O  O305  1  0.76268718  0.76234840  0.12450011  1
  O  O306  1  0.76011245  0.76445698  0.62503527  1
  O  O307  1  0.23483811  0.25392719  0.38164678  1
  O  O308  1  0.24078462  0.24628013  0.88188864  1
  O  O309  1  0.24263454  0.74450054  0.38356596  1
  O  O310  1  0.24871817  0.74607907  0.88294179  1
  O  O311  1  0.75724914  0.25360762  0.38951365  1
  O  O312  1  0.73749371  0.24932141  0.87107854  1
  O  O313  1  0.76027420  0.75509842  0.37261314  1
  O  O314  1  0.74494765  0.73848014  0.86757091  1
  O  O315  1  0.00464424  0.11113083  0.00245454  1
  O  O316  1  0.00966433  0.11755171  0.50810042  1
  O  O317  1  0.00871386  0.62321062  0.00782631  1
  O  O318  1  0.01258609  0.61105157  0.51277436  1
  O  O319  1  0.50451435  0.13162781  0.02273918  1
  O  O320  1  0.50635861  0.11402449  0.49755941  1
  O  O321  1  0.51625889  0.62195005  0.00302568  1
  O  O322  1  0.50153901  0.62068946  0.51312915  1
  O  O323  1  0.48877933  0.37594683  0.50810477  1
  O  O324  1  0.48540834  0.37284652  0.99790286  1
  O  O325  1  0.50484954  0.88832027  0.50415157  1
  O  O326  1  0.49078452  0.88408092  0.99781546  1
  O  O327  1  1.00711478  0.39265623  0.50334291  1
  O  O328  1  0.98797811  0.38006620  0.99707901  1
  O  O329  1  1.00767620  0.88833870  0.49045662  1
  O  O330  1  0.99573610  0.88331031  0.99427861  1
  O  O331  1  0.48781692  0.50505336  0.37866501  1
  O  O332  1  0.48736288  0.49746064  0.87630693  1
  O  O333  1  0.48879199  0.99377682  0.38330301  1
  O  O334  1  0.49627355  1.00139489  0.87732096  1
  O  O335  1  1.00627352  0.50321915  0.39378272  1
  O  O336  1  0.98452978  0.50227481  0.87677762  1
  O  O337  1  0.99478511  0.99393694  0.38107895  1
  O  O338  1  1.00280005  0.99203210  0.88297290  1
  O  O339  1  0.00798681  -0.00139522  0.11845429  1
  O  O340  1  0.00410074  0.00469025  0.61651824  1
  O  O341  1  0.00959313  0.50850564  0.12297739  1
  O  O342  1  0.00483021  0.50368612  0.62075840  1
  O  O343  1  0.49910522  0.01401272  0.13713833  1
  O  O344  1  0.50891013  0.00200783  0.61068558  1
  O  O345  1  0.51337236  0.50193685  0.12093963  1
  O  O346  1  0.49590157  0.51396586  0.62265484  1
  O  O347  1  0.24333701  0.37944015  0.24463833  1
  O  O348  1  0.24007253  0.37883553  0.74565410  1
  O  O349  1  0.23561433  0.87014887  0.24011764  1
  O  O350  1  0.24023126  0.86659787  0.73831385  1
  O  O351  1  0.72615851  0.36992616  0.25436559  1
  O  O352  1  0.74155364  0.38324208  0.74338101  1
  O  O353  1  0.74467000  0.88167993  0.23753409  1
  O  O354  1  0.74383957  0.88615871  0.73717889  1
  O  O355  1  0.26281656  0.13027301  0.24887771  1
  O  O356  1  0.26067193  0.12955289  0.75932337  1
  O  O357  1  0.25613660  0.61991091  0.25610522  1
  O  O358  1  0.25686257  0.61976893  0.75545706  1
  O  O359  1  0.76564491  0.11474543  0.24372996  1
  O  O360  1  0.74552061  0.11012909  0.74360963  1
  O  O361  1  0.76228549  0.62883068  0.24209921  1
  O  O362  1  0.75173024  0.61851849  0.75518512  1
  O  O363  1  0.37334449  0.11525361  0.36320890  1
  O  O364  1  0.36591632  0.13067273  0.86287495  1
  O  O365  1  0.36808838  0.61661615  0.37100634  1
  O  O366  1  0.37071057  0.61773952  0.87045226  1
  O  O367  1  0.88293128  0.11487380  0.36604678  1
  O  O368  1  0.87861729  0.12540152  0.86924945  1
  O  O369  1  0.88141179  0.62095540  0.35714389  1
  O  O370  1  0.86649434  0.62062063  0.87306874  1
  O  O371  1  0.13095129  0.38186084  0.12975693  1
  O  O372  1  0.12964132  0.37773015  0.63325614  1
  O  O373  1  0.13014496  0.87763056  0.13200593  1
  O  O374  1  0.13128707  0.87925667  0.63145514  1
  O  O375  1  0.61966469  0.37800819  0.12440487  1
  O  O376  1  0.63247422  0.37018118  0.63829527  1
  O  O377  1  0.63613370  0.87322060  0.13141475  1
  O  O378  1  0.63813971  0.88345850  0.62607760  1
  O  O379  1  0.11956324  0.25330292  0.25641964  1
  O  O380  1  0.12452020  0.25684590  0.75775739  1
  O  O381  1  0.12719572  0.75661477  0.26024616  1
  O  O382  1  0.12028428  0.75801294  0.75588259  1
  O  O383  1  0.60558186  0.26505644  0.25062376  1
  O  O384  1  0.61310680  0.25407849  0.75246626  1
  O  O385  1  0.61677159  0.75537197  0.25349982  1
  O  O386  1  0.62928987  0.76831956  0.74300918  1
  O  O387  1  0.37852633  0.24221651  0.25148070  1
  O  O388  1  0.38478761  0.25030050  0.74424111  1
  O  O389  1  0.37891352  0.74307111  0.24665361  1
  O  O390  1  0.37509689  0.74167393  0.73664747  1
  O  O391  1  0.88102344  0.24544562  0.24631188  1
  O  O392  1  0.87581029  0.25569791  0.73470506  1
  O  O393  1  0.87986331  0.73652853  0.23545985  1
  O  O394  1  0.88127745  0.74626186  0.74536116  1
  O  O395  1  0.37350869  0.48931960  0.49187428  1
  O  O396  1  0.37416434  0.49311024  0.99229588  1
  O  O397  1  0.38748479  1.00327080  0.48891431  1
  O  O398  1  0.37143672  0.99947149  0.98914176  1
  O  O399  1  0.88910854  0.50810941  0.50064990  1
  O  O400  1  0.87188027  0.49404060  0.99441103  1
  O  O401  1  0.88492867  1.00630957  0.49011282  1
  O  O402  1  0.88463320  0.99084338  1.00032600  1
  O  O403  1  0.11754350  -0.00336073  0.01251929  1
  O  O404  1  0.11785670  0.00659154  0.50391647  1
  O  O405  1  0.12718347  0.50879097  0.00625668  1
  O  O406  1  0.12548609  0.50492472  0.50900821  1
  O  O407  1  0.63523273  0.00271247  0.00907707  1
  O  O408  1  0.61626606  0.00332242  0.49918922  1
  O  O409  1  0.62451074  0.49471029  0.00991405  1
  O  O410  1  0.62573993  0.51967743  0.50149386  1
  O  O411  1  0.36705084  0.37509076  0.11581966  1
  O  O412  1  0.36920223  0.36801131  0.61841024  1
  O  O413  1  0.36401184  0.86679076  0.13624913  1
  O  O414  1  0.36687991  0.86440100  0.62947543  1
  O  O415  1  0.87935572  0.36538199  0.12010775  1
  O  O416  1  0.86349053  0.36812802  0.62551179  1
  O  O417  1  0.87156010  0.86805284  0.11731619  1
  O  O418  1  0.86498654  0.86787361  0.62469322  1
  O  O419  1  0.11900128  0.13248138  0.38387965  1
  O  O420  1  0.13364773  0.13353542  0.87683862  1
  O  O421  1  0.12890777  0.63197077  0.38019607  1
  O  O422  1  0.13231869  0.62991247  0.87971359  1
  O  O423  1  0.63001359  0.12228214  0.35173257  1
  O  O424  1  0.62509530  0.13559014  0.87071278  1
  O  O425  1  0.62539797  0.62880239  0.38620514  1
  O  O426  1  0.63358052  0.61898518  0.88985357  1
