# generated using pymatgen
data_V85Zn86O256
_symmetry_space_group_name_H-M   'P 1'
_cell_length_a   16.94633074
_cell_length_b   16.93905963
_cell_length_c   16.93430247
_cell_angle_alpha   89.97327981
_cell_angle_beta   89.99761457
_cell_angle_gamma   90.03654715
_symmetry_Int_Tables_number   1
_chemical_formula_structural   V85Zn86O256
_chemical_formula_sum   'V85 Zn86 O256'
_cell_volume   4861.07309643
_cell_formula_units_Z   1
loop_
 _symmetry_equiv_pos_site_id
 _symmetry_equiv_pos_as_xyz
  1  'x, y, z'
loop_
 _atom_site_type_symbol
 _atom_site_label
 _atom_site_symmetry_multiplicity
 _atom_site_fract_x
 _atom_site_fract_y
 _atom_site_fract_z
 _atom_site_occupancy
  V  V0  1  0.62857370  -0.00193664  0.62562920  1
  V  V1  1  0.13379430  0.62325273  0.50044223  1
  V  V2  1  0.37171283  0.50091456  0.36134399  1
  V  V3  1  0.74476778  0.62600714  0.87991906  1
  V  V4  1  0.37000246  0.25138672  0.62542716  1
  V  V5  1  0.12060608  0.12351031  0.50178987  1
  V  V6  1  0.49346370  0.62161835  0.10787345  1
  V  V7  1  0.62143128  0.25458692  0.86869382  1
  V  V8  1  0.62625970  0.86986445  0.74899340  1
  V  V9  1  0.88486499  0.12718188  0.24760912  1
  V  V10  1  0.87749842  0.49913284  0.88152228  1
  V  V11  1  0.25338018  0.76019927  0.49637323  1
  V  V12  1  0.87335000  0.25159989  0.62607005  1
  V  V13  1  -0.00042320  0.62883095  0.62184567  1
  V  V14  1  0.74896220  0.37612118  0.62830320  1
  V  V15  1  -0.00188774  0.36614586  0.36849753  1
  V  V16  1  0.62479060  0.12483337  0.50012973  1
  V  V17  1  0.01502112  0.74788300  0.75642730  1
  V  V18  1  0.49933723  0.37414189  0.37182874  1
  V  V19  1  0.37993860  0.76110497  0.61477838  1
  V  V20  1  0.62208256  -0.00079612  0.12567223  1
  V  V21  1  0.62714703  0.62540096  0.50028878  1
  V  V22  1  0.49973298  0.49809535  0.49691420  1
  V  V23  1  0.00378167  0.49709870  0.00519990  1
  V  V24  1  0.74914823  0.12590297  0.87949877  1
  V  V25  1  0.74902255  0.25052870  0.49973644  1
  V  V26  1  0.37709530  0.38503462  -0.00061271  1
  V  V27  1  0.87379060  0.12875047  0.75291139  1
  V  V28  1  0.13323122  0.37555733  0.74873336  1
  V  V29  1  0.26586116  0.61190743  0.84896447  1
  V  V30  1  0.00189445  0.11384346  0.11292506  1
  V  V31  1  0.87680158  -0.00736100  0.38136425  1
  V  V32  1  0.14019672  0.87303555  0.75625269  1
  V  V33  1  0.62688176  0.49514059  0.62870944  1
  V  V34  1  0.62625476  0.75329831  0.37280486  1
  V  V35  1  0.23828659  0.87149938  0.12063309  1
  V  V36  1  0.25477914  0.24174816  -0.00568797  1
  V  V37  1  0.24244051  -0.00101501  0.24233102  1
  V  V38  1  0.75198286  0.26523239  0.00669564  1
  V  V39  1  0.87913035  0.62298800  0.24686314  1
  V  V40  1  0.36475347  0.00318190  0.87138312  1
  V  V41  1  0.49936393  0.12647829  0.62770972  1
  V  V42  1  0.37303642  0.86757532  0.00468703  1
  V  V43  1  0.74524272  0.49363896  0.24358046  1
  V  V44  1  0.25296995  0.62018508  0.36431515  1
  V  V45  1  0.74740294  0.00072195  0.25148286  1
  V  V46  1  0.24634851  0.25456226  0.50037186  1
  V  V47  1  0.36120128  0.12248140  0.75285207  1
  V  V48  1  0.48959670  0.74029599  0.25179066  1
  V  V49  1  0.37237674  0.37399407  0.49877051  1
  V  V50  1  0.00065278  0.37564355  0.88050419  1
  V  V51  1  0.75067639  0.62654232  0.37479878  1
  V  V52  1  0.49170247  0.74569410  0.75318329  1
  V  V53  1  0.00055563  0.25220741  0.75164195  1
  V  V54  1  0.49258602  0.62054892  0.62939156  1
  V  V55  1  0.24759363  0.12541469  0.37200067  1
  V  V56  1  0.75022983  -0.00687531  0.75290072  1
  V  V57  1  0.87645425  0.50021384  0.37343512  1
  V  V58  1  0.74719567  0.87359751  0.12484495  1
  V  V59  1  0.61849492  0.74413423  0.88368903  1
  V  V60  1  0.62466213  0.25212336  0.37135677  1
  V  V61  1  0.74380147  0.74746153  -0.00100721  1
  V  V62  1  0.00103692  0.74919852  0.25391634  1
  V  V63  1  0.87487395  0.37619817  0.49947428  1
  V  V64  1  0.87818514  0.87858790  -0.00764298  1
  V  V65  1  0.13141465  -0.00354167  0.63005256  1
  V  V66  1  0.49650089  0.38642969  0.87253870  1
  V  V67  1  0.49508798  0.25105063  0.24357144  1
  V  V68  1  0.37163573  0.12616322  0.24479412  1
  V  V69  1  0.05437173  0.68022962  0.06911904  1
  V  V70  1  0.49930541  0.87512707  0.87673111  1
  V  V71  1  0.62460046  0.12639048  0.00095671  1
  V  V72  1  0.87645107  0.63321231  0.74839109  1
  V  V73  1  0.88127182  0.26049077  0.12398849  1
  V  V74  1  0.75130610  0.12547254  0.37419086  1
  V  V75  1  0.49870809  0.00091129  0.00013502  1
  V  V76  1  0.86993143  0.74364819  0.12300874  1
  V  V77  1  0.12585031  0.37032784  0.24788544  1
  V  V78  1  0.12922737  0.49786793  0.12474787  1
  V  V79  1  0.49346064  -0.00898110  0.49926641  1
  V  V80  1  0.25705388  0.37051558  0.12740979  1
  V  V81  1  0.75025021  0.49500869  0.75310588  1
  V  V82  1  0.62324509  0.50419450  0.10616613  1
  V  V83  1  0.49663995  0.12655242  0.12546842  1
  V  V84  1  0.12687681  0.49436890  0.62614394  1
  Zn  Zn85  1  0.75102969  0.76077156  0.52127008  1
  Zn  Zn86  1  0.62576049  0.37519635  0.23830532  1
  Zn  Zn87  1  0.12879501  0.24312549  0.87624745  1
  Zn  Zn88  1  0.87762506  0.86110254  0.53109230  1
  Zn  Zn89  1  0.27425627  0.48676016  0.74508252  1
  Zn  Zn90  1  -0.00118236  -0.00841531  0.50925074  1
  Zn  Zn91  1  0.19296887  0.70258528  0.95527537  1
  Zn  Zn92  1  0.36681832  0.74251989  0.12842531  1
  Zn  Zn93  1  0.11796751  0.88193890  0.25021929  1
  Zn  Zn94  1  -0.00018863  0.50088880  0.49905545  1
  Zn  Zn95  1  0.36883115  -0.00565674  0.37797471  1
  Zn  Zn96  1  0.88431184  0.00645578  0.88473407  1
  Zn  Zn97  1  0.12417342  0.75125645  0.37602791  1
  Zn  Zn98  1  0.50011713  0.25186077  0.75120456  1
  Zn  Zn99  1  0.00125304  0.12476930  0.62754235  1
  Zn  Zn100  1  0.11897543  0.24775643  0.36959920  1
  Zn  Zn101  1  0.61936361  0.87335735  0.25020098  1
  Zn  Zn102  1  0.25874153  0.88247475  0.62196519  1
  Zn  Zn103  1  0.01406632  0.87339987  0.88371437  1
  Zn  Zn104  1  0.13141696  0.10936701  -0.00742011  1
  Zn  Zn105  1  0.49002627  0.86847754  0.37601237  1
  Zn  Zn106  1  0.00147289  0.87266796  0.38282902  1
  Zn  Zn107  1  0.18325962  0.19146098  0.18056634  1
  Zn  Zn108  1  0.18589373  0.18946641  0.68712326  1
  Zn  Zn109  1  0.19066075  0.68981158  0.19033884  1
  Zn  Zn110  1  0.19313680  0.68700730  0.68190483  1
  Zn  Zn111  1  0.68854461  0.18810855  0.18614310  1
  Zn  Zn112  1  0.68768544  0.18671199  0.68963599  1
  Zn  Zn113  1  0.68182536  0.68002785  0.18819024  1
  Zn  Zn114  1  0.67983107  0.67859512  0.69652619  1
  Zn  Zn115  1  0.31059071  0.31233294  0.31015432  1
  Zn  Zn116  1  0.31539431  0.30976408  0.81597729  1
  Zn  Zn117  1  0.31177305  0.81579985  0.31453855  1
  Zn  Zn118  1  0.31501887  0.80798973  0.81466856  1
  Zn  Zn119  1  0.81293937  0.31238059  0.30662014  1
  Zn  Zn120  1  0.81338533  0.31554645  0.81945674  1
  Zn  Zn121  1  0.81061223  0.81197757  0.31361567  1
  Zn  Zn122  1  0.81584902  0.81273862  0.68440776  1
  Zn  Zn123  1  0.18554890  0.43902939  0.43624268  1
  Zn  Zn124  1  0.19159265  0.44410169  0.93493731  1
  Zn  Zn125  1  0.18173427  0.93881896  0.43386811  1
  Zn  Zn126  1  0.19199799  0.93488469  0.93578860  1
  Zn  Zn127  1  0.68816056  0.43731569  0.43481760  1
  Zn  Zn128  1  0.68345399  0.43650871  0.93431250  1
  Zn  Zn129  1  0.69162907  0.93168633  0.44262153  1
  Zn  Zn130  1  0.68918604  0.93568305  0.93715724  1
  Zn  Zn131  1  0.31285437  0.05807621  0.06315885  1
  Zn  Zn132  1  0.30991886  0.06701228  0.56255278  1
  Zn  Zn133  1  0.30868720  0.55895803  0.06594035  1
  Zn  Zn134  1  0.32497034  0.54861184  0.58551726  1
  Zn  Zn135  1  0.81299981  0.06386610  0.06501351  1
  Zn  Zn136  1  0.81343238  0.05756529  0.56674445  1
  Zn  Zn137  1  0.80996056  0.55881079  0.06075011  1
  Zn  Zn138  1  0.81406916  0.56830480  0.56248074  1
  Zn  Zn139  1  0.44003791  0.43839451  0.18010475  1
  Zn  Zn140  1  0.44232511  0.43107644  0.68905276  1
  Zn  Zn141  1  0.43214025  0.93373082  0.19374228  1
  Zn  Zn142  1  0.44027555  0.93815094  0.68972024  1
  Zn  Zn143  1  0.94227112  0.43906480  0.18769427  1
  Zn  Zn144  1  0.94006214  0.44196344  0.69022241  1
  Zn  Zn145  1  0.92889517  0.93327152  0.19235050  1
  Zn  Zn146  1  0.95273156  0.94567972  0.71122589  1
  Zn  Zn147  1  0.06006375  0.06250549  0.31324288  1
  Zn  Zn148  1  0.06687624  0.05252483  0.82393357  1
  Zn  Zn149  1  0.06434366  0.56019196  0.31017788  1
  Zn  Zn150  1  0.07545862  0.56683670  0.81949633  1
  Zn  Zn151  1  0.56119180  0.06346702  0.31419875  1
  Zn  Zn152  1  0.55935080  0.06382766  0.81348341  1
  Zn  Zn153  1  0.56155214  0.56343702  0.31045890  1
  Zn  Zn154  1  0.56034476  0.56206844  0.81304905  1
  Zn  Zn155  1  0.43568423  0.18348797  0.43505297  1
  Zn  Zn156  1  0.43336217  0.19118366  0.93887002  1
  Zn  Zn157  1  0.43542049  0.68492610  0.43799532  1
  Zn  Zn158  1  0.39132675  0.66237892  0.95256944  1
  Zn  Zn159  1  0.93580875  0.18464167  0.43827451  1
  Zn  Zn160  1  0.93764470  0.19180114  0.94010342  1
  Zn  Zn161  1  0.93506652  0.69198908  0.44338355  1
  Zn  Zn162  1  0.93075589  0.69199354  0.93130878  1
  Zn  Zn163  1  0.06552447  0.30938152  0.06075404  1
  Zn  Zn164  1  0.05955401  0.31265718  0.56104529  1
  Zn  Zn165  1  0.05810208  0.93738168  0.06277351  1
  Zn  Zn166  1  0.06339448  0.81210541  0.56493425  1
  Zn  Zn167  1  0.56190772  0.31635036  0.05948656  1
  Zn  Zn168  1  0.56116687  0.31242883  0.56201978  1
  Zn  Zn169  1  0.55624716  0.81095419  0.06691812  1
  Zn  Zn170  1  0.57035529  0.81067519  0.56544865  1
  O  O171  1  0.10388433  0.13076339  0.12035001  1
  O  O172  1  0.12558104  0.11981249  0.61764445  1
  O  O173  1  0.12312851  0.62076678  0.12197263  1
  O  O174  1  0.11936058  0.61673136  0.61786043  1
  O  O175  1  0.61879376  0.11867141  0.12003614  1
  O  O176  1  0.61737471  0.12010074  0.62217133  1
  O  O177  1  0.61073781  0.61418764  0.12563151  1
  O  O178  1  0.61818339  0.61380658  0.61761358  1
  O  O179  1  0.37947974  0.37972329  0.38007342  1
  O  O180  1  0.38698290  0.37134969  0.88342121  1
  O  O181  1  0.37777071  0.88228823  0.37445792  1
  O  O182  1  0.37996468  0.88398395  0.88031393  1
  O  O183  1  0.87923915  0.38094189  0.37602527  1
  O  O184  1  0.88847262  0.38660106  0.87132147  1
  O  O185  1  0.87553224  0.88954352  0.36698183  1
  O  O186  1  0.86910080  0.87103253  0.89390741  1
  O  O187  1  0.24816938  0.01368263  0.36994658  1
  O  O188  1  0.26666931  -0.00101249  0.87427966  1
  O  O189  1  0.25723830  0.51128862  0.37969377  1
  O  O190  1  0.25582681  0.50240953  0.86066424  1
  O  O191  1  0.75324838  0.00664482  0.36836098  1
  O  O192  1  0.75051707  0.00988720  0.86923549  1
  O  O193  1  0.75957321  0.50426014  0.36733877  1
  O  O194  1  0.75599940  0.50321554  0.87125808  1
  O  O195  1  0.24070299  0.48554661  0.12048654  1
  O  O196  1  0.22829816  0.49476479  0.61844576  1
  O  O197  1  0.25365305  0.98681042  0.13151074  1
  O  O198  1  0.23847306  0.99991967  0.61889852  1
  O  O199  1  0.73355396  0.50839547  0.13023675  1
  O  O200  1  0.74611873  0.49671316  0.63271678  1
  O  O201  1  0.74360070  0.99670236  0.13326807  1
  O  O202  1  0.73452009  1.01170186  0.63734713  1
  O  O203  1  0.00793462  0.37769149  0.25868121  1
  O  O204  1  0.00217489  0.36529902  0.75663709  1
  O  O205  1  -0.00171656  0.86223672  0.24880333  1
  O  O206  1  0.01997965  0.85485549  0.74520448  1
  O  O207  1  0.50024948  0.36600382  0.25381666  1
  O  O208  1  0.49675776  0.36996823  0.76594166  1
  O  O209  1  0.50199915  0.85932605  0.25001236  1
  O  O210  1  0.50840742  0.86831841  0.75639471  1
  O  O211  1  0.49147607  0.13014964  0.24706916  1
  O  O212  1  0.49567796  0.12566827  0.73728440  1
  O  O213  1  0.50087577  0.63744487  0.24745239  1
  O  O214  1  0.50794143  0.63333687  0.73894952  1
  O  O215  1  0.98801286  0.12300879  0.24183456  1
  O  O216  1  0.98873860  0.13981279  0.75196841  1
  O  O217  1  0.98474977  0.62745474  0.25401056  1
  O  O218  1  0.99884977  0.63028911  0.74779051  1
  O  O219  1  0.36124381  0.25656371  -0.00027509  1
  O  O220  1  0.36690831  0.25056533  0.50397595  1
  O  O221  1  0.38458075  0.76610707  0.00485102  1
  O  O222  1  0.36799234  0.75160989  0.50299872  1
  O  O223  1  0.86120494  0.24718307  0.01112836  1
  O  O224  1  0.86759579  0.25482858  0.50536759  1
  O  O225  1  0.86638695  0.75506931  0.00745148  1
  O  O226  1  0.86454369  0.74616851  0.50713127  1
  O  O227  1  0.13115090  0.24435825  0.49827094  1
  O  O228  1  0.14207134  0.25245945  0.99796616  1
  O  O229  1  0.13421900  0.74045687  0.49971305  1
  O  O230  1  0.10846724  0.74539242  1.01646361  1
  O  O231  1  0.62963056  0.24468042  0.49318864  1
  O  O232  1  0.63632131  0.24518629  0.99724289  1
  O  O233  1  0.62799503  0.74133402  0.49275856  1
  O  O234  1  0.62401296  0.75593172  0.98913721  1
  O  O235  1  0.50774117  0.24368212  0.13689223  1
  O  O236  1  0.49509198  0.24120453  0.62624584  1
  O  O237  1  0.49971089  0.73673936  0.13560130  1
  O  O238  1  0.49958217  0.74361398  0.63090996  1
  O  O239  1  0.98482487  0.24043471  0.11652740  1
  O  O240  1  0.99085821  0.24954443  0.63431135  1
  O  O241  1  0.98977874  0.73664229  0.12998247  1
  O  O242  1  1.00748374  0.73439745  0.63711080  1
  O  O243  1  -0.00251838  0.26200588  0.37737995  1
  O  O244  1  -0.00266378  0.26092188  0.86981590  1
  O  O245  1  -0.00089904  0.74872633  0.36558626  1
  O  O246  1  -0.00003745  0.75113832  0.86005095  1
  O  O247  1  0.50562205  0.25119691  0.36527886  1
  O  O248  1  0.50865938  0.25240985  0.87414311  1
  O  O249  1  0.50611838  0.74627313  0.36651584  1
  O  O250  1  0.50373863  0.75659157  0.86753857  1
  O  O251  1  0.24100183  0.13305197  0.49093542  1
  O  O252  1  0.24990169  0.13809488  1.01102668  1
  O  O253  1  0.23975495  0.62892936  0.49692333  1
  O  O254  1  0.27956587  0.62999770  0.98475943  1
  O  O255  1  0.74395157  0.13071360  0.49572521  1
  O  O256  1  0.74593640  0.12853491  0.99110424  1
  O  O257  1  0.73721612  0.62140686  0.49467041  1
  O  O258  1  0.75384099  0.63039806  0.98734987  1
  O  O259  1  0.26193809  0.37006919  0.00236991  1
  O  O260  1  0.25356912  0.36118249  0.49112226  1
  O  O261  1  0.25718172  0.87606890  0.01252507  1
  O  O262  1  0.24424098  0.86284315  0.49884850  1
  O  O263  1  0.74954339  0.36340561  -0.00285101  1
  O  O264  1  0.75571910  0.36974073  0.50480806  1
  O  O265  1  0.75348856  0.86615974  0.00720029  1
  O  O266  1  0.76399767  0.87471880  0.50188596  1
  O  O267  1  0.11622662  0.49111669  0.23348339  1
  O  O268  1  0.11819021  0.48796408  0.74134221  1
  O  O269  1  0.13826835  1.00440638  0.25198405  1
  O  O270  1  0.12841839  0.98084031  0.74548061  1
  O  O271  1  0.63363397  0.49951457  0.24811405  1
  O  O272  1  0.63672586  0.50538887  0.74024110  1
  O  O273  1  0.63122799  0.99950365  0.24643519  1
  O  O274  1  0.62869329  0.99439270  0.74586294  1
  O  O275  1  0.36263940  0.00961928  0.25229621  1
  O  O276  1  0.38227094  0.00613445  0.76269682  1
  O  O277  1  0.37998645  0.49376921  0.26269486  1
  O  O278  1  0.36863644  0.51113778  0.68907982  1
  O  O279  1  0.86501692  0.00890224  0.25599297  1
  O  O280  1  0.86152615  0.01943963  0.74924413  1
  O  O281  1  0.86887348  0.50606596  0.25186390  1
  O  O282  1  0.87134429  0.50821460  0.76209751  1
  O  O283  1  0.11546802  0.37639352  0.36649187  1
  O  O284  1  0.11430296  0.37585476  0.86591878  1
  O  O285  1  0.12014917  0.86995557  0.36777754  1
  O  O286  1  0.13172608  0.86813380  0.86094830  1
  O  O287  1  0.61837233  0.36647520  0.37298937  1
  O  O288  1  0.60881457  0.36617562  0.88441284  1
  O  O289  1  0.62139770  0.86195811  0.37526616  1
  O  O290  1  0.62006062  0.86890587  0.86702185  1
  O  O291  1  0.38064207  0.12093756  0.13706827  1
  O  O292  1  0.38158281  0.13166714  0.63032334  1
  O  O293  1  0.38830281  0.62374151  0.12581874  1
  O  O294  1  0.39292258  0.64255891  0.60819970  1
  O  O295  1  0.88226573  0.12998809  0.13040561  1
  O  O296  1  0.87309277  0.13426781  0.63529108  1
  O  O297  1  0.86511080  0.63534123  0.13183513  1
  O  O298  1  0.88682936  0.61397970  0.63689730  1
  O  O299  1  0.24673986  0.26443029  0.11498569  1
  O  O300  1  0.25856381  0.24465195  0.61339330  1
  O  O301  1  0.25159230  0.76495122  0.13030726  1
  O  O302  1  0.26442782  0.75012075  0.61355081  1
  O  O303  1  0.75684534  0.24676093  0.11257563  1
  O  O304  1  0.75224981  0.25748254  0.62185520  1
  O  O305  1  0.75158865  0.75141520  0.12118415  1
  O  O306  1  0.73831837  0.75009196  0.63618861  1
  O  O307  1  0.24780202  0.23879207  0.37972054  1
  O  O308  1  0.24954779  0.25095359  0.88942289  1
  O  O309  1  0.24976183  0.73677804  0.38055788  1
  O  O310  1  0.25963961  0.72628001  0.86560364  1
  O  O311  1  0.74499217  0.24561674  0.37774594  1
  O  O312  1  0.74488558  0.24621947  0.88646094  1
  O  O313  1  0.74034370  0.74065984  0.36960687  1
  O  O314  1  0.73616969  0.73956811  0.88186559  1
  O  O315  1  -0.00803085  0.11933871  0.01153811  1
  O  O316  1  0.01233748  0.12800790  0.50297878  1
  O  O317  1  -0.00066563  0.62376109  0.00178359  1
  O  O318  1  0.01096630  0.62453365  0.50671412  1
  O  O319  1  0.50326961  0.12131089  0.00635403  1
  O  O320  1  0.50589701  0.11983468  0.50996245  1
  O  O321  1  0.49220096  0.63141375  0.00947277  1
  O  O322  1  0.51156057  0.61915916  0.50428136  1
  O  O323  1  0.49488168  0.37778004  0.49064029  1
  O  O324  1  0.48490323  0.36574964  0.99014626  1
  O  O325  1  0.50781336  0.88934869  0.50240538  1
  O  O326  1  0.49345560  0.88328329  0.99784790  1
  O  O327  1  0.99095421  0.37787714  0.49058065  1
  O  O328  1  1.00381725  0.38308271  0.99138131  1
  O  O329  1  0.99257500  0.87417367  0.50092509  1
  O  O330  1  0.98326375  0.87099817  1.00003640  1
  O  O331  1  0.49368063  0.49553354  0.37949329  1
  O  O332  1  0.50433138  0.48534044  0.87440253  1
  O  O333  1  0.50284502  1.00175811  0.39200502  1
  O  O334  1  0.49808002  0.99293430  0.88284005  1
  O  O335  1  0.98676008  0.49365584  0.37318562  1
  O  O336  1  0.99621118  0.49832118  0.88500450  1
  O  O337  1  0.98895167  0.99964382  0.37759576  1
  O  O338  1  0.98456631  0.97750875  0.83784934  1
  O  O339  1  -0.00686721  0.00912786  0.12927895  1
  O  O340  1  0.01720617  0.00712974  0.62976571  1
  O  O341  1  0.00393775  0.49932969  0.11170378  1
  O  O342  1  0.00670107  0.51059416  0.62329288  1
  O  O343  1  0.50310225  0.00502851  0.12113981  1
  O  O344  1  0.50893356  0.00607485  0.61781437  1
  O  O345  1  0.50863718  0.51395784  0.12566842  1
  O  O346  1  0.51175266  0.50401261  0.61782354  1
  O  O347  1  0.24269167  0.37257612  0.24007961  1
  O  O348  1  0.23730499  0.37013485  0.75213711  1
  O  O349  1  0.24732356  0.88292932  0.23964244  1
  O  O350  1  0.24270120  0.86570923  0.74343022  1
  O  O351  1  0.74833281  0.38973089  0.25086390  1
  O  O352  1  0.75564266  0.38786905  0.74838390  1
  O  O353  1  0.74748301  0.88666906  0.24481966  1
  O  O354  1  0.74180556  0.88910888  0.75706183  1
  O  O355  1  0.25366820  0.12415702  0.25150302  1
  O  O356  1  0.26221486  0.12700445  0.74662518  1
  O  O357  1  0.24737695  0.62443567  0.26536890  1
  O  O358  1  0.24833733  0.61200216  0.74615346  1
  O  O359  1  0.75555699  0.11528679  0.25235740  1
  O  O360  1  0.75243113  0.12296906  0.76375832  1
  O  O361  1  0.75881115  0.61618946  0.25531395  1
  O  O362  1  0.75828048  0.61443546  0.75950029  1
  O  O363  1  0.36576850  0.12086492  0.36477951  1
  O  O364  1  0.38329894  0.11191156  0.86690050  1
  O  O365  1  0.36144990  0.61509599  0.38112634  1
  O  O366  1  0.36917014  0.61326544  0.85364880  1
  O  O367  1  0.86908409  0.12127548  0.36559042  1
  O  O368  1  0.86679471  0.12622417  0.87158492  1
  O  O369  1  0.87010825  0.61663441  0.36837660  1
  O  O370  1  0.86634168  0.61948357  0.86734323  1
  O  O371  1  0.13041706  0.38000151  0.13051400  1
  O  O372  1  0.11287765  0.38179105  0.63579806  1
  O  O373  1  0.13533160  0.87670203  0.12887182  1
  O  O374  1  0.13181555  0.88125556  0.63242782  1
  O  O375  1  0.61442993  0.39687855  0.12282185  1
  O  O376  1  0.63082279  0.38714873  0.61934455  1
  O  O377  1  0.63003868  0.88160220  0.12620857  1
  O  O378  1  0.62023322  0.88437697  0.63996694  1
  O  O379  1  0.12550473  0.26433734  0.25041899  1
  O  O380  1  0.11518895  0.25684380  0.75083423  1
  O  O381  1  0.10826673  0.74429846  0.24949601  1
  O  O382  1  0.12197227  0.75483166  0.74439222  1
  O  O383  1  0.61954845  0.25261438  0.25480008  1
  O  O384  1  0.62649321  0.24830752  0.76526979  1
  O  O385  1  0.61687323  0.74883807  0.25850350  1
  O  O386  1  0.61565029  0.75624681  0.76094664  1
  O  O387  1  0.38471642  0.24055803  0.25485231  1
  O  O388  1  0.37617250  0.24182221  0.74195821  1
  O  O389  1  0.38681494  0.74938116  0.24977742  1
  O  O390  1  0.38902553  0.75489814  0.73871328  1
  O  O391  1  0.86466182  0.23939228  0.23348168  1
  O  O392  1  0.87658898  0.24477793  0.74883338  1
  O  O393  1  0.87976168  0.74317871  0.24288667  1
  O  O394  1  0.88743855  0.73607475  0.74938291  1
  O  O395  1  0.38222041  0.49052266  0.49672795  1
  O  O396  1  0.37591987  0.48348309  1.00144745  1
  O  O397  1  0.39132141  1.00811086  0.50252925  1
  O  O398  1  0.38036334  0.99441330  0.98957967  1
  O  O399  1  0.87382739  0.49524531  0.48928581  1
  O  O400  1  0.88284611  0.50608326  0.98880826  1
  O  O401  1  0.87969109  1.00914989  0.48964694  1
  O  O402  1  0.86590947  0.98409770  1.00064913  1
  O  O403  1  0.11870121  -0.00421231  -0.00898643  1
  O  O404  1  0.12161994  0.00856164  0.50686041  1
  O  O405  1  0.11776742  0.49517348  0.01185392  1
  O  O406  1  0.11946778  0.50531667  0.50490870  1
  O  O407  1  0.61950116  0.00600739  0.00463183  1
  O  O408  1  0.61978497  0.00546957  0.50868530  1
  O  O409  1  0.62903300  0.50581359  0.00760693  1
  O  O410  1  0.62109197  0.50567451  0.50403884  1
  O  O411  1  0.36985371  0.37584683  0.11351293  1
  O  O412  1  0.38418494  0.35630191  0.61447867  1
  O  O413  1  0.36632283  0.87367650  0.11797287  1
  O  O414  1  0.37896033  0.86650749  0.62448917  1
  O  O415  1  0.87990370  0.35937391  0.13040270  1
  O  O416  1  0.86937320  0.37237672  0.62087293  1
  O  O417  1  0.86618685  0.86167148  0.12058978  1
  O  O418  1  0.87889912  0.89283079  0.64304773  1
  O  O419  1  0.12955020  0.12828616  0.38165726  1
  O  O420  1  0.11422344  0.13082494  0.88078569  1
  O  O421  1  0.13529618  0.62182021  0.38166741  1
  O  O422  1  0.15293959  0.61752253  0.88150430  1
  O  O423  1  0.63106400  0.13318690  0.37908740  1
  O  O424  1  0.63019370  0.13239255  0.88162185  1
  O  O425  1  0.62860430  0.63198069  0.38250811  1
  O  O426  1  0.63180616  0.63275794  0.86990805  1
