# generated using pymatgen
data_V85Zn86O256
_symmetry_space_group_name_H-M   'P 1'
_cell_length_a   16.96346936
_cell_length_b   16.96589743
_cell_length_c   16.96505305
_cell_angle_alpha   89.93596069
_cell_angle_beta   90.00571964
_cell_angle_gamma   89.89114308
_symmetry_Int_Tables_number   1
_chemical_formula_structural   V85Zn86O256
_chemical_formula_sum   'V85 Zn86 O256'
_cell_volume   4882.53854494
_cell_formula_units_Z   1
loop_
 _symmetry_equiv_pos_site_id
 _symmetry_equiv_pos_as_xyz
  1  'x, y, z'
loop_
 _atom_site_type_symbol
 _atom_site_label
 _atom_site_symmetry_multiplicity
 _atom_site_fract_x
 _atom_site_fract_y
 _atom_site_fract_z
 _atom_site_occupancy
  V  V0  1  0.37736166  0.74728172  0.62077755  1
  V  V1  1  0.75383942  0.62322090  0.37136008  1
  V  V2  1  0.74852172  0.00037319  0.75146629  1
  V  V3  1  0.62193622  0.51165342  0.12275571  1
  V  V4  1  0.62148488  0.13207923  -0.00237622  1
  V  V5  1  0.75244201  0.74865256  0.49770488  1
  V  V6  1  0.38175227  0.86103804  0.01081329  1
  V  V7  1  0.62419871  0.25169291  0.37310222  1
  V  V8  1  -0.00302374  0.24851242  0.24573594  1
  V  V9  1  0.87940543  0.74790498  0.62253960  1
  V  V10  1  0.12718123  0.74870639  0.37836128  1
  V  V11  1  0.37049302  0.87653429  0.49585868  1
  V  V12  1  0.62356838  0.37761925  0.24729198  1
  V  V13  1  -0.00324062  0.37276741  0.37369084  1
  V  V14  1  0.62579316  0.63889577  -0.00925447  1
  V  V15  1  -0.00746394  0.72862005  0.25813609  1
  V  V16  1  0.24671763  0.87475685  0.62337521  1
  V  V17  1  0.35708761  0.15169462  0.78797351  1
  V  V18  1  0.50269366  0.75426015  0.75321592  1
  V  V19  1  0.87668538  0.73413397  0.12360556  1
  V  V20  1  -0.00096117  0.00008113  0.50119002  1
  V  V21  1  0.00080242  0.49739099  0.50965456  1
  V  V22  1  0.36776331  0.62067161  0.24502098  1
  V  V23  1  0.50217152  0.62606126  0.62657369  1
  V  V24  1  0.74936943  0.00149419  0.24976735  1
  V  V25  1  0.12707184  0.87269857  0.75235880  1
  V  V26  1  -0.00559504  0.50942249  0.00036847  1
  V  V27  1  0.44132136  0.43520850  0.83069990  1
  V  V28  1  0.50062649  0.25242565  0.75307861  1
  V  V29  1  0.11735859  0.00148231  0.11510396  1
  V  V30  1  0.01173630  0.24246259  0.75913607  1
  V  V31  1  0.88299364  0.24794925  0.62686822  1
  V  V32  1  0.10302832  0.88106460  0.26071865  1
  V  V33  1  0.74255692  0.49483304  0.75509886  1
  V  V34  1  0.24820989  0.36361512  0.11700336  1
  V  V35  1  0.62688596  0.61894397  0.49725977  1
  V  V36  1  0.74770259  0.87340821  0.62566628  1
  V  V37  1  0.49979681  0.87623243  0.37143865  1
  V  V38  1  0.62472635  0.87497963  0.24908975  1
  V  V39  1  0.49431202  0.12485042  0.62659138  1
  V  V40  1  0.38109178  0.36873744  0.01223720  1
  V  V41  1  0.49993304  0.00080547  0.49999612  1
  V  V42  1  0.75049953  0.12655911  0.37430285  1
  V  V43  1  0.14164454  0.13321132  -0.01131347  1
  V  V44  1  0.22236917  0.85181366  0.10071980  1
  V  V45  1  0.12442039  0.51700803  0.11699093  1
  V  V46  1  0.49436137  0.38259513  0.37287113  1
  V  V47  1  0.62095949  -0.00405939  0.63393337  1
  V  V48  1  -0.00165511  0.12376675  0.11152785  1
  V  V49  1  0.37355407  0.00119758  0.37175859  1
  V  V50  1  0.87914740  0.61722223  0.75385493  1
  V  V51  1  0.49230202  0.50976773  0.00601527  1
  V  V52  1  0.74897280  0.12838441  0.87231535  1
  V  V53  1  0.12109257  0.24738284  0.37491344  1
  V  V54  1  0.24703428  0.62816915  0.90348232  1
  V  V55  1  0.49346514  0.25143589  0.24236053  1
  V  V56  1  0.88202290  0.00225014  0.88538862  1
  V  V57  1  0.74259662  0.37285164  0.62741801  1
  V  V58  1  0.62370675  0.12478040  0.50052139  1
  V  V59  1  0.36167635  -0.01490528  0.87335439  1
  V  V60  1  0.00654521  0.74680734  0.75565256  1
  V  V61  1  0.61869987  0.26511392  0.87128984  1
  V  V62  1  0.67367816  0.81248569  0.80778307  1
  V  V63  1  0.75483545  0.87167528  0.11846174  1
  V  V64  1  0.87917033  0.87478970  0.49106146  1
  V  V65  1  0.62706798  0.75058892  0.37260789  1
  V  V66  1  0.87382527  0.37243678  0.50126333  1
  V  V67  1  0.36660817  0.38106733  0.49152127  1
  V  V68  1  0.87512896  0.25611069  0.11736422  1
  V  V69  1  0.00580448  0.87468804  0.88523094  1
  V  V70  1  0.49551045  0.74185841  0.23846808  1
  V  V71  1  0.37432651  0.24816096  0.61729824  1
  V  V72  1  0.49968916  0.00255787  -0.00633314  1
  V  V73  1  0.88113312  0.12160887  0.74494584  1
  V  V74  1  0.24370735  -0.00733602  0.24685021  1
  V  V75  1  0.62507809  0.00432000  0.12360130  1
  V  V76  1  0.11852390  0.12577247  0.50901372  1
  V  V77  1  0.12530265  0.38500433  0.76213896  1
  V  V78  1  0.75071016  0.25703537  -0.00417759  1
  V  V79  1  0.12594008  0.37561766  0.24418662  1
  V  V80  1  0.24764486  0.12561782  0.37526143  1
  V  V81  1  0.37026823  0.12635040  0.23796184  1
  V  V82  1  0.75312897  0.37979111  0.11740135  1
  V  V83  1  0.75673813  0.50359409  0.24709583  1
  V  V84  1  0.87968924  0.50377158  0.37070993  1
  Zn  Zn85  1  0.30387911  0.56659399  0.40820300  1
  Zn  Zn86  1  0.48878209  0.50732917  0.49258372  1
  Zn  Zn87  1  0.62272483  0.49416516  0.62405118  1
  Zn  Zn88  1  0.74992131  0.24857181  0.50265674  1
  Zn  Zn89  1  0.24647631  0.25022440  0.50088540  1
  Zn  Zn90  1  0.25030344  0.37739984  0.63421866  1
  Zn  Zn91  1  0.25257803  0.49835643  0.25119437  1
  Zn  Zn92  1  0.49125674  0.13145086  0.11842186  1
  Zn  Zn93  1  0.13330713  0.61573240  0.49593713  1
  Zn  Zn94  1  0.11724114  0.00263938  0.62928239  1
  Zn  Zn95  1  0.00262232  0.62063065  0.62556909  1
  Zn  Zn96  1  0.13566622  0.49965763  0.62912820  1
  Zn  Zn97  1  -0.00127845  0.37051201  0.88883544  1
  Zn  Zn98  1  0.87346455  0.49088754  0.88248635  1
  Zn  Zn99  1  0.27507133  0.53599155  0.75914148  1
  Zn  Zn100  1  0.75187952  0.63703257  0.87676980  1
  Zn  Zn101  1  0.87363728  0.12642735  0.24763514  1
  Zn  Zn102  1  0.50639500  0.87079752  0.87276594  1
  Zn  Zn103  1  0.87835590  -0.00203083  0.37218793  1
  Zn  Zn104  1  0.25504975  0.73933669  0.49071409  1
  Zn  Zn105  1  0.87765280  0.86894164  0.00241031  1
  Zn  Zn106  1  0.25116248  0.00051764  0.75038842  1
  Zn  Zn107  1  0.18540706  0.18679314  0.18286320  1
  Zn  Zn108  1  0.19262502  0.18807370  0.68761157  1
  Zn  Zn109  1  0.18681539  0.69387044  0.19272524  1
  Zn  Zn110  1  0.18238074  0.68376394  0.67543396  1
  Zn  Zn111  1  0.68568282  0.19123678  0.18525994  1
  Zn  Zn112  1  0.68652187  0.18799403  0.68774588  1
  Zn  Zn113  1  0.68991771  0.68848947  0.18546471  1
  Zn  Zn114  1  0.69453556  0.67622866  0.68143297  1
  Zn  Zn115  1  0.31012492  0.31146780  0.30826295  1
  Zn  Zn116  1  0.30275918  0.31503220  0.82281403  1
  Zn  Zn117  1  0.30927341  0.80880833  0.30163596  1
  Zn  Zn118  1  0.29423511  0.75118160  0.78620063  1
  Zn  Zn119  1  0.81186501  0.31489065  0.30803610  1
  Zn  Zn120  1  0.81662431  0.31374821  0.81269501  1
  Zn  Zn121  1  0.81416259  0.81204699  0.30734246  1
  Zn  Zn122  1  0.83771283  0.81485574  0.80998519  1
  Zn  Zn123  1  0.18242359  0.43195952  0.43588126  1
  Zn  Zn124  1  0.19039756  0.44525681  0.93685628  1
  Zn  Zn125  1  0.18244112  0.93713557  0.43454435  1
  Zn  Zn126  1  0.19212507  0.81646201  0.93312437  1
  Zn  Zn127  1  0.68976498  0.43513978  0.43592616  1
  Zn  Zn128  1  0.68285890  0.44425937  0.93803279  1
  Zn  Zn129  1  0.68894023  0.93860266  0.43961253  1
  Zn  Zn130  1  0.69188612  0.94487715  0.94190191  1
  Zn  Zn131  1  0.30605553  0.04543177  0.06015284  1
  Zn  Zn132  1  0.30807499  0.06109230  0.56227278  1
  Zn  Zn133  1  0.31346347  0.56269468  0.07415169  1
  Zn  Zn134  1  0.30948444  0.56208023  0.57620459  1
  Zn  Zn135  1  0.81013737  0.06823541  0.06267019  1
  Zn  Zn136  1  0.81193162  0.06110474  0.56361995  1
  Zn  Zn137  1  0.80918625  0.56664233  0.05746582  1
  Zn  Zn138  1  0.81529358  0.55894198  0.56451829  1
  Zn  Zn139  1  0.43585059  0.44548518  0.18666329  1
  Zn  Zn140  1  0.43807688  0.43669658  0.66762755  1
  Zn  Zn141  1  0.43979010  0.94086529  0.18431763  1
  Zn  Zn142  1  0.43835496  0.92772974  0.69121403  1
  Zn  Zn143  1  0.94101272  0.44116625  0.18017399  1
  Zn  Zn144  1  0.93642997  0.42798595  0.69691770  1
  Zn  Zn145  1  0.93308867  0.94059017  0.18473917  1
  Zn  Zn146  1  0.94021958  0.93655770  0.68558450  1
  Zn  Zn147  1  0.05747460  0.06387703  0.31545814  1
  Zn  Zn148  1  0.06788268  0.05819958  0.81718093  1
  Zn  Zn149  1  0.07589733  0.55626330  0.31819765  1
  Zn  Zn150  1  0.07359079  0.56921536  0.82860652  1
  Zn  Zn151  1  0.56101109  0.06571895  0.31008287  1
  Zn  Zn152  1  0.55467812  0.07082087  0.81323061  1
  Zn  Zn153  1  0.56354312  0.56405411  0.30948704  1
  Zn  Zn154  1  0.56743304  0.57271164  0.81106467  1
  Zn  Zn155  1  0.43623098  0.18977971  0.43200684  1
  Zn  Zn156  1  0.42540899  0.18973184  0.93683428  1
  Zn  Zn157  1  0.44211925  0.69069971  0.43249147  1
  Zn  Zn158  1  0.42903013  0.68067477  0.93278279  1
  Zn  Zn159  1  0.93660724  0.18450030  0.43868027  1
  Zn  Zn160  1  0.93658731  0.18818394  0.93597936  1
  Zn  Zn161  1  0.94274870  0.68373632  0.43546803  1
  Zn  Zn162  1  0.94235310  0.68208572  0.93958589  1
  Zn  Zn163  1  0.06420810  0.31388627  0.05485605  1
  Zn  Zn164  1  0.06459478  0.31567568  0.56927071  1
  Zn  Zn165  1  0.05233967  0.80777379  0.07357664  1
  Zn  Zn166  1  0.06110462  0.81374570  0.56055416  1
  Zn  Zn167  1  0.56186111  0.31957567  0.06141102  1
  Zn  Zn168  1  0.55848303  0.31298302  0.55696862  1
  Zn  Zn169  1  0.56351862  0.81686223  0.06305621  1
  Zn  Zn170  1  0.56366151  0.81249794  0.55957000  1
  O  O171  1  0.11452179  0.11830781  0.12552299  1
  O  O172  1  0.13513582  0.12204995  0.61179393  1
  O  O173  1  0.12893868  0.61443552  0.13469969  1
  O  O174  1  0.11820034  0.61585540  0.61467085  1
  O  O175  1  0.62557953  0.12508904  0.11056081  1
  O  O176  1  0.61624190  0.11887887  0.62009575  1
  O  O177  1  0.63225903  0.61534669  0.11683761  1
  O  O178  1  0.62107530  0.62252758  0.61195547  1
  O  O179  1  0.38193855  0.36872533  0.38006400  1
  O  O180  1  0.37339333  0.38350072  0.89007661  1
  O  O181  1  0.37757528  0.88046496  0.37844942  1
  O  O182  1  0.38668832  0.88274391  0.89079985  1
  O  O183  1  0.87844021  0.38118416  0.37932848  1
  O  O184  1  0.88602111  0.37909311  0.86641047  1
  O  O185  1  0.86405667  0.87728314  0.38849484  1
  O  O186  1  0.88422884  0.88552206  0.88252951  1
  O  O187  1  0.25122166  0.01181657  0.36980441  1
  O  O188  1  0.26403804  -0.00893142  0.87344064  1
  O  O189  1  0.22523058  0.50281614  0.36164895  1
  O  O190  1  0.24095185  0.51902936  0.86849537  1
  O  O191  1  0.74796395  0.00955487  0.36699007  1
  O  O192  1  0.75692051  0.00768213  0.86830553  1
  O  O193  1  0.75906707  0.50091562  0.36599812  1
  O  O194  1  0.75160284  0.49919154  0.86299644  1
  O  O195  1  0.23583612  0.49067453  0.13133757  1
  O  O196  1  0.25496872  0.49599638  0.64858614  1
  O  O197  1  0.23683744  0.98124895  0.13198639  1
  O  O198  1  0.25206235  0.98461122  0.62821074  1
  O  O199  1  0.74688631  0.49521702  0.12942262  1
  O  O200  1  0.74958622  0.49023175  0.63358692  1
  O  O201  1  0.74571239  0.99700086  0.13229206  1
  O  O202  1  0.74225787  0.99419120  0.63314398  1
  O  O203  1  0.00436894  0.36380674  0.24984361  1
  O  O204  1  0.01281910  0.35887561  0.75201328  1
  O  O205  1  0.00218846  0.87921008  0.25571894  1
  O  O206  1  0.00600213  0.86746589  0.75591450  1
  O  O207  1  0.50078354  0.36997705  0.25391432  1
  O  O208  1  0.49048778  0.37431499  0.76142443  1
  O  O209  1  0.50553992  0.87140233  0.25410192  1
  O  O210  1  0.51348056  0.86351131  0.75069453  1
  O  O211  1  0.48883015  0.13280264  0.24746523  1
  O  O212  1  0.48202032  0.13690583  0.74591752  1
  O  O213  1  0.50026869  0.63830677  0.25119063  1
  O  O214  1  0.50883119  0.63371069  0.73291224  1
  O  O215  1  0.99785886  0.13852009  0.24440347  1
  O  O216  1  0.99525202  0.13240336  0.75279637  1
  O  O217  1  1.00099897  0.63105275  0.25801633  1
  O  O218  1  0.99495900  0.63003039  0.75115011  1
  O  O219  1  0.38846077  0.27010699  0.01075544  1
  O  O220  1  0.37420642  0.25761933  0.50276468  1
  O  O221  1  0.39433947  0.76318931  0.00614781  1
  O  O222  1  0.37832369  0.76125900  0.50279445  1
  O  O223  1  0.86702468  0.24684403  0.00954623  1
  O  O224  1  0.87367095  0.25307064  0.50964061  1
  O  O225  1  0.88214904  0.74771546  0.01898756  1
  O  O226  1  0.87361481  0.75488323  0.50449564  1
  O  O227  1  0.12228875  0.24312766  0.49429783  1
  O  O228  1  0.12531861  0.23215272  1.00506547  1
  O  O229  1  0.12415685  0.75157363  0.48660290  1
  O  O230  1  0.15666658  0.78698102  1.03799800  1
  O  O231  1  0.62494274  0.24283321  0.49078501  1
  O  O232  1  0.62800742  0.24814869  0.99320766  1
  O  O233  1  0.63279850  0.74122102  0.49279023  1
  O  O234  1  0.62154833  0.73665092  1.00680118  1
  O  O235  1  0.50746572  0.25027439  0.13895773  1
  O  O236  1  0.49273267  0.24742219  0.62957889  1
  O  O237  1  0.50628792  0.75590634  0.14155311  1
  O  O238  1  0.49726395  0.74496131  0.62549432  1
  O  O239  1  0.99167720  0.24687906  0.12802840  1
  O  O240  1  0.98768298  0.25248030  0.63527080  1
  O  O241  1  0.98609011  0.74939935  0.14373740  1
  O  O242  1  0.98882578  0.74949592  0.62861012  1
  O  O243  1  -0.00036201  0.25310198  0.36499120  1
  O  O244  1  -0.00105676  0.24847153  0.86151133  1
  O  O245  1  0.00368120  0.75000069  0.36397502  1
  O  O246  1  -0.01128083  0.75987685  0.86437978  1
  O  O247  1  0.50580426  0.25825257  0.36375909  1
  O  O248  1  0.50544162  0.24633025  0.86497745  1
  O  O249  1  0.51099361  0.76037218  0.36756624  1
  O  O250  1  0.49480962  0.74550296  0.85547188  1
  O  O251  1  0.24209088  0.12611035  0.48938914  1
  O  O252  1  0.24007329  0.12133730  1.00734633  1
  O  O253  1  0.25211668  0.62319130  0.49742685  1
  O  O254  1  0.24677335  0.62086647  1.00387817  1
  O  O255  1  0.74284115  0.12549328  0.49216389  1
  O  O256  1  0.74168710  0.13536962  0.99247174  1
  O  O257  1  0.74668575  0.62948632  0.49426702  1
  O  O258  1  0.73270497  0.62145755  0.99381472  1
  O  O259  1  0.26215957  0.38110309  0.01035972  1
  O  O260  1  0.25651790  0.36984986  0.49900937  1
  O  O261  1  0.27196941  0.87728279  0.00347723  1
  O  O262  1  0.26027865  0.87768130  0.50134518  1
  O  O263  1  0.74407911  0.37341520  0.01018772  1
  O  O264  1  0.75745109  0.37164573  0.50704287  1
  O  O265  1  0.75206000  0.87933898  0.01537972  1
  O  O266  1  0.75579318  0.86738486  0.50652463  1
  O  O267  1  0.11585555  0.48382694  0.23775959  1
  O  O268  1  0.11361861  0.48693372  0.75151176  1
  O  O269  1  0.12660046  0.99738528  0.24882557  1
  O  O270  1  0.13024311  0.98848978  0.74693522  1
  O  O271  1  0.63173203  0.49601551  0.24132890  1
  O  O272  1  0.63985971  0.50568306  0.74550318  1
  O  O273  1  0.63249867  0.99840845  0.24437608  1
  O  O274  1  0.62748543  1.01111449  0.73930142  1
  O  O275  1  0.36493962  0.00444172  0.25406634  1
  O  O276  1  0.37385733  -0.01413000  0.76595489  1
  O  O277  1  0.37299296  0.51352789  0.25249729  1
  O  O278  1  0.38802380  0.48888430  0.76221064  1
  O  O279  1  0.86073503  0.00425962  0.25212577  1
  O  O280  1  0.86990625  0.00560227  0.75446480  1
  O  O281  1  0.86839323  0.49235116  0.25765767  1
  O  O282  1  0.86808518  0.50665788  0.74898582  1
  O  O283  1  0.11504696  0.36451851  0.36446754  1
  O  O284  1  0.12195525  0.37551301  0.86624029  1
  O  O285  1  0.11899493  0.86498872  0.37076742  1
  O  O286  1  0.11878335  0.86928363  0.86258158  1
  O  O287  1  0.61885027  0.36935705  0.36815219  1
  O  O288  1  0.62625060  0.36382929  0.87768741  1
  O  O289  1  0.62223808  0.87222258  0.36881756  1
  O  O290  1  0.62778373  0.87041776  0.88015661  1
  O  O291  1  0.37114713  0.11423116  0.13570141  1
  O  O292  1  0.38241616  0.13395143  0.61347385  1
  O  O293  1  0.38037205  0.62592879  0.14426142  1
  O  O294  1  0.38962558  0.63731068  0.61451142  1
  O  O295  1  0.88062131  0.13476115  0.12631909  1
  O  O296  1  0.86827737  0.13087224  0.63798426  1
  O  O297  1  0.86650188  0.63628111  0.12997549  1
  O  O298  1  0.87765701  0.63108173  0.63358843  1
  O  O299  1  0.24994576  0.26477152  0.12812406  1
  O  O300  1  0.26439421  0.25141655  0.62202079  1
  O  O301  1  0.25703415  0.78030199  0.16240577  1
  O  O302  1  0.26056048  0.76145869  0.61222370  1
  O  O303  1  0.75551427  0.26003363  0.11943893  1
  O  O304  1  0.75856448  0.25652626  0.62766206  1
  O  O305  1  0.76638895  0.76030136  0.13813648  1
  O  O306  1  0.76149617  0.75172403  0.61912750  1
  O  O307  1  0.24228348  0.23802547  0.37245449  1
  O  O308  1  0.32247014  0.21562497  0.86841682  1
  O  O309  1  0.23197501  0.75566287  0.37230913  1
  O  O310  1  0.26090068  0.74050750  0.89074148  1
  O  O311  1  0.74279786  0.24378250  0.37348355  1
  O  O312  1  0.74190355  0.24611821  0.87504970  1
  O  O313  1  0.74680749  0.74336888  0.37683650  1
  O  O314  1  0.74753902  0.75720279  0.85660829  1
  O  O315  1  0.00214283  0.12769156  0.00968881  1
  O  O316  1  0.00912436  0.11959024  0.49943690  1
  O  O317  1  0.00584616  0.61111227  0.00196581  1
  O  O318  1  -0.00218774  0.60861979  0.50145013  1
  O  O319  1  0.50544711  0.12279013  -0.00004520  1
  O  O320  1  0.50456468  0.11912896  0.50218387  1
  O  O321  1  0.51176013  0.61868838  -0.00750434  1
  O  O322  1  0.51163667  0.62653086  0.50360543  1
  O  O323  1  0.48912452  0.37790068  0.48891924  1
  O  O324  1  0.48782041  0.38734795  1.00547252  1
  O  O325  1  0.49161105  0.88192145  0.49267445  1
  O  O326  1  0.49701913  0.88519943  1.00053068  1
  O  O327  1  0.99276566  0.37746867  0.49454156  1
  O  O328  1  1.00725085  0.39397060  1.00232842  1
  O  O329  1  0.98786400  0.88246540  0.50287285  1
  O  O330  1  1.00207584  0.86913249  0.98833990  1
  O  O331  1  0.50761262  0.48566828  0.37371428  1
  O  O332  1  0.50409355  0.49983086  0.88036159  1
  O  O333  1  0.49481423  0.99590495  0.37792272  1
  O  O334  1  0.51282199  0.99402660  0.88846851  1
  O  O335  1  0.99473203  0.49156730  0.38073180  1
  O  O336  1  1.00191787  0.50226250  0.89048114  1
  O  O337  1  0.99246198  1.00789332  0.39089880  1
  O  O338  1  0.99148556  0.98830792  0.86815544  1
  O  O339  1  0.00387169  0.01366494  0.13274135  1
  O  O340  1  -0.00052284  -0.00132930  0.61023357  1
  O  O341  1  0.01480107  0.49914575  0.11733962  1
  O  O342  1  -0.00904833  0.49310682  0.61463702  1
  O  O343  1  0.50859458  0.00668570  0.11392270  1
  O  O344  1  0.50470183  0.00307571  0.62218471  1
  O  O345  1  0.51179053  0.49990670  0.11886432  1
  O  O346  1  0.50485874  0.51013411  0.61472584  1
  O  O347  1  0.24102093  0.37413688  0.23986169  1
  O  O348  1  0.23078090  0.36402033  0.75486339  1
  O  O349  1  0.23529842  0.89169751  0.26657878  1
  O  O350  1  0.23827150  0.86173184  0.73939339  1
  O  O351  1  0.74395564  0.38548346  0.24148081  1
  O  O352  1  0.75302522  0.38668620  0.74180449  1
  O  O353  1  0.74472172  0.88480429  0.24384700  1
  O  O354  1  0.74452584  0.87638700  0.74897018  1
  O  O355  1  0.25222920  0.11630319  0.25349878  1
  O  O356  1  0.26767824  0.11981682  0.74387843  1
  O  O357  1  0.26392126  0.62788147  0.24954828  1
  O  O358  1  0.26221184  0.64840203  0.74224288  1
  O  O359  1  0.74700660  0.11922503  0.25590866  1
  O  O360  1  0.75720120  0.12051965  0.75543318  1
  O  O361  1  0.74490189  0.61043691  0.25530394  1
  O  O362  1  0.75985121  0.61151414  0.75066752  1
  O  O363  1  0.36595427  0.11987934  0.36600837  1
  O  O364  1  0.39707159  0.09303181  0.87172444  1
  O  O365  1  0.38482021  0.62780103  0.35954695  1
  O  O366  1  0.35257385  0.62148832  0.87898422  1
  O  O367  1  0.85957404  0.12653420  0.37228926  1
  O  O368  1  0.87174487  0.11953038  0.86444147  1
  O  O369  1  0.86998477  0.61010084  0.37914191  1
  O  O370  1  0.87087083  0.62380435  0.86416243  1
  O  O371  1  0.13593597  0.37389433  0.12861775  1
  O  O372  1  0.12939362  0.37731658  0.63985324  1
  O  O373  1  0.11823318  0.88627434  0.14256204  1
  O  O374  1  0.13229937  0.87643187  0.62913772  1
  O  O375  1  0.63371614  0.38518114  0.12963045  1
  O  O376  1  0.63819078  0.37328217  0.61648089  1
  O  O377  1  0.63374188  0.88292694  0.13121401  1
  O  O378  1  0.63251300  0.88637127  0.61678483  1
  O  O379  1  0.11625262  0.25728880  0.25171953  1
  O  O380  1  0.11359190  0.24706061  0.74604574  1
  O  O381  1  0.10916438  0.75900790  0.25862690  1
  O  O382  1  0.10980719  0.75648586  0.73681317  1
  O  O383  1  0.61850673  0.25755891  0.25486773  1
  O  O384  1  0.60934639  0.24515761  0.75469083  1
  O  O385  1  0.61944772  0.75468608  0.25452381  1
  O  O386  1  0.62307537  0.74778913  0.74256250  1
  O  O387  1  0.38185131  0.23895820  0.25296952  1
  O  O388  1  0.38427947  0.25330656  0.73647763  1
  O  O389  1  0.39095116  0.74442394  0.25501764  1
  O  O390  1  0.39019155  0.76438919  0.72669644  1
  O  O391  1  0.87997912  0.25007674  0.23759040  1
  O  O392  1  0.88430896  0.23960569  0.74476665  1
  O  O393  1  0.88713790  0.74889870  0.24767518  1
  O  O394  1  0.88520049  0.74019435  0.73904238  1
  O  O395  1  0.37004225  0.49238754  0.49470117  1
  O  O396  1  0.38823780  0.49637855  1.01083714  1
  O  O397  1  0.38015456  0.99484263  0.49202401  1
  O  O398  1  0.38508366  0.99584156  0.99153650  1
  O  O399  1  0.87874970  0.49082497  0.49141009  1
  O  O400  1  0.88812703  0.50618980  1.00204791  1
  O  O401  1  0.87800884  0.99095308  0.50033776  1
  O  O402  1  0.86990251  1.00335558  0.98735475  1
  O  O403  1  0.12199219  0.01154280  0.01626598  1
  O  O404  1  0.11637570  0.00765397  0.50038944  1
  O  O405  1  0.12173779  0.50197412  0.01429304  1
  O  O406  1  0.11259000  0.49351413  0.50495868  1
  O  O407  1  0.62182592  0.01279394  0.00495794  1
  O  O408  1  0.61945360  0.00583690  0.50918926  1
  O  O409  1  0.61451519  0.50686727  0.00686732  1
  O  O410  1  0.62812441  0.51180292  0.49745260  1
  O  O411  1  0.36254751  0.38155760  0.11973406  1
  O  O412  1  0.37282417  0.36640291  0.60898669  1
  O  O413  1  0.37591174  0.88236138  0.11147677  1
  O  O414  1  0.37105797  0.87155984  0.61156308  1
  O  O415  1  0.86425797  0.36821557  0.12879613  1
  O  O416  1  0.86578512  0.36492272  0.62250630  1
  O  O417  1  0.86902965  0.86987593  0.12292733  1
  O  O418  1  0.86706780  0.86558756  0.62028790  1
  O  O419  1  0.13035857  0.13021135  0.38152071  1
  O  O420  1  0.12839549  0.12025989  0.88953958  1
  O  O421  1  0.11919301  0.64283121  0.37823275  1
  O  O422  1  0.14579976  0.64100389  0.87276953  1
  O  O423  1  0.63287930  0.13034543  0.37795519  1
  O  O424  1  0.62771299  0.13354162  0.88430658  1
  O  O425  1  0.63273252  0.62914721  0.38003017  1
  O  O426  1  0.63074066  0.63069218  0.88540040  1
