# generated using pymatgen
data_V85Zn86O256
_symmetry_space_group_name_H-M   'P 1'
_cell_length_a   16.96444360
_cell_length_b   16.94415210
_cell_length_c   16.95299182
_cell_angle_alpha   89.99104472
_cell_angle_beta   89.95836441
_cell_angle_gamma   89.95765005
_symmetry_Int_Tables_number   1
_chemical_formula_structural   V85Zn86O256
_chemical_formula_sum   'V85 Zn86 O256'
_cell_volume   4873.10282848
_cell_formula_units_Z   1
loop_
 _symmetry_equiv_pos_site_id
 _symmetry_equiv_pos_as_xyz
  1  'x, y, z'
loop_
 _atom_site_type_symbol
 _atom_site_label
 _atom_site_symmetry_multiplicity
 _atom_site_fract_x
 _atom_site_fract_y
 _atom_site_fract_z
 _atom_site_occupancy
  V  V0  1  0.62723840  0.25415956  0.87594155  1
  V  V1  1  0.12415678  0.37401138  0.75094129  1
  V  V2  1  0.37509534  0.00030261  0.87479753  1
  V  V3  1  0.24759697  -0.01331816  0.75059982  1
  V  V4  1  0.12187671  0.76897820  0.37303125  1
  V  V5  1  0.75338616  0.12468752  0.87416094  1
  V  V6  1  0.50236274  0.25133667  0.25594855  1
  V  V7  1  0.75380058  0.25084405  0.00207778  1
  V  V8  1  0.49861850  0.00632160  0.50008343  1
  V  V9  1  0.75273430  0.62199939  0.37511715  1
  V  V10  1  0.62631882  0.62395659  0.00195764  1
  V  V11  1  0.49923518  0.74962948  0.25277342  1
  V  V12  1  0.00716971  0.61927565  0.12005445  1
  V  V13  1  0.00998961  -0.00236867  0.00097781  1
  V  V14  1  0.75155618  0.75058119  0.49272635  1
  V  V15  1  0.37281419  0.49376789  0.38311727  1
  V  V16  1  0.24872710  0.12640581  0.87250929  1
  V  V17  1  0.89785787  0.37286246  0.00464691  1
  V  V18  1  0.11536839  0.25085893  0.87473117  1
  V  V19  1  0.87661161  0.49800362  0.37255383  1
  V  V20  1  0.12779915  0.36345765  0.24831718  1
  V  V21  1  0.87280275  -0.00169963  0.37903085  1
  V  V22  1  0.62680726  0.37384823  0.25466688  1
  V  V23  1  0.50049400  0.87645880  0.37880143  1
  V  V24  1  0.25228910  0.25574037  -0.00272317  1
  V  V25  1  0.62477272  0.50082585  0.60934797  1
  V  V26  1  0.37470578  0.12983213  0.74444650  1
  V  V27  1  0.75252156  0.61953490  0.87520837  1
  V  V28  1  0.37913830  0.50445306  0.87122928  1
  V  V29  1  0.62475023  0.00459615  0.62385849  1
  V  V30  1  0.24365565  0.76553167  0.50364582  1
  V  V31  1  0.87061319  0.37655951  0.50568025  1
  V  V32  1  0.63079469  0.49968684  0.12956536  1
  V  V33  1  0.75236835  0.87439832  0.61702737  1
  V  V34  1  0.58353762  0.69332433  0.42578723  1
  V  V35  1  0.25976593  0.49970731  0.74523999  1
  V  V36  1  0.00297458  0.24811286  0.73898078  1
  V  V37  1  0.00701675  0.36622237  0.38055947  1
  V  V38  1  0.37214731  0.87148583  0.00433582  1
  V  V39  1  0.62437726  0.87110277  0.25494002  1
  V  V40  1  0.26341393  0.36365728  0.61807608  1
  V  V41  1  0.62123058  0.87379753  0.74843459  1
  V  V42  1  0.49941159  0.25200927  0.74581841  1
  V  V43  1  0.37209697  0.25451287  0.12443746  1
  V  V44  1  0.00502358  0.86066933  0.86822065  1
  V  V45  1  0.11985596  0.49880634  0.62477005  1
  V  V46  1  0.75548361  0.37865269  0.12893758  1
  V  V47  1  0.25401618  0.24295530  0.48526036  1
  V  V48  1  0.24797894  0.62590655  0.86978399  1
  V  V49  1  0.62439905  0.74763784  0.87268033  1
  V  V50  1  0.49612036  0.73102766  0.74237443  1
  V  V51  1  0.13089570  0.00000413  0.62328451  1
  V  V52  1  0.62491392  0.00112089  0.12522641  1
  V  V53  1  0.88766375  0.49229375  0.88123339  1
  V  V54  1  0.74900655  0.13573329  0.37421403  1
  V  V55  1  0.50165196  0.50006369  0.00118480  1
  V  V56  1  0.87193087  0.87516297  -0.00393645  1
  V  V57  1  0.62277472  0.13754232  0.49593543  1
  V  V58  1  0.74639247  0.87425424  0.12479374  1
  V  V59  1  0.36550001  0.88278564  0.50704399  1
  V  V60  1  0.37570107  0.37926797  0.00377428  1
  V  V61  1  0.87542036  0.62728079  0.74864684  1
  V  V62  1  0.50100695  0.12717258  0.12600650  1
  V  V63  1  0.24106704  -0.02454653  0.23845083  1
  V  V64  1  0.11495331  0.63021791  0.49730709  1
  V  V65  1  -0.01186259  0.00176123  0.51310862  1
  V  V66  1  0.75106773  0.00649478  0.25293058  1
  V  V67  1  0.24191443  0.74882773  -0.00366335  1
  V  V68  1  0.86571092  0.25368076  0.62629763  1
  V  V69  1  0.49887537  0.37724856  0.38557743  1
  V  V70  1  0.24097067  0.62613870  0.37099469  1
  V  V71  1  0.36373851  0.12488444  0.25381870  1
  V  V72  1  -0.00250984  0.75558714  0.24850511  1
  V  V73  1  0.50037228  -0.00037115  -0.00245263  1
  V  V74  1  0.88193810  0.12338445  0.74409676  1
  V  V75  1  0.04424964  0.68536198  0.67950187  1
  V  V76  1  0.49905515  0.62535485  0.12725122  1
  V  V77  1  0.24327626  0.49813084  0.24110363  1
  V  V78  1  0.75076041  -0.00100707  0.74897409  1
  V  V79  1  0.36850857  0.62450709  0.25034851  1
  V  V80  1  0.87427932  0.74752981  0.62122662  1
  V  V81  1  0.75271582  0.48982953  0.74294329  1
  V  V82  1  0.87563313  0.23571452  0.13945754  1
  V  V83  1  0.74752314  0.74924126  -0.00037238  1
  V  V84  1  0.87431942  0.61947244  0.24765745  1
  Zn  Zn85  1  0.62669068  0.12546390  0.00003940  1
  Zn  Zn86  1  0.08582035  0.91741320  0.18079021  1
  Zn  Zn87  1  0.00919568  0.10671917  0.14074603  1
  Zn  Zn88  1  -0.00778121  0.88045469  0.37463301  1
  Zn  Zn89  1  0.37831904  0.74339253  0.62332200  1
  Zn  Zn90  1  -0.00267099  0.50427713  0.50408670  1
  Zn  Zn91  1  0.50391341  0.37491976  0.87608150  1
  Zn  Zn92  1  0.46706963  0.55748410  0.55101135  1
  Zn  Zn93  1  0.37130422  0.75544633  0.12820318  1
  Zn  Zn94  1  0.37277857  0.00870299  0.37473365  1
  Zn  Zn95  1  0.49990162  0.87302556  0.87191480  1
  Zn  Zn96  1  0.87116705  0.74621861  0.12545232  1
  Zn  Zn97  1  -0.00024448  0.23651602  0.26168305  1
  Zn  Zn98  1  0.12125692  0.13315316  0.49399670  1
  Zn  Zn99  1  0.12049162  0.48156862  0.11223806  1
  Zn  Zn100  1  0.12337734  0.86013433  0.74966582  1
  Zn  Zn101  1  0.11977517  0.61593352  -0.01081396  1
  Zn  Zn102  1  0.49580389  0.13447511  0.62057066  1
  Zn  Zn103  1  0.74485582  0.25627761  0.50155804  1
  Zn  Zn104  1  0.63157486  0.37231116  0.74341795  1
  Zn  Zn105  1  0.87932637  -0.00209853  0.87279707  1
  Zn  Zn106  1  0.13392515  0.11645622  0.00684522  1
  Zn  Zn107  1  0.18597894  0.18825744  0.18579809  1
  Zn  Zn108  1  0.18641414  0.18248028  0.68145904  1
  Zn  Zn109  1  0.16505332  0.73818421  0.16455427  1
  Zn  Zn110  1  0.20846628  0.68509953  0.68516259  1
  Zn  Zn111  1  0.68698413  0.18983756  0.18835656  1
  Zn  Zn112  1  0.68679528  0.18703142  0.68814973  1
  Zn  Zn113  1  0.68863675  0.68742745  0.19194531  1
  Zn  Zn114  1  0.68733261  0.68287644  0.68435686  1
  Zn  Zn115  1  0.31218579  0.31286859  0.31409950  1
  Zn  Zn116  1  0.31423560  0.31656725  0.81300920  1
  Zn  Zn117  1  0.31215866  0.81724096  0.31734725  1
  Zn  Zn118  1  0.32092209  0.80970653  0.81574492  1
  Zn  Zn119  1  0.81177668  0.31707234  0.31477424  1
  Zn  Zn120  1  0.82111806  0.31196548  0.81845563  1
  Zn  Zn121  1  0.81246731  0.81303531  0.31299404  1
  Zn  Zn122  1  0.81239158  0.81062631  0.81025183  1
  Zn  Zn123  1  0.18875575  0.43646722  0.43995561  1
  Zn  Zn124  1  0.18750765  0.43712093  0.93544953  1
  Zn  Zn125  1  0.17958029  0.97050779  0.42040549  1
  Zn  Zn126  1  0.18555554  0.93071820  0.93424712  1
  Zn  Zn127  1  0.69082758  0.43843582  0.43333059  1
  Zn  Zn128  1  0.69624819  0.43652400  0.94050923  1
  Zn  Zn129  1  0.68510938  0.94167736  0.43795581  1
  Zn  Zn130  1  0.68575362  0.93844416  0.93414449  1
  Zn  Zn131  1  0.31473783  0.06494301  0.06428254  1
  Zn  Zn132  1  0.30848971  0.06555906  0.56498047  1
  Zn  Zn133  1  0.30758855  0.56590913  0.06256575  1
  Zn  Zn134  1  0.29687176  0.56650221  0.55814622  1
  Zn  Zn135  1  0.81374534  0.06005656  0.06070546  1
  Zn  Zn136  1  0.81018298  0.06844501  0.56255719  1
  Zn  Zn137  1  0.81726349  0.55761237  0.06194199  1
  Zn  Zn138  1  0.81093559  0.56484414  0.56087622  1
  Zn  Zn139  1  0.43706253  0.43915091  0.19105882  1
  Zn  Zn140  1  0.44286741  0.43184701  0.68932851  1
  Zn  Zn141  1  0.43710658  0.93932311  0.18573224  1
  Zn  Zn142  1  0.43667242  0.94023780  0.68539819  1
  Zn  Zn143  1  0.94268287  0.43465681  0.19190237  1
  Zn  Zn144  1  0.94022795  0.43506340  0.69099270  1
  Zn  Zn145  1  0.92353598  0.93948745  0.18618661  1
  Zn  Zn146  1  0.93707955  0.93347526  0.68689055  1
  Zn  Zn147  1  0.06590185  0.06842383  0.32020685  1
  Zn  Zn148  1  0.06365884  0.05942851  0.81605587  1
  Zn  Zn149  1  0.06026356  0.56103024  0.30992051  1
  Zn  Zn150  1  0.06661516  0.55500078  0.81428334  1
  Zn  Zn151  1  0.56327058  0.06504069  0.31385888  1
  Zn  Zn152  1  0.56382940  0.06635828  0.81256904  1
  Zn  Zn153  1  0.55786671  0.55449521  0.30967566  1
  Zn  Zn154  1  0.56756521  0.55849568  0.81097990  1
  Zn  Zn155  1  0.43059508  0.19663662  0.43868242  1
  Zn  Zn156  1  0.43894180  0.18678768  0.93419798  1
  Zn  Zn157  1  0.40840006  0.67552757  0.45655434  1
  Zn  Zn158  1  0.43767036  0.68714281  0.93368661  1
  Zn  Zn159  1  0.93362452  0.18140735  0.44211843  1
  Zn  Zn160  1  0.93764990  0.18480809  0.94060803  1
  Zn  Zn161  1  0.93656648  0.69247446  0.43630330  1
  Zn  Zn162  1  0.93363993  0.68494390  0.93879000  1
  Zn  Zn163  1  0.07078996  0.28225116  0.07619308  1
  Zn  Zn164  1  0.06603213  0.31150899  0.56186317  1
  Zn  Zn165  1  0.05307604  0.79984174  0.04800600  1
  Zn  Zn166  1  0.06334304  0.83049914  0.55851794  1
  Zn  Zn167  1  0.56355897  0.31315882  0.06380384  1
  Zn  Zn168  1  0.56674024  0.32166920  0.56927254  1
  Zn  Zn169  1  0.55878874  0.81254198  0.06409874  1
  Zn  Zn170  1  0.55955353  0.81796699  0.56683152  1
  O  O171  1  0.10870892  0.16153735  0.10892344  1
  O  O172  1  0.12279817  0.10568186  0.62639158  1
  O  O173  1  0.10876259  0.63290476  0.12712160  1
  O  O174  1  0.11995233  0.62350417  0.62139450  1
  O  O175  1  0.61912902  0.11941773  0.12258931  1
  O  O176  1  0.62248293  0.11952598  0.61779777  1
  O  O177  1  0.62216380  0.61752831  0.12370967  1
  O  O178  1  0.63125996  0.60119094  0.63127057  1
  O  O179  1  0.38448987  0.38398980  0.36777610  1
  O  O180  1  0.37845687  0.38536656  0.88657094  1
  O  O181  1  0.39034381  0.87858693  0.38090043  1
  O  O182  1  0.38103857  0.88315542  0.88442981  1
  O  O183  1  0.88460899  0.38184654  0.37968964  1
  O  O184  1  0.87603976  0.37884854  0.89254578  1
  O  O185  1  0.86632297  0.89294438  0.37415124  1
  O  O186  1  0.87907459  0.87512082  0.88060103  1
  O  O187  1  0.26513990  -0.01319178  0.34375740  1
  O  O188  1  0.25284640  0.00749340  0.87037029  1
  O  O189  1  0.25394470  0.50454459  0.36911961  1
  O  O190  1  0.26063538  0.50241239  0.86347708  1
  O  O191  1  0.75042943  0.00815861  0.36943066  1
  O  O192  1  0.75216888  0.00787068  0.86777351  1
  O  O193  1  0.76472905  0.50907338  0.37670089  1
  O  O194  1  0.76153158  0.50373494  0.86906659  1
  O  O195  1  0.24683848  0.50217113  0.13851314  1
  O  O196  1  0.24040106  0.49504273  0.62852152  1
  O  O197  1  0.25802871  1.00585681  0.14153944  1
  O  O198  1  0.24014916  0.99932333  0.63510257  1
  O  O199  1  0.74252889  0.49099031  0.12171986  1
  O  O200  1  0.74969563  0.50180219  0.63897050  1
  O  O201  1  0.74433531  0.99635324  0.13283060  1
  O  O202  1  0.74686286  0.99195485  0.62914881  1
  O  O203  1  0.01048536  0.37068898  0.26422761  1
  O  O204  1  0.01218410  0.36357399  0.74898506  1
  O  O205  1  -0.00493650  0.86925398  0.24805764  1
  O  O206  1  -0.00443150  0.87384465  0.76574754  1
  O  O207  1  0.50774428  0.36868650  0.25255574  1
  O  O208  1  0.50718746  0.36611917  0.75805448  1
  O  O209  1  0.50384720  0.87161178  0.25771763  1
  O  O210  1  0.51286876  0.87637189  0.74867396  1
  O  O211  1  0.49824557  0.13460385  0.24412462  1
  O  O212  1  0.49224510  0.13237389  0.75023675  1
  O  O213  1  0.49163163  0.62993663  0.24755075  1
  O  O214  1  0.50283145  0.63260700  0.74986496  1
  O  O215  1  1.00143999  0.12372599  0.25194561  1
  O  O216  1  0.99034214  0.13195946  0.75853245  1
  O  O217  1  0.98884855  0.63120134  0.24457974  1
  O  O218  1  0.99386361  0.62196580  0.74821281  1
  O  O219  1  0.37396241  0.25770447  0.00370742  1
  O  O220  1  0.35607593  0.25132355  0.50255734  1
  O  O221  1  0.37273986  0.75824314  -0.00182237  1
  O  O222  1  0.35841561  0.76954235  0.49014479  1
  O  O223  1  0.87209378  0.25539038  0.00981392  1
  O  O224  1  0.87456189  0.25621555  0.51172386  1
  O  O225  1  0.86572307  0.75974138  0.00012803  1
  O  O226  1  0.86406393  0.74754159  0.50848082  1
  O  O227  1  0.14131885  0.24688420  0.51004400  1
  O  O228  1  0.13867236  0.25755122  0.98631779  1
  O  O229  1  0.12555535  0.75164290  0.49314457  1
  O  O230  1  0.13967653  0.73830587  0.99084088  1
  O  O231  1  0.62523083  0.24091676  0.50736082  1
  O  O232  1  0.63316123  0.24739125  0.99443034  1
  O  O233  1  0.63075327  0.75269377  0.49956148  1
  O  O234  1  0.62761467  0.74413070  0.99475115  1
  O  O235  1  0.49087901  0.24782886  0.13111822  1
  O  O236  1  0.50588294  0.25203018  0.64117199  1
  O  O237  1  0.49621936  0.74264896  0.13346841  1
  O  O238  1  0.50240752  0.75032920  0.63875682  1
  O  O239  1  0.97848277  0.25305632  0.13784526  1
  O  O240  1  0.99286389  0.25058640  0.63558460  1
  O  O241  1  0.99056985  0.73839607  0.13250110  1
  O  O242  1  0.99161311  0.75325807  0.61735282  1
  O  O243  1  -0.00846429  0.26291273  0.37884619  1
  O  O244  1  0.01258828  0.24364467  0.86986427  1
  O  O245  1  0.00274616  0.75934880  0.36876329  1
  O  O246  1  -0.00358467  0.76189137  0.88123321  1
  O  O247  1  0.49423584  0.25883507  0.36121438  1
  O  O248  1  0.51284833  0.24851889  0.86951970  1
  O  O249  1  0.50877526  0.75715127  0.37222412  1
  O  O250  1  0.50663736  0.74983203  0.86054489  1
  O  O251  1  0.24734616  0.13905980  0.50646496  1
  O  O252  1  0.25421635  0.13465248  0.98937221  1
  O  O253  1  0.23218208  0.63904862  0.49083450  1
  O  O254  1  0.25318012  0.63202721  0.98607956  1
  O  O255  1  0.73909728  0.12902943  0.49328862  1
  O  O256  1  0.75173865  0.12972602  0.99048634  1
  O  O257  1  0.75168944  0.63341361  0.48480132  1
  O  O258  1  0.74602654  0.62815754  0.99580617  1
  O  O259  1  0.26189660  0.36337302  -0.00685350  1
  O  O260  1  0.24436400  0.36629131  0.51302299  1
  O  O261  1  0.25769922  0.85804375  -0.01201747  1
  O  O262  1  0.25522480  0.87686859  0.48951219  1
  O  O263  1  0.75538472  0.36724902  0.01447127  1
  O  O264  1  0.76615640  0.37209674  0.49015212  1
  O  O265  1  0.75395868  0.87147151  0.00225928  1
  O  O266  1  0.74267418  0.86943173  0.51074485  1
  O  O267  1  0.13022595  0.48968767  0.24884188  1
  O  O268  1  0.13498149  0.49148893  0.74371150  1
  O  O269  1  0.13756951  0.99362449  0.24534527  1
  O  O270  1  0.13451026  0.99969511  0.74657538  1
  O  O271  1  0.62162484  0.49163978  0.23586847  1
  O  O272  1  0.64500900  0.49469379  0.75575637  1
  O  O273  1  0.62989920  0.99065589  0.24612614  1
  O  O274  1  0.63065124  0.99416543  0.74539653  1
  O  O275  1  0.37947835  0.01789797  0.24592980  1
  O  O276  1  0.36787038  0.00466506  0.75589744  1
  O  O277  1  0.36546912  0.50573041  0.25602766  1
  O  O278  1  0.37128703  0.49221799  0.75841116  1
  O  O279  1  0.85679777  -0.00045802  0.25765086  1
  O  O280  1  0.86953098  0.00762994  0.75025753  1
  O  O281  1  0.87937904  0.50761887  0.25895273  1
  O  O282  1  0.86878225  0.50586148  0.75418313  1
  O  O283  1  0.11029194  0.38152270  0.37254623  1
  O  O284  1  0.13645868  0.36498627  0.85846357  1
  O  O285  1  0.12228416  0.87042329  0.37738656  1
  O  O286  1  0.11030302  0.87120345  0.86912623  1
  O  O287  1  0.61901928  0.38442164  0.36040915  1
  O  O288  1  0.63042416  0.36235339  0.87737776  1
  O  O289  1  0.61266291  0.88226091  0.36761122  1
  O  O290  1  0.62468961  0.86657866  0.86520017  1
  O  O291  1  0.38361332  0.13554723  0.13194208  1
  O  O292  1  0.37685167  0.12062834  0.64125810  1
  O  O293  1  0.38030599  0.62183271  0.13835505  1
  O  O294  1  0.38562993  0.63517140  0.57674359  1
  O  O295  1  0.87590336  0.13428613  0.12359201  1
  O  O296  1  0.87112110  0.13428379  0.63757037  1
  O  O297  1  0.88033646  0.62361661  0.13290906  1
  O  O298  1  0.87190481  0.63597537  0.63227644  1
  O  O299  1  0.26512773  0.24712829  0.11344123  1
  O  O300  1  0.25271711  0.26337060  0.63289545  1
  O  O301  1  0.25969713  0.73466802  0.10011372  1
  O  O302  1  0.25568689  0.75165798  0.60730865  1
  O  O303  1  0.76020116  0.25463989  0.12199080  1
  O  O304  1  0.76205424  0.25063644  0.62687791  1
  O  O305  1  0.74821446  0.75578749  0.11747383  1
  O  O306  1  0.75285531  0.75394492  0.61479323  1
  O  O307  1  0.24945733  0.25134817  0.38549711  1
  O  O308  1  0.24606109  0.24274400  0.87767036  1
  O  O309  1  0.23795803  0.74890435  0.38034910  1
  O  O310  1  0.26128275  0.73660577  0.88100913  1
  O  O311  1  0.75274681  0.23931561  0.37663175  1
  O  O312  1  0.74724169  0.24332800  0.87990313  1
  O  O313  1  0.75083059  0.74592763  0.38566229  1
  O  O314  1  0.74393802  0.74135331  0.87943989  1
  O  O315  1  -0.00431653  0.10291753  0.00084575  1
  O  O316  1  0.00321704  0.10737345  0.49629102  1
  O  O317  1  -0.00076138  0.62940924  0.01543265  1
  O  O318  1  0.01044546  0.62626615  0.49670211  1
  O  O319  1  0.49983053  0.11464196  0.00523350  1
  O  O320  1  0.50363707  0.12300797  0.49866401  1
  O  O321  1  0.50697801  0.62062735  0.00631893  1
  O  O322  1  0.51469622  0.63116550  0.47352730  1
  O  O323  1  0.50670038  0.36884478  0.48435031  1
  O  O324  1  0.49492287  0.38215544  0.99797179  1
  O  O325  1  0.49548612  0.88543248  0.49445423  1
  O  O326  1  0.49597626  0.88589398  0.99678792  1
  O  O327  1  0.99397068  0.37770214  0.49236523  1
  O  O328  1  0.99510962  0.36192266  1.01322887  1
  O  O329  1  0.99546423  0.89564653  0.49488684  1
  O  O330  1  0.99057232  0.87897539  0.99064626  1
  O  O331  1  0.48720314  0.48919263  0.36909260  1
  O  O332  1  0.49633538  0.49971183  0.88234400  1
  O  O333  1  0.49814763  0.99592211  0.38592241  1
  O  O334  1  0.49685243  1.00110400  0.88300214  1
  O  O335  1  0.99006837  0.49263616  0.37881968  1
  O  O336  1  0.98679955  0.49916022  0.87067423  1
  O  O337  1  0.98415810  0.99910759  0.38279300  1
  O  O338  1  0.99828703  0.98906295  0.88624626  1
  O  O339  1  0.00392057  -0.01085627  0.11581215  1
  O  O340  1  0.00058585  -0.00022698  0.61818055  1
  O  O341  1  0.00436701  0.51516961  0.13374837  1
  O  O342  1  0.01519360  0.49570792  0.62540112  1
  O  O343  1  0.50602540  0.00559690  0.11685678  1
  O  O344  1  0.50403892  0.00417399  0.61254520  1
  O  O345  1  0.50790504  0.50574192  0.12042333  1
  O  O346  1  0.51643265  0.49311803  0.62552327  1
  O  O347  1  0.23423682  0.38184163  0.25935243  1
  O  O348  1  0.24728250  0.38349086  0.74099749  1
  O  O349  1  0.25485756  0.87479849  0.23572061  1
  O  O350  1  0.24949128  0.88402304  0.76012374  1
  O  O351  1  0.74148769  0.37034028  0.23882050  1
  O  O352  1  0.75776681  0.38770049  0.75581556  1
  O  O353  1  0.74012570  0.88027470  0.24614798  1
  O  O354  1  0.73888548  0.87619191  0.74143607  1
  O  O355  1  0.26381461  0.12997358  0.24643902  1
  O  O356  1  0.25636717  0.12054773  0.75924448  1
  O  O357  1  0.25543994  0.61629565  0.25610936  1
  O  O358  1  0.25755794  0.60940177  0.75210769  1
  O  O359  1  0.73804541  0.11654024  0.26047984  1
  O  O360  1  0.75747994  0.12053016  0.75669557  1
  O  O361  1  0.76440176  0.63357805  0.26102872  1
  O  O362  1  0.75895655  0.61510896  0.75636672  1
  O  O363  1  0.38201930  0.12768543  0.35651297  1
  O  O364  1  0.36798237  0.11900745  0.86783570  1
  O  O365  1  0.36456995  0.61825253  0.36504342  1
  O  O366  1  0.36989124  0.60981187  0.87868921  1
  O  O367  1  0.85894380  0.11278875  0.38312190  1
  O  O368  1  0.86592589  0.12501720  0.86712700  1
  O  O369  1  0.87151582  0.61844650  0.36925810  1
  O  O370  1  0.87108919  0.61690297  0.86895154  1
  O  O371  1  0.11892316  0.36798919  0.14442907  1
  O  O372  1  0.13332589  0.38204954  0.63405343  1
  O  O373  1  0.12949158  0.83871378  0.11869240  1
  O  O374  1  0.11687664  0.89169758  0.63880173  1
  O  O375  1  0.63282453  0.38158620  0.13074520  1
  O  O376  1  0.63396366  0.39162155  0.62856014  1
  O  O377  1  0.62726533  0.88189591  0.13187270  1
  O  O378  1  0.63218809  0.88327720  0.63094417  1
  O  O379  1  0.12580423  0.26107239  0.25757373  1
  O  O380  1  0.11957053  0.25276198  0.75245924  1
  O  O381  1  0.10613382  0.74349074  0.26252238  1
  O  O382  1  0.11792207  0.74083811  0.73175458  1
  O  O383  1  0.61383169  0.26156314  0.24218718  1
  O  O384  1  0.62138142  0.25167414  0.75899254  1
  O  O385  1  0.61888070  0.76425761  0.24581324  1
  O  O386  1  0.61809915  0.75494745  0.75101945  1
  O  O387  1  0.37966217  0.24512650  0.24115836  1
  O  O388  1  0.38658331  0.24164377  0.76159111  1
  O  O389  1  0.37913902  0.74160118  0.25139939  1
  O  O390  1  0.39179386  0.75170366  0.74454045  1
  O  O391  1  0.86841809  0.24862401  0.24096646  1
  O  O392  1  0.88359938  0.24550242  0.74575609  1
  O  O393  1  0.88350076  0.74302066  0.25153070  1
  O  O394  1  0.86947312  0.73451007  0.74369896  1
  O  O395  1  0.37284965  0.50600111  0.48571917  1
  O  O396  1  0.37934855  0.49449159  0.99697738  1
  O  O397  1  0.37981013  1.00018013  0.49733588  1
  O  O398  1  0.38121361  0.99555007  0.99470723  1
  O  O399  1  0.87782850  0.49408751  0.49584047  1
  O  O400  1  0.87616491  0.48565764  0.99416050  1
  O  O401  1  0.88083698  1.00378239  0.49866162  1
  O  O402  1  0.88009291  0.98628237  0.99861244  1
  O  O403  1  0.11500803  -0.00177136  -0.00232764  1
  O  O404  1  0.11491991  -0.00931766  0.51911487  1
  O  O405  1  0.13329895  0.50405126  0.00348792  1
  O  O406  1  0.12561560  0.51233964  0.50835609  1
  O  O407  1  0.61704242  0.00180324  0.00376953  1
  O  O408  1  0.61591177  0.00983928  0.50538332  1
  O  O409  1  0.62306270  0.50392416  0.00925687  1
  O  O410  1  0.63232995  0.50047838  0.50943566  1
  O  O411  1  0.38093828  0.37002682  0.11334510  1
  O  O412  1  0.36074020  0.38198313  0.62546179  1
  O  O413  1  0.38159745  0.87446307  0.10877422  1
  O  O414  1  0.38046020  0.87373950  0.60887313  1
  O  O415  1  0.86958177  0.37154459  0.12298765  1
  O  O416  1  0.88132859  0.36800201  0.61680142  1
  O  O417  1  0.86249376  0.87118800  0.11506744  1
  O  O418  1  0.86275821  0.85928008  0.63542968  1
  O  O419  1  0.14292023  0.07812239  0.39557630  1
  O  O420  1  0.13424356  0.13213705  0.87986135  1
  O  O421  1  0.12427103  0.63327416  0.38079126  1
  O  O422  1  0.14318029  0.61779756  0.86944906  1
  O  O423  1  0.63311746  0.12112231  0.38622036  1
  O  O424  1  0.63809428  0.13473697  0.87484953  1
  O  O425  1  0.63579025  0.62584224  0.36083267  1
  O  O426  1  0.63233331  0.62817079  0.88124659  1
