# generated using pymatgen
data_V85Zn86O256
_symmetry_space_group_name_H-M   'P 1'
_cell_length_a   16.94436309
_cell_length_b   16.94964884
_cell_length_c   16.95246795
_cell_angle_alpha   89.99384087
_cell_angle_beta   90.05279834
_cell_angle_gamma   90.08313824
_symmetry_Int_Tables_number   1
_chemical_formula_structural   V85Zn86O256
_chemical_formula_sum   'V85 Zn86 O256'
_cell_volume   4868.75859753
_cell_formula_units_Z   1
loop_
 _symmetry_equiv_pos_site_id
 _symmetry_equiv_pos_as_xyz
  1  'x, y, z'
loop_
 _atom_site_type_symbol
 _atom_site_label
 _atom_site_symmetry_multiplicity
 _atom_site_fract_x
 _atom_site_fract_y
 _atom_site_fract_z
 _atom_site_occupancy
  V  V0  1  0.25258485  0.49899947  0.24899271  1
  V  V1  1  0.75368589  0.49839961  0.25212469  1
  V  V2  1  0.61938547  0.25834845  0.86315284  1
  V  V3  1  0.24698657  0.63139573  0.88284566  1
  V  V4  1  0.87274834  0.62589140  0.75154501  1
  V  V5  1  0.72566607  0.38014207  0.63174642  1
  V  V6  1  0.87551799  0.00151567  0.87330986  1
  V  V7  1  0.74898668  -0.00125784  0.74875113  1
  V  V8  1  0.62216707  0.61643446  0.50410721  1
  V  V9  1  -0.00508724  0.87032130  0.38181930  1
  V  V10  1  0.25604301  0.37670229  0.11879951  1
  V  V11  1  0.12312888  0.12683082  0.01467605  1
  V  V12  1  0.87529206  0.75569200  0.62351184  1
  V  V13  1  0.37629303  0.25389571  0.11647197  1
  V  V14  1  0.88203542  0.37932629  0.51814639  1
  V  V15  1  0.37641318  0.00192530  0.87538487  1
  V  V16  1  0.62218191  0.01250605  0.62223576  1
  V  V17  1  0.50128255  0.63230765  0.12599148  1
  V  V18  1  0.37268206  -0.00281587  0.37390301  1
  V  V19  1  0.38140430  0.63430936  0.25201526  1
  V  V20  1  0.00312167  0.00480596  0.01155066  1
  V  V21  1  0.38532615  0.12288198  0.74325268  1
  V  V22  1  0.62589709  0.12532789  -0.00042330  1
  V  V23  1  0.75020309  0.12602606  0.87546684  1
  V  V24  1  0.23818248  -0.00122794  0.75203051  1
  V  V25  1  0.49434083  0.74897013  0.74945627  1
  V  V26  1  0.75018830  0.12437183  0.38317957  1
  V  V27  1  0.75197995  0.74842057  0.50231206  1
  V  V28  1  0.00110042  0.38505351  0.38067001  1
  V  V29  1  0.12799267  0.75618746  0.88267712  1
  V  V30  1  0.87401952  0.74710295  0.12275743  1
  V  V31  1  0.12355816  0.10789641  0.49907691  1
  V  V32  1  0.12559355  0.25170176  0.37884767  1
  V  V33  1  0.00621209  0.74956101  0.24833504  1
  V  V34  1  0.89019975  0.37737393  0.00070669  1
  V  V35  1  0.25509757  0.38239530  0.62720859  1
  V  V36  1  0.62887434  0.37358421  0.25088284  1
  V  V37  1  0.24199689  0.12962978  0.87105798  1
  V  V38  1  -0.00048475  0.24548677  0.24940996  1
  V  V39  1  0.75625472  0.37349878  0.12580446  1
  V  V40  1  0.50147734  0.25132585  0.24715685  1
  V  V41  1  0.13655863  0.36635417  0.75297871  1
  V  V42  1  0.74963215  0.74542104  -0.00448748  1
  V  V43  1  0.74832066  0.00138563  0.25021796  1
  V  V44  1  0.24314890  0.87597577  0.62619812  1
  V  V45  1  0.74865874  0.87330625  0.61870278  1
  V  V46  1  0.62290621  -0.00178694  0.12395692  1
  V  V47  1  0.49483477  0.61736563  0.62535255  1
  V  V48  1  0.62525865  0.49995619  0.12375256  1
  V  V49  1  0.87403142  0.87559072  -0.00336502  1
  V  V50  1  0.87787713  0.13984220  0.74430953  1
  V  V51  1  0.61934711  0.74649394  0.37223154  1
  V  V52  1  0.49822484  0.86998833  0.37490621  1
  V  V53  1  0.62708531  0.74926904  0.87429676  1
  V  V54  1  0.36631675  0.74997009  0.12104339  1
  V  V55  1  0.62038968  0.86963776  0.24991493  1
  V  V56  1  0.50419786  0.01093661  0.50228213  1
  V  V57  1  0.36463173  0.49591195  0.88586908  1
  V  V58  1  0.00650700  0.62316529  0.61303118  1
  V  V59  1  0.75013103  0.62344833  0.37718623  1
  V  V60  1  0.87164863  -0.00348618  0.38153795  1
  V  V61  1  0.62604772  0.62177070  -0.00506230  1
  V  V62  1  0.12037475  0.88042897  0.24313403  1
  V  V63  1  0.25275960  0.24370435  0.50470065  1
  V  V64  1  0.00607617  0.75239385  0.75042704  1
  V  V65  1  0.50082738  0.12463020  0.12340239  1
  V  V66  1  0.36350447  0.61836498  0.74787991  1
  V  V67  1  0.00591508  0.88014836  0.86863359  1
  V  V68  1  0.25329662  0.12298935  0.37427662  1
  V  V69  1  0.37831108  0.37156883  0.49859548  1
  V  V70  1  0.37687007  0.50019468  0.37570626  1
  V  V71  1  0.24835924  0.25421971  -0.01181925  1
  V  V72  1  0.24512051  -0.00022766  0.24035367  1
  V  V73  1  0.75129465  0.25303361  0.00056984  1
  V  V74  1  0.88004258  0.50648555  0.87867855  1
  V  V75  1  0.74641666  0.87269764  0.12384445  1
  V  V76  1  0.23880256  0.63492100  0.37339495  1
  V  V77  1  0.87652987  0.62231194  0.24962019  1
  V  V78  1  0.37588949  0.12465871  0.24711606  1
  V  V79  1  0.00186426  0.36320206  0.86076776  1
  V  V80  1  0.12101973  0.49974479  0.11602099  1
  V  V81  1  0.36867769  0.87124301  -0.00165438  1
  V  V82  1  0.62300743  0.87167999  0.74590127  1
  V  V83  1  0.62768524  0.24469830  0.37942689  1
  V  V84  1  0.39306920  0.24014120  0.62365659  1
  Zn  Zn85  1  0.73968052  0.49402312  0.75608522  1
  Zn  Zn86  1  0.11768510  0.49868068  0.62538432  1
  Zn  Zn87  1  0.49098412  0.49333661  0.00408518  1
  Zn  Zn88  1  0.49900881  -0.00163812  -0.00059708  1
  Zn  Zn89  1  0.50023887  0.37577069  0.87656387  1
  Zn  Zn90  1  0.88483283  0.24174166  0.12167920  1
  Zn  Zn91  1  0.11871941  0.62503541  -0.00357647  1
  Zn  Zn92  1  0.37128056  0.75155883  0.62234929  1
  Zn  Zn93  1  -0.00380061  0.61701419  0.11838863  1
  Zn  Zn94  1  0.75251846  0.25084413  0.51002992  1
  Zn  Zn95  1  0.00445647  0.13186460  0.63515526  1
  Zn  Zn96  1  0.88359409  0.50475671  0.38611029  1
  Zn  Zn97  1  0.50170122  0.49514828  0.50576831  1
  Zn  Zn98  1  0.12775569  0.37513120  0.25185762  1
  Zn  Zn99  1  0.37735634  0.87378124  0.50591459  1
  Zn  Zn100  1  0.50320475  0.37532957  0.37417157  1
  Zn  Zn101  1  -0.01165006  -0.00291919  0.50630018  1
  Zn  Zn102  1  0.49807387  0.87474759  0.87539283  1
  Zn  Zn103  1  0.24449357  0.74439606  0.50254073  1
  Zn  Zn104  1  0.11569052  -0.00170803  0.63461415  1
  Zn  Zn105  1  0.88337176  0.11788500  0.24591337  1
  Zn  Zn106  1  0.23975595  0.87293415  0.11818564  1
  Zn  Zn107  1  0.18911314  0.19156104  0.18910226  1
  Zn  Zn108  1  0.18814680  0.18879035  0.68640421  1
  Zn  Zn109  1  0.18728894  0.68525180  0.18979460  1
  Zn  Zn110  1  0.18393957  0.69317572  0.69233016  1
  Zn  Zn111  1  0.69152784  0.18719458  0.18703819  1
  Zn  Zn112  1  0.69460245  0.19124899  0.68817189  1
  Zn  Zn113  1  0.68802359  0.68613080  0.18771066  1
  Zn  Zn114  1  0.66549844  0.64746629  0.71033482  1
  Zn  Zn115  1  0.31303756  0.31222696  0.31072595  1
  Zn  Zn116  1  0.34525095  0.32482779  0.79630377  1
  Zn  Zn117  1  0.31251952  0.81443623  0.30642132  1
  Zn  Zn118  1  0.30990253  0.81502652  0.81008642  1
  Zn  Zn119  1  0.81995723  0.31114429  0.32192913  1
  Zn  Zn120  1  0.80816977  0.31905924  0.81334779  1
  Zn  Zn121  1  0.81190364  0.81027088  0.31203148  1
  Zn  Zn122  1  0.81228538  0.81101113  0.80881904  1
  Zn  Zn123  1  0.18741705  0.43852752  0.44148039  1
  Zn  Zn124  1  0.18939207  0.43742213  0.93033131  1
  Zn  Zn125  1  0.16744505  0.89875659  0.45132463  1
  Zn  Zn126  1  0.18694180  0.94240080  0.93910588  1
  Zn  Zn127  1  0.69446026  0.43594527  0.44066525  1
  Zn  Zn128  1  0.69204067  0.43720108  0.93480550  1
  Zn  Zn129  1  0.68405884  0.93568015  0.43894904  1
  Zn  Zn130  1  0.68585802  0.93531999  0.93590933  1
  Zn  Zn131  1  0.31153805  0.06456901  0.05908014  1
  Zn  Zn132  1  0.31193699  0.05382404  0.56309172  1
  Zn  Zn133  1  0.30537543  0.57084862  0.06219755  1
  Zn  Zn134  1  0.28224114  0.54644999  0.54897493  1
  Zn  Zn135  1  0.81585594  0.06482269  0.06534966  1
  Zn  Zn136  1  0.81011843  0.06349091  0.56334127  1
  Zn  Zn137  1  0.81309201  0.56037786  0.05900095  1
  Zn  Zn138  1  0.81349039  0.55885294  0.56962642  1
  Zn  Zn139  1  0.43948932  0.43961244  0.18563061  1
  Zn  Zn140  1  0.43833395  0.43517834  0.69212448  1
  Zn  Zn141  1  0.43712314  0.93388595  0.18754763  1
  Zn  Zn142  1  0.43510658  0.93839592  0.68714204  1
  Zn  Zn143  1  0.94111725  0.43043304  0.19373675  1
  Zn  Zn144  1  0.94035832  0.44396912  0.69246024  1
  Zn  Zn145  1  0.93214977  0.93483006  0.18827237  1
  Zn  Zn146  1  0.93691858  0.94039098  0.68667728  1
  Zn  Zn147  1  0.06330242  0.05926071  0.31955459  1
  Zn  Zn148  1  0.05916974  0.07161187  0.81884116  1
  Zn  Zn149  1  0.06540249  0.56185242  0.30494216  1
  Zn  Zn150  1  0.06378804  0.55711096  0.80741677  1
  Zn  Zn151  1  0.56258251  0.06138491  0.31328919  1
  Zn  Zn152  1  0.56460980  0.06322876  0.81231541  1
  Zn  Zn153  1  0.56113136  0.56063620  0.31254005  1
  Zn  Zn154  1  0.55175601  0.55696755  0.81617885  1
  Zn  Zn155  1  0.44159977  0.18732629  0.43384686  1
  Zn  Zn156  1  0.43725747  0.18575874  0.93586273  1
  Zn  Zn157  1  0.43104149  0.68902222  0.44276780  1
  Zn  Zn158  1  0.43782330  0.68585396  0.93769884  1
  Zn  Zn159  1  0.95594625  0.21045697  0.47653133  1
  Zn  Zn160  1  0.93877310  0.18765444  0.93753295  1
  Zn  Zn161  1  0.93654960  0.69080615  0.43694913  1
  Zn  Zn162  1  0.94387922  0.68653948  0.93912085  1
  Zn  Zn163  1  0.06991942  0.31316979  0.06335628  1
  Zn  Zn164  1  0.06588205  0.31017723  0.57143711  1
  Zn  Zn165  1  0.05739571  0.81373039  0.06128350  1
  Zn  Zn166  1  0.06757325  0.80757752  0.56334838  1
  Zn  Zn167  1  0.56339354  0.31649925  0.05620800  1
  Zn  Zn168  1  0.56527664  0.31073013  0.56177160  1
  Zn  Zn169  1  0.55513787  0.81161329  0.05930877  1
  Zn  Zn170  1  0.56109945  0.80869777  0.56117979  1
  O  O171  1  0.13096034  0.12591549  0.11336782  1
  O  O172  1  0.12628904  0.12010369  0.61280445  1
  O  O173  1  0.12893831  0.60881316  0.12544418  1
  O  O174  1  0.10915193  0.63052604  0.63109439  1
  O  O175  1  0.62153851  0.11970650  0.11891457  1
  O  O176  1  0.63367236  0.11092426  0.63004296  1
  O  O177  1  0.61852895  0.62274891  0.11857486  1
  O  O178  1  0.60906216  0.63449643  0.61096517  1
  O  O179  1  0.37586572  0.38079463  0.38076149  1
  O  O180  1  0.34997704  0.39674473  0.88752473  1
  O  O181  1  0.38197980  0.88201669  0.37239433  1
  O  O182  1  0.37396738  0.88373162  0.88045542  1
  O  O183  1  0.88876567  0.38604197  0.37379792  1
  O  O184  1  0.88669425  0.37916606  0.87981686  1
  O  O185  1  0.88390225  0.88096919  0.36764469  1
  O  O186  1  0.87890255  0.88293257  0.87885984  1
  O  O187  1  0.26519050  0.00253354  0.36508241  1
  O  O188  1  0.25859480  0.00911300  0.86988049  1
  O  O189  1  0.26102531  0.50544445  0.36535942  1
  O  O190  1  0.25492813  0.51626370  0.87551633  1
  O  O191  1  0.74998215  0.00177217  0.36886572  1
  O  O192  1  0.75629697  0.00409785  0.87083107  1
  O  O193  1  0.75268675  0.50738650  0.36755613  1
  O  O194  1  0.77315565  0.48977103  0.87176988  1
  O  O195  1  0.24812436  0.49429023  0.12982894  1
  O  O196  1  0.28065219  0.47812858  0.64204717  1
  O  O197  1  0.25912800  0.99769423  0.13819953  1
  O  O198  1  0.24627155  0.99560150  0.63836257  1
  O  O199  1  0.74538611  0.49336104  0.13149703  1
  O  O200  1  0.75345548  0.48525557  0.63269421  1
  O  O201  1  0.74315823  0.99198611  0.13102812  1
  O  O202  1  0.74305978  0.99049632  0.62681067  1
  O  O203  1  0.00785590  0.36424846  0.26274987  1
  O  O204  1  0.00361097  0.36958490  0.75732054  1
  O  O205  1  0.00117882  0.86737798  0.25212419  1
  O  O206  1  -0.00633843  0.87154536  0.76235447  1
  O  O207  1  0.51120201  0.36992818  0.24881131  1
  O  O208  1  0.45435897  0.36278182  0.77253786  1
  O  O209  1  0.50714135  0.87896369  0.26424829  1
  O  O210  1  0.50447477  0.86563594  0.74994019  1
  O  O211  1  0.49612675  0.13059839  0.24291463  1
  O  O212  1  0.48390360  0.11905271  0.75213445  1
  O  O213  1  0.49168944  0.61947324  0.24058425  1
  O  O214  1  0.48640919  0.63193305  0.74486548  1
  O  O215  1  1.00430442  0.14226261  0.26280270  1
  O  O216  1  0.98308678  0.12534019  0.75267444  1
  O  O217  1  0.99323994  0.63161908  0.24512842  1
  O  O218  1  0.99196570  0.63600183  0.74459184  1
  O  O219  1  0.36719925  0.24245443  0.01157965  1
  O  O220  1  0.37188322  0.25053629  0.50210397  1
  O  O221  1  0.37801286  0.75799538  0.00777951  1
  O  O222  1  0.36447009  0.75725154  0.50305180  1
  O  O223  1  0.86703197  0.25707709  -0.00005880  1
  O  O224  1  0.86344466  0.27799464  0.48176668  1
  O  O225  1  0.86740786  0.75460809  0.00122418  1
  O  O226  1  0.86024572  0.74579707  0.50712298  1
  O  O227  1  0.13726816  0.24126675  0.49122686  1
  O  O228  1  0.13457880  0.23824562  1.00332039  1
  O  O229  1  0.14294721  0.78884222  0.48529559  1
  O  O230  1  0.11918175  0.75219584  0.98629281  1
  O  O231  1  0.62952844  0.25701698  0.48204622  1
  O  O232  1  0.63879122  0.24450047  0.99813625  1
  O  O233  1  0.63305515  0.74198988  0.49029651  1
  O  O234  1  0.62870522  0.74610520  0.99306720  1
  O  O235  1  0.49388643  0.24650154  0.12753397  1
  O  O236  1  0.49247490  0.24162061  0.61572171  1
  O  O237  1  0.49135587  0.73773057  0.12300157  1
  O  O238  1  0.49522637  0.74087330  0.63311049  1
  O  O239  1  1.00669962  0.25731291  0.14608405  1
  O  O240  1  0.99096100  0.23180316  0.58597211  1
  O  O241  1  0.98851039  0.75047398  0.13242292  1
  O  O242  1  0.99427506  0.75056558  0.63107023  1
  O  O243  1  0.01190167  0.26109190  0.37539570  1
  O  O244  1  -0.00216772  0.26536205  0.87673844  1
  O  O245  1  -0.01032128  0.76263497  0.36393932  1
  O  O246  1  0.00332363  0.76168480  0.86832332  1
  O  O247  1  0.50932714  0.25153924  0.36472618  1
  O  O248  1  0.51801847  0.24682539  0.88286972  1
  O  O249  1  0.50836780  0.75642729  0.38077080  1
  O  O250  1  0.50921985  0.75082737  0.86866593  1
  O  O251  1  0.24856862  0.12690700  0.49359767  1
  O  O252  1  0.24081948  0.13053984  0.99366420  1
  O  O253  1  0.25990863  0.63137063  0.47681831  1
  O  O254  1  0.24156862  0.63148236  0.98728634  1
  O  O255  1  0.75341388  0.13032722  0.48739301  1
  O  O256  1  0.74736442  0.13302151  0.99454878  1
  O  O257  1  0.74181597  0.62924730  0.49876100  1
  O  O258  1  0.74112175  0.63583048  1.00563826  1
  O  O259  1  0.24174329  0.36540657  0.00773167  1
  O  O260  1  0.26329655  0.36207078  0.50594574  1
  O  O261  1  0.26251684  0.88280596  0.00289530  1
  O  O262  1  0.25932374  0.89524263  0.52188971  1
  O  O263  1  0.75972090  0.36771194  0.00534203  1
  O  O264  1  0.75574023  0.37724389  0.51692874  1
  O  O265  1  0.75346063  0.86633113  0.00376026  1
  O  O266  1  0.74215634  0.86528258  0.51105470  1
  O  O267  1  0.14128328  0.49813032  0.24164299  1
  O  O268  1  0.11884871  0.47791348  0.74159418  1
  O  O269  1  0.13401093  0.99530984  0.25197802  1
  O  O270  1  0.13488293  1.00795818  0.75634695  1
  O  O271  1  0.63144217  0.49232486  0.24511455  1
  O  O272  1  0.63839707  0.54362464  0.75237426  1
  O  O273  1  0.62959556  0.99082843  0.24476024  1
  O  O274  1  0.62958286  0.99313468  0.74325751  1
  O  O275  1  0.37210102  0.00506552  0.25596749  1
  O  O276  1  0.36699785  0.00895175  0.75609776  1
  O  O277  1  0.36829074  0.50691498  0.25334597  1
  O  O278  1  0.37562150  0.51743827  0.76449436  1
  O  O279  1  0.86202852  -0.00489445  0.25705149  1
  O  O280  1  0.86764748  0.00180191  0.76177964  1
  O  O281  1  0.87395549  0.51147898  0.24819826  1
  O  O282  1  0.87406278  0.51093124  0.75926365  1
  O  O283  1  0.12365379  0.36777692  0.37843342  1
  O  O284  1  0.11479839  0.37746256  0.86344953  1
  O  O285  1  0.10174938  0.88308892  0.35727254  1
  O  O286  1  0.11580385  0.87240863  0.87871529  1
  O  O287  1  0.62873419  0.36987501  0.36289184  1
  O  O288  1  0.62654247  0.36281732  0.87343061  1
  O  O289  1  0.61832709  0.86568095  0.37086922  1
  O  O290  1  0.62120022  0.86738871  0.86610767  1
  O  O291  1  0.38006645  0.13247597  0.12883736  1
  O  O292  1  0.37261060  0.12365959  0.63525851  1
  O  O293  1  0.38059344  0.63141659  0.13025528  1
  O  O294  1  0.37395291  0.62844658  0.63905728  1
  O  O295  1  0.87297196  0.12921056  0.13415434  1
  O  O296  1  0.86825690  0.12215804  0.64270216  1
  O  O297  1  0.87344420  0.62941669  0.13225578  1
  O  O298  1  0.88426060  0.63720553  0.63036525  1
  O  O299  1  0.25772727  0.25832108  0.11876269  1
  O  O300  1  0.25874069  0.24965182  0.61217582  1
  O  O301  1  0.26207007  0.75103823  0.12988934  1
  O  O302  1  0.24831338  0.76478391  0.62810166  1
  O  O303  1  0.75324983  0.25761986  0.11774406  1
  O  O304  1  0.74093420  0.26987201  0.62324189  1
  O  O305  1  0.75400539  0.75517397  0.11862774  1
  O  O306  1  0.75666295  0.75646690  0.61801826  1
  O  O307  1  0.24825314  0.24512289  0.38407888  1
  O  O308  1  0.26262273  0.24409847  0.88595777  1
  O  O309  1  0.25183044  0.73596913  0.36295457  1
  O  O310  1  0.23782632  0.74693726  0.86779521  1
  O  O311  1  0.74317743  0.23790758  0.36661107  1
  O  O312  1  0.74221890  0.24740118  0.88343976  1
  O  O313  1  0.74446828  0.74364703  0.38299237  1
  O  O314  1  0.73555557  0.75537927  0.87872972  1
  O  O315  1  0.01460546  0.12125525  -0.00475298  1
  O  O316  1  0.01550871  0.11154520  0.47994420  1
  O  O317  1  0.00545692  0.62500076  0.00656907  1
  O  O318  1  -0.00022682  0.63594334  0.51420996  1
  O  O319  1  0.50689827  0.12234378  0.00689002  1
  O  O320  1  0.50219980  0.10948110  0.49242335  1
  O  O321  1  0.50857270  0.62177302  0.00915073  1
  O  O322  1  0.50296674  0.62274882  0.50824719  1
  O  O323  1  0.48997580  0.37477680  0.49619901  1
  O  O324  1  0.50214716  0.38106623  0.99224083  1
  O  O325  1  0.49997285  0.88133824  0.48773495  1
  O  O326  1  0.48596154  0.87909209  0.99647922  1
  O  O327  1  0.99059384  0.37647672  0.49542807  1
  O  O328  1  0.99299300  0.36944180  0.99510417  1
  O  O329  1  0.99855673  0.87620714  0.48451537  1
  O  O330  1  0.99261079  0.88397919  0.98964342  1
  O  O331  1  0.48689624  0.49673066  0.37488623  1
  O  O332  1  0.47890030  0.50149588  0.88087535  1
  O  O333  1  0.49391826  0.99377106  0.38188047  1
  O  O334  1  0.48714064  0.99956688  0.87407302  1
  O  O335  1  1.00766159  0.48907046  0.37161180  1
  O  O336  1  0.98675159  0.48735029  0.86914293  1
  O  O337  1  0.98614561  0.98748822  0.37116603  1
  O  O338  1  0.99221966  0.99637000  0.88088341  1
  O  O339  1  -0.00932777  -0.00494704  0.10991172  1
  O  O340  1  -0.00036677  0.00827221  0.62165950  1
  O  O341  1  0.01907137  0.49522985  0.13481402  1
  O  O342  1  -0.00177055  0.51928681  0.62448682  1
  O  O343  1  0.50664276  0.00572522  0.12526932  1
  O  O344  1  0.50626883  -0.00520114  0.61042052  1
  O  O345  1  0.50777791  0.51047164  0.12354583  1
  O  O346  1  0.48944832  0.51236448  0.62551888  1
  O  O347  1  0.25142559  0.38276638  0.24137440  1
  O  O348  1  0.24379448  0.36295786  0.74371916  1
  O  O349  1  0.23806541  0.88310152  0.24856417  1
  O  O350  1  0.25352282  0.88815240  0.74123178  1
  O  O351  1  0.74850134  0.37838412  0.24651918  1
  O  O352  1  0.74821391  0.37685188  0.73675894  1
  O  O353  1  0.74105923  0.88137330  0.24577579  1
  O  O354  1  0.74364707  0.87840886  0.73900922  1
  O  O355  1  0.25547342  0.11913030  0.25436519  1
  O  O356  1  0.25511966  0.11892217  0.75648484  1
  O  O357  1  0.26026876  0.61760225  0.25564735  1
  O  O358  1  0.26035810  0.63355868  0.75706018  1
  O  O359  1  0.74461999  0.10863484  0.25384524  1
  O  O360  1  0.75774734  0.11767625  0.75771961  1
  O  O361  1  0.75766188  0.61995432  0.25576577  1
  O  O362  1  0.77294296  0.64040301  0.74864584  1
  O  O363  1  0.37306567  0.11813156  0.36672969  1
  O  O364  1  0.36726458  0.11988601  0.86628574  1
  O  O365  1  0.37507118  0.61765548  0.36557617  1
  O  O366  1  0.36453863  0.62594993  0.86806092  1
  O  O367  1  0.86073028  0.11014544  0.36306145  1
  O  O368  1  0.86962083  0.11838014  0.87003266  1
  O  O369  1  0.87057182  0.62281770  0.36779854  1
  O  O370  1  0.88286114  0.61349481  0.86989634  1
  O  O371  1  0.13773854  0.38408285  0.12874346  1
  O  O372  1  0.13863901  0.37333420  0.63137757  1
  O  O373  1  0.12229651  0.87313919  0.13620020  1
  O  O374  1  0.13768700  0.88141170  0.62949880  1
  O  O375  1  0.63363926  0.37775885  0.13515725  1
  O  O376  1  0.62566530  0.38398511  0.62471169  1
  O  O377  1  0.62601779  0.87630932  0.12938204  1
  O  O378  1  0.63073409  0.87725530  0.62960295  1
  O  O379  1  0.12333379  0.25132853  0.26437772  1
  O  O380  1  0.12112395  0.26567197  0.74173543  1
  O  O381  1  0.11098691  0.75501768  0.24441140  1
  O  O382  1  0.11079885  0.75273712  0.76053570  1
  O  O383  1  0.62252188  0.25754048  0.25333026  1
  O  O384  1  0.62611743  0.24186814  0.76617509  1
  O  O385  1  0.63096648  0.75324416  0.26391078  1
  O  O386  1  0.61386631  0.74711634  0.75769100  1
  O  O387  1  0.37967650  0.24489055  0.23893692  1
  O  O388  1  0.36720928  0.22910567  0.73579953  1
  O  O389  1  0.37651693  0.73987052  0.24165671  1
  O  O390  1  0.38458119  0.74255330  0.75401366  1
  O  O391  1  0.89309141  0.25056729  0.25295148  1
  O  O392  1  0.86771191  0.23710737  0.75640789  1
  O  O393  1  0.87850170  0.73870010  0.24404411  1
  O  O394  1  0.88660243  0.74878811  0.74374377  1
  O  O395  1  0.37305532  0.48860319  0.49080147  1
  O  O396  1  0.37170477  0.51362617  0.98909220  1
  O  O397  1  0.38724211  0.99858987  0.49075711  1
  O  O398  1  0.37575350  0.99675866  0.99026050  1
  O  O399  1  0.87112878  0.48560361  0.50053932  1
  O  O400  1  0.87429537  0.49114879  0.98961124  1
  O  O401  1  0.86905948  1.00008422  0.48605383  1
  O  O402  1  0.87810471  0.99784633  0.98857122  1
  O  O403  1  0.11728516  0.01505937  -0.00265436  1
  O  O404  1  0.12834530  0.00401618  0.49570707  1
  O  O405  1  0.13152541  0.49776287  0.01406581  1
  O  O406  1  0.17343902  0.50388342  0.52808692  1
  O  O407  1  0.62437141  0.00586147  0.00581640  1
  O  O408  1  0.61296140  -0.00346330  0.50642163  1
  O  O409  1  0.63102176  0.50863364  0.00606411  1
  O  O410  1  0.62048860  0.51263928  0.48966399  1
  O  O411  1  0.36580603  0.36850471  0.12771572  1
  O  O412  1  0.37481906  0.35829738  0.61547929  1
  O  O413  1  0.37507754  0.86511933  0.11848714  1
  O  O414  1  0.36355850  0.87317458  0.62815400  1
  O  O415  1  0.87424184  0.37229889  0.11719356  1
  O  O416  1  0.88330500  0.37483527  0.61786788  1
  O  O417  1  0.86579588  0.86772580  0.11697267  1
  O  O418  1  0.86618031  0.86368768  0.62960870  1
  O  O419  1  0.13672587  0.13073859  0.38050375  1
  O  O420  1  0.13884556  0.12760099  0.88141235  1
  O  O421  1  0.14044073  0.62178105  0.36747538  1
  O  O422  1  0.13082304  0.63385168  0.87017462  1
  O  O423  1  0.63463151  0.13326858  0.36741389  1
  O  O424  1  0.63196256  0.12930550  0.88239479  1
  O  O425  1  0.62813390  0.63103505  0.37976877  1
  O  O426  1  0.61803528  0.63355874  0.89073798  1
