# generated using pymatgen
data_V85Zn86O256
_symmetry_space_group_name_H-M   'P 1'
_cell_length_a   16.94915410
_cell_length_b   16.95881196
_cell_length_c   16.95034024
_cell_angle_alpha   89.90525540
_cell_angle_beta   90.00775500
_cell_angle_gamma   90.01436549
_symmetry_Int_Tables_number   1
_chemical_formula_structural   V85Zn86O256
_chemical_formula_sum   'V85 Zn86 O256'
_cell_volume   4872.15685451
_cell_formula_units_Z   1
loop_
 _symmetry_equiv_pos_site_id
 _symmetry_equiv_pos_as_xyz
  1  'x, y, z'
loop_
 _atom_site_type_symbol
 _atom_site_label
 _atom_site_symmetry_multiplicity
 _atom_site_fract_x
 _atom_site_fract_y
 _atom_site_fract_z
 _atom_site_occupancy
  V  V0  1  -0.00322996  0.87336534  0.38096906  1
  V  V1  1  0.12861095  0.87358939  0.74668732  1
  V  V2  1  0.86971898  0.37555903  0.01405038  1
  V  V3  1  0.87182515  0.62149854  0.25484587  1
  V  V4  1  0.37396138  0.36936333  0.00999794  1
  V  V5  1  0.36368212  0.13357531  0.24690646  1
  V  V6  1  0.25094309  0.74898380  0.49692138  1
  V  V7  1  0.50268410  0.50059675  -0.00402559  1
  V  V8  1  0.75467106  0.12904685  0.36609174  1
  V  V9  1  0.50725688  0.50173099  0.50425608  1
  V  V10  1  0.24959704  0.62641168  0.87292627  1
  V  V11  1  0.25218177  0.24801109  0.00942872  1
  V  V12  1  0.11667417  0.23808663  0.36597467  1
  V  V13  1  0.49987769  0.25564317  0.23843113  1
  V  V14  1  0.00247469  0.75993429  0.24967022  1
  V  V15  1  0.75457795  0.75501064  0.49654500  1
  V  V16  1  0.88387549  0.87681742  -0.00306295  1
  V  V17  1  0.12083762  0.39097904  0.24789541  1
  V  V18  1  0.74685104  0.49616583  0.73715194  1
  V  V19  1  0.25046385  0.00121572  0.74884426  1
  V  V20  1  0.75076089  0.11530628  0.88094866  1
  V  V21  1  0.50245164  0.00028762  0.00426649  1
  V  V22  1  0.87679478  0.11604741  0.75483062  1
  V  V23  1  0.37586744  0.61972363  0.24591000  1
  V  V24  1  0.00045622  0.62123843  0.12836215  1
  V  V25  1  0.50209108  0.75272449  0.74528770  1
  V  V26  1  0.49730134  0.25026147  0.74907442  1
  V  V27  1  0.24153991  0.38189077  0.62245992  1
  V  V28  1  0.00323384  0.12982289  0.14129676  1
  V  V29  1  0.62489113  0.75018335  0.86626605  1
  V  V30  1  0.75051611  0.62570002  0.87685086  1
  V  V31  1  0.87714921  0.00589795  0.37066133  1
  V  V32  1  0.13012935  0.62046630  0.01053243  1
  V  V33  1  0.62707777  0.37774194  0.73792924  1
  V  V34  1  0.87845191  0.75489689  0.61909098  1
  V  V35  1  0.00179547  0.74776710  0.74861389  1
  V  V36  1  0.87463899  0.24320416  0.13666677  1
  V  V37  1  0.24582871  0.12503306  0.87972317  1
  V  V38  1  0.00143504  0.87858124  0.87376278  1
  V  V39  1  0.50663887  0.00014080  0.49371276  1
  V  V40  1  0.74687354  -0.00999995  0.75603051  1
  V  V41  1  0.62043181  0.75419828  0.37142610  1
  V  V42  1  0.36945018  0.00583763  0.37198821  1
  V  V43  1  0.87636587  0.62326999  0.74977758  1
  V  V44  1  0.50363760  0.62870124  0.12511549  1
  V  V45  1  -0.00313960  0.50073154  0.00417546  1
  V  V46  1  0.12492276  0.25012734  0.88279338  1
  V  V47  1  0.37713122  0.74836754  0.62174251  1
  V  V48  1  0.87292666  0.75107635  0.12430760  1
  V  V49  1  0.12105252  0.00103226  0.12937567  1
  V  V50  1  0.37300304  0.49691293  0.36769053  1
  V  V51  1  0.49966210  0.37339443  0.87223094  1
  V  V52  1  0.50049024  0.12385008  0.61939234  1
  V  V53  1  0.37529184  0.12496466  0.74858919  1
  V  V54  1  -0.00022246  0.37506504  0.87761990  1
  V  V55  1  0.62968860  0.24975965  0.36929503  1
  V  V56  1  0.74930462  0.25188683  0.00280909  1
  V  V57  1  0.38042778  0.87479869  0.49087900  1
  V  V58  1  0.37220505  0.49862241  0.87136075  1
  V  V59  1  0.23751792  0.23859500  0.49253357  1
  V  V60  1  0.50349796  0.87684186  0.87128827  1
  V  V61  1  0.50328511  0.12105274  0.12871671  1
  V  V62  1  0.00702573  0.61130904  0.62300649  1
  V  V63  1  0.24993911  0.75560057  0.00081032  1
  V  V64  1  0.73939254  0.76527561  0.00534734  1
  V  V65  1  0.12757198  0.00514296  0.61946733  1
  V  V66  1  0.24868116  0.62085989  0.36709803  1
  V  V67  1  0.62698633  -0.01345449  0.62459914  1
  V  V68  1  0.12725901  0.75525561  0.37203301  1
  V  V69  1  -0.00207285  0.24929444  0.74918757  1
  V  V70  1  0.00207274  0.12711734  0.61853508  1
  V  V71  1  0.12313468  0.38152416  0.75057854  1
  V  V72  1  0.86662744  0.37457667  0.50976030  1
  V  V73  1  0.86981322  0.49689810  0.87579528  1
  V  V74  1  0.37522259  -0.00031342  0.87367186  1
  V  V75  1  0.50409823  0.37155245  0.37408456  1
  V  V76  1  0.00330106  0.01684695  -0.00436199  1
  V  V77  1  0.36996794  0.24832814  0.62101071  1
  V  V78  1  0.12521271  0.60915268  0.50082317  1
  V  V79  1  0.62733044  0.62100901  0.00058963  1
  V  V80  1  0.24289364  0.87611911  0.13845508  1
  V  V81  1  -0.00319037  -0.00610929  0.50386222  1
  V  V82  1  0.68465959  0.18301756  0.54889516  1
  V  V83  1  0.74470537  0.48372615  0.24940155  1
  V  V84  1  0.36846128  0.37489991  0.49740219  1
  Zn  Zn85  1  0.62327028  0.24981567  0.87945611  1
  Zn  Zn86  1  0.25300876  0.87514236  0.62223022  1
  Zn  Zn87  1  0.37402636  0.62487128  0.74651070  1
  Zn  Zn88  1  0.37460513  0.75512097  0.12671363  1
  Zn  Zn89  1  0.62822997  0.47599143  0.13156227  1
  Zn  Zn90  1  0.24641402  0.40934182  0.14045984  1
  Zn  Zn91  1  0.62624053  0.12441036  0.00602576  1
  Zn  Zn92  1  0.63330624  0.62343100  0.50555139  1
  Zn  Zn93  1  0.12583661  0.74806989  0.87570911  1
  Zn  Zn94  1  0.00141499  0.37968964  0.38361965  1
  Zn  Zn95  1  0.74939421  0.62306934  0.37635555  1
  Zn  Zn96  1  0.72170510  0.87857557  0.14416729  1
  Zn  Zn97  1  0.87900320  0.49722630  0.38626880  1
  Zn  Zn98  1  0.72575771  0.00188752  0.24797092  1
  Zn  Zn99  1  0.50235689  0.75377492  0.24987652  1
  Zn  Zn100  1  0.24496074  0.50299681  0.74511856  1
  Zn  Zn101  1  0.55639357  0.91568953  0.30829848  1
  Zn  Zn102  1  0.24046646  0.00335758  0.25915795  1
  Zn  Zn103  1  0.50699823  0.61911202  0.62933937  1
  Zn  Zn104  1  0.75476889  0.87290601  0.62680363  1
  Zn  Zn105  1  0.85908891  0.25072498  0.62588822  1
  Zn  Zn106  1  0.37129600  0.87605776  -0.00128958  1
  Zn  Zn107  1  0.18036356  0.18919938  0.18716136  1
  Zn  Zn108  1  0.18570595  0.19237938  0.68890836  1
  Zn  Zn109  1  0.18826142  0.68613288  0.18947160  1
  Zn  Zn110  1  0.18884250  0.68644036  0.68408616  1
  Zn  Zn111  1  0.68657376  0.18911138  0.18861552  1
  Zn  Zn112  1  0.68035076  0.17865569  0.71294571  1
  Zn  Zn113  1  0.68785062  0.68648415  0.18998497  1
  Zn  Zn114  1  0.68943183  0.68177285  0.68191780  1
  Zn  Zn115  1  0.30422937  0.31219987  0.30868963  1
  Zn  Zn116  1  0.30940919  0.31288050  0.81312403  1
  Zn  Zn117  1  0.32192540  0.81158991  0.30985298  1
  Zn  Zn118  1  0.31512991  0.81207196  0.81122580  1
  Zn  Zn119  1  0.81619397  0.31489867  0.32060178  1
  Zn  Zn120  1  0.81112416  0.31063356  0.81510775  1
  Zn  Zn121  1  0.81515876  0.81297464  0.31699826  1
  Zn  Zn122  1  0.81607632  0.81114211  0.81544058  1
  Zn  Zn123  1  0.18738935  0.43218549  0.42760659  1
  Zn  Zn124  1  0.19832173  0.45017428  0.96604715  1
  Zn  Zn125  1  0.18737133  0.93549932  0.43816336  1
  Zn  Zn126  1  0.18055904  0.94051656  0.93860916  1
  Zn  Zn127  1  0.69372618  0.43423069  0.43389610  1
  Zn  Zn128  1  0.68698694  0.43404981  0.93534734  1
  Zn  Zn129  1  0.69474045  0.93713525  0.43957710  1
  Zn  Zn130  1  0.68224773  0.93156995  0.95193503  1
  Zn  Zn131  1  0.31343300  0.06188523  0.06515560  1
  Zn  Zn132  1  0.31429838  0.06086079  0.55945223  1
  Zn  Zn133  1  0.31856318  0.56332653  0.06003994  1
  Zn  Zn134  1  0.31508762  0.56245459  0.55750357  1
  Zn  Zn135  1  0.81715891  0.06187930  0.06251478  1
  Zn  Zn136  1  0.82021900  0.05680688  0.56712962  1
  Zn  Zn137  1  0.80627254  0.56259057  0.07084834  1
  Zn  Zn138  1  0.81764697  0.56628548  0.56016532  1
  Zn  Zn139  1  0.45955379  0.43223114  0.17931941  1
  Zn  Zn140  1  0.43276066  0.43537670  0.68552044  1
  Zn  Zn141  1  0.42719985  0.93988174  0.18416063  1
  Zn  Zn142  1  0.43978993  0.93416937  0.68346147  1
  Zn  Zn143  1  0.94106285  0.43725016  0.19811188  1
  Zn  Zn144  1  0.93289403  0.43341670  0.68308611  1
  Zn  Zn145  1  0.86909659  0.94128487  0.18753449  1
  Zn  Zn146  1  0.93826303  0.93785892  0.69014963  1
  Zn  Zn147  1  0.06121100  0.06193576  0.31440333  1
  Zn  Zn148  1  0.06542516  0.06267199  0.81177167  1
  Zn  Zn149  1  0.06005148  0.56186454  0.31462819  1
  Zn  Zn150  1  0.06256300  0.56201018  0.81792702  1
  Zn  Zn151  1  0.56107586  0.08019035  0.31826409  1
  Zn  Zn152  1  0.56641876  0.06248209  0.81309254  1
  Zn  Zn153  1  0.56605209  0.56596385  0.31684421  1
  Zn  Zn154  1  0.56333866  0.56324050  0.80700777  1
  Zn  Zn155  1  0.43574534  0.18663903  0.43377512  1
  Zn  Zn156  1  0.43465400  0.18625108  0.93969382  1
  Zn  Zn157  1  0.43942099  0.68440532  0.43411856  1
  Zn  Zn158  1  0.43549562  0.68902035  0.93694862  1
  Zn  Zn159  1  0.93349869  0.19593123  0.44300663  1
  Zn  Zn160  1  0.93005377  0.19149495  0.93508375  1
  Zn  Zn161  1  0.94063396  0.68177942  0.43976044  1
  Zn  Zn162  1  0.93778428  0.68913007  0.93814496  1
  Zn  Zn163  1  0.06329217  0.31334056  0.06934714  1
  Zn  Zn164  1  0.05794556  0.31760116  0.56023222  1
  Zn  Zn165  1  0.06518246  0.81112340  0.06434095  1
  Zn  Zn166  1  0.06619369  0.80795002  0.56145859  1
  Zn  Zn167  1  0.56103662  0.30930768  0.06318467  1
  Zn  Zn168  1  0.55612923  0.31806582  0.56193625  1
  Zn  Zn169  1  0.55817025  0.80970538  0.05481601  1
  Zn  Zn170  1  0.56540014  0.81150868  0.55621000  1
  O  O171  1  0.11025586  0.12199146  0.12298247  1
  O  O172  1  0.11569449  0.11479568  0.63723763  1
  O  O173  1  0.11775256  0.62657825  0.11652918  1
  O  O174  1  0.11977992  0.62747739  0.61396893  1
  O  O175  1  0.60840864  0.12829190  0.12638159  1
  O  O176  1  0.62432080  0.12425974  0.61500718  1
  O  O177  1  0.61894843  0.62962768  0.11385546  1
  O  O178  1  0.61900239  0.62507047  0.61879293  1
  O  O179  1  0.37423019  0.37952132  0.38384709  1
  O  O180  1  0.38325667  0.38157519  0.87521979  1
  O  O181  1  0.37376139  0.88138242  0.38585117  1
  O  O182  1  0.38542442  0.88123558  0.87409714  1
  O  O183  1  0.88030645  0.37346768  0.38946656  1
  O  O184  1  0.87975159  0.38099150  0.88476735  1
  O  O185  1  0.89128607  0.88274279  0.37695759  1
  O  O186  1  0.89656134  0.86949969  0.87531028  1
  O  O187  1  0.26295831  -0.00289910  0.37702470  1
  O  O188  1  0.25208516  0.00673284  0.87035877  1
  O  O189  1  0.26498488  0.50660225  0.37800195  1
  O  O190  1  0.25754467  0.50796008  0.87632269  1
  O  O191  1  0.76170047  0.00825342  0.37661758  1
  O  O192  1  0.73946300  0.00619236  0.87100445  1
  O  O193  1  0.75619854  0.50318527  0.36255422  1
  O  O194  1  0.75972038  0.50426208  0.87529342  1
  O  O195  1  0.23156152  0.49662706  0.07137933  1
  O  O196  1  0.25833436  0.48602197  0.62545823  1
  O  O197  1  0.23787232  0.99348518  0.12278665  1
  O  O198  1  0.24367204  0.99902665  0.62970966  1
  O  O199  1  0.74229956  0.49906074  0.13957028  1
  O  O200  1  0.75530058  0.50682257  0.63952534  1
  O  O201  1  0.77168116  0.99054128  0.13581212  1
  O  O202  1  0.74470805  0.99621552  0.63314336  1
  O  O203  1  0.01506454  0.37363749  0.25327293  1
  O  O204  1  0.00285888  0.36666662  0.75553406  1
  O  O205  1  -0.00238707  0.85999490  0.25850516  1
  O  O206  1  0.00927208  0.86905169  0.75407824  1
  O  O207  1  0.47706321  0.36319370  0.27062272  1
  O  O208  1  0.50318311  0.37129318  0.75472636  1
  O  O209  1  0.47992229  0.86467696  0.24721035  1
  O  O210  1  0.49774175  0.86248675  0.75624345  1
  O  O211  1  0.48986003  0.13724098  0.24511258  1
  O  O212  1  0.49604376  0.13056501  0.74246252  1
  O  O213  1  0.49619699  0.62743455  0.24031827  1
  O  O214  1  0.49526974  0.63804401  0.75038552  1
  O  O215  1  1.00147655  0.12937170  0.23927553  1
  O  O216  1  0.99260878  0.12922510  0.74846185  1
  O  O217  1  0.99107377  0.63092690  0.24257582  1
  O  O218  1  0.99983330  0.63226804  0.74731617  1
  O  O219  1  0.36692548  0.25877308  -0.00263294  1
  O  O220  1  0.36584972  0.25776017  0.50052525  1
  O  O221  1  0.36348780  0.75217467  0.00229076  1
  O  O222  1  0.37419039  0.75580694  0.50160250  1
  O  O223  1  0.86784949  0.25903854  0.00550269  1
  O  O224  1  0.87347472  0.26030864  0.51220539  1
  O  O225  1  0.87004412  0.75498818  0.00700018  1
  O  O226  1  0.87171654  0.74534068  0.50949924  1
  O  O227  1  0.13457512  0.25316327  0.49534399  1
  O  O228  1  0.13030249  0.25685841  0.98767787  1
  O  O229  1  0.13275115  0.74254713  0.48908220  1
  O  O230  1  0.13030770  0.73787401  0.99779404  1
  O  O231  1  0.62595316  0.25029508  0.49712276  1
  O  O232  1  0.63384721  0.24866794  1.00106804  1
  O  O233  1  0.63511427  0.74877156  0.49098292  1
  O  O234  1  0.62089923  0.73259125  0.98186556  1
  O  O235  1  0.49326371  0.24021264  0.13496553  1
  O  O236  1  0.49076470  0.24374829  0.62684051  1
  O  O237  1  0.49667594  0.74030219  0.12030907  1
  O  O238  1  0.49500947  0.75203603  0.63064075  1
  O  O239  1  0.98970152  0.23669787  0.11619621  1
  O  O240  1  1.00753972  0.24119911  0.64025090  1
  O  O241  1  0.99791207  0.73959509  0.13167837  1
  O  O242  1  0.99874622  0.74430173  0.63572914  1
  O  O243  1  0.01504396  0.25054507  0.38318588  1
  O  O244  1  0.00478669  0.25294422  0.86722778  1
  O  O245  1  0.00710692  0.75477129  0.37181644  1
  O  O246  1  0.00473949  0.75349322  0.86309948  1
  O  O247  1  0.50739216  0.25461772  0.37052793  1
  O  O248  1  0.49669866  0.25758923  0.86849632  1
  O  O249  1  0.51590203  0.74674488  0.37617379  1
  O  O250  1  0.50357896  0.75649662  0.86729713  1
  O  O251  1  0.25213825  0.14110585  0.50628618  1
  O  O252  1  0.25862298  0.13118926  0.98672451  1
  O  O253  1  0.24796374  0.63001071  0.48751149  1
  O  O254  1  0.24440581  0.63763191  0.99403171  1
  O  O255  1  0.74858063  0.12283232  0.49739063  1
  O  O256  1  0.74986469  0.12829827  0.99519760  1
  O  O257  1  0.75309139  0.63830670  0.49835327  1
  O  O258  1  0.74233157  0.63382869  0.99776614  1
  O  O259  1  0.26340081  0.35898710  -0.01418624  1
  O  O260  1  0.25340776  0.36837066  0.50503178  1
  O  O261  1  0.24444849  0.86367586  -0.00164529  1
  O  O262  1  0.25901506  0.86646333  0.50154264  1
  O  O263  1  0.75805908  0.36649672  -0.00199857  1
  O  O264  1  0.76427381  0.37363219  0.49736807  1
  O  O265  1  0.78099592  0.87424579  -0.02552007  1
  O  O266  1  0.75247055  0.86075829  0.50621229  1
  O  O267  1  0.12613692  0.49125873  0.25017840  1
  O  O268  1  0.12488768  0.48529080  0.75874080  1
  O  O269  1  0.12393392  1.00420331  0.23587231  1
  O  O270  1  0.13008917  0.99181614  0.74132346  1
  O  O271  1  0.64084870  0.50630056  0.25207476  1
  O  O272  1  0.63480096  0.49012362  0.75609996  1
  O  O273  1  0.61438875  0.99956851  0.26152897  1
  O  O274  1  0.63599328  1.00903274  0.73730125  1
  O  O275  1  0.36903075  0.01190397  0.25795342  1
  O  O276  1  0.36998990  0.00341562  0.75280331  1
  O  O277  1  0.38568811  0.50950184  0.25501766  1
  O  O278  1  0.37253609  0.50146512  0.76035815  1
  O  O279  1  0.89744451  0.00904262  0.27215520  1
  O  O280  1  0.86822815  0.00946290  0.74834993  1
  O  O281  1  0.86273156  0.50800149  0.24461710  1
  O  O282  1  0.86883679  0.50235326  0.75976998  1
  O  O283  1  0.12345182  0.36584167  0.36364999  1
  O  O284  1  0.11606939  0.36779859  0.87004187  1
  O  O285  1  0.11639823  0.86443989  0.37793902  1
  O  O286  1  0.11916905  0.87290560  0.86271970  1
  O  O287  1  0.61388391  0.36364331  0.38147766  1
  O  O288  1  0.60975797  0.37398760  0.87159109  1
  O  O289  1  0.62808685  0.86033039  0.38111566  1
  O  O290  1  0.61140227  0.86470674  0.87897531  1
  O  O291  1  0.38282306  0.11977527  0.14089736  1
  O  O292  1  0.37873726  0.12887047  0.63076568  1
  O  O293  1  0.38158334  0.62630858  0.13042065  1
  O  O294  1  0.37981944  0.63710415  0.62246998  1
  O  O295  1  0.88800316  0.13644994  0.12109530  1
  O  O296  1  0.88443604  0.12747840  0.63666430  1
  O  O297  1  0.88178670  0.63541495  0.12792698  1
  O  O298  1  0.88695709  0.63412687  0.63236369  1
  O  O299  1  0.24375549  0.24605720  0.10892635  1
  O  O300  1  0.25215807  0.25910280  0.61646803  1
  O  O301  1  0.24646967  0.75848667  0.11844898  1
  O  O302  1  0.26028504  0.75022058  0.61662034  1
  O  O303  1  0.76262609  0.24023164  0.11424873  1
  O  O304  1  0.73718571  0.23112540  0.62178863  1
  O  O305  1  0.76045845  0.75367761  0.12340929  1
  O  O306  1  0.76252573  0.75093265  0.62131115  1
  O  O307  1  0.24056788  0.25252836  0.38827871  1
  O  O308  1  0.24219505  0.24170321  0.87768135  1
  O  O309  1  0.24507562  0.74309787  0.37602539  1
  O  O310  1  0.24936395  0.74321010  0.88015511  1
  O  O311  1  0.74161796  0.24291091  0.37005297  1
  O  O312  1  0.74992023  0.24126222  0.88861855  1
  O  O313  1  0.74527552  0.74896036  0.38182734  1
  O  O314  1  0.74070582  0.74683750  0.87959670  1
  O  O315  1  -0.00150844  0.11669009  -0.00950239  1
  O  O316  1  -0.00235363  0.11838667  0.51578454  1
  O  O317  1  0.00532835  0.62150583  0.00812708  1
  O  O318  1  0.01307216  0.62756175  0.51102629  1
  O  O319  1  0.49715772  0.11933271  0.00997301  1
  O  O320  1  0.49126672  0.11181291  0.50669856  1
  O  O321  1  0.50747280  0.62125714  0.00082028  1
  O  O322  1  0.49722336  0.60700429  0.49789174  1
  O  O323  1  0.48854265  0.38103770  0.49156739  1
  O  O324  1  0.49072492  0.37730689  0.98844012  1
  O  O325  1  0.49212619  0.88791775  0.50528906  1
  O  O326  1  0.49354232  0.88332858  0.99052052  1
  O  O327  1  0.98384130  0.37390390  0.50265229  1
  O  O328  1  0.99284088  0.38380522  0.99772428  1
  O  O329  1  1.00668108  0.88191040  0.49496487  1
  O  O330  1  0.99955676  0.87477349  0.99006832  1
  O  O331  1  0.49157863  0.49189265  0.38090878  1
  O  O332  1  0.49369533  0.49399299  0.87642752  1
  O  O333  1  0.49026376  1.00208434  0.38266376  1
  O  O334  1  0.49582367  0.99324044  0.87547256  1
  O  O335  1  0.99134058  0.49576583  0.36805802  1
  O  O336  1  0.98489406  0.49792233  0.88172667  1
  O  O337  1  1.00299679  0.99289059  0.38761768  1
  O  O338  1  1.01002324  0.99241194  0.88570879  1
  O  O339  1  0.00292576  0.01831572  0.11303854  1
  O  O340  1  0.00684284  0.00511245  0.62254001  1
  O  O341  1  -0.00910606  0.51316120  0.11845567  1
  O  O342  1  0.00023510  0.51333830  0.63733989  1
  O  O343  1  0.49117515  0.00699346  0.11416160  1
  O  O344  1  0.50996854  0.00547561  0.62113605  1
  O  O345  1  0.49961322  0.51965326  0.11173544  1
  O  O346  1  0.49114643  0.49721386  0.60772339  1
  O  O347  1  0.23587414  0.37691087  0.24791265  1
  O  O348  1  0.24026509  0.37490816  0.74163356  1
  O  O349  1  0.25263919  0.87744640  0.24093050  1
  O  O350  1  0.24389705  0.88068852  0.74788269  1
  O  O351  1  0.75048364  0.38517939  0.25226617  1
  O  O352  1  0.73910975  0.38289241  0.75918146  1
  O  O353  1  0.77190949  0.88784022  0.24490341  1
  O  O354  1  0.75592045  0.88689727  0.75278496  1
  O  O355  1  0.26111054  0.12559918  0.24355126  1
  O  O356  1  0.25533139  0.12094473  0.75721368  1
  O  O357  1  0.25721797  0.62363201  0.25963173  1
  O  O358  1  0.25127060  0.62266797  0.75843756  1
  O  O359  1  0.74650331  0.12133475  0.26239245  1
  O  O360  1  0.75870877  0.11271881  0.76034254  1
  O  O361  1  0.76404317  0.62516695  0.24934784  1
  O  O362  1  0.75689103  0.61771489  0.75893742  1
  O  O363  1  0.37789073  0.11789938  0.36057454  1
  O  O364  1  0.36853006  0.11921082  0.86629439  1
  O  O365  1  0.37013558  0.61662858  0.36710627  1
  O  O366  1  0.36424535  0.61819540  0.87473684  1
  O  O367  1  0.86474408  0.12036143  0.38596898  1
  O  O368  1  0.86288455  0.12612536  0.86766674  1
  O  O369  1  0.87446376  0.62465776  0.36521302  1
  O  O370  1  0.87057272  0.61785056  0.87154448  1
  O  O371  1  0.12734114  0.37086143  0.14163699  1
  O  O372  1  0.13196169  0.36868502  0.63561014  1
  O  O373  1  0.13182135  0.88503073  0.12112190  1
  O  O374  1  0.12722884  0.88015107  0.63478171  1
  O  O375  1  0.56555953  0.38352756  0.14432982  1
  O  O376  1  0.61912049  0.37301252  0.63877411  1
  O  O377  1  0.66098831  0.85537977  0.05410832  1
  O  O378  1  0.62721898  0.88417919  0.62623132  1
  O  O379  1  0.12779008  0.25310197  0.26398957  1
  O  O380  1  0.11779316  0.25855229  0.76128165  1
  O  O381  1  0.11651326  0.74024613  0.26313814  1
  O  O382  1  0.12026309  0.75704358  0.74956696  1
  O  O383  1  0.61257888  0.24878575  0.25754127  1
  O  O384  1  0.61438914  0.25889026  0.75704002  1
  O  O385  1  0.62570256  0.74919896  0.26460132  1
  O  O386  1  0.61962516  0.74498039  0.75985939  1
  O  O387  1  0.37882359  0.23873512  0.25618447  1
  O  O388  1  0.37791328  0.24582123  0.74248653  1
  O  O389  1  0.37653499  0.73235162  0.24754494  1
  O  O390  1  0.38222750  0.74971914  0.73860886  1
  O  O391  1  0.86904253  0.25444674  0.23417106  1
  O  O392  1  0.88136546  0.24105384  0.74895266  1
  O  O393  1  0.88327056  0.74281770  0.24267257  1
  O  O394  1  0.88437409  0.74164226  0.74714977  1
  O  O395  1  0.38136923  0.49101773  0.49034507  1
  O  O396  1  0.38431094  0.49383741  0.98518852  1
  O  O397  1  0.38144094  0.99306559  0.49400730  1
  O  O398  1  0.38245467  1.00102326  0.98879085  1
  O  O399  1  0.87177954  0.48587422  0.50464770  1
  O  O400  1  0.87771378  0.49505499  0.99799649  1
  O  O401  1  0.89111766  0.99998061  0.49604736  1
  O  O402  1  0.89567963  0.99098154  1.00263277  1
  O  O403  1  0.10986995  -0.00209980  0.00977188  1
  O  O404  1  0.11905015  -0.00479576  0.51439558  1
  O  O405  1  0.10177631  0.51013974  -0.01353308  1
  O  O406  1  0.13521237  0.51056515  0.49480219  1
  O  O407  1  0.60659113  0.00723028  -0.00594507  1
  O  O408  1  0.61686706  -0.00406572  0.50780229  1
  O  O409  1  0.62244116  0.50770767  0.00106850  1
  O  O410  1  0.60896494  0.49565836  0.49151501  1
  O  O411  1  0.36920875  0.38826057  0.11119036  1
  O  O412  1  0.36769983  0.36792448  0.61360984  1
  O  O413  1  0.35601411  0.87547061  0.11655367  1
  O  O414  1  0.37491025  0.86449204  0.61389995  1
  O  O415  1  0.88402347  0.36400093  0.11662434  1
  O  O416  1  0.86991104  0.36745376  0.62037641  1
  O  O417  1  0.89122606  0.85918759  0.11185817  1
  O  O418  1  0.87922702  0.85858056  0.63311436  1
  O  O419  1  0.12505828  0.13796331  0.37220492  1
  O  O420  1  0.13611208  0.13416300  0.86875721  1
  O  O421  1  0.13381809  0.62990726  0.37945404  1
  O  O422  1  0.13675766  0.62457287  0.88424202  1
  O  O423  1  0.63453063  0.14120849  0.38393898  1
  O  O424  1  0.63703398  0.13054313  0.87597179  1
  O  O425  1  0.62957917  0.63704129  0.38291280  1
  O  O426  1  0.63191299  0.62775505  0.87887273  1
