# generated using pymatgen
data_V85Zn86O256
_symmetry_space_group_name_H-M   'P 1'
_cell_length_a   16.93595986
_cell_length_b   16.92649540
_cell_length_c   16.92175437
_cell_angle_alpha   89.94659543
_cell_angle_beta   90.02076662
_cell_angle_gamma   89.98417037
_symmetry_Int_Tables_number   1
_chemical_formula_structural   V85Zn86O256
_chemical_formula_sum   'V85 Zn86 O256'
_cell_volume   4850.89658436
_cell_formula_units_Z   1
loop_
 _symmetry_equiv_pos_site_id
 _symmetry_equiv_pos_as_xyz
  1  'x, y, z'
loop_
 _atom_site_type_symbol
 _atom_site_label
 _atom_site_symmetry_multiplicity
 _atom_site_fract_x
 _atom_site_fract_y
 _atom_site_fract_z
 _atom_site_occupancy
  V  V0  1  0.24560613  0.12593561  0.88326335  1
  V  V1  1  0.74743022  0.62350491  0.87326711  1
  V  V2  1  0.50621638  0.36664458  0.37523515  1
  V  V3  1  0.37399690  -0.00049828  0.87987278  1
  V  V4  1  -0.00418710  0.75835354  0.75056799  1
  V  V5  1  0.49736705  0.87689701  0.37997675  1
  V  V6  1  0.24215403  0.62732635  0.88108892  1
  V  V7  1  0.00323610  -0.00564996  -0.00691021  1
  V  V8  1  0.25115217  0.37420737  0.62832591  1
  V  V9  1  0.00415875  0.12168149  0.11945693  1
  V  V10  1  0.63291257  0.36961059  0.25219009  1
  V  V11  1  0.49447871  0.25188235  0.24407961  1
  V  V12  1  0.62191904  0.62334672  0.00091129  1
  V  V13  1  0.37865847  0.50500764  0.36981040  1
  V  V14  1  0.24938766  0.00219132  0.75176743  1
  V  V15  1  0.25097359  0.24921373  0.01482863  1
  V  V16  1  0.12336747  0.37486658  0.75632000  1
  V  V17  1  0.12250475  0.24805679  0.89136337  1
  V  V18  1  0.12680345  0.87357514  0.25447314  1
  V  V19  1  0.49808871  0.74281859  0.25213348  1
  V  V20  1  0.24419322  0.75476926  0.00573271  1
  V  V21  1  0.00135122  0.49491017  0.00140903  1
  V  V22  1  0.62226763  0.11741673  0.50339500  1
  V  V23  1  0.25085620  0.87704739  0.61761132  1
  V  V24  1  0.87449783  0.75390763  0.12560649  1
  V  V25  1  0.37501803  0.00172314  0.38577438  1
  V  V26  1  0.74883356  0.75171298  -0.00047610  1
  V  V27  1  0.36860734  0.49601539  0.87925237  1
  V  V28  1  0.74407330  0.25222661  0.49207039  1
  V  V29  1  0.49793842  0.74756832  0.75241611  1
  V  V30  1  0.01099994  0.62999807  0.11784770  1
  V  V31  1  -0.00119224  0.24797954  0.74882980  1
  V  V32  1  0.49807809  0.49780360  0.00388454  1
  V  V33  1  0.74757792  0.25254431  -0.00293236  1
  V  V34  1  0.00172978  0.74944541  0.25688843  1
  V  V35  1  0.75279089  0.49713382  0.74819618  1
  V  V36  1  0.74191286  -0.00137455  0.74360517  1
  V  V37  1  -0.00541273  0.87402407  0.37706104  1
  V  V38  1  0.75444113  0.62241475  0.37688312  1
  V  V39  1  0.00213442  0.62244473  0.62398394  1
  V  V40  1  0.23957197  0.12878296  0.38057679  1
  V  V41  1  0.63061985  0.49900204  0.12997827  1
  V  V42  1  0.12349354  0.00895201  0.61998913  1
  V  V43  1  0.75690895  0.37673064  0.12220181  1
  V  V44  1  0.87534268  0.49287022  0.88110088  1
  V  V45  1  0.38654032  0.24885802  0.62968469  1
  V  V46  1  0.37150498  0.87611159  0.01144529  1
  V  V47  1  0.37184411  0.62578086  0.75301529  1
  V  V48  1  0.37120695  0.74316935  0.13026144  1
  V  V49  1  0.86704098  0.61430987  0.24536776  1
  V  V50  1  0.74302560  0.87443833  0.61385792  1
  V  V51  1  0.11664266  0.75111770  0.87993487  1
  V  V52  1  0.62169060  0.87975545  0.24194439  1
  V  V53  1  0.74442080  0.12178416  0.37149493  1
  V  V54  1  0.51064357  -0.00380728  0.00899756  1
  V  V55  1  0.62165097  0.74558107  0.87290533  1
  V  V56  1  0.13101485  0.63125919  0.49945088  1
  V  V57  1  0.87635598  0.24734339  0.11948653  1
  V  V58  1  0.75144178  0.12394117  0.87380166  1
  V  V59  1  0.50122627  0.12534153  0.12679319  1
  V  V60  1  0.87750936  0.25337805  0.62092565  1
  V  V61  1  0.87944380  0.38257510  0.48048842  1
  V  V62  1  0.49716318  0.87297567  0.87661443  1
  V  V63  1  0.74678920  -0.00031961  0.24369108  1
  V  V64  1  0.12220735  0.87779887  0.75335348  1
  V  V65  1  0.13351066  0.49598121  0.11842850  1
  V  V66  1  0.62965290  0.63441497  0.49795681  1
  V  V67  1  0.50282618  0.50037853  0.49778658  1
  V  V68  1  0.49905510  0.62549795  0.62490088  1
  V  V69  1  0.12219135  0.49515796  0.62413315  1
  V  V70  1  0.37859700  0.37328802  0.50159119  1
  V  V71  1  0.12849090  -0.00263902  0.12183542  1
  V  V72  1  0.62836934  0.49933086  0.62312334  1
  V  V73  1  -0.00568166  0.00642362  0.49489068  1
  V  V74  1  0.87280312  0.75047114  0.60909499  1
  V  V75  1  0.25163963  -0.00156084  0.24893262  1
  V  V76  1  0.87647674  0.62521101  0.74862923  1
  V  V77  1  0.25188260  0.63315292  0.36905130  1
  V  V78  1  0.87739860  0.11832096  0.25270580  1
  V  V79  1  0.37030183  0.36977794  0.01967424  1
  V  V80  1  0.25168170  0.49252778  0.24907355  1
  V  V81  1  0.38346050  0.13144948  0.75643487  1
  V  V82  1  0.24119975  0.24706774  0.50229431  1
  V  V83  1  0.37227115  0.75372077  0.61804268  1
  V  V84  1  0.87745993  -0.01054758  0.86978332  1
  Zn  Zn85  1  0.63011190  0.12014353  0.00594135  1
  Zn  Zn86  1  0.74541239  0.88149405  0.11996078  1
  Zn  Zn87  1  0.11999754  0.37254525  0.27716686  1
  Zn  Zn88  1  0.50018546  -0.00714339  0.51126244  1
  Zn  Zn89  1  0.37341338  0.12955976  0.24990159  1
  Zn  Zn90  1  0.61792268  0.36703242  0.75114549  1
  Zn  Zn91  1  0.00152975  0.25337433  0.26910092  1
  Zn  Zn92  1  -0.00562874  0.36773144  0.88644253  1
  Zn  Zn93  1  0.51249143  0.11929649  0.63730389  1
  Zn  Zn94  1  0.75158600  0.37499192  0.62000408  1
  Zn  Zn95  1  0.00526296  0.13141846  0.61938158  1
  Zn  Zn96  1  0.87928169  0.87090720  -0.00636401  1
  Zn  Zn97  1  0.49766952  0.62219758  0.13259154  1
  Zn  Zn98  1  0.49785270  0.36337698  0.87153380  1
  Zn  Zn99  1  0.24540786  0.50213655  0.75291421  1
  Zn  Zn100  1  0.61416107  0.24484943  0.86456550  1
  Zn  Zn101  1  0.86999642  0.87382288  0.49164846  1
  Zn  Zn102  1  0.87564508  0.12306560  0.74475375  1
  Zn  Zn103  1  0.25030703  0.75758737  0.49258492  1
  Zn  Zn104  1  0.02885757  0.46729353  0.44358655  1
  Zn  Zn105  1  0.63008176  0.75483478  0.37498815  1
  Zn  Zn106  1  0.61942290  0.87821708  0.74458467  1
  Zn  Zn107  1  0.18440865  0.18150341  0.19463374  1
  Zn  Zn108  1  0.19125633  0.19124878  0.69287450  1
  Zn  Zn109  1  0.18907837  0.68856551  0.19050040  1
  Zn  Zn110  1  0.18668312  0.68955346  0.69023218  1
  Zn  Zn111  1  0.68256977  0.18823616  0.18615019  1
  Zn  Zn112  1  0.69201173  0.18977323  0.68451315  1
  Zn  Zn113  1  0.68573786  0.69086460  0.18834407  1
  Zn  Zn114  1  0.68882172  0.68889935  0.68521398  1
  Zn  Zn115  1  0.31354292  0.31316324  0.31591707  1
  Zn  Zn116  1  0.31081108  0.31076033  0.81751198  1
  Zn  Zn117  1  0.31681955  0.81861700  0.31078474  1
  Zn  Zn118  1  0.30952744  0.81383856  0.81312568  1
  Zn  Zn119  1  0.81505881  0.30601154  0.30804829  1
  Zn  Zn120  1  0.80922336  0.31238690  0.81049211  1
  Zn  Zn121  1  0.81007303  0.80870529  0.31148445  1
  Zn  Zn122  1  0.80833624  0.81277394  0.80582541  1
  Zn  Zn123  1  0.19849413  0.44182658  0.44245353  1
  Zn  Zn124  1  0.18393282  0.43484063  0.94626340  1
  Zn  Zn125  1  0.18125439  0.94106816  0.43534894  1
  Zn  Zn126  1  0.18561292  0.93500889  0.93839512  1
  Zn  Zn127  1  0.69330700  0.44241802  0.43264831  1
  Zn  Zn128  1  0.68503501  0.43251335  0.93774762  1
  Zn  Zn129  1  0.68706342  0.94024816  0.42867591  1
  Zn  Zn130  1  0.68764986  0.93372427  0.93018253  1
  Zn  Zn131  1  0.31606392  0.06613051  0.06744580  1
  Zn  Zn132  1  0.31558827  0.06573597  0.56587224  1
  Zn  Zn133  1  0.31070171  0.56746823  0.06115812  1
  Zn  Zn134  1  0.31217373  0.56189690  0.56165029  1
  Zn  Zn135  1  0.81620516  0.06049424  0.05982804  1
  Zn  Zn136  1  0.81358078  0.06298517  0.56149158  1
  Zn  Zn137  1  0.81326936  0.56426002  0.06234721  1
  Zn  Zn138  1  0.81500692  0.56259331  0.55829882  1
  Zn  Zn139  1  0.43999354  0.43916862  0.19165959  1
  Zn  Zn140  1  0.43565922  0.43940804  0.68980962  1
  Zn  Zn141  1  0.43632938  0.93845762  0.19173033  1
  Zn  Zn142  1  0.43602758  0.94014623  0.68845714  1
  Zn  Zn143  1  0.93972637  0.43785847  0.18418760  1
  Zn  Zn144  1  0.93946053  0.43246726  0.68518921  1
  Zn  Zn145  1  0.93678597  0.93728715  0.18664350  1
  Zn  Zn146  1  0.93339286  0.93776463  0.68075667  1
  Zn  Zn147  1  0.06000464  0.06402042  0.31308430  1
  Zn  Zn148  1  0.06197931  0.06566387  0.81386679  1
  Zn  Zn149  1  0.07026933  0.56831361  0.30135135  1
  Zn  Zn150  1  0.06060824  0.56452391  0.81384704  1
  Zn  Zn151  1  0.56420684  0.06311838  0.31438394  1
  Zn  Zn152  1  0.56430765  0.06161807  0.81967654  1
  Zn  Zn153  1  0.56971430  0.56029503  0.31342625  1
  Zn  Zn154  1  0.54994314  0.53509329  0.80389834  1
  Zn  Zn155  1  0.43513026  0.18671237  0.43724746  1
  Zn  Zn156  1  0.43787206  0.18716222  0.94414530  1
  Zn  Zn157  1  0.43824751  0.68845783  0.43670584  1
  Zn  Zn158  1  0.43377435  0.68427443  0.94263089  1
  Zn  Zn159  1  0.92557385  0.18164894  0.43807516  1
  Zn  Zn160  1  0.93469831  0.18105665  0.93964607  1
  Zn  Zn161  1  0.95563327  0.65271194  0.42059295  1
  Zn  Zn162  1  0.93575432  0.68388965  0.93703335  1
  Zn  Zn163  1  0.06795177  0.31216666  0.13050519  1
  Zn  Zn164  1  0.06174065  0.29970600  0.44536332  1
  Zn  Zn165  1  0.06284704  0.81873376  0.06621671  1
  Zn  Zn166  1  0.06311300  0.81406701  0.56284600  1
  Zn  Zn167  1  0.56415074  0.31046119  0.06019084  1
  Zn  Zn168  1  0.56722241  0.30917125  0.56355610  1
  Zn  Zn169  1  0.55999049  0.80977939  0.06522631  1
  Zn  Zn170  1  0.56051167  0.81255434  0.56305299  1
  O  O171  1  0.11255149  0.11060510  0.13031489  1
  O  O172  1  0.12740156  0.11197997  0.63401812  1
  O  O173  1  0.11544758  0.62143686  0.13004773  1
  O  O174  1  0.12261328  0.61590503  0.62501825  1
  O  O175  1  0.60957936  0.12337832  0.12369512  1
  O  O176  1  0.62885530  0.12647747  0.60785703  1
  O  O177  1  0.62531449  0.61580259  0.11987212  1
  O  O178  1  0.62259303  0.61836101  0.61712383  1
  O  O179  1  0.38462381  0.38548808  0.38113201  1
  O  O180  1  0.37304220  0.38882491  0.87912630  1
  O  O181  1  0.38470073  0.88718516  0.37289966  1
  O  O182  1  0.37892560  0.87805423  0.88556982  1
  O  O183  1  0.87378599  0.37373522  0.38046394  1
  O  O184  1  0.87664397  0.38898556  0.87020771  1
  O  O185  1  0.88899361  0.86832997  0.37297256  1
  O  O186  1  0.87045762  0.88521235  0.87199097  1
  O  O187  1  0.25555062  0.00879728  0.37341103  1
  O  O188  1  0.25271370  0.00729528  0.87424414  1
  O  O189  1  0.26061670  0.50929724  0.36953375  1
  O  O190  1  0.25222288  0.50941402  0.88051472  1
  O  O191  1  0.74956296  0.00866410  0.35924702  1
  O  O192  1  0.75724228  0.00309833  0.86637594  1
  O  O193  1  0.74131404  0.52191919  0.36526453  1
  O  O194  1  0.75600959  0.50439626  0.86931429  1
  O  O195  1  0.24026802  0.51554377  0.13418699  1
  O  O196  1  0.24361138  0.49328386  0.62883872  1
  O  O197  1  0.24185030  1.00782568  0.13629076  1
  O  O198  1  0.24401872  0.99507041  0.62961148  1
  O  O199  1  0.74223267  0.49006119  0.11639323  1
  O  O200  1  0.74492264  0.50129957  0.63016787  1
  O  O201  1  0.75354926  0.99939159  0.13633614  1
  O  O202  1  0.75689701  0.98568608  0.63065136  1
  O  O203  1  0.01020810  0.36463661  0.22677592  1
  O  O204  1  0.00955152  0.36553260  0.75522166  1
  O  O205  1  0.00453841  0.86941278  0.25550904  1
  O  O206  1  0.00531144  0.86534950  0.74369828  1
  O  O207  1  0.50770974  0.36979685  0.25566217  1
  O  O208  1  0.51268652  0.41951675  0.76696216  1
  O  O209  1  0.50499729  0.86912035  0.25789169  1
  O  O210  1  0.49799422  0.86616807  0.75849613  1
  O  O211  1  0.50219324  0.13404167  0.24406878  1
  O  O212  1  0.48678344  0.11820907  0.75559648  1
  O  O213  1  0.50533993  0.63834475  0.25304521  1
  O  O214  1  0.49146879  0.62555091  0.74440569  1
  O  O215  1  0.99137562  0.12192311  0.24015287  1
  O  O216  1  0.99804592  0.13763048  0.74909077  1
  O  O217  1  0.99064091  0.63470389  0.23584250  1
  O  O218  1  0.99760765  0.63618067  0.74161739  1
  O  O219  1  0.36749198  0.26341213  0.00182965  1
  O  O220  1  0.37114792  0.25550564  0.51003105  1
  O  O221  1  0.36703851  0.75741933  0.00744348  1
  O  O222  1  0.37307142  0.74719532  0.51491089  1
  O  O223  1  0.86295741  0.24280305  0.01069695  1
  O  O224  1  0.86632867  0.25933367  0.50427928  1
  O  O225  1  0.86631170  0.75002190  0.00428154  1
  O  O226  1  0.88234715  0.74732755  0.50930945  1
  O  O227  1  0.14253135  0.25452585  0.51303236  1
  O  O228  1  0.13341226  0.25553029  0.99224155  1
  O  O229  1  0.13195071  0.73628376  0.51044153  1
  O  O230  1  0.13066828  0.76032995  0.99161109  1
  O  O231  1  0.63870169  0.24255975  0.50143902  1
  O  O232  1  0.63856277  0.24487912  0.99969506  1
  O  O233  1  0.62190368  0.73729761  0.49975830  1
  O  O234  1  0.62987986  0.74436298  0.99537570  1
  O  O235  1  0.50197332  0.23915707  0.13044165  1
  O  O236  1  0.49000017  0.24503591  0.62342975  1
  O  O237  1  0.49071199  0.74777504  0.13424759  1
  O  O238  1  0.49150351  0.74598083  0.63221252  1
  O  O239  1  0.98932819  0.23421961  0.10847556  1
  O  O240  1  0.99246231  0.24874328  0.63690315  1
  O  O241  1  0.99329474  0.74622627  0.12817655  1
  O  O242  1  0.99341820  0.74610046  0.63379760  1
  O  O243  1  0.00343515  0.23401666  0.37894150  1
  O  O244  1  0.00540010  0.24859660  0.87376426  1
  O  O245  1  -0.00056912  0.75054098  0.36155176  1
  O  O246  1  0.00814210  0.74515729  0.86783073  1
  O  O247  1  0.49754553  0.26296663  0.37056305  1
  O  O248  1  0.49892008  0.24978960  0.87756955  1
  O  O249  1  0.49843064  0.75843355  0.36794517  1
  O  O250  1  0.50062684  0.75149590  0.87215857  1
  O  O251  1  0.25489391  0.13214581  0.49008508  1
  O  O252  1  0.25854021  0.13215263  0.99003002  1
  O  O253  1  0.24703102  0.62728489  0.49085769  1
  O  O254  1  0.25309983  0.64011136  0.98908114  1
  O  O255  1  0.74402966  0.12834973  0.49150231  1
  O  O256  1  0.75018108  0.12891532  0.99210746  1
  O  O257  1  0.74600558  0.62336352  0.48683649  1
  O  O258  1  0.74421738  0.63497225  0.99490480  1
  O  O259  1  0.26355982  0.36650396  -0.00200273  1
  O  O260  1  0.26096217  0.36932247  0.50846386  1
  O  O261  1  0.25821878  0.86399218  -0.00375526  1
  O  O262  1  0.24188990  0.87522804  0.51290200  1
  O  O263  1  0.74885415  0.36530136  0.00938561  1
  O  O264  1  0.75551698  0.36765773  0.49621501  1
  O  O265  1  0.74956976  0.86219229  -0.00110317  1
  O  O266  1  0.74971590  0.88019199  0.50901963  1
  O  O267  1  0.13226179  0.49711137  0.23687258  1
  O  O268  1  0.12526493  0.49198758  0.74893675  1
  O  O269  1  0.13126352  0.99451787  0.24552688  1
  O  O270  1  0.12825955  0.99356863  0.74617898  1
  O  O271  1  0.61904520  0.48950321  0.23557187  1
  O  O272  1  0.64032873  0.51043418  0.73691862  1
  O  O273  1  0.63194782  0.99149176  0.25201493  1
  O  O274  1  0.63779634  0.99774493  0.75521106  1
  O  O275  1  0.36479978  0.00069700  0.25927720  1
  O  O276  1  0.36602821  0.00588275  0.76156330  1
  O  O277  1  0.36885320  0.49870132  0.25941041  1
  O  O278  1  0.36683116  0.50870556  0.76161854  1
  O  O279  1  0.86791642  0.01124493  0.24374518  1
  O  O280  1  0.86748701  0.00044900  0.75382534  1
  O  O281  1  0.87701014  0.51631871  0.23871071  1
  O  O282  1  0.87077885  0.50575175  0.75412494  1
  O  O283  1  0.11066057  0.39214318  0.39108481  1
  O  O284  1  0.12154912  0.36767776  0.87157888  1
  O  O285  1  0.11304929  0.87757027  0.36323011  1
  O  O286  1  0.12850179  0.86698592  0.86122507  1
  O  O287  1  0.61805041  0.38389618  0.36390445  1
  O  O288  1  0.61988642  0.36971716  0.87333375  1
  O  O289  1  0.61663919  0.87375454  0.36388992  1
  O  O290  1  0.61496826  0.86347677  0.87148230  1
  O  O291  1  0.39274009  0.12096258  0.13277556  1
  O  O292  1  0.37348891  0.13450932  0.63889332  1
  O  O293  1  0.37778285  0.63871626  0.12205678  1
  O  O294  1  0.37713949  0.63173569  0.63256097  1
  O  O295  1  0.88234257  0.12878933  0.12956069  1
  O  O296  1  0.87707578  0.13927093  0.62348892  1
  O  O297  1  0.87842261  0.63567013  0.13109831  1
  O  O298  1  0.88297836  0.62957288  0.62824607  1
  O  O299  1  0.24801055  0.23521277  0.11316054  1
  O  O300  1  0.25990980  0.25592025  0.62162543  1
  O  O301  1  0.25575419  0.74734530  0.11707305  1
  O  O302  1  0.25675177  0.75915482  0.62807303  1
  O  O303  1  0.75558571  0.25426829  0.11797845  1
  O  O304  1  0.75968822  0.25286813  0.61181638  1
  O  O305  1  0.75665842  0.75124593  0.11544773  1
  O  O306  1  0.75943534  0.76230159  0.62834554  1
  O  O307  1  0.25453545  0.23802515  0.38423691  1
  O  O308  1  0.24242514  0.24282247  0.88376064  1
  O  O309  1  0.26275180  0.73702981  0.37477291  1
  O  O310  1  0.23943343  0.74612903  0.88147897  1
  O  O311  1  0.75500236  0.23947250  0.38306476  1
  O  O312  1  0.75497489  0.24047186  0.88221378  1
  O  O313  1  0.74365861  0.73285937  0.36504039  1
  O  O314  1  0.74376781  0.74397160  0.87889796  1
  O  O315  1  -0.00527042  0.10815017  0.00876071  1
  O  O316  1  -0.00324833  0.10960251  0.50123555  1
  O  O317  1  -0.00621853  0.62010159  0.01325589  1
  O  O318  1  0.01240948  0.63362400  0.51887494  1
  O  O319  1  0.50021315  0.11379305  0.01146788  1
  O  O320  1  0.51742135  0.12934246  0.49618385  1
  O  O321  1  0.50521955  0.61754913  0.00707740  1
  O  O322  1  0.50802390  0.62071030  0.50507796  1
  O  O323  1  0.50024220  0.37877726  0.49305600  1
  O  O324  1  0.48594762  0.38129102  1.00242000  1
  O  O325  1  0.50625842  0.87541666  0.48537825  1
  O  O326  1  0.49195867  0.87883248  0.99749670  1
  O  O327  1  0.98413021  0.37593444  0.49770445  1
  O  O328  1  1.00278425  0.39399623  1.00363960  1
  O  O329  1  0.99954170  0.87991373  0.49204571  1
  O  O330  1  0.99710536  0.88786046  1.00160759  1
  O  O331  1  0.49560853  0.49453502  0.37845772  1
  O  O332  1  0.48514166  0.50788818  0.89588480  1
  O  O333  1  0.49141923  0.99444347  0.37619507  1
  O  O334  1  0.49316117  0.99281296  0.88563823  1
  O  O335  1  0.99560331  0.54987013  0.38065112  1
  O  O336  1  0.99222138  0.50321240  0.88379757  1
  O  O337  1  1.00389249  0.99211714  0.38779677  1
  O  O338  1  0.99163959  1.00412522  0.88048863  1
  O  O339  1  0.00559622  0.00361764  0.11758678  1
  O  O340  1  0.00765170  0.00169651  0.61651702  1
  O  O341  1  0.01271999  0.51006536  0.11951505  1
  O  O342  1  0.00921139  0.50958780  0.63330040  1
  O  O343  1  0.49708771  0.00604693  0.11873715  1
  O  O344  1  0.49424104  0.00683754  0.62289296  1
  O  O345  1  0.50589570  0.50103251  0.11805485  1
  O  O346  1  0.50735298  0.50813551  0.61730356  1
  O  O347  1  0.24473397  0.38947379  0.26215683  1
  O  O348  1  0.23781880  0.37411122  0.74803854  1
  O  O349  1  0.24088841  0.88827139  0.25855731  1
  O  O350  1  0.24147715  0.88258295  0.74405337  1
  O  O351  1  0.74124936  0.36659285  0.24021128  1
  O  O352  1  0.75020213  0.38984250  0.74579218  1
  O  O353  1  0.74151211  0.88227414  0.24836564  1
  O  O354  1  0.74564322  0.88169848  0.73821054  1
  O  O355  1  0.25184603  0.11706707  0.26307328  1
  O  O356  1  0.25826266  0.12078740  0.76252187  1
  O  O357  1  0.24632809  0.61674550  0.26459465  1
  O  O358  1  0.25456976  0.62749731  0.76383565  1
  O  O359  1  0.75179227  0.12061872  0.25307196  1
  O  O360  1  0.75390007  0.11529837  0.75438520  1
  O  O361  1  0.76215483  0.62734890  0.24887947  1
  O  O362  1  0.75706985  0.61771374  0.75269488  1
  O  O363  1  0.36850695  0.11735160  0.37141910  1
  O  O364  1  0.36739507  0.11928892  0.87318318  1
  O  O365  1  0.36723749  0.61329812  0.38249526  1
  O  O366  1  0.36560006  0.61643441  0.87427448  1
  O  O367  1  0.86034964  0.12403609  0.36251498  1
  O  O368  1  0.86442346  0.11349936  0.87202637  1
  O  O369  1  0.86215798  0.63168909  0.35675528  1
  O  O370  1  0.86764580  0.61700708  0.86753283  1
  O  O371  1  0.14048456  0.39656796  0.11070495  1
  O  O372  1  0.12979103  0.38829747  0.63637036  1
  O  O373  1  0.12102472  0.88875924  0.13890770  1
  O  O374  1  0.13135114  0.88175125  0.63625266  1
  O  O375  1  0.63373056  0.37985638  0.13016960  1
  O  O376  1  0.62670229  0.38996392  0.62420848  1
  O  O377  1  0.62501818  0.87172302  0.13683299  1
  O  O378  1  0.63885669  0.86815908  0.62599679  1
  O  O379  1  0.11741975  0.26238433  0.23026320  1
  O  O380  1  0.11852171  0.25735234  0.75906427  1
  O  O381  1  0.11520581  0.76103255  0.24217116  1
  O  O382  1  0.11605457  0.75803468  0.75606135  1
  O  O383  1  0.61316781  0.26228876  0.24630477  1
  O  O384  1  0.63148726  0.25442799  0.74970353  1
  O  O385  1  0.61432216  0.75879550  0.24975560  1
  O  O386  1  0.61341743  0.74626635  0.75473175  1
  O  O387  1  0.38949962  0.25280506  0.25407785  1
  O  O388  1  0.36915355  0.24211813  0.74428855  1
  O  O389  1  0.38334392  0.75668578  0.24061178  1
  O  O390  1  0.37961394  0.74346770  0.74677687  1
  O  O391  1  0.87739330  0.23646195  0.23617088  1
  O  O392  1  0.88197979  0.25127504  0.74294007  1
  O  O393  1  0.88264959  0.74506259  0.24020839  1
  O  O394  1  0.88194243  0.74468012  0.74447288  1
  O  O395  1  0.38332439  0.49326406  0.49499403  1
  O  O396  1  0.37630962  0.49097847  0.99967961  1
  O  O397  1  0.37679391  1.00447984  0.48964642  1
  O  O398  1  0.37962275  0.99128204  0.99840514  1
  O  O399  1  0.86840954  0.48183683  0.49893032  1
  O  O400  1  0.88370108  0.50716594  0.99086220  1
  O  O401  1  0.89076703  0.99360062  0.50588476  1
  O  O402  1  0.88128754  0.99418364  0.98839347  1
  O  O403  1  0.11852886  -0.00631206  0.00908719  1
  O  O404  1  0.11145431  -0.00574937  0.51073429  1
  O  O405  1  0.12062354  0.50978367  0.00985243  1
  O  O406  1  0.12686751  0.51240996  0.51127957  1
  O  O407  1  0.61328867  -0.00423430  -0.00410097  1
  O  O408  1  0.62384846  0.01434047  0.49427254  1
  O  O409  1  0.61535473  0.50124969  0.00886086  1
  O  O410  1  0.62279077  0.50968973  0.50568510  1
  O  O411  1  0.37235967  0.37870827  0.11787398  1
  O  O412  1  0.37301764  0.36895354  0.62474375  1
  O  O413  1  0.37819604  0.86712624  0.11556435  1
  O  O414  1  0.36216918  0.86573609  0.63448677  1
  O  O415  1  0.86356233  0.36484185  0.12921859  1
  O  O416  1  0.87334497  0.36480834  0.61934390  1
  O  O417  1  0.87209805  0.86274913  0.12238264  1
  O  O418  1  0.86494528  0.86515506  0.61974858  1
  O  O419  1  0.14102574  0.11942045  0.37536987  1
  O  O420  1  0.13504488  0.13460973  0.87203524  1
  O  O421  1  0.14434593  0.62432569  0.38421646  1
  O  O422  1  0.13144007  0.63761531  0.87086822  1
  O  O423  1  0.63664324  0.12565909  0.38276276  1
  O  O424  1  0.64005257  0.12360044  0.88043933  1
  O  O425  1  0.63185083  0.62881990  0.38228904  1
  O  O426  1  0.62950120  0.62649992  0.88160266  1
