# generated using pymatgen
data_V85Zn86O256
_symmetry_space_group_name_H-M   'P 1'
_cell_length_a   16.94583948
_cell_length_b   16.95593730
_cell_length_c   16.93629367
_cell_angle_alpha   89.97860211
_cell_angle_beta   90.05087357
_cell_angle_gamma   90.05743085
_symmetry_Int_Tables_number   1
_chemical_formula_structural   V85Zn86O256
_chemical_formula_sum   'V85 Zn86 O256'
_cell_volume   4866.34445458
_cell_formula_units_Z   1
loop_
 _symmetry_equiv_pos_site_id
 _symmetry_equiv_pos_as_xyz
  1  'x, y, z'
loop_
 _atom_site_type_symbol
 _atom_site_label
 _atom_site_symmetry_multiplicity
 _atom_site_fract_x
 _atom_site_fract_y
 _atom_site_fract_z
 _atom_site_occupancy
  V  V0  1  0.50127448  -0.00453748  0.49417256  1
  V  V1  1  0.00131399  0.12441746  0.62587201  1
  V  V2  1  0.36965049  0.37491672  0.49555642  1
  V  V3  1  0.51119326  0.87323868  0.86658027  1
  V  V4  1  0.12958179  -0.00228767  0.62466139  1
  V  V5  1  0.62413329  0.25126542  0.87395908  1
  V  V6  1  0.26577799  0.86976597  0.12260960  1
  V  V7  1  0.74959029  0.38151624  0.12213820  1
  V  V8  1  0.75050595  0.49880740  0.75064310  1
  V  V9  1  0.50238696  0.62057337  0.62416354  1
  V  V10  1  0.62495538  -0.00003792  0.12760395  1
  V  V11  1  0.37689645  0.62083845  0.24483055  1
  V  V12  1  0.74573216  0.87163957  0.63248690  1
  V  V13  1  0.73981980  0.49941940  0.25044397  1
  V  V14  1  0.87920631  0.74673745  0.12618637  1
  V  V15  1  0.00177831  0.12216859  0.12488811  1
  V  V16  1  0.37969105  0.13530189  0.24838606  1
  V  V17  1  0.75015990  0.12329601  0.87200583  1
  V  V18  1  0.49510312  0.37488839  0.36490758  1
  V  V19  1  0.62834736  0.12204463  0.00129881  1
  V  V20  1  0.49595177  0.37950952  0.87885075  1
  V  V21  1  0.25220957  0.00070399  0.25585025  1
  V  V22  1  0.29561775  0.17821935  0.92701222  1
  V  V23  1  0.25112776  0.49824533  0.24336761  1
  V  V24  1  0.12485619  0.38042350  0.24460257  1
  V  V25  1  0.01434944  0.24597662  0.25675670  1
  V  V26  1  0.12094479  0.75245518  0.37689445  1
  V  V27  1  0.87310946  0.12273446  0.74229922  1
  V  V28  1  0.87874811  0.87203727  -0.00014604  1
  V  V29  1  0.62195578  -0.00431487  0.63175546  1
  V  V30  1  0.24769804  0.13990607  0.37686303  1
  V  V31  1  0.74468512  0.62196157  0.88087883  1
  V  V32  1  0.74969136  0.74713599  0.50006142  1
  V  V33  1  0.74115618  0.74588282  0.00284650  1
  V  V34  1  0.75257675  0.25012168  0.49882408  1
  V  V35  1  0.87619759  0.12775037  0.25048886  1
  V  V36  1  0.00004774  0.74797593  0.24957619  1
  V  V37  1  0.87781462  0.62012274  0.24846936  1
  V  V38  1  0.62021266  0.87538629  0.25675372  1
  V  V39  1  0.37394674  0.50193556  0.88591842  1
  V  V40  1  0.87679145  0.87387704  0.49794929  1
  V  V41  1  0.51535429  0.50112483  0.00693359  1
  V  V42  1  0.87463082  -0.00247397  0.87270604  1
  V  V43  1  0.49570482  0.25287012  0.74835905  1
  V  V44  1  0.25235568  0.37376641  0.10678609  1
  V  V45  1  0.51161817  0.63075794  0.11830890  1
  V  V46  1  0.12474174  0.61854715  0.50450935  1
  V  V47  1  0.05569966  0.57390823  0.06835548  1
  V  V48  1  0.93378710  0.29384751  0.68168255  1
  V  V49  1  0.12916195  0.13497069  0.49631453  1
  V  V50  1  0.88292326  0.74759371  0.62877319  1
  V  V51  1  0.36738458  -0.01622658  0.87829533  1
  V  V52  1  0.88153400  0.48737762  0.89014520  1
  V  V53  1  0.00362126  -0.00540360  0.49492480  1
  V  V54  1  0.25153339  0.75019955  0.49880911  1
  V  V55  1  0.24942746  0.62519690  0.88675019  1
  V  V56  1  0.10370890  0.25564844  0.86859163  1
  V  V57  1  0.25494288  0.61941292  0.37272017  1
  V  V58  1  0.75053725  -0.00002863  0.25303095  1
  V  V59  1  0.88006813  0.62741614  0.75385547  1
  V  V60  1  0.87650470  0.37223096  0.49849011  1
  V  V61  1  0.11907846  0.87683167  0.25410341  1
  V  V62  1  0.24319197  0.38272184  0.62404581  1
  V  V63  1  0.87600069  0.49812290  0.37220071  1
  V  V64  1  0.00722726  0.37154351  0.37339881  1
  V  V65  1  0.49718925  0.12668293  0.62474139  1
  V  V66  1  0.49849340  -0.00809153  0.00115002  1
  V  V67  1  0.75600334  0.25264406  0.00289571  1
  V  V68  1  0.87806131  -0.00423009  0.37488626  1
  V  V69  1  0.12700546  -0.00334857  0.12276028  1
  V  V70  1  0.61889751  0.74977353  0.37610132  1
  V  V71  1  0.62061411  0.25124787  0.36569919  1
  V  V72  1  0.49608008  0.49789077  0.49385356  1
  V  V73  1  0.37873308  0.87381091  0.49069509  1
  V  V74  1  0.12068188  0.74351265  0.87523786  1
  V  V75  1  0.23621488  0.50239815  0.75078338  1
  V  V76  1  0.49082255  0.75400539  0.24951710  1
  V  V77  1  -0.00152337  0.86916744  0.86102010  1
  V  V78  1  0.74859542  0.36887894  0.62606937  1
  V  V79  1  0.12465805  0.12586078  -0.01107969  1
  V  V80  1  0.75066240  0.87370293  0.12709990  1
  V  V81  1  0.37558072  0.62199878  0.75186114  1
  V  V82  1  0.37678690  0.75183751  0.62607516  1
  V  V83  1  0.62400835  0.12634389  0.49996545  1
  V  V84  1  0.36258748  0.25067449  0.62215843  1
  Zn  Zn85  1  0.37185986  0.25644216  0.11564620  1
  Zn  Zn86  1  0.25407386  0.75259899  0.00300090  1
  Zn  Zn87  1  0.25316248  0.87666165  0.62755031  1
  Zn  Zn88  1  0.74900502  0.62340020  0.37596660  1
  Zn  Zn89  1  0.36871537  0.12504551  0.75568658  1
  Zn  Zn90  1  0.75000216  0.12699892  0.37541066  1
  Zn  Zn91  1  0.88269496  0.25686824  0.12077890  1
  Zn  Zn92  1  0.12918943  0.87035596  0.74748564  1
  Zn  Zn93  1  0.11153059  0.37314573  0.74732229  1
  Zn  Zn94  1  0.62147219  0.37752832  0.74798899  1
  Zn  Zn95  1  0.74305614  -0.00412889  0.75167784  1
  Zn  Zn96  1  0.24467322  0.00192209  0.75750509  1
  Zn  Zn97  1  0.61716101  0.37565895  0.24380861  1
  Zn  Zn98  1  0.37842868  0.00059233  0.37465806  1
  Zn  Zn99  1  0.01231592  0.62621081  0.63470106  1
  Zn  Zn100  1  0.00034847  -0.00377710  -0.00272429  1
  Zn  Zn101  1  0.50937569  0.75075809  0.74665013  1
  Zn  Zn102  1  0.62737505  0.74819263  0.87007804  1
  Zn  Zn103  1  0.62478352  0.62148243  0.49827559  1
  Zn  Zn104  1  0.62606558  0.49795659  0.62228672  1
  Zn  Zn105  1  0.50377035  0.13315056  0.13154253  1
  Zn  Zn106  1  0.00344724  0.49922403  0.50143589  1
  Zn  Zn107  1  0.19243379  0.18868041  0.18260439  1
  Zn  Zn108  1  0.18730293  0.18451707  0.69765728  1
  Zn  Zn109  1  0.18768802  0.68832655  0.18845649  1
  Zn  Zn110  1  0.19081293  0.69136579  0.69228361  1
  Zn  Zn111  1  0.69076777  0.18963894  0.18623978  1
  Zn  Zn112  1  0.68486416  0.18767980  0.68667192  1
  Zn  Zn113  1  0.68796975  0.68728325  0.19128614  1
  Zn  Zn114  1  0.68782385  0.68600976  0.69019051  1
  Zn  Zn115  1  0.31300855  0.31487648  0.30958267  1
  Zn  Zn116  1  0.31162520  0.32078627  0.81101263  1
  Zn  Zn117  1  0.30815383  0.81162258  0.31111547  1
  Zn  Zn118  1  0.31114352  0.81165201  0.81094587  1
  Zn  Zn119  1  0.81397567  0.31383384  0.30848384  1
  Zn  Zn120  1  0.80870410  0.31372693  0.81767708  1
  Zn  Zn121  1  0.81090420  0.81204187  0.31501550  1
  Zn  Zn122  1  0.80953971  0.80827599  0.81262301  1
  Zn  Zn123  1  0.19081449  0.43770249  0.43156081  1
  Zn  Zn124  1  0.05713502  0.42734413  0.94315530  1
  Zn  Zn125  1  0.19059301  0.93729919  0.43917347  1
  Zn  Zn126  1  0.18207601  0.93013150  0.94100093  1
  Zn  Zn127  1  0.68336449  0.43616591  0.43609396  1
  Zn  Zn128  1  0.68726108  0.43589511  0.93700066  1
  Zn  Zn129  1  0.68868166  0.93613491  0.44033769  1
  Zn  Zn130  1  0.69014117  0.93573465  0.93948333  1
  Zn  Zn131  1  0.31552330  0.05430367  0.06603637  1
  Zn  Zn132  1  0.31317618  0.06431527  0.56090336  1
  Zn  Zn133  1  0.31596361  0.56378707  0.06606637  1
  Zn  Zn134  1  0.31353921  0.56062924  0.56229825  1
  Zn  Zn135  1  0.81435109  0.06042507  0.06331747  1
  Zn  Zn136  1  0.81030968  0.06099865  0.56244102  1
  Zn  Zn137  1  0.81151095  0.56410549  0.06581778  1
  Zn  Zn138  1  0.81665346  0.56124913  0.56295628  1
  Zn  Zn139  1  0.43065337  0.44128166  0.18228712  1
  Zn  Zn140  1  0.43276942  0.43831563  0.68692905  1
  Zn  Zn141  1  0.44049588  0.94441879  0.19196812  1
  Zn  Zn142  1  0.43516529  0.93861561  0.68922393  1
  Zn  Zn143  1  0.94025574  0.43419097  0.08077420  1
  Zn  Zn144  1  0.93757065  0.45963902  0.68516923  1
  Zn  Zn145  1  0.94003351  0.93596521  0.18884501  1
  Zn  Zn146  1  0.93563256  0.93928545  0.68315337  1
  Zn  Zn147  1  0.06511122  0.06135415  0.31495979  1
  Zn  Zn148  1  0.05870497  0.05933301  0.80871034  1
  Zn  Zn149  1  0.06294685  0.56113680  0.30928009  1
  Zn  Zn150  1  0.06001432  0.56470500  0.81990257  1
  Zn  Zn151  1  0.56187830  0.06575178  0.31453342  1
  Zn  Zn152  1  0.55578908  0.06456412  0.81392463  1
  Zn  Zn153  1  0.55942942  0.56448882  0.31454388  1
  Zn  Zn154  1  0.56430487  0.56413036  0.81202626  1
  Zn  Zn155  1  0.43559056  0.19074212  0.43780588  1
  Zn  Zn156  1  0.46259572  0.20589450  0.96841055  1
  Zn  Zn157  1  0.43745753  0.68584670  0.43490422  1
  Zn  Zn158  1  0.43235622  0.69756246  0.94325343  1
  Zn  Zn159  1  0.93826266  0.18539117  0.43810792  1
  Zn  Zn160  1  0.93710606  0.18414601  0.93719418  1
  Zn  Zn161  1  0.93935874  0.68789861  0.43396672  1
  Zn  Zn162  1  0.93363223  0.68562366  0.93632714  1
  Zn  Zn163  1  0.07440784  0.30277818  0.06588664  1
  Zn  Zn164  1  0.06987237  0.31571816  0.55502005  1
  Zn  Zn165  1  0.06539182  0.80345983  0.06009030  1
  Zn  Zn166  1  0.06296509  0.81240268  0.56125795  1
  Zn  Zn167  1  0.56465686  0.31568107  0.06364993  1
  Zn  Zn168  1  0.56191043  0.31405989  0.55929340  1
  Zn  Zn169  1  0.55834845  0.81318428  0.06496522  1
  Zn  Zn170  1  0.56158529  0.81213301  0.56287694  1
  O  O171  1  0.12248762  0.11537991  0.11745782  1
  O  O172  1  0.11803688  0.11881326  0.61748464  1
  O  O173  1  0.12356238  0.62870986  0.12121938  1
  O  O174  1  0.12948563  0.63630326  0.60827915  1
  O  O175  1  0.62459217  0.12061446  0.11800963  1
  O  O176  1  0.61805854  0.11913757  0.61794857  1
  O  O177  1  0.60995766  0.62516779  0.13203315  1
  O  O178  1  0.61260951  0.62243917  0.62152296  1
  O  O179  1  0.38116429  0.36744189  0.38583353  1
  O  O180  1  0.38784327  0.38657944  0.87032047  1
  O  O181  1  0.36994333  0.87598278  0.38676575  1
  O  O182  1  0.38600453  0.88112523  0.87608763  1
  O  O183  1  0.88518683  0.38066258  0.37541459  1
  O  O184  1  0.86896940  0.38988344  0.87698896  1
  O  O185  1  0.87057400  0.88790884  0.38012249  1
  O  O186  1  0.87939880  0.87498979  0.88125546  1
  O  O187  1  0.25157360  0.00469892  0.36423419  1
  O  O188  1  0.26454658  -0.01254201  0.88099293  1
  O  O189  1  0.24770745  0.51382613  0.36424440  1
  O  O190  1  0.26242387  0.51057546  0.86426861  1
  O  O191  1  0.75748866  0.00273118  0.37050787  1
  O  O192  1  0.75539080  0.00474305  0.87190959  1
  O  O193  1  0.75636320  0.49784701  0.36881473  1
  O  O194  1  0.75784933  0.50350895  0.87157771  1
  O  O195  1  0.25426723  0.49123272  0.13592995  1
  O  O196  1  0.25553325  0.49402165  0.63658524  1
  O  O197  1  0.24396453  0.99434124  0.13723860  1
  O  O198  1  0.23629093  0.99968828  0.61736173  1
  O  O199  1  0.75132398  0.48947259  0.13233479  1
  O  O200  1  0.75351258  0.48792382  0.63259718  1
  O  O201  1  0.74552778  0.99401799  0.13292116  1
  O  O202  1  0.74014640  0.98981905  0.62345083  1
  O  O203  1  0.01126548  0.36179989  0.25659785  1
  O  O204  1  -0.00827732  0.36655471  0.73077865  1
  O  O205  1  0.01283152  0.87163943  0.25216371  1
  O  O206  1  -0.00478437  0.87431677  0.75912007  1
  O  O207  1  0.49646198  0.38240051  0.26053223  1
  O  O208  1  0.50058485  0.36982076  0.75628984  1
  O  O209  1  0.50842597  0.86741118  0.24571783  1
  O  O210  1  0.49792593  0.87359345  0.76377843  1
  O  O211  1  0.48449456  0.12165345  0.24953692  1
  O  O212  1  0.49268020  0.13529141  0.74486289  1
  O  O213  1  0.49470738  0.63139587  0.24358390  1
  O  O214  1  0.49303950  0.62389218  0.74149435  1
  O  O215  1  0.99677136  0.12713280  0.24626628  1
  O  O216  1  0.99183735  0.12117823  0.73379290  1
  O  O217  1  0.99057344  0.63637102  0.25897453  1
  O  O218  1  0.98515672  0.62154613  0.75215192  1
  O  O219  1  0.35263893  0.23837277  -0.01443103  1
  O  O220  1  0.37920641  0.26163870  0.51153939  1
  O  O221  1  0.36376069  0.74361666  0.01236636  1
  O  O222  1  0.37251800  0.75527119  0.50499674  1
  O  O223  1  0.85920276  0.23767755  0.00146713  1
  O  O224  1  0.86058955  0.25461434  0.49218943  1
  O  O225  1  0.86599729  0.75749578  0.00566206  1
  O  O226  1  0.86841045  0.75307154  0.50324497  1
  O  O227  1  0.12430382  0.23407536  0.49839741  1
  O  O228  1  0.12570538  0.23738887  0.98255354  1
  O  O229  1  0.13223129  0.74595287  0.49246710  1
  O  O230  1  0.13659294  0.75908679  0.98233647  1
  O  O231  1  0.63454738  0.24712870  0.49239991  1
  O  O232  1  0.63395389  0.23956826  0.99376864  1
  O  O233  1  0.63125932  0.75003319  0.49260364  1
  O  O234  1  0.63891266  0.75825112  0.99937490  1
  O  O235  1  0.48415746  0.23824606  0.08508156  1
  O  O236  1  0.49406210  0.24888918  0.63313051  1
  O  O237  1  0.50406686  0.73884198  0.13363977  1
  O  O238  1  0.49070320  0.74073984  0.62286371  1
  O  O239  1  1.00151497  0.23406554  0.13562040  1
  O  O240  1  0.99808136  0.24140222  0.61554817  1
  O  O241  1  0.99471717  0.75960038  0.14133430  1
  O  O242  1  0.98649486  0.74559745  0.61874238  1
  O  O243  1  -0.00426359  0.25661406  0.36726186  1
  O  O244  1  0.00467727  0.24740562  0.87164376  1
  O  O245  1  0.01274271  0.75077175  0.36734572  1
  O  O246  1  0.01084322  0.75435578  0.87929286  1
  O  O247  1  0.50927374  0.26068037  0.38161840  1
  O  O248  1  0.50294704  0.26075199  0.87270418  1
  O  O249  1  0.51163285  0.74768902  0.36752591  1
  O  O250  1  0.50342454  0.76390293  0.87837804  1
  O  O251  1  0.24488527  0.12025499  0.48434642  1
  O  O252  1  0.24141288  0.11791954  0.99588733  1
  O  O253  1  0.24550903  0.62941052  0.49193608  1
  O  O254  1  0.25224896  0.61936439  0.98827403  1
  O  O255  1  0.74401106  0.13368492  0.50019226  1
  O  O256  1  0.74233906  0.12648753  0.99569407  1
  O  O257  1  0.74894499  0.63633090  0.50077351  1
  O  O258  1  0.75544891  0.63423227  0.99448300  1
  O  O259  1  0.24154465  0.38250075  0.01248676  1
  O  O260  1  0.25934184  0.38449324  0.50693317  1
  O  O261  1  0.24852660  0.88081461  0.02081678  1
  O  O262  1  0.25928379  0.86727493  0.50412461  1
  O  O263  1  0.74391510  0.36585574  0.01022896  1
  O  O264  1  0.75537418  0.36960026  0.50671833  1
  O  O265  1  0.76074963  0.86916959  0.00608978  1
  O  O266  1  0.75560529  0.86439776  0.50782365  1
  O  O267  1  0.13407873  0.49040497  0.25390920  1
  O  O268  1  0.13331054  0.49738713  0.75736844  1
  O  O269  1  0.13134041  0.99470904  0.24488856  1
  O  O270  1  0.12248696  0.99548469  0.73795034  1
  O  O271  1  0.63677476  0.49957272  0.25697136  1
  O  O272  1  0.63935984  0.49967071  0.74812730  1
  O  O273  1  0.62799402  0.99468747  0.24806056  1
  O  O274  1  0.62234845  1.00709037  0.73541677  1
  O  O275  1  0.36767832  0.00999044  0.25495233  1
  O  O276  1  0.37993279  0.00264815  0.77037751  1
  O  O277  1  0.36607653  0.50928300  0.25221023  1
  O  O278  1  0.37363351  0.51174605  0.75701833  1
  O  O279  1  0.87383809  0.00692701  0.25684459  1
  O  O280  1  0.87089334  0.00716592  0.75352722  1
  O  O281  1  0.86448655  0.50792146  0.26296746  1
  O  O282  1  0.86399054  0.50595558  0.76118278  1
  O  O283  1  0.11374594  0.37797622  0.36875916  1
  O  O284  1  0.11670759  0.35943889  0.86940455  1
  O  O285  1  0.13402481  0.86569671  0.36640359  1
  O  O286  1  0.11369881  0.86837377  0.87126169  1
  O  O287  1  0.61455339  0.36703705  0.37120190  1
  O  O288  1  0.61475655  0.37023949  0.87156946  1
  O  O289  1  0.63055308  0.86942687  0.36351916  1
  O  O290  1  0.61390698  0.87771305  0.87511353  1
  O  O291  1  0.37135962  0.12519300  0.13999803  1
  O  O292  1  0.38067476  0.13541159  0.62211219  1
  O  O293  1  0.38712947  0.62115108  0.13874612  1
  O  O294  1  0.38407930  0.62989836  0.63015146  1
  O  O295  1  0.88541637  0.12178073  0.13372260  1
  O  O296  1  0.88055366  0.12068454  0.63398040  1
  O  O297  1  0.86805653  0.63277744  0.14145950  1
  O  O298  1  0.87029324  0.63383612  0.63552549  1
  O  O299  1  0.25262321  0.26601645  0.12528547  1
  O  O300  1  0.25967062  0.25807423  0.63226989  1
  O  O301  1  0.24672764  0.76871429  0.13223116  1
  O  O302  1  0.26486228  0.74807703  0.61959286  1
  O  O303  1  0.75417406  0.25648450  0.11785003  1
  O  O304  1  0.74470693  0.26077091  0.61699859  1
  O  O305  1  0.75623896  0.75491105  0.12198491  1
  O  O306  1  0.75585649  0.75486486  0.61737080  1
  O  O307  1  0.24976515  0.23798529  0.37217574  1
  O  O308  1  0.24424024  0.24313340  0.86669989  1
  O  O309  1  0.24050832  0.74082681  0.37674117  1
  O  O310  1  0.24356753  0.74087460  0.87481775  1
  O  O311  1  0.74181342  0.25118307  0.38136874  1
  O  O312  1  0.74353113  0.24373807  0.88201622  1
  O  O313  1  0.74000262  0.74983121  0.38337619  1
  O  O314  1  0.75107882  0.74077509  0.88582933  1
  O  O315  1  0.00656787  0.12100073  0.00907200  1
  O  O316  1  0.00526911  0.11631323  0.50691338  1
  O  O317  1  -0.00634039  0.63776130  0.01700311  1
  O  O318  1  0.01910716  0.62842219  0.49402094  1
  O  O319  1  0.51887660  0.10762715  -0.00861172  1
  O  O320  1  0.50414232  0.11963923  0.50610037  1
  O  O321  1  0.50103598  0.61937502  0.01237317  1
  O  O322  1  0.49782242  0.61589436  0.50598545  1
  O  O323  1  0.49192503  0.38151190  0.49297540  1
  O  O324  1  0.50443564  0.39122620  0.99315468  1
  O  O325  1  0.49215348  0.88371452  0.50378110  1
  O  O326  1  0.50721033  0.88687724  0.99226179  1
  O  O327  1  0.99470278  0.37490382  0.49122114  1
  O  O328  1  0.99669135  0.36354231  1.01425696  1
  O  O329  1  0.99358150  0.88697699  0.50343162  1
  O  O330  1  0.98823934  0.87206663  0.99540956  1
  O  O331  1  0.50225499  0.49081395  0.38385976  1
  O  O332  1  0.49688633  0.49786928  0.88317406  1
  O  O333  1  0.49956297  1.00435492  0.38990407  1
  O  O334  1  0.49480652  0.98857975  0.88040373  1
  O  O335  1  0.99228080  0.49151957  0.37647774  1
  O  O336  1  0.98529341  0.49580768  0.87396819  1
  O  O337  1  0.99211082  1.00446200  0.38413356  1
  O  O338  1  0.99168811  0.98822485  0.87581275  1
  O  O339  1  0.00855734  0.00814110  0.12613020  1
  O  O340  1  0.00763005  0.00607323  0.61579448  1
  O  O341  1  -0.00190091  0.51576819  0.13180853  1
  O  O342  1  -0.00509604  0.51622389  0.61260381  1
  O  O343  1  0.50640137  0.00517112  0.11733464  1
  O  O344  1  0.50444434  0.00452850  0.61775636  1
  O  O345  1  0.49877758  0.50832305  0.11254014  1
  O  O346  1  0.50042287  0.50597950  0.61858585  1
  O  O347  1  0.24215277  0.38448231  0.25436603  1
  O  O348  1  0.24900954  0.38769806  0.74191772  1
  O  O349  1  0.24126776  0.88305336  0.24399020  1
  O  O350  1  0.25049392  0.88334275  0.74521145  1
  O  O351  1  0.74686081  0.38224525  0.24159483  1
  O  O352  1  0.74853373  0.37969980  0.74274543  1
  O  O353  1  0.74409463  0.88044211  0.24550377  1
  O  O354  1  0.75434378  0.87603197  0.73625625  1
  O  O355  1  0.25580646  0.12018288  0.25847422  1
  O  O356  1  0.25644780  0.11401265  0.74624369  1
  O  O357  1  0.25726972  0.62037583  0.25285662  1
  O  O358  1  0.25795082  0.61898482  0.75500763  1
  O  O359  1  0.76031655  0.11861982  0.25041514  1
  O  O360  1  0.75665202  0.12289281  0.75203340  1
  O  O361  1  0.75668285  0.61732666  0.25356809  1
  O  O362  1  0.75881679  0.61565948  0.75694498  1
  O  O363  1  0.36504755  0.12567882  0.36695245  1
  O  O364  1  0.36823610  0.12088654  0.88055016  1
  O  O365  1  0.36520466  0.63267289  0.36279370  1
  O  O366  1  0.37219573  0.62147042  0.86754408  1
  O  O367  1  0.87381443  0.11421224  0.36768852  1
  O  O368  1  0.87075436  0.11884969  0.86315997  1
  O  O369  1  0.87251152  0.61744364  0.36894675  1
  O  O370  1  0.86590015  0.61645241  0.87082366  1
  O  O371  1  0.13718765  0.36963761  0.13871950  1
  O  O372  1  0.13890354  0.37093401  0.62677249  1
  O  O373  1  0.12547739  0.88620681  0.13187925  1
  O  O374  1  0.12624849  0.88275912  0.62528866  1
  O  O375  1  0.64031399  0.36717357  0.13026658  1
  O  O376  1  0.63424261  0.37694896  0.62666075  1
  O  O377  1  0.63014052  0.87919978  0.13698488  1
  O  O378  1  0.63327302  0.88341004  0.61877478  1
  O  O379  1  0.11811719  0.25167966  0.24905833  1
  O  O380  1  0.12011875  0.24936340  0.76362272  1
  O  O381  1  0.11883626  0.75702794  0.25660285  1
  O  O382  1  0.12848296  0.75315666  0.76631848  1
  O  O383  1  0.62650405  0.24796130  0.26220970  1
  O  O384  1  0.61185317  0.24992700  0.75582977  1
  O  O385  1  0.61810324  0.75742912  0.25734208  1
  O  O386  1  0.62261113  0.74689649  0.75518597  1
  O  O387  1  0.37355779  0.23737644  0.24732241  1
  O  O388  1  0.38421403  0.25310396  0.74318319  1
  O  O389  1  0.38719861  0.74666535  0.25522953  1
  O  O390  1  0.37944683  0.73911555  0.74261878  1
  O  O391  1  0.88298309  0.23647984  0.24978858  1
  O  O392  1  0.87085718  0.24210685  0.74952255  1
  O  O393  1  0.88235722  0.74489620  0.25073622  1
  O  O394  1  0.86862296  0.74023867  0.74079930  1
  O  O395  1  0.38600533  0.48988814  0.50392625  1
  O  O396  1  0.38645971  0.50761677  0.98831874  1
  O  O397  1  0.38306166  0.99156735  0.49970770  1
  O  O398  1  0.38612949  1.00416122  0.98830521  1
  O  O399  1  0.87223605  0.49178430  0.48695217  1
  O  O400  1  0.87406883  0.49855489  0.99365972  1
  O  O401  1  0.88156258  0.99688630  0.49313650  1
  O  O402  1  0.87585137  0.98986402  0.99310652  1
  O  O403  1  0.12108833  0.00449649  0.00749259  1
  O  O404  1  0.11793069  0.00545318  0.50307850  1
  O  O405  1  0.10395753  0.51259504  0.00224561  1
  O  O406  1  0.12858124  0.51655598  0.49364128  1
  O  O407  1  0.62487313  0.00382709  0.00882059  1
  O  O408  1  0.61920029  0.00480826  0.50737429  1
  O  O409  1  0.61358637  0.50328955  -0.00313233  1
  O  O410  1  0.61289448  0.50039335  0.50210140  1
  O  O411  1  0.35976554  0.37412212  0.12404874  1
  O  O412  1  0.36597853  0.36954194  0.61789652  1
  O  O413  1  0.36361318  0.88220829  0.13343911  1
  O  O414  1  0.37752110  0.86612575  0.61720872  1
  O  O415  1  0.85582504  0.37018014  0.12919475  1
  O  O416  1  0.87137894  0.36645092  0.62269005  1
  O  O417  1  0.87130858  0.87002777  0.11944282  1
  O  O418  1  0.86791218  0.86752446  0.61822554  1
  O  O419  1  0.13940679  0.12018873  0.38046482  1
  O  O420  1  0.11536306  0.12701643  0.88305281  1
  O  O421  1  0.13361441  0.63318737  0.38097794  1
  O  O422  1  0.13280287  0.63572143  0.87258535  1
  O  O423  1  0.62677910  0.13307968  0.38243042  1
  O  O424  1  0.63186655  0.12790228  0.87994455  1
  O  O425  1  0.62796815  0.63551325  0.37776623  1
  O  O426  1  0.64097237  0.62292739  0.87449883  1
