# generated using pymatgen
data_V85Zn86O256
_symmetry_space_group_name_H-M   'P 1'
_cell_length_a   16.91516894
_cell_length_b   16.93210924
_cell_length_c   16.92895130
_cell_angle_alpha   90.04649484
_cell_angle_beta   89.99841632
_cell_angle_gamma   89.97612038
_symmetry_Int_Tables_number   1
_chemical_formula_structural   V85Zn86O256
_chemical_formula_sum   'V85 Zn86 O256'
_cell_volume   4848.61026018
_cell_formula_units_Z   1
loop_
 _symmetry_equiv_pos_site_id
 _symmetry_equiv_pos_as_xyz
  1  'x, y, z'
loop_
 _atom_site_type_symbol
 _atom_site_label
 _atom_site_symmetry_multiplicity
 _atom_site_fract_x
 _atom_site_fract_y
 _atom_site_fract_z
 _atom_site_occupancy
  V  V0  1  0.74652191  0.00262451  0.74868272  1
  V  V1  1  0.50418473  0.24512117  0.25129523  1
  V  V2  1  0.75329897  0.62711658  0.38515097  1
  V  V3  1  0.61740219  0.13355093  0.49717835  1
  V  V4  1  -0.00189396  0.00109884  0.00201492  1
  V  V5  1  0.62797257  0.50421732  0.62508868  1
  V  V6  1  0.25439528  0.00434503  0.74948425  1
  V  V7  1  0.50286686  0.88034405  0.37785583  1
  V  V8  1  0.37337300  0.62005175  0.74945601  1
  V  V9  1  -0.00463649  0.13379337  0.12467912  1
  V  V10  1  0.74757362  0.36690275  0.62561751  1
  V  V11  1  0.49893484  0.74463994  0.74988854  1
  V  V12  1  0.74742050  0.87175540  0.62147444  1
  V  V13  1  0.38440269  0.25238392  0.12236392  1
  V  V14  1  0.37924386  0.12442490  0.24823974  1
  V  V15  1  -0.00424697  0.25503695  0.75639145  1
  V  V16  1  0.62220931  0.87617850  0.75094165  1
  V  V17  1  0.87240803  0.13079356  0.24735257  1
  V  V18  1  0.36925991  0.86092414  0.00083849  1
  V  V19  1  0.37820682  0.49737016  0.88928323  1
  V  V20  1  0.75014890  0.25483896  0.00384950  1
  V  V21  1  0.24580114  0.13002169  0.86872612  1
  V  V22  1  0.63502326  0.74582982  0.87649186  1
  V  V23  1  0.25250727  0.86383244  0.12697376  1
  V  V24  1  0.11896955  0.49588540  0.12216869  1
  V  V25  1  0.12373676  0.37071535  0.26225976  1
  V  V26  1  0.87141508  0.86545155  0.50044413  1
  V  V27  1  0.12522147  0.87570173  0.75174373  1
  V  V28  1  0.25411874  0.62645272  0.37384168  1
  V  V29  1  0.25088465  0.49973692  0.25048859  1
  V  V30  1  0.63259688  0.87657751  0.24138737  1
  V  V31  1  -0.00420973  0.62607019  0.62768392  1
  V  V32  1  0.86834527  0.37062231  0.49673530  1
  V  V33  1  -0.00518603  0.74366509  0.25022227  1
  V  V34  1  0.12547675  0.74980586  0.37470480  1
  V  V35  1  -0.01106041  0.61807103  0.12666116  1
  V  V36  1  0.86895439  0.75114926  0.12672776  1
  V  V37  1  0.37727248  0.49622020  0.37665138  1
  V  V38  1  0.87400663  0.00272004  0.87604667  1
  V  V39  1  0.24804800  0.25107671  0.49766772  1
  V  V40  1  0.61647565  0.62758083  -0.00134582  1
  V  V41  1  0.61121943  0.50710664  0.11979393  1
  V  V42  1  0.00037929  0.00094559  0.50146975  1
  V  V43  1  0.75914165  0.37716394  0.12440836  1
  V  V44  1  0.25350328  0.37465114  0.12266469  1
  V  V45  1  0.61096791  0.00676194  0.61707667  1
  V  V46  1  0.12448009  0.87562561  0.24965407  1
  V  V47  1  0.88316497  0.50726508  0.87574223  1
  V  V48  1  0.12566042  0.62408747  0.50018181  1
  V  V49  1  0.00045246  0.49097049  0.49632572  1
  V  V50  1  0.38854846  0.25079426  0.62022589  1
  V  V51  1  0.49049442  0.86980442  0.87671434  1
  V  V52  1  0.37917769  0.62980760  0.23730991  1
  V  V53  1  0.61404720  0.37466508  0.74970466  1
  V  V54  1  0.00196696  0.25256220  0.26547393  1
  V  V55  1  0.49890285  0.49737240  0.49906447  1
  V  V56  1  0.87125800  0.00109080  0.37546984  1
  V  V57  1  0.00081274  0.87512857  0.87770598  1
  V  V58  1  0.12910304  0.00071998  0.12547249  1
  V  V59  1  0.25464196  0.37237924  0.62190983  1
  V  V60  1  0.24427354  0.12719830  0.37373109  1
  V  V61  1  0.37909711  0.88540749  0.50112635  1
  V  V62  1  0.62734324  0.75118829  0.38363345  1
  V  V63  1  0.62174646  0.25068889  0.87400851  1
  V  V64  1  0.12617195  0.49896243  0.62584564  1
  V  V65  1  0.86400232  0.87831922  0.00531425  1
  V  V66  1  0.24982201  0.87583665  0.62492523  1
  V  V67  1  0.74895045  0.12920134  0.87799870  1
  V  V68  1  0.25519461  0.25480932  -0.00173060  1
  V  V69  1  0.87829260  0.50008030  0.36970071  1
  V  V70  1  0.75332974  0.51181467  0.24562410  1
  V  V71  1  0.49704266  0.37810967  0.89098915  1
  V  V72  1  0.38993507  0.02718224  0.90859785  1
  V  V73  1  0.24618171  0.62224375  0.87561598  1
  V  V74  1  0.25325007  0.75224524  0.49940692  1
  V  V75  1  0.75084718  -0.00380095  0.23896747  1
  V  V76  1  0.11525064  0.62091620  -0.00019313  1
  V  V77  1  -0.00190095  0.12762809  0.62581893  1
  V  V78  1  0.39532507  0.12887828  0.74302263  1
  V  V79  1  -0.00009526  0.87422377  0.37488463  1
  V  V80  1  0.88890348  0.37696439  -0.00908245  1
  V  V81  1  0.49937260  0.75052953  0.23925943  1
  V  V82  1  0.62640850  0.37717991  0.24970536  1
  V  V83  1  0.12285045  0.37496097  0.75547520  1
  V  V84  1  0.12667099  0.12585475  0.00029419  1
  Zn  Zn85  1  0.24685150  0.74106001  0.00641323  1
  Zn  Zn86  1  0.87091631  0.25015814  0.62237968  1
  Zn  Zn87  1  0.74685761  0.74668039  0.00384199  1
  Zn  Zn88  1  0.12365985  0.74911994  0.87770682  1
  Zn  Zn89  1  0.58795862  0.03913565  0.06830707  1
  Zn  Zn90  1  0.86631501  0.63306048  0.76025875  1
  Zn  Zn91  1  0.63281605  0.25515156  0.37857255  1
  Zn  Zn92  1  0.25154809  0.49620880  0.75008320  1
  Zn  Zn93  1  0.62448317  0.62869281  0.50190054  1
  Zn  Zn94  1  -0.00192792  0.75052018  0.74833641  1
  Zn  Zn95  1  0.12095424  0.13261204  0.49472127  1
  Zn  Zn96  1  0.75148537  0.13372990  0.38317473  1
  Zn  Zn97  1  0.74782939  0.50483552  0.76147872  1
  Zn  Zn98  1  0.12515555  0.00258003  0.62310941  1
  Zn  Zn99  1  0.37993650  0.00503486  0.37755696  1
  Zn  Zn100  1  0.37540080  0.74803182  0.62322236  1
  Zn  Zn101  1  0.11944411  0.25853206  0.87926371  1
  Zn  Zn102  1  0.87249343  0.12997042  0.74745612  1
  Zn  Zn103  1  0.49700040  0.37284609  0.37566577  1
  Zn  Zn104  1  0.86521325  0.74463788  0.62586749  1
  Zn  Zn105  1  0.25413313  0.00019519  0.25105579  1
  Zn  Zn106  1  0.49806880  0.62463349  0.62129138  1
  Zn  Zn107  1  0.18856850  0.18919136  0.18862399  1
  Zn  Zn108  1  0.18288580  0.19119679  0.68268891  1
  Zn  Zn109  1  0.18142768  0.68266223  0.18935689  1
  Zn  Zn110  1  0.18621820  0.68859629  0.68851019  1
  Zn  Zn111  1  0.68661549  0.18637381  0.18649914  1
  Zn  Zn112  1  0.67987188  0.18748400  0.68937903  1
  Zn  Zn113  1  0.68264156  0.68751524  0.18925309  1
  Zn  Zn114  1  0.68740750  0.68584458  0.69004443  1
  Zn  Zn115  1  0.31246885  0.31090130  0.31158362  1
  Zn  Zn116  1  0.31771457  0.31168271  0.80686771  1
  Zn  Zn117  1  0.31671095  0.81486675  0.31193452  1
  Zn  Zn118  1  0.30968818  0.80641149  0.81334618  1
  Zn  Zn119  1  0.81275516  0.31495572  0.31244911  1
  Zn  Zn120  1  0.81018587  0.32033128  0.81121442  1
  Zn  Zn121  1  0.81267310  0.80885904  0.31473745  1
  Zn  Zn122  1  0.81473177  0.81497250  0.80933584  1
  Zn  Zn123  1  0.19284231  0.43655415  0.44069538  1
  Zn  Zn124  1  0.18750836  0.44002002  0.93873713  1
  Zn  Zn125  1  0.19003292  0.94208423  0.43529056  1
  Zn  Zn126  1  0.19514157  0.94024690  0.93829476  1
  Zn  Zn127  1  0.68909270  0.44003258  0.43683800  1
  Zn  Zn128  1  0.69006372  0.44268756  0.93833628  1
  Zn  Zn129  1  0.68772070  0.94205911  0.43768410  1
  Zn  Zn130  1  0.68443066  0.93583093  0.93830091  1
  Zn  Zn131  1  0.32232192  0.06684120  0.06195325  1
  Zn  Zn132  1  0.31383572  0.06719987  0.56465722  1
  Zn  Zn133  1  0.30912162  0.56200091  0.06279394  1
  Zn  Zn134  1  0.31409250  0.56092851  0.56178124  1
  Zn  Zn135  1  0.77618052  0.07931043  0.08016288  1
  Zn  Zn136  1  0.80788764  0.06250863  0.56225637  1
  Zn  Zn137  1  0.80633595  0.56106901  0.05151568  1
  Zn  Zn138  1  0.81195531  0.55701521  0.56506227  1
  Zn  Zn139  1  0.43640081  0.43518796  0.19073728  1
  Zn  Zn140  1  0.43900089  0.43723035  0.68797615  1
  Zn  Zn141  1  0.43984037  0.94078217  0.18407685  1
  Zn  Zn142  1  0.43408060  0.93635528  0.69135980  1
  Zn  Zn143  1  0.93636754  0.43262767  0.18938636  1
  Zn  Zn144  1  0.93551513  0.43923465  0.68852953  1
  Zn  Zn145  1  0.93690728  0.93939785  0.18637556  1
  Zn  Zn146  1  0.93442237  0.93807258  0.68722779  1
  Zn  Zn147  1  0.06166741  0.06332197  0.31188654  1
  Zn  Zn148  1  0.06249079  0.06357009  0.81026236  1
  Zn  Zn149  1  0.06282711  0.56023236  0.31128319  1
  Zn  Zn150  1  0.05510221  0.55618257  0.81286652  1
  Zn  Zn151  1  0.56552753  0.06121615  0.31183492  1
  Zn  Zn152  1  0.57489665  0.04655069  0.85224911  1
  Zn  Zn153  1  0.56391568  0.56637195  0.31084105  1
  Zn  Zn154  1  0.56224804  0.56097465  0.81507749  1
  Zn  Zn155  1  0.44146100  0.18629269  0.43784169  1
  Zn  Zn156  1  0.43648050  0.19611700  0.93473375  1
  Zn  Zn157  1  0.43997495  0.68812241  0.43369513  1
  Zn  Zn158  1  0.43842663  0.68424241  0.94086991  1
  Zn  Zn159  1  0.93436138  0.18737343  0.43743054  1
  Zn  Zn160  1  0.93212606  0.19070224  0.93841652  1
  Zn  Zn161  1  0.93763366  0.68165947  0.43867916  1
  Zn  Zn162  1  0.93752521  0.69063486  0.94135391  1
  Zn  Zn163  1  0.06657186  0.31019209  0.06718862  1
  Zn  Zn164  1  0.06390526  0.31184527  0.56557127  1
  Zn  Zn165  1  0.06064861  0.80949139  0.06275619  1
  Zn  Zn166  1  0.06326960  0.81307919  0.56330740  1
  Zn  Zn167  1  0.56964790  0.31483773  0.06364055  1
  Zn  Zn168  1  0.56294878  0.31790820  0.55862200  1
  Zn  Zn169  1  0.55011654  0.85428760  0.07641301  1
  Zn  Zn170  1  0.56136530  0.81506744  0.56450381  1
  O  O171  1  0.11978057  0.11876268  0.12031084  1
  O  O172  1  0.11119438  0.12212636  0.62071531  1
  O  O173  1  0.11593979  0.61499860  0.11956588  1
  O  O174  1  0.12107151  0.61797302  0.61957175  1
  O  O175  1  0.66476649  0.10566373  0.11271901  1
  O  O176  1  0.62623564  0.11330315  0.61828853  1
  O  O177  1  0.62293168  0.61257675  0.12394385  1
  O  O178  1  0.62040181  0.61703835  0.62196364  1
  O  O179  1  0.37546593  0.39204121  0.36431590  1
  O  O180  1  0.38866001  0.38070955  0.86949495  1
  O  O181  1  0.38355441  0.87754693  0.38328207  1
  O  O182  1  0.37607863  0.87105859  0.88188776  1
  O  O183  1  0.86991918  0.38996125  0.38256630  1
  O  O184  1  0.87803133  0.37901041  0.88671147  1
  O  O185  1  0.88083178  0.88053607  0.38162176  1
  O  O186  1  0.88256831  0.88193842  0.88281719  1
  O  O187  1  0.25708963  0.01085968  0.37193318  1
  O  O188  1  0.26409115  0.01290663  0.86963289  1
  O  O189  1  0.25701882  0.50685942  0.37061461  1
  O  O190  1  0.25688962  0.50744701  0.87234047  1
  O  O191  1  0.76357226  0.00019025  0.36886086  1
  O  O192  1  0.75456304  0.00945771  0.86884386  1
  O  O193  1  0.75585583  0.50824688  0.36624944  1
  O  O194  1  0.76982202  0.49140978  0.87613947  1
  O  O195  1  0.24318002  0.49187294  0.13133817  1
  O  O196  1  0.24594798  0.49061704  0.62513685  1
  O  O197  1  0.23795294  0.99641420  0.12535154  1
  O  O198  1  0.24661945  0.99552535  0.63214441  1
  O  O199  1  0.74517720  0.49565495  0.13148194  1
  O  O200  1  0.73612999  0.49038179  0.62256556  1
  O  O201  1  0.77189226  0.98227491  0.14223560  1
  O  O202  1  0.74140549  0.99264351  0.63406352  1
  O  O203  1  0.00656545  0.35976184  0.24656419  1
  O  O204  1  0.00983773  0.36565507  0.74014027  1
  O  O205  1  0.00555143  0.86852284  0.25616961  1
  O  O206  1  0.00893260  0.87935294  0.75778622  1
  O  O207  1  0.50910980  0.36521131  0.24975636  1
  O  O208  1  0.51090974  0.37768955  0.75743374  1
  O  O209  1  0.51186132  0.86688970  0.25781740  1
  O  O210  1  0.49899510  0.86530794  0.75816962  1
  O  O211  1  0.49686645  0.13538066  0.25069523  1
  O  O212  1  0.49039161  0.12037233  0.75848580  1
  O  O213  1  0.49458137  0.64084283  0.25241295  1
  O  O214  1  0.49151118  0.62976758  0.74952654  1
  O  O215  1  0.99579102  0.13401058  0.24527493  1
  O  O216  1  0.99787395  0.13072127  0.74151220  1
  O  O217  1  1.00538915  0.63362367  0.24091610  1
  O  O218  1  0.99825245  0.62707765  0.73955104  1
  O  O219  1  0.36365902  0.25145208  0.00834798  1
  O  O220  1  0.36800811  0.24309877  0.51395678  1
  O  O221  1  0.36637112  0.75536096  -0.00178214  1
  O  O222  1  0.36618961  0.75640276  0.49910984  1
  O  O223  1  0.86312323  0.26479971  -0.00566265  1
  O  O224  1  0.88288100  0.26677772  0.50128361  1
  O  O225  1  0.87183626  0.75893111  0.00870127  1
  O  O226  1  0.87980746  0.76248961  0.50111483  1
  O  O227  1  0.14111784  0.25037089  0.50496951  1
  O  O228  1  0.13539501  0.24403806  0.99875120  1
  O  O229  1  0.13310875  0.74673278  0.49323765  1
  O  O230  1  0.12437195  0.73645157  0.99870417  1
  O  O231  1  0.62150346  0.23833684  0.50016940  1
  O  O232  1  0.63880225  0.25811157  0.98926855  1
  O  O233  1  0.62091956  0.75046872  0.48811526  1
  O  O234  1  0.62457624  0.74642269  0.98907856  1
  O  O235  1  0.49010405  0.25662273  0.12718517  1
  O  O236  1  0.48735765  0.25604814  0.62070687  1
  O  O237  1  0.50595715  0.76105288  0.14133664  1
  O  O238  1  0.49839768  0.74938430  0.63829327  1
  O  O239  1  1.00343478  0.23601587  0.13134193  1
  O  O240  1  0.99775718  0.24199118  0.63307096  1
  O  O241  1  0.99359333  0.74036896  0.13279424  1
  O  O242  1  1.00275691  0.73639773  0.62327096  1
  O  O243  1  0.00456840  0.24520031  0.36407751  1
  O  O244  1  0.00224986  0.24265588  0.86102858  1
  O  O245  1  0.00396732  0.75168726  0.36889386  1
  O  O246  1  0.00143316  0.76492710  0.87484961  1
  O  O247  1  0.50618403  0.25421805  0.36527734  1
  O  O248  1  0.50784491  0.26353642  0.88039458  1
  O  O249  1  0.50858006  0.75965651  0.36826366  1
  O  O250  1  0.50179830  0.75290985  0.86393036  1
  O  O251  1  0.24839151  0.13179195  0.49235834  1
  O  O252  1  0.24792091  0.13304357  0.99058777  1
  O  O253  1  0.24550474  0.63192696  0.49473735  1
  O  O254  1  0.23620246  0.62172172  0.99400600  1
  O  O255  1  0.73002769  0.11217893  0.49801108  1
  O  O256  1  0.76318764  0.13868141  0.98346440  1
  O  O257  1  0.74788745  0.61948359  0.48872804  1
  O  O258  1  0.72975249  0.63133806  1.00776998  1
  O  O259  1  0.24302985  0.36697992  0.01005715  1
  O  O260  1  0.25090304  0.36835325  0.51275425  1
  O  O261  1  0.24809750  0.86426599  0.00933326  1
  O  O262  1  0.25542781  0.87091753  0.50393902  1
  O  O263  1  0.75575843  0.37140308  0.00747429  1
  O  O264  1  0.75796363  0.38057518  0.50866018  1
  O  O265  1  0.76065670  0.87283009  -0.00389617  1
  O  O266  1  0.76033819  0.88465422  0.50808010  1
  O  O267  1  0.13126779  0.49364672  0.24156815  1
  O  O268  1  0.12579820  0.49313166  0.74177917  1
  O  O269  1  0.12569107  0.99410658  0.24189783  1
  O  O270  1  0.13714589  0.99148903  0.75218604  1
  O  O271  1  0.63147614  0.49651565  0.24059153  1
  O  O272  1  0.62335562  0.49369932  0.74190247  1
  O  O273  1  0.63475385  0.98610319  0.25299392  1
  O  O274  1  0.63348051  0.99651898  0.75154751  1
  O  O275  1  0.37585591  0.01096193  0.24804779  1
  O  O276  1  0.36360717  0.01525573  0.74160863  1
  O  O277  1  0.37016917  0.50949777  0.25404671  1
  O  O278  1  0.37490468  0.50970795  0.75659522  1
  O  O279  1  0.87476815  0.00625316  0.25930479  1
  O  O280  1  0.86138354  -0.00036051  0.75595583  1
  O  O281  1  0.86664126  0.49586174  0.25744928  1
  O  O282  1  0.87606988  0.50014908  0.76486557  1
  O  O283  1  0.13066348  0.38195078  0.36132364  1
  O  O284  1  0.13079859  0.37718538  0.86015997  1
  O  O285  1  0.11991239  0.87014613  0.37030033  1
  O  O286  1  0.11958652  0.87740302  0.87009015  1
  O  O287  1  0.62595309  0.37969323  0.35858515  1
  O  O288  1  0.61494296  0.37375126  0.87067857  1
  O  O289  1  0.62076945  0.86927396  0.37233849  1
  O  O290  1  0.61200305  0.86506040  0.86772223  1
  O  O291  1  0.36890853  0.13839674  0.13899965  1
  O  O292  1  0.37702540  0.13549128  0.63409745  1
  O  O293  1  0.36754712  0.62435461  0.13814692  1
  O  O294  1  0.37560143  0.62637183  0.63519344  1
  O  O295  1  0.88087228  0.11925492  0.13886737  1
  O  O296  1  0.88416200  0.12643619  0.62462513  1
  O  O297  1  0.88531716  0.62920335  0.11635696  1
  O  O298  1  0.88536852  0.62628173  0.61919284  1
  O  O299  1  0.25696735  0.25663894  0.11843678  1
  O  O300  1  0.25790491  0.25527012  0.61881268  1
  O  O301  1  0.24072683  0.76055131  0.12895014  1
  O  O302  1  0.24986626  0.75754278  0.61740171  1
  O  O303  1  0.74591120  0.26314566  0.11533603  1
  O  O304  1  0.74856170  0.26266557  0.62947822  1
  O  O305  1  0.76670847  0.74430811  0.13311490  1
  O  O306  1  0.74421214  0.76764948  0.62633207  1
  O  O307  1  0.25893684  0.24227727  0.38580358  1
  O  O308  1  0.24993678  0.24617163  0.88069867  1
  O  O309  1  0.24585735  0.74658787  0.37891539  1
  O  O310  1  0.24483978  0.73243793  0.87574003  1
  O  O311  1  0.74562952  0.24633265  0.36660436  1
  O  O312  1  0.74394809  0.24752074  0.87861644  1
  O  O313  1  0.74228658  0.73855754  0.37037463  1
  O  O314  1  0.73731116  0.75703028  0.87383396  1
  O  O315  1  0.00255261  0.12198815  0.00715093  1
  O  O316  1  0.00000236  0.11855674  0.50519632  1
  O  O317  1  0.00883398  0.62620458  0.00971979  1
  O  O318  1  0.00816705  0.61550475  0.50562209  1
  O  O319  1  0.43332386  0.09338340  -0.01772995  1
  O  O320  1  0.51595762  0.12048646  0.49724073  1
  O  O321  1  0.51395448  0.62816813  0.00361673  1
  O  O322  1  0.50133911  0.61482691  0.50021227  1
  O  O323  1  0.50341841  0.39068957  0.49277894  1
  O  O324  1  0.50252533  0.37627391  0.98969736  1
  O  O325  1  0.48980352  0.86913012  0.49227803  1
  O  O326  1  0.48521738  0.86443186  0.98350244  1
  O  O327  1  0.99553843  0.38702856  0.50682372  1
  O  O328  1  0.98668551  0.36652395  1.00725819  1
  O  O329  1  0.99361277  0.88164015  0.49536382  1
  O  O330  1  0.99600087  0.88123925  0.99333963  1
  O  O331  1  0.49333196  0.50162274  0.37850213  1
  O  O332  1  0.49288196  0.48748197  0.87442842  1
  O  O333  1  0.49945429  0.98467646  0.36921883  1
  O  O334  1  0.47532370  0.98565710  0.86008506  1
  O  O335  1  0.99235146  0.50570701  0.38384886  1
  O  O336  1  0.98485955  0.49414329  0.87764903  1
  O  O337  1  0.99088363  0.99611444  0.38055538  1
  O  O338  1  0.99567792  0.99301687  0.87914636  1
  O  O339  1  0.01061949  0.00967989  0.12260182  1
  O  O340  1  -0.00049746  0.00664111  0.61750733  1
  O  O341  1  0.00723746  0.50634832  0.13451906  1
  O  O342  1  0.00520306  0.50850520  0.61752791  1
  O  O343  1  0.52189240  -0.03757433  0.11398943  1
  O  O344  1  0.51404055  -0.00340015  0.63476149  1
  O  O345  1  0.51335089  0.49465300  0.12912302  1
  O  O346  1  0.50837015  0.49928591  0.61710759  1
  O  O347  1  0.24252759  0.37732003  0.24282178  1
  O  O348  1  0.24368289  0.37377206  0.73893186  1
  O  O349  1  0.24436826  0.87726240  0.24373070  1
  O  O350  1  0.24616831  0.88273207  0.74741090  1
  O  O351  1  0.74538793  0.38491651  0.24106264  1
  O  O352  1  0.73869362  0.38246722  0.74159277  1
  O  O353  1  0.73853046  0.88092220  0.26401410  1
  O  O354  1  0.74276827  0.88396757  0.74460941  1
  O  O355  1  0.25852862  0.12735910  0.25727999  1
  O  O356  1  0.24405855  0.11921614  0.75429575  1
  O  O357  1  0.25505287  0.62105697  0.25574368  1
  O  O358  1  0.25517368  0.62188176  0.75704994  1
  O  O359  1  0.75962607  0.11483073  0.25239900  1
  O  O360  1  0.75023441  0.11981513  0.75815426  1
  O  O361  1  0.74598392  0.61471458  0.25795076  1
  O  O362  1  0.75603168  0.61637370  0.74002070  1
  O  O363  1  0.37072634  0.12600101  0.36326659  1
  O  O364  1  0.36309808  0.12948450  0.85523330  1
  O  O365  1  0.36947343  0.61874384  0.36547795  1
  O  O366  1  0.36770307  0.61697453  0.87073289  1
  O  O367  1  0.87568644  0.11702095  0.36611934  1
  O  O368  1  0.86910441  0.11870630  0.86967145  1
  O  O369  1  0.86767165  0.61292184  0.37866020  1
  O  O370  1  0.88092103  0.61353768  0.87949078  1
  O  O371  1  0.13270430  0.38015513  0.13314099  1
  O  O372  1  0.13368813  0.38036527  0.63267275  1
  O  O373  1  0.12829617  0.88241818  0.12923542  1
  O  O374  1  0.13034705  0.87907699  0.63399335  1
  O  O375  1  0.63380046  0.38651524  0.13247492  1
  O  O376  1  0.62827792  0.38060043  0.63177889  1
  O  O377  1  0.64400881  0.85888524  0.14443550  1
  O  O378  1  0.62853004  0.88574207  0.63102176  1
  O  O379  1  0.11316582  0.25688565  0.24587553  1
  O  O380  1  0.11723823  0.25879967  0.75129465  1
  O  O381  1  0.11459954  0.75486574  0.25548907  1
  O  O382  1  0.12367509  0.76443389  0.75362311  1
  O  O383  1  0.61797753  0.25861145  0.24410929  1
  O  O384  1  0.62887943  0.26253355  0.76115335  1
  O  O385  1  0.61802846  0.75661058  0.26059841  1
  O  O386  1  0.61580811  0.75481809  0.75537726  1
  O  O387  1  0.38503737  0.24659321  0.24303763  1
  O  O388  1  0.37389312  0.23625335  0.73733087  1
  O  O389  1  0.39045164  0.74561676  0.25454679  1
  O  O390  1  0.38007712  0.73651923  0.75056554  1
  O  O391  1  0.88969439  0.24333414  0.25307083  1
  O  O392  1  0.88163319  0.25287280  0.74571043  1
  O  O393  1  0.88803184  0.75569550  0.24469547  1
  O  O394  1  0.88026287  0.75018279  0.74401462  1
  O  O395  1  0.38298082  0.50529278  0.48847225  1
  O  O396  1  0.37093786  0.50149002  0.98880307  1
  O  O397  1  0.37179668  0.98894589  0.50122296  1
  O  O398  1  0.35004736  0.97490931  0.99534294  1
  O  O399  1  0.88309774  0.49196895  0.49389215  1
  O  O400  1  0.87396216  0.48631483  0.99291832  1
  O  O401  1  0.88445515  0.99430705  0.49382808  1
  O  O402  1  0.88193081  0.99320502  0.99509590  1
  O  O403  1  0.12043527  0.00582768  0.00598158  1
  O  O404  1  0.10997400  -0.00037289  0.49852474  1
  O  O405  1  0.12611047  0.50336030  0.01450309  1
  O  O406  1  0.11945549  0.50288596  0.50513797  1
  O  O407  1  0.60766725  0.01194101  -0.04056165  1
  O  O408  1  0.62044209  -0.00005587  0.51422638  1
  O  O409  1  0.62696080  0.50642055  0.01339315  1
  O  O410  1  0.61796945  0.50262630  0.50698629  1
  O  O411  1  0.36194684  0.36776845  0.13226855  1
  O  O412  1  0.36847485  0.36069256  0.63406362  1
  O  O413  1  0.36156356  0.87641386  0.11771176  1
  O  O414  1  0.36843336  0.87181991  0.61883049  1
  O  O415  1  0.86405311  0.38104546  0.11535124  1
  O  O416  1  0.86363776  0.37852856  0.61710994  1
  O  O417  1  0.88747231  0.86410006  0.11437596  1
  O  O418  1  0.86622828  0.87530497  0.61653131  1
  O  O419  1  0.13938264  0.12197826  0.37410343  1
  O  O420  1  0.13455895  0.12549934  0.88042730  1
  O  O421  1  0.13289465  0.62963420  0.37976054  1
  O  O422  1  0.12794663  0.61955891  0.88254761  1
  O  O423  1  0.62651952  0.12421952  0.38678393  1
  O  O424  1  0.63479781  0.14326211  0.86774633  1
  O  O425  1  0.63343754  0.63376713  0.37617442  1
  O  O426  1  0.61900559  0.63453221  0.88274463  1
