# generated using pymatgen
data_V85Zn86O256
_symmetry_space_group_name_H-M   'P 1'
_cell_length_a   16.94624277
_cell_length_b   16.95073990
_cell_length_c   16.94303748
_cell_angle_alpha   89.96187707
_cell_angle_beta   89.93607791
_cell_angle_gamma   89.98600320
_symmetry_Int_Tables_number   1
_chemical_formula_structural   V85Zn86O256
_chemical_formula_sum   'V85 Zn86 O256'
_cell_volume   4866.90619673
_cell_formula_units_Z   1
loop_
 _symmetry_equiv_pos_site_id
 _symmetry_equiv_pos_as_xyz
  1  'x, y, z'
loop_
 _atom_site_type_symbol
 _atom_site_label
 _atom_site_symmetry_multiplicity
 _atom_site_fract_x
 _atom_site_fract_y
 _atom_site_fract_z
 _atom_site_occupancy
  V  V0  1  0.62079480  0.74610457  0.37834984  1
  V  V1  1  0.13122783  0.75110307  0.87678873  1
  V  V2  1  -0.00490891  0.50318426  -0.01077202  1
  V  V3  1  0.37778319  0.50077284  0.37184158  1
  V  V4  1  0.13040314  0.62546755  -0.00092505  1
  V  V5  1  0.37303000  0.62712810  0.24733739  1
  V  V6  1  -0.00195730  0.61827627  0.62146950  1
  V  V7  1  0.13243767  0.00751891  0.61563701  1
  V  V8  1  -0.00526701  0.37199098  0.87876565  1
  V  V9  1  0.87563859  0.00581172  0.87307179  1
  V  V10  1  0.37058406  0.87493674  -0.00266117  1
  V  V11  1  0.63049785  0.49505762  0.14222768  1
  V  V12  1  0.87181239  0.75685057  0.62519398  1
  V  V13  1  0.24145216  0.24316809  0.48978449  1
  V  V14  1  0.75347167  0.50153217  0.75521711  1
  V  V15  1  0.50336312  0.37656643  0.87407488  1
  V  V16  1  0.37824645  0.24754446  0.62416984  1
  V  V17  1  0.24901457  0.37376306  0.62773792  1
  V  V18  1  0.74402908  0.25066602  -0.00259348  1
  V  V19  1  0.75275301  -0.00053434  0.74391038  1
  V  V20  1  0.37817316  0.37362515  0.49829964  1
  V  V21  1  0.00085091  0.75128457  0.75035011  1
  V  V22  1  0.74487412  0.11986323  0.37963661  1
  V  V23  1  0.00047269  0.12298326  0.62076515  1
  V  V24  1  0.12919990  0.13360967  -0.01146879  1
  V  V25  1  0.50451360  0.01322690  -0.00003131  1
  V  V26  1  0.38511138  0.24684333  0.12183616  1
  V  V27  1  0.86520169  0.49934321  0.37709132  1
  V  V28  1  0.49120235  0.62528884  0.63024762  1
  V  V29  1  0.87563572  0.24404442  0.63293008  1
  V  V30  1  0.61790276  0.87778112  0.25527385  1
  V  V31  1  0.62554182  0.00025338  0.61673676  1
  V  V32  1  0.36122834  0.00427771  0.87231649  1
  V  V33  1  0.25630227  0.62447648  0.87359109  1
  V  V34  1  0.48873769  0.74828235  0.75060737  1
  V  V35  1  0.37583875  0.86728149  0.49306248  1
  V  V36  1  0.62455649  0.75186125  0.87451477  1
  V  V37  1  0.62715627  0.87532527  0.74390534  1
  V  V38  1  0.24894799  0.63384061  0.37888428  1
  V  V39  1  0.74898179  0.75194988  0.00070662  1
  V  V40  1  0.12314264  0.37179879  0.75548105  1
  V  V41  1  0.62351843  0.24124540  0.87270049  1
  V  V42  1  0.00080135  0.75043723  0.25251503  1
  V  V43  1  0.87404593  0.75009082  0.12546068  1
  V  V44  1  0.62777034  0.62512637  0.00273357  1
  V  V45  1  0.74730138  0.24042437  0.50237951  1
  V  V46  1  0.12276530  0.00905082  0.12393183  1
  V  V47  1  0.74568233  0.87505114  0.12751177  1
  V  V48  1  0.24946513  0.86817969  0.62113794  1
  V  V49  1  0.38109688  0.12267843  0.24364774  1
  V  V50  1  0.37598479  0.00466876  0.37797413  1
  V  V51  1  0.37430563  0.37693109  -0.00017751  1
  V  V52  1  0.75330545  0.62488253  0.87616383  1
  V  V53  1  0.75214774  -0.00244337  0.25871155  1
  V  V54  1  0.13050681  0.88691914  0.75075291  1
  V  V55  1  0.87783017  0.62304889  0.75532629  1
  V  V56  1  0.87675779  0.23425585  0.12304535  1
  V  V57  1  0.50259144  0.50881359  0.49891080  1
  V  V58  1  0.12349751  0.63715832  0.50140503  1
  V  V59  1  0.75084829  0.37242881  0.14799419  1
  V  V60  1  0.24790632  0.50105990  0.24466815  1
  V  V61  1  0.49548908  0.75555964  0.25473926  1
  V  V62  1  0.04650040  0.44126822  0.44194379  1
  V  V63  1  0.62445574  0.37495187  0.74604301  1
  V  V64  1  0.49829302  0.87824566  0.87458583  1
  V  V65  1  0.75277493  0.12524999  0.86856471  1
  V  V66  1  0.87450503  0.37885649  0.50204135  1
  V  V67  1  0.74092524  0.74902223  0.50738948  1
  V  V68  1  0.88392271  0.11801945  0.25647677  1
  V  V69  1  0.50129680  0.12295083  0.61942106  1
  V  V70  1  -0.00660357  0.87791246  0.37969829  1
  V  V71  1  0.86657174  0.61961312  0.25202756  1
  V  V72  1  -0.00068873  0.87711457  0.87456111  1
  V  V73  1  0.50706922  0.50098295  0.00137604  1
  V  V74  1  0.75108235  0.37592477  0.62678600  1
  V  V75  1  -0.00529869  0.00679893  0.00334890  1
  V  V76  1  0.25645415  0.50345556  0.74922718  1
  V  V77  1  0.36161518  0.12118425  0.75192573  1
  V  V78  1  0.24535836  0.87196261  0.12264516  1
  V  V79  1  0.37095364  0.74876437  0.11877049  1
  V  V80  1  0.11985899  0.48985536  0.12153225  1
  V  V81  1  0.87138081  0.38060330  -0.00014873  1
  V  V82  1  0.00100367  0.24146387  0.75797996  1
  V  V83  1  -0.00134042  0.62569409  0.12214092  1
  V  V84  1  0.62723395  0.50944754  0.62129374  1
  Zn  Zn85  1  0.49857493  0.24833000  0.74821306  1
  Zn  Zn86  1  0.25410145  0.36826930  0.12967183  1
  Zn  Zn87  1  0.51231446  0.37394922  0.36568635  1
  Zn  Zn88  1  0.12312170  0.37216203  0.26924396  1
  Zn  Zn89  1  0.12695019  0.75492833  0.37838608  1
  Zn  Zn90  1  0.50225790  0.62588301  0.12568228  1
  Zn  Zn91  1  0.86705198  0.88022281  0.49891007  1
  Zn  Zn92  1  0.36609616  0.74508576  0.62313420  1
  Zn  Zn93  1  0.23286419  0.12669461  0.36860777  1
  Zn  Zn94  1  0.61157717  0.01298357  0.12988697  1
  Zn  Zn95  1  0.74288571  0.62338929  0.37897513  1
  Zn  Zn96  1  0.12168811  0.49915358  0.62420778  1
  Zn  Zn97  1  0.24996201  -0.00031357  0.25064145  1
  Zn  Zn98  1  0.38254142  0.50696213  0.86890307  1
  Zn  Zn99  1  0.50174842  -0.00202406  0.49491752  1
  Zn  Zn100  1  0.12603189  0.87303626  0.25221614  1
  Zn  Zn101  1  0.87260268  0.87912473  0.00111007  1
  Zn  Zn102  1  -0.00208245  0.00652989  0.49387473  1
  Zn  Zn103  1  0.05819541  0.21987840  0.31470228  1
  Zn  Zn104  1  0.63243357  0.25505264  0.36310952  1
  Zn  Zn105  1  0.25025987  0.24015082  -0.00813163  1
  Zn  Zn106  1  0.50872010  0.25266236  0.24925281  1
  Zn  Zn107  1  0.20091048  0.18685204  0.18315262  1
  Zn  Zn108  1  0.18691293  0.19080231  0.68680904  1
  Zn  Zn109  1  0.18703813  0.68673798  0.18433416  1
  Zn  Zn110  1  0.18463964  0.68790653  0.68960303  1
  Zn  Zn111  1  0.68129113  0.18213045  0.18890209  1
  Zn  Zn112  1  0.68552075  0.18434682  0.68591970  1
  Zn  Zn113  1  0.68407828  0.68795532  0.19003172  1
  Zn  Zn114  1  0.68450350  0.68798689  0.68740962  1
  Zn  Zn115  1  0.32012870  0.31327094  0.30837490  1
  Zn  Zn116  1  0.31360821  0.30800081  0.81530616  1
  Zn  Zn117  1  0.31159708  0.81642572  0.31089350  1
  Zn  Zn118  1  0.30830119  0.81666438  0.81163030  1
  Zn  Zn119  1  0.85838173  0.29199528  0.32756977  1
  Zn  Zn120  1  0.81544347  0.31487182  0.81347330  1
  Zn  Zn121  1  0.81046950  0.80786923  0.31574586  1
  Zn  Zn122  1  0.81260345  0.81609717  0.81175546  1
  Zn  Zn123  1  0.20928887  0.44326653  0.43950002  1
  Zn  Zn124  1  0.20150354  0.41019931  0.92239428  1
  Zn  Zn125  1  0.18963899  0.93593251  0.43607437  1
  Zn  Zn126  1  0.18598409  0.93939434  0.94195169  1
  Zn  Zn127  1  0.69116557  0.43796101  0.43799257  1
  Zn  Zn128  1  0.68676691  0.43650240  0.93636416  1
  Zn  Zn129  1  0.68821092  0.92928346  0.43683684  1
  Zn  Zn130  1  0.68590916  0.93853206  0.93529287  1
  Zn  Zn131  1  0.31002262  0.06211265  0.06104208  1
  Zn  Zn132  1  0.31096451  0.06162148  0.55968903  1
  Zn  Zn133  1  0.31332575  0.55901299  0.05804954  1
  Zn  Zn134  1  0.31161631  0.56254710  0.56204700  1
  Zn  Zn135  1  0.77221502  0.07688102  0.07427015  1
  Zn  Zn136  1  0.81899718  0.05947731  0.56557587  1
  Zn  Zn137  1  0.80931323  0.55882553  0.06781147  1
  Zn  Zn138  1  0.81310873  0.56738782  0.56194572  1
  Zn  Zn139  1  0.44166750  0.43692820  0.18520555  1
  Zn  Zn140  1  0.43775030  0.43654200  0.68586178  1
  Zn  Zn141  1  0.43545342  0.93942306  0.18411769  1
  Zn  Zn142  1  0.43493328  0.93796034  0.68508767  1
  Zn  Zn143  1  0.93511960  0.43676431  0.18865184  1
  Zn  Zn144  1  0.93684135  0.43676216  0.69051671  1
  Zn  Zn145  1  0.93734428  0.93639647  0.18839594  1
  Zn  Zn146  1  0.93903681  0.94208468  0.68574337  1
  Zn  Zn147  1  0.06502845  0.05199973  0.31160801  1
  Zn  Zn148  1  0.06572865  0.06402789  0.81363517  1
  Zn  Zn149  1  0.06321691  0.56908687  0.30718728  1
  Zn  Zn150  1  0.06739454  0.55966972  0.81169815  1
  Zn  Zn151  1  0.56035022  0.06564086  0.31627773  1
  Zn  Zn152  1  0.55557966  0.06204860  0.80570135  1
  Zn  Zn153  1  0.55844147  0.56676273  0.31234119  1
  Zn  Zn154  1  0.56627457  0.56539089  0.81052027  1
  Zn  Zn155  1  0.43866030  0.18655794  0.43166572  1
  Zn  Zn156  1  0.43593833  0.18907151  0.93343724  1
  Zn  Zn157  1  0.43713060  0.68860971  0.43753213  1
  Zn  Zn158  1  0.43892141  0.68846889  0.93932597  1
  Zn  Zn159  1  0.93547583  0.18636428  0.44157805  1
  Zn  Zn160  1  0.93639559  0.18675936  0.94222527  1
  Zn  Zn161  1  0.93515912  0.68876427  0.43938996  1
  Zn  Zn162  1  0.93770218  0.69139028  0.93687031  1
  Zn  Zn163  1  0.06476076  0.30181808  0.13432945  1
  Zn  Zn164  1  0.06566996  0.30602275  0.57099941  1
  Zn  Zn165  1  0.06031115  0.81311078  0.05834565  1
  Zn  Zn166  1  0.06101660  0.81339410  0.56617456  1
  Zn  Zn167  1  0.56743674  0.31314876  0.06683538  1
  Zn  Zn168  1  0.57933332  0.32845915  0.53114360  1
  Zn  Zn169  1  0.55831710  0.81731738  0.06499119  1
  Zn  Zn170  1  0.55782493  0.81391650  0.56336737  1
  O  O171  1  0.12870908  0.10990429  0.11951444  1
  O  O172  1  0.12190643  0.11277825  0.63026974  1
  O  O173  1  0.11965313  0.61963141  0.11544270  1
  O  O174  1  0.11818281  0.62117846  0.61768689  1
  O  O175  1  0.66594009  0.10888974  0.10932944  1
  O  O176  1  0.61355441  0.11273429  0.63207479  1
  O  O177  1  0.62843980  0.61508076  0.11943620  1
  O  O178  1  0.61388171  0.61453175  0.63098606  1
  O  O179  1  0.37175564  0.38483876  0.38571309  1
  O  O180  1  0.39252382  0.38002186  0.88010018  1
  O  O181  1  0.36828546  0.88146122  0.38763304  1
  O  O182  1  0.37789104  0.88138483  0.87990778  1
  O  O183  1  0.87100173  0.38556112  0.39314371  1
  O  O184  1  0.88438059  0.37658269  0.88253729  1
  O  O185  1  0.88948296  0.86610701  0.37614552  1
  O  O186  1  0.88070782  0.88547980  0.87646891  1
  O  O187  1  0.25915109  0.00330825  0.37219459  1
  O  O188  1  0.26224609  -0.00553009  0.87614998  1
  O  O189  1  0.25603531  0.51183355  0.36182530  1
  O  O190  1  0.25227891  0.50664622  0.86574423  1
  O  O191  1  0.74842381  -0.00028387  0.36610519  1
  O  O192  1  0.75532556  0.00710219  0.86970680  1
  O  O193  1  0.75960687  0.50564646  0.37874012  1
  O  O194  1  0.74332175  0.50775762  0.86258302  1
  O  O195  1  0.24247350  0.50710635  0.13611771  1
  O  O196  1  0.24783485  0.48989359  0.62939475  1
  O  O197  1  0.23779742  0.99028443  0.12167467  1
  O  O198  1  0.23664491  0.99324972  0.62178719  1
  O  O199  1  0.74544028  0.48252210  0.12717121  1
  O  O200  1  0.74334939  0.50049695  0.63273451  1
  O  O201  1  0.75458657  0.98061768  0.13837335  1
  O  O202  1  0.74113659  1.00731151  0.63735273  1
  O  O203  1  0.02157209  0.37544508  0.21659795  1
  O  O204  1  0.00523270  0.36890439  0.75650081  1
  O  O205  1  -0.00010283  0.86611539  0.25917293  1
  O  O206  1  0.00898717  0.87186991  0.75649036  1
  O  O207  1  0.48787910  0.36806863  0.25630336  1
  O  O208  1  0.50581821  0.37419980  0.75678218  1
  O  O209  1  0.50539546  0.86767932  0.24404362  1
  O  O210  1  0.50475366  0.86928865  0.75574876  1
  O  O211  1  0.48557595  0.12696511  0.25096804  1
  O  O212  1  0.48830392  0.12896630  0.73762862  1
  O  O213  1  0.49018636  0.63506218  0.24585649  1
  O  O214  1  0.50256622  0.63534444  0.74412260  1
  O  O215  1  0.98392105  0.11673013  0.24907936  1
  O  O216  1  1.00762348  0.13789541  0.74449871  1
  O  O217  1  0.99066700  0.63155013  0.24195922  1
  O  O218  1  0.99428227  0.62941063  0.74715439  1
  O  O219  1  0.37661183  0.26118431  0.00089791  1
  O  O220  1  0.36889491  0.25828167  0.50655522  1
  O  O221  1  0.38002787  0.75988237  0.00863633  1
  O  O222  1  0.37553821  0.76263829  0.50170246  1
  O  O223  1  0.86226877  0.25498956  0.00459029  1
  O  O224  1  0.87021954  0.25844630  0.51680165  1
  O  O225  1  0.86628681  0.75287659  0.00632361  1
  O  O226  1  0.86531281  0.75170703  0.51027720  1
  O  O227  1  0.14370803  0.25701490  0.50478062  1
  O  O228  1  0.12099249  0.23016157  1.01428254  1
  O  O229  1  0.12549560  0.73969552  0.50138499  1
  O  O230  1  0.11794796  0.73837777  0.98894554  1
  O  O231  1  0.64785971  0.23784501  0.51983918  1
  O  O232  1  0.63642541  0.25949717  0.98789449  1
  O  O233  1  0.63063772  0.75503186  0.49450879  1
  O  O234  1  0.62920618  0.74703298  0.99671632  1
  O  O235  1  0.48968602  0.24978784  0.12004176  1
  O  O236  1  0.48555783  0.24582305  0.62325560  1
  O  O237  1  0.48788321  0.75033156  0.13354285  1
  O  O238  1  0.49892934  0.74089519  0.63361219  1
  O  O239  1  0.97412264  0.23998970  0.10729552  1
  O  O240  1  0.99562828  0.24247628  0.63486956  1
  O  O241  1  0.99292935  0.74596390  0.12914733  1
  O  O242  1  0.99378112  0.74027613  0.63219958  1
  O  O243  1  -0.03249257  0.26041798  0.36527654  1
  O  O244  1  -0.00762785  0.25814741  0.86860981  1
  O  O245  1  0.00249194  0.75378940  0.36647356  1
  O  O246  1  0.00879447  0.75716366  0.87008338  1
  O  O247  1  0.50807985  0.25258926  0.37581782  1
  O  O248  1  0.50851631  0.25824809  0.87264852  1
  O  O249  1  0.50324967  0.74844449  0.36351806  1
  O  O250  1  0.50479996  0.75534702  0.86824827  1
  O  O251  1  0.25344747  0.14050370  0.49662110  1
  O  O252  1  0.23619972  0.12259322  0.99635500  1
  O  O253  1  0.23726114  0.61420978  0.49019935  1
  O  O254  1  0.23852649  0.61804774  0.99052367  1
  O  O255  1  0.76493502  0.12925472  0.49154568  1
  O  O256  1  0.75410694  0.13835458  0.97771143  1
  O  O257  1  0.75218029  0.64202491  0.49822094  1
  O  O258  1  0.74696042  0.62981757  0.99623677  1
  O  O259  1  0.27628663  0.40881568  0.01048292  1
  O  O260  1  0.26132258  0.37074681  0.51006226  1
  O  O261  1  0.26254377  0.87722602  0.00464827  1
  O  O262  1  0.26097043  0.87749827  0.50931959  1
  O  O263  1  0.76112351  0.36955658  -0.00687336  1
  O  O264  1  0.75956891  0.36691715  0.51053606  1
  O  O265  1  0.74759295  0.87060221  0.00946225  1
  O  O266  1  0.75220837  0.85586926  0.49768683  1
  O  O267  1  0.13120741  0.50281945  0.23870236  1
  O  O268  1  0.13447146  0.48849578  0.74795165  1
  O  O269  1  0.12503898  0.99200154  0.23304778  1
  O  O270  1  0.12321940  0.99050152  0.74406055  1
  O  O271  1  0.62225600  0.50341814  0.24139306  1
  O  O272  1  0.63291030  0.49521361  0.74230402  1
  O  O273  1  0.62955079  0.99293972  0.24973694  1
  O  O274  1  0.63040608  0.99237111  0.74493254  1
  O  O275  1  0.37483786  0.00806646  0.25404934  1
  O  O276  1  0.37731093  0.01286336  0.75625492  1
  O  O277  1  0.36771773  0.50858931  0.25043802  1
  O  O278  1  0.36148256  0.49514606  0.75043535  1
  O  O279  1  0.86674568  0.00951915  0.24388046  1
  O  O280  1  0.86286532  -0.00681071  0.75742591  1
  O  O281  1  0.88003486  0.50796628  0.26173362  1
  O  O282  1  0.86461275  0.50972894  0.74575057  1
  O  O283  1  0.11595868  0.38849133  0.38692079  1
  O  O284  1  0.10430948  0.38495632  0.86689265  1
  O  O285  1  0.11574362  0.87122690  0.37214787  1
  O  O286  1  0.12267250  0.86965118  0.86979191  1
  O  O287  1  0.61619606  0.35932837  0.41717606  1
  O  O288  1  0.61764165  0.36850308  0.86801379  1
  O  O289  1  0.62517696  0.86391918  0.36237676  1
  O  O290  1  0.61826785  0.87014557  0.86602756  1
  O  O291  1  0.37270244  0.12853541  0.13411575  1
  O  O292  1  0.37532805  0.12950373  0.63391470  1
  O  O293  1  0.37495695  0.63356866  0.12680277  1
  O  O294  1  0.38545947  0.62627641  0.62333333  1
  O  O295  1  0.86279394  0.13003647  0.12716016  1
  O  O296  1  0.88560063  0.13466109  0.63130473  1
  O  O297  1  0.87767204  0.62984705  0.13209693  1
  O  O298  1  0.88085399  0.63306677  0.63529738  1
  O  O299  1  0.26703209  0.25306198  0.11173709  1
  O  O300  1  0.25910420  0.25770825  0.61885099  1
  O  O301  1  0.26178487  0.75591872  0.12798510  1
  O  O302  1  0.24806902  0.76198789  0.62893066  1
  O  O303  1  0.75449024  0.26165380  0.11315803  1
  O  O304  1  0.76072497  0.25343391  0.62832665  1
  O  O305  1  0.75254793  0.75828014  0.12274954  1
  O  O306  1  0.75513687  0.74526134  0.61683112  1
  O  O307  1  0.25436454  0.25406686  0.38757798  1
  O  O308  1  0.24115483  0.30119432  0.89759257  1
  O  O309  1  0.24786565  0.73739524  0.36866596  1
  O  O310  1  0.23804583  0.74264602  0.86858172  1
  O  O311  1  0.75693611  0.23936733  0.38776787  1
  O  O312  1  0.74428822  0.24544935  0.87494079  1
  O  O313  1  0.73923306  0.74668271  0.38495556  1
  O  O314  1  0.74479757  0.74612860  0.88052098  1
  O  O315  1  0.00657839  0.11107745  -0.00423851  1
  O  O316  1  -0.00100313  0.12669735  0.51593330  1
  O  O317  1  0.00271786  0.62068704  0.00257664  1
  O  O318  1  0.00764293  0.62897837  0.50996078  1
  O  O319  1  0.49786750  0.11187679  -0.00771303  1
  O  O320  1  0.48779686  0.12038438  0.51582656  1
  O  O321  1  0.51040802  0.61915201  0.00166212  1
  O  O322  1  0.49490897  0.61467869  0.50833280  1
  O  O323  1  0.48457442  0.39048151  0.51066562  1
  O  O324  1  0.49884505  0.38348767  0.99365204  1
  O  O325  1  0.48000671  0.87882075  0.50750579  1
  O  O326  1  0.48794613  0.87890281  0.99252445  1
  O  O327  1  0.99588974  0.37806328  0.50749743  1
  O  O328  1  0.98650549  0.38426574  0.99295581  1
  O  O329  1  0.99936985  0.86666312  0.48554837  1
  O  O330  1  0.99935074  0.88567016  0.98991138  1
  O  O331  1  0.49617139  0.49956926  0.38412337  1
  O  O332  1  0.50521847  0.49482045  0.88059041  1
  O  O333  1  0.48415728  1.00499482  0.37807326  1
  O  O334  1  0.49110630  0.99514975  0.88070031  1
  O  O335  1  0.99334163  0.50082360  0.37751781  1
  O  O336  1  0.99822777  0.49919191  0.88479889  1
  O  O337  1  1.00033884  0.98186305  0.37576745  1
  O  O338  1  0.99244199  0.99649616  0.87780147  1
  O  O339  1  0.01292147  -0.01117729  0.11526827  1
  O  O340  1  0.01401408  0.00934798  0.63104777  1
  O  O341  1  0.00477505  0.50888658  0.11321540  1
  O  O342  1  0.00057255  0.51427178  0.63247667  1
  O  O343  1  0.49797019  -0.00297522  0.10611008  1
  O  O344  1  0.50826069  0.00627514  0.62527703  1
  O  O345  1  0.51221517  0.50182352  0.11713470  1
  O  O346  1  0.50591640  0.50779249  0.62217408  1
  O  O347  1  0.24522790  0.38622302  0.24935215  1
  O  O348  1  0.24358095  0.37870214  0.74251769  1
  O  O349  1  0.24705937  0.87751936  0.23776986  1
  O  O350  1  0.23971212  0.87405240  0.73992257  1
  O  O351  1  0.76285421  0.36542013  0.24339980  1
  O  O352  1  0.74705077  0.38468012  0.74619545  1
  O  O353  1  0.74257415  0.87671316  0.24746887  1
  O  O354  1  0.73819016  0.88517905  0.75581895  1
  O  O355  1  0.26413577  0.11952920  0.25037622  1
  O  O356  1  0.26243900  0.12899692  0.74736337  1
  O  O357  1  0.25387153  0.62104345  0.25607981  1
  O  O358  1  0.24197658  0.61479148  0.75873149  1
  O  O359  1  0.75705033  0.11165044  0.25937127  1
  O  O360  1  0.74653440  0.11597019  0.76027725  1
  O  O361  1  0.76386227  0.63265412  0.25311654  1
  O  O362  1  0.75699786  0.62029671  0.75401558  1
  O  O363  1  0.36915505  0.11921697  0.36395899  1
  O  O364  1  0.37643584  0.12049810  0.86053044  1
  O  O365  1  0.36780617  0.62035101  0.37035930  1
  O  O366  1  0.36071655  0.62664538  0.88093928  1
  O  O367  1  0.86730317  0.12226839  0.36086380  1
  O  O368  1  0.87005032  0.11346786  0.87309270  1
  O  O369  1  0.87521036  0.61701369  0.36878832  1
  O  O370  1  0.87029229  0.63123267  0.86263169  1
  O  O371  1  0.13765437  0.39074219  0.10058579  1
  O  O372  1  0.13314414  0.37827170  0.63287548  1
  O  O373  1  0.13692876  0.87578904  0.11812944  1
  O  O374  1  0.12943883  0.88357508  0.63129483  1
  O  O375  1  0.64224210  0.38127214  0.12387885  1
  O  O376  1  0.63212897  0.38670751  0.62677453  1
  O  O377  1  0.63035612  0.87575575  0.13728074  1
  O  O378  1  0.61819549  0.88195324  0.63770349  1
  O  O379  1  0.12453503  0.25817821  0.22761882  1
  O  O380  1  0.11729463  0.26361650  0.74614563  1
  O  O381  1  0.11029754  0.74824324  0.24689281  1
  O  O382  1  0.11775965  0.75798327  0.75767673  1
  O  O383  1  0.62479775  0.25045364  0.24945367  1
  O  O384  1  0.62387972  0.25862995  0.75497378  1
  O  O385  1  0.61448228  0.75623826  0.25510773  1
  O  O386  1  0.61836021  0.75788884  0.75455652  1
  O  O387  1  0.37454546  0.23793265  0.23954838  1
  O  O388  1  0.37449476  0.24138871  0.74414434  1
  O  O389  1  0.37978888  0.74763890  0.24399181  1
  O  O390  1  0.38622330  0.75624964  0.74833454  1
  O  O391  1  0.86518187  0.22948297  0.23167094  1
  O  O392  1  0.88628894  0.25911008  0.74087788  1
  O  O393  1  0.88421513  0.74290944  0.24569263  1
  O  O394  1  0.87906617  0.74310339  0.74598518  1
  O  O395  1  0.37928152  0.49449148  0.49370800  1
  O  O396  1  0.39597069  0.50038210  0.99774430  1
  O  O397  1  0.37387285  0.99162250  0.49296377  1
  O  O398  1  0.38141810  0.99516522  0.99148458  1
  O  O399  1  0.87328003  0.49225293  0.49528119  1
  O  O400  1  0.88093632  0.49188324  1.00622539  1
  O  O401  1  0.88857849  0.98834198  0.51869393  1
  O  O402  1  0.88178756  0.99889691  0.99093848  1
  O  O403  1  0.11716931  0.00585012  0.00686145  1
  O  O404  1  0.11865883  -0.00487266  0.51390755  1
  O  O405  1  0.11284939  0.51269564  0.00317754  1
  O  O406  1  0.11450110  0.49936154  0.49679699  1
  O  O407  1  0.60644145  -0.00689028  -0.00360996  1
  O  O408  1  0.62440088  -0.01045905  0.51314176  1
  O  O409  1  0.62002770  0.50361197  0.00501587  1
  O  O410  1  0.61592588  0.49990724  0.50995771  1
  O  O411  1  0.37784139  0.36734994  0.11535766  1
  O  O412  1  0.36745867  0.36740672  0.62189224  1
  O  O413  1  0.36507072  0.87052500  0.11690598  1
  O  O414  1  0.36416285  0.87445697  0.61799309  1
  O  O415  1  0.86305109  0.36658624  0.11836416  1
  O  O416  1  0.87074541  0.37162552  0.61976766  1
  O  O417  1  0.86714493  0.86493642  0.12511202  1
  O  O418  1  0.88107844  0.85826150  0.63173527  1
  O  O419  1  0.11875442  0.13451309  0.36158018  1
  O  O420  1  0.12124026  0.12834863  0.88816500  1
  O  O421  1  0.13080529  0.62729984  0.38301951  1
  O  O422  1  0.13193216  0.63201890  0.87981192  1
  O  O423  1  0.64147232  0.12450797  0.37500259  1
  O  O424  1  0.62847877  0.13711151  0.86567578  1
  O  O425  1  0.62394978  0.64091987  0.36987377  1
  O  O426  1  0.63259086  0.63313474  0.88129158  1
