# generated using pymatgen
data_V85Zn86O256
_symmetry_space_group_name_H-M   'P 1'
_cell_length_a   16.92202463
_cell_length_b   16.94099758
_cell_length_c   16.93655601
_cell_angle_alpha   90.03131263
_cell_angle_beta   89.97565156
_cell_angle_gamma   90.02269885
_symmetry_Int_Tables_number   1
_chemical_formula_structural   V85Zn86O256
_chemical_formula_sum   'V85 Zn86 O256'
_cell_volume   4855.30221637
_cell_formula_units_Z   1
loop_
 _symmetry_equiv_pos_site_id
 _symmetry_equiv_pos_as_xyz
  1  'x, y, z'
loop_
 _atom_site_type_symbol
 _atom_site_label
 _atom_site_symmetry_multiplicity
 _atom_site_fract_x
 _atom_site_fract_y
 _atom_site_fract_z
 _atom_site_occupancy
  V  V0  1  0.00420952  0.87363074  0.87552637  1
  V  V1  1  0.63080501  0.38066567  0.75304279  1
  V  V2  1  0.38146306  0.49393289  0.87170334  1
  V  V3  1  -0.00348851  0.12725038  0.12905924  1
  V  V4  1  0.01864389  0.11917752  0.62282851  1
  V  V5  1  0.75235236  0.25613538  0.50643588  1
  V  V6  1  0.24638470  0.24547779  0.00096087  1
  V  V7  1  0.37509124  0.13016382  0.25444242  1
  V  V8  1  0.50009061  0.12617979  0.13044398  1
  V  V9  1  0.50069128  0.74994121  0.75108619  1
  V  V10  1  0.87571572  0.00136830  0.87094410  1
  V  V11  1  0.50071063  0.75551032  0.25295915  1
  V  V12  1  0.22832379  0.71763122  0.02429436  1
  V  V13  1  0.86826535  0.87996920  0.49964607  1
  V  V14  1  0.24930770  0.37335177  0.62349749  1
  V  V15  1  0.60212724  0.38041959  0.25187601  1
  V  V16  1  -0.01063525  0.24987363  0.25620048  1
  V  V17  1  0.25029378  0.12268428  0.87390280  1
  V  V18  1  0.86791457  0.74220601  0.11794404  1
  V  V19  1  0.49536825  0.12549191  0.63746987  1
  V  V20  1  0.50325746  0.61706126  0.62456461  1
  V  V21  1  0.87570146  0.48857479  0.36495026  1
  V  V22  1  0.12263935  0.37358691  0.75335985  1
  V  V23  1  0.75383377  0.63274054  0.87447394  1
  V  V24  1  -0.00332819  0.74165955  0.24175758  1
  V  V25  1  0.68215636  0.05712316  0.18572751  1
  V  V26  1  0.49954890  -0.00113674  0.50286311  1
  V  V27  1  0.38104995  0.37062889  -0.00784818  1
  V  V28  1  0.12231620  0.62605207  0.49939658  1
  V  V29  1  0.62733407  0.75089663  0.37522660  1
  V  V30  1  0.87335166  0.75322630  0.62568033  1
  V  V31  1  0.49885907  0.50089484  0.00058324  1
  V  V32  1  0.12079280  0.37808370  0.24408053  1
  V  V33  1  0.75106251  0.26574833  -0.00094269  1
  V  V34  1  0.63011011  0.12336851  -0.00273453  1
  V  V35  1  0.50499762  -0.00128998  0.00459845  1
  V  V36  1  0.12165476  0.75099622  0.37364930  1
  V  V37  1  0.37168060  0.75085502  0.62595968  1
  V  V38  1  -0.00624220  0.24822728  0.74856043  1
  V  V39  1  0.37646883  0.24901856  0.12859127  1
  V  V40  1  0.24936678  -0.00337706  0.74036252  1
  V  V41  1  -0.00425076  0.87616663  0.37086055  1
  V  V42  1  0.61772903  0.25486400  0.87474751  1
  V  V43  1  0.49996918  0.87292223  0.87494092  1
  V  V44  1  0.12475418  0.00889398  0.12064719  1
  V  V45  1  0.11752105  0.25744016  0.37896006  1
  V  V46  1  0.24409621  0.62435188  0.87130204  1
  V  V47  1  0.12813767  0.87571994  0.73549051  1
  V  V48  1  0.37175783  0.87500777  0.00042310  1
  V  V49  1  0.12336207  0.24425782  0.87889472  1
  V  V50  1  0.75318243  0.61996036  0.36490859  1
  V  V51  1  0.87083858  0.48893283  0.87908929  1
  V  V52  1  0.00043405  0.49109861  0.49288978  1
  V  V53  1  0.63093873  0.50057252  0.12720243  1
  V  V54  1  0.87674212  0.25645701  0.11735285  1
  V  V55  1  0.37167276  0.00082267  0.37747244  1
  V  V56  1  0.75034548  0.75166641  0.50396694  1
  V  V57  1  0.00771340  0.00239285  0.50177034  1
  V  V58  1  0.37148107  0.87569104  0.50633382  1
  V  V59  1  0.23724324  0.24591175  0.50493983  1
  V  V60  1  0.60674211  0.25718103  0.37468158  1
  V  V61  1  0.37504051  0.00403109  0.87156007  1
  V  V62  1  0.37694279  0.62221358  0.74958666  1
  V  V63  1  0.86851394  0.87385808  -0.00086778  1
  V  V64  1  0.25022042  0.62352839  0.37683503  1
  V  V65  1  0.64890248  0.49366769  0.62520331  1
  V  V66  1  0.24931940  0.88349306  0.12378299  1
  V  V67  1  0.62633109  0.12766306  0.49976035  1
  V  V68  1  0.37605700  0.62732965  0.25243399  1
  V  V69  1  0.62709691  0.62394395  0.49972224  1
  V  V70  1  0.23875669  0.12502069  0.38166465  1
  V  V71  1  0.12200039  0.50157317  0.62609579  1
  V  V72  1  0.00028523  0.74635725  0.75016604  1
  V  V73  1  0.24799749  0.75477278  0.50407042  1
  V  V74  1  0.00333116  0.00905280  -0.00333622  1
  V  V75  1  0.86821939  0.00851377  0.36055015  1
  V  V76  1  0.63084633  0.87097115  0.74740367  1
  V  V77  1  0.37593143  0.75476400  0.12582153  1
  V  V78  1  0.63497048  0.87648276  0.24549957  1
  V  V79  1  0.75173816  -0.00224511  0.74388796  1
  V  V80  1  0.24718372  0.00344965  0.25077514  1
  V  V81  1  0.62873402  -0.00515879  0.62288142  1
  V  V82  1  0.02329752  0.50602980  0.00904262  1
  V  V83  1  0.87348227  0.12581798  0.73654208  1
  V  V84  1  0.38260760  0.49268682  0.38041771  1
  Zn  Zn85  1  0.75956438  0.38712280  0.13505469  1
  Zn  Zn86  1  0.24957416  0.49766239  0.74994132  1
  Zn  Zn87  1  0.50131416  0.87734175  0.37693847  1
  Zn  Zn88  1  0.24610255  0.49658155  0.25053499  1
  Zn  Zn89  1  0.63130285  0.75143606  0.88528513  1
  Zn  Zn90  1  0.24658226  0.37632589  0.12277039  1
  Zn  Zn91  1  0.75204335  0.12938215  0.87086216  1
  Zn  Zn92  1  0.49252486  0.25665422  0.75747368  1
  Zn  Zn93  1  0.74896858  0.12790708  0.36805289  1
  Zn  Zn94  1  0.74616609  0.87914493  0.11983294  1
  Zn  Zn95  1  0.87549757  0.61461085  0.24077819  1
  Zn  Zn96  1  -0.00664532  0.37199873  0.88595122  1
  Zn  Zn97  1  0.50809464  0.48675900  0.49845963  1
  Zn  Zn98  1  0.12221619  0.87747430  0.24772418  1
  Zn  Zn99  1  0.12551878  0.74705066  0.87836094  1
  Zn  Zn100  1  0.36784992  0.24097817  0.63185710  1
  Zn  Zn101  1  0.37838411  0.36388811  0.49679655  1
  Zn  Zn102  1  -0.00157897  0.62632072  0.62229635  1
  Zn  Zn103  1  0.86572045  0.37633911  0.51405947  1
  Zn  Zn104  1  0.86814681  0.61405148  0.74465007  1
  Zn  Zn105  1  0.63078837  0.62894400  0.00198820  1
  Zn  Zn106  1  0.50108893  0.62665149  0.12345113  1
  Zn  Zn107  1  0.18366163  0.19031576  0.19040947  1
  Zn  Zn108  1  0.18646332  0.18428954  0.69378114  1
  Zn  Zn109  1  0.18750793  0.68997604  0.19434419  1
  Zn  Zn110  1  0.18695103  0.68872264  0.68874742  1
  Zn  Zn111  1  0.70145983  0.23761209  0.20808599  1
  Zn  Zn112  1  0.68346665  0.18889295  0.68815919  1
  Zn  Zn113  1  0.68859941  0.68874400  0.18202120  1
  Zn  Zn114  1  0.69048089  0.68368593  0.69064690  1
  Zn  Zn115  1  0.30788007  0.31104242  0.31293258  1
  Zn  Zn116  1  0.31280833  0.30944385  0.80868509  1
  Zn  Zn117  1  0.31010771  0.81689601  0.31607158  1
  Zn  Zn118  1  0.30867852  0.81078665  0.81693778  1
  Zn  Zn119  1  0.80506154  0.31362699  0.31911809  1
  Zn  Zn120  1  0.80658593  0.31346351  0.80841396  1
  Zn  Zn121  1  0.81379953  0.80947577  0.31063046  1
  Zn  Zn122  1  0.81376308  0.81163967  0.81216270  1
  Zn  Zn123  1  0.18763443  0.43528796  0.43675895  1
  Zn  Zn124  1  0.19171608  0.43434141  0.93656911  1
  Zn  Zn125  1  0.18605078  0.93454318  0.43829557  1
  Zn  Zn126  1  0.18582733  0.93644054  0.93686382  1
  Zn  Zn127  1  0.68835218  0.43523746  0.43355495  1
  Zn  Zn128  1  0.68841273  0.44459107  0.93505849  1
  Zn  Zn129  1  0.68951318  0.93864987  0.43223202  1
  Zn  Zn130  1  0.68771640  0.93880733  0.93118892  1
  Zn  Zn131  1  0.31463745  0.06512171  0.05831571  1
  Zn  Zn132  1  0.30922476  0.06426222  0.56229890  1
  Zn  Zn133  1  0.28108631  0.56102841  0.07042607  1
  Zn  Zn134  1  0.30980208  0.56169471  0.56293849  1
  Zn  Zn135  1  0.82021686  0.06952732  0.05802494  1
  Zn  Zn136  1  0.81271943  0.06366084  0.55900084  1
  Zn  Zn137  1  0.81441938  0.56002058  0.05289462  1
  Zn  Zn138  1  0.81903730  0.56782800  0.55366102  1
  Zn  Zn139  1  0.41877065  0.44800741  0.17682791  1
  Zn  Zn140  1  0.44172713  0.43129846  0.68562222  1
  Zn  Zn141  1  0.43969892  0.94143187  0.19020135  1
  Zn  Zn142  1  0.43695200  0.93829336  0.68831737  1
  Zn  Zn143  1  0.94693111  0.43680282  0.18067222  1
  Zn  Zn144  1  0.93075655  0.43492468  0.68995280  1
  Zn  Zn145  1  0.93621601  0.93433929  0.18391584  1
  Zn  Zn146  1  0.93957754  0.93461880  0.68426390  1
  Zn  Zn147  1  0.05922985  0.06493834  0.31189836  1
  Zn  Zn148  1  0.06672668  0.06202956  0.80992410  1
  Zn  Zn149  1  0.05987368  0.56075798  0.31036173  1
  Zn  Zn150  1  0.05452981  0.55885385  0.81716045  1
  Zn  Zn151  1  0.55592242  0.06853392  0.32009510  1
  Zn  Zn152  1  0.56651275  0.06024367  0.81580260  1
  Zn  Zn153  1  0.56151104  0.56340651  0.31077886  1
  Zn  Zn154  1  0.56818484  0.56040501  0.81257094  1
  Zn  Zn155  1  0.43050495  0.18522750  0.44964854  1
  Zn  Zn156  1  0.43802043  0.18370362  0.93822087  1
  Zn  Zn157  1  0.43985638  0.68682351  0.43954096  1
  Zn  Zn158  1  0.43486505  0.68645351  0.93903474  1
  Zn  Zn159  1  0.93609361  0.18449334  0.44148871  1
  Zn  Zn160  1  0.93397212  0.18633083  0.93468100  1
  Zn  Zn161  1  0.93556597  0.68416201  0.43398017  1
  Zn  Zn162  1  0.93867179  0.67962305  0.93983353  1
  Zn  Zn163  1  0.06033437  0.31767083  0.06097064  1
  Zn  Zn164  1  0.03270249  0.32432244  0.57638635  1
  Zn  Zn165  1  0.05835843  0.81827009  0.06408806  1
  Zn  Zn166  1  0.05701419  0.81485409  0.55974903  1
  Zn  Zn167  1  0.56121313  0.31397140  0.06402709  1
  Zn  Zn168  1  0.56291971  0.31285163  0.56566711  1
  Zn  Zn169  1  0.56547908  0.81391783  0.06492923  1
  Zn  Zn170  1  0.55985314  0.81117557  0.56428653  1
  O  O171  1  0.11585298  0.11633181  0.12617587  1
  O  O172  1  0.11690014  0.11430771  0.63093149  1
  O  O173  1  0.19120047  0.64007027  0.09401567  1
  O  O174  1  0.12492772  0.61786890  0.61926671  1
  O  O175  1  0.62069643  0.11588414  0.12232944  1
  O  O176  1  0.61795442  0.11255819  0.62041313  1
  O  O177  1  0.62062858  0.61588633  0.12599263  1
  O  O178  1  0.62166382  0.61367019  0.62255624  1
  O  O179  1  0.36887490  0.39002856  0.37526233  1
  O  O180  1  0.37117146  0.38185369  0.87991027  1
  O  O181  1  0.37580808  0.88234259  0.38704371  1
  O  O182  1  0.37934294  0.88233221  0.88158539  1
  O  O183  1  0.87021073  0.38727482  0.37963956  1
  O  O184  1  0.87245258  0.38371863  0.87109691  1
  O  O185  1  0.87882267  0.88270787  0.37904969  1
  O  O186  1  0.88575505  0.88046839  0.87756393  1
  O  O187  1  0.25055087  0.00735497  0.37254662  1
  O  O188  1  0.25686803  0.00514976  0.87289399  1
  O  O189  1  0.25871174  0.50936956  0.37364631  1
  O  O190  1  0.26329544  0.50586414  0.87074584  1
  O  O191  1  0.76298273  0.00556175  0.37422545  1
  O  O192  1  0.75572896  0.00259687  0.85952071  1
  O  O193  1  0.76377589  0.50717370  0.37980392  1
  O  O194  1  0.76391078  0.50630233  0.87408467  1
  O  O195  1  0.29118258  0.48129525  0.14398330  1
  O  O196  1  0.23724093  0.49407815  0.62583463  1
  O  O197  1  0.24297328  1.00333676  0.12812239  1
  O  O198  1  0.25514922  1.00178731  0.64171113  1
  O  O199  1  0.73635759  0.50076031  0.11976050  1
  O  O200  1  0.74712539  0.50442420  0.62162121  1
  O  O201  1  0.75028293  1.00534807  0.12965137  1
  O  O202  1  0.74363646  1.00225624  0.63412989  1
  O  O203  1  0.01202302  0.36537074  0.24818988  1
  O  O204  1  0.01065144  0.36280340  0.75597003  1
  O  O205  1  -0.00184427  0.86836344  0.25955829  1
  O  O206  1  0.00602314  0.86741628  0.75610119  1
  O  O207  1  0.50384691  0.38182824  0.24482187  1
  O  O208  1  0.52166062  0.37005509  0.73794735  1
  O  O209  1  0.50611559  0.86790658  0.25269033  1
  O  O210  1  0.50950728  0.87088394  0.75320733  1
  O  O211  1  0.48983710  0.11756062  0.24035542  1
  O  O212  1  0.50601931  0.12116151  0.73903011  1
  O  O213  1  0.49333268  0.64008415  0.25101783  1
  O  O214  1  0.49655984  0.62920236  0.74356222  1
  O  O215  1  1.00385213  0.13591523  0.23963285  1
  O  O216  1  0.99546227  0.12545301  0.74112674  1
  O  O217  1  0.99732739  0.63793230  0.25166891  1
  O  O218  1  1.00073669  0.63934659  0.74938717  1
  O  O219  1  0.36755330  0.25143634  0.00284887  1
  O  O220  1  0.35625385  0.24742420  0.51142101  1
  O  O221  1  0.36849892  0.75414316  0.01383892  1
  O  O222  1  0.37054249  0.75688905  0.50465102  1
  O  O223  1  0.86445201  0.24622910  0.00449870  1
  O  O224  1  0.85576220  0.24894325  0.49055737  1
  O  O225  1  0.88435463  0.75815261  0.01121416  1
  O  O226  1  0.86895508  0.75649023  0.50321073  1
  O  O227  1  0.13126275  0.25555226  0.49345680  1
  O  O228  1  0.13814283  0.25456790  0.99427121  1
  O  O229  1  0.12721886  0.74628937  0.49422644  1
  O  O230  1  0.13512851  0.75847917  0.99968165  1
  O  O231  1  0.62887674  0.24411108  0.49455862  1
  O  O232  1  0.63148684  0.24368917  0.99662156  1
  O  O233  1  0.63280582  0.74712137  0.49699455  1
  O  O234  1  0.60998471  0.74118867  0.99651782  1
  O  O235  1  0.49363736  0.23351951  0.11707753  1
  O  O236  1  0.50451497  0.23020624  0.62619226  1
  O  O237  1  0.48805527  0.75222826  0.13472130  1
  O  O238  1  0.49372981  0.73845122  0.63089906  1
  O  O239  1  0.99615145  0.24376669  0.12893202  1
  O  O240  1  1.01113659  0.22927060  0.63774283  1
  O  O241  1  0.98763989  0.75877183  0.13292722  1
  O  O242  1  0.99221927  0.74950917  0.63152363  1
  O  O243  1  0.00676191  0.24055302  0.36903120  1
  O  O244  1  0.00773123  0.24912926  0.87007461  1
  O  O245  1  0.00009462  0.75821652  0.36745459  1
  O  O246  1  0.00083761  0.75734306  0.86863920  1
  O  O247  1  0.50864923  0.24682560  0.39004332  1
  O  O248  1  0.51353190  0.24703430  0.87948673  1
  O  O249  1  0.50786474  0.75237475  0.36891317  1
  O  O250  1  0.49465939  0.75684900  0.86575413  1
  O  O251  1  0.24612579  0.13004309  0.49321184  1
  O  O252  1  0.25392904  0.13152597  0.98594808  1
  O  O253  1  0.24476338  0.63222779  0.49116491  1
  O  O254  1  0.27713614  0.62718913  0.97917392  1
  O  O255  1  0.73631661  0.12746663  0.49780439  1
  O  O256  1  0.73821484  0.12548540  0.99722981  1
  O  O257  1  0.74595562  0.63386325  0.48945351  1
  O  O258  1  0.74811431  0.62020285  0.98141346  1
  O  O259  1  0.26305068  0.36408887  0.00187826  1
  O  O260  1  0.25023599  0.36623437  0.50772946  1
  O  O261  1  0.25812224  0.88112512  0.00922430  1
  O  O262  1  0.25785182  0.86690400  0.49717997  1
  O  O263  1  0.74137822  0.36695904  0.00797136  1
  O  O264  1  0.74819172  0.36160122  0.50006465  1
  O  O265  1  0.76455015  0.88311560  -0.00392869  1
  O  O266  1  0.76057743  0.86830435  0.49390493  1
  O  O267  1  0.12535240  0.48394604  0.25636579  1
  O  O268  1  0.12189136  0.49121060  0.74322618  1
  O  O269  1  0.12981976  1.00062346  0.24207811  1
  O  O270  1  0.13962649  0.99007635  0.75573434  1
  O  O271  1  0.62039678  0.48846104  0.24526095  1
  O  O272  1  0.62683170  0.49121733  0.73775908  1
  O  O273  1  0.62459796  0.99826067  0.24972887  1
  O  O274  1  0.63255487  0.99304301  0.74351870  1
  O  O275  1  0.36707034  0.00727621  0.25725720  1
  O  O276  1  0.36244836  -0.00974645  0.76033861  1
  O  O277  1  0.38096630  0.51481997  0.26703262  1
  O  O278  1  0.37603464  0.50527592  0.75349735  1
  O  O279  1  0.87880695  -0.00281896  0.26238709  1
  O  O280  1  0.86873756  0.00280621  0.74980312  1
  O  O281  1  0.88006875  0.49674291  0.25980201  1
  O  O282  1  0.88946342  0.50283781  0.76657042  1
  O  O283  1  0.13055244  0.36177839  0.36513810  1
  O  O284  1  0.12983646  0.36100956  0.86760143  1
  O  O285  1  0.11363397  0.86868190  0.37222044  1
  O  O286  1  0.11293309  0.87413663  0.86964554  1
  O  O287  1  0.61969109  0.36835247  0.36587523  1
  O  O288  1  0.62899244  0.37205416  0.86254470  1
  O  O289  1  0.62319903  0.86920894  0.36681815  1
  O  O290  1  0.61817548  0.87283895  0.86474795  1
  O  O291  1  0.38149983  0.13184150  0.12946944  1
  O  O292  1  0.39225277  0.11904758  0.62231412  1
  O  O293  1  0.37259646  0.63786226  0.14249409  1
  O  O294  1  0.38154433  0.62682392  0.63296585  1
  O  O295  1  0.88881438  0.13606678  0.12207616  1
  O  O296  1  0.88185369  0.12087436  0.63435101  1
  O  O297  1  0.86804238  0.63791632  0.12317782  1
  O  O298  1  0.87772378  0.63831217  0.62515787  1
  O  O299  1  0.25778378  0.24571301  0.11625797  1
  O  O300  1  0.24225776  0.25530191  0.62157566  1
  O  O301  1  0.26018318  0.76643204  0.12707696  1
  O  O302  1  0.25973588  0.74325952  0.61645959  1
  O  O303  1  0.76185466  0.24363720  0.11190315  1
  O  O304  1  0.74262853  0.24162073  0.60522441  1
  O  O305  1  0.76429665  0.75681416  0.12512697  1
  O  O306  1  0.75536988  0.74582043  0.61187749  1
  O  O307  1  0.24182500  0.24240549  0.38426316  1
  O  O308  1  0.24498672  0.24092672  0.87959131  1
  O  O309  1  0.24313701  0.74429175  0.38120726  1
  O  O310  1  0.24764973  0.73882902  0.88507263  1
  O  O311  1  0.73295568  0.24520305  0.38312483  1
  O  O312  1  0.73982352  0.24902323  0.88335250  1
  O  O313  1  0.74692976  0.74432080  0.38436600  1
  O  O314  1  0.75113391  0.73948306  0.87416475  1
  O  O315  1  -0.00355405  0.11387116  0.00461668  1
  O  O316  1  -0.00240495  0.11799388  0.51511872  1
  O  O317  1  0.00804277  0.60707648  -0.01042503  1
  O  O318  1  0.00835648  0.61901972  0.49858065  1
  O  O319  1  0.51193915  0.11847349  0.00606392  1
  O  O320  1  0.51010681  0.11732164  0.50929423  1
  O  O321  1  0.49217640  0.60999759  0.00297536  1
  O  O322  1  0.51039728  0.62604467  0.50937574  1
  O  O323  1  0.48862093  0.37713879  0.51459569  1
  O  O324  1  0.48920414  0.38264403  1.00147140  1
  O  O325  1  0.49198448  0.88102929  0.49967333  1
  O  O326  1  0.49339823  0.88370589  0.99716022  1
  O  O327  1  1.01838339  0.39254259  0.48397891  1
  O  O328  1  1.00651526  0.39134514  0.99789781  1
  O  O329  1  0.98836217  0.87910252  0.48829146  1
  O  O330  1  0.99154012  0.88528853  0.99191003  1
  O  O331  1  0.48648019  0.50873137  0.38162390  1
  O  O332  1  0.48872519  0.50438918  0.87994773  1
  O  O333  1  0.49044921  0.99980319  0.38547450  1
  O  O334  1  0.49307943  0.99462196  0.88061513  1
  O  O335  1  0.98407448  0.50786378  0.37963653  1
  O  O336  1  0.99262216  0.49311101  0.88415822  1
  O  O337  1  0.99043486  0.99484331  0.37898005  1
  O  O338  1  0.99745059  0.99503259  0.87935400  1
  O  O339  1  0.00423614  0.00708709  0.11859083  1
  O  O340  1  -0.00404697  0.00949539  0.61704746  1
  O  O341  1  0.00094371  0.50436462  0.10922249  1
  O  O342  1  0.01204948  0.50490551  0.61494885  1
  O  O343  1  0.49324466  0.01087419  0.11332219  1
  O  O344  1  0.50749323  0.00637979  0.62193576  1
  O  O345  1  0.50431217  0.50322241  0.11662447  1
  O  O346  1  0.50180612  0.51218453  0.62355982  1
  O  O347  1  0.23453245  0.37110580  0.24894151  1
  O  O348  1  0.23595019  0.37473387  0.74370930  1
  O  O349  1  0.24843975  0.88592653  0.24366650  1
  O  O350  1  0.24124048  0.88490181  0.75620026  1
  O  O351  1  0.72847395  0.35036310  0.24143634  1
  O  O352  1  0.73075795  0.36321612  0.73925053  1
  O  O353  1  0.73803368  0.87329614  0.24996052  1
  O  O354  1  0.73897395  0.88066460  0.75192359  1
  O  O355  1  0.25390456  0.12129089  0.25879491  1
  O  O356  1  0.24670958  0.11038672  0.76245601  1
  O  O357  1  0.25682791  0.62545117  0.26396267  1
  O  O358  1  0.26063387  0.62274251  0.75366596  1
  O  O359  1  0.73093547  0.12623540  0.24298844  1
  O  O360  1  0.75685062  0.11842403  0.74835309  1
  O  O361  1  0.75147534  0.63171447  0.26231529  1
  O  O362  1  0.75292450  0.62525499  0.76409898  1
  O  O363  1  0.36385541  0.12021287  0.37466141  1
  O  O364  1  0.36999896  0.11110172  0.87754977  1
  O  O365  1  0.36814857  0.62480028  0.37001812  1
  O  O366  1  0.37408642  0.61936747  0.85951454  1
  O  O367  1  0.87237326  0.11209083  0.37440314  1
  O  O368  1  0.87489096  0.11619186  0.86119189  1
  O  O369  1  0.86688629  0.61555896  0.37080276  1
  O  O370  1  0.86624911  0.62009717  0.87066191  1
  O  O371  1  0.12920746  0.36673621  0.14043975  1
  O  O372  1  0.12867644  0.38193777  0.63213186  1
  O  O373  1  0.12863327  0.89044681  0.12666566  1
  O  O374  1  0.11993324  0.87322788  0.63590378  1
  O  O375  1  0.62037274  0.38180824  0.13757105  1
  O  O376  1  0.62907200  0.39088665  0.62727430  1
  O  O377  1  0.62757298  0.87887249  0.13581958  1
  O  O378  1  0.61978754  0.88702630  0.63083577  1
  O  O379  1  0.11497372  0.25662213  0.25841606  1
  O  O380  1  0.11681070  0.25334948  0.75872647  1
  O  O381  1  0.11558831  0.75374753  0.25398059  1
  O  O382  1  0.11872491  0.75833268  0.75273451  1
  O  O383  1  0.60493015  0.25752069  0.26684627  1
  O  O384  1  0.62032683  0.25460662  0.75992932  1
  O  O385  1  0.61839712  0.75808327  0.25228244  1
  O  O386  1  0.61948183  0.75822962  0.74826158  1
  O  O387  1  0.36929411  0.24250553  0.24160223  1
  O  O388  1  0.38022099  0.25084159  0.74398015  1
  O  O389  1  0.38144953  0.75004032  0.24920772  1
  O  O390  1  0.37874698  0.74330345  0.74493902  1
  O  O391  1  0.88559138  0.25453634  0.24679830  1
  O  O392  1  0.88616026  0.24110709  0.75660471  1
  O  O393  1  0.88054230  0.74917369  0.23617676  1
  O  O394  1  0.88278948  0.75344259  0.73952320  1
  O  O395  1  0.37349352  0.50423514  0.48628168  1
  O  O396  1  0.38014038  0.48716736  0.99033206  1
  O  O397  1  0.37653136  0.99245519  0.49835411  1
  O  O398  1  0.38464451  0.99634750  0.99228719  1
  O  O399  1  0.88456965  0.49583148  0.49204279  1
  O  O400  1  0.88126625  0.50037723  0.98272163  1
  O  O401  1  0.88063192  0.99299820  0.49268125  1
  O  O402  1  0.88287020  0.99523910  0.99169814  1
  O  O403  1  0.11507326  -0.00309293  0.00752722  1
  O  O404  1  0.10711591  -0.00695695  0.49466313  1
  O  O405  1  0.12600633  0.49856215  0.00225011  1
  O  O406  1  0.12388577  0.50844508  0.50435938  1
  O  O407  1  0.61494927  0.00718304  -0.00848609  1
  O  O408  1  0.62252410  0.00417902  0.50577293  1
  O  O409  1  0.61476593  0.50030369  0.00756841  1
  O  O410  1  0.62809404  0.50454205  0.51054012  1
  O  O411  1  0.38199432  0.35550820  0.11525225  1
  O  O412  1  0.35457825  0.37906012  0.62814103  1
  O  O413  1  0.37191235  0.87262481  0.12203978  1
  O  O414  1  0.38035475  0.86841983  0.61398056  1
  O  O415  1  0.87491918  0.36146325  0.12859000  1
  O  O416  1  0.92354656  0.36198912  0.60947200  1
  O  O417  1  0.87044129  0.87004460  0.11445130  1
  O  O418  1  0.87883575  0.86360894  0.61352110  1
  O  O419  1  0.13403923  0.13448567  0.36972714  1
  O  O420  1  0.13232013  0.13615894  0.87261789  1
  O  O421  1  0.13203584  0.63009498  0.37766193  1
  O  O422  1  0.14095356  0.62314704  0.86592722  1
  O  O423  1  0.62287238  0.13592264  0.38368952  1
  O  O424  1  0.62773939  0.13311392  0.88287571  1
  O  O425  1  0.63179829  0.62996021  0.37947834  1
  O  O426  1  0.63864274  0.62515414  0.87404230  1
