# generated using pymatgen
data_V85Zn86O256
_symmetry_space_group_name_H-M   'P 1'
_cell_length_a   16.95905690
_cell_length_b   16.96116493
_cell_length_c   16.97190580
_cell_angle_alpha   90.00047347
_cell_angle_beta   89.88312772
_cell_angle_gamma   90.05934036
_symmetry_Int_Tables_number   1
_chemical_formula_structural   V85Zn86O256
_chemical_formula_sum   'V85 Zn86 O256'
_cell_volume   4881.87719864
_cell_formula_units_Z   1
loop_
 _symmetry_equiv_pos_site_id
 _symmetry_equiv_pos_as_xyz
  1  'x, y, z'
loop_
 _atom_site_type_symbol
 _atom_site_label
 _atom_site_symmetry_multiplicity
 _atom_site_fract_x
 _atom_site_fract_y
 _atom_site_fract_z
 _atom_site_occupancy
  V  V0  1  0.87741864  0.49858840  0.38062040  1
  V  V1  1  0.37091983  0.24917465  0.12560990  1
  V  V2  1  0.75046075  0.49719804  0.25082181  1
  V  V3  1  0.87839207  0.23470930  0.63350722  1
  V  V4  1  0.37389879  0.25924243  0.62535843  1
  V  V5  1  0.50506272  0.75606383  0.74838475  1
  V  V6  1  0.50508058  0.12763450  0.61931016  1
  V  V7  1  0.61804342  0.75155295  0.36875382  1
  V  V8  1  0.00978298  0.23680050  0.74759126  1
  V  V9  1  0.36361966  0.00239161  0.89648583  1
  V  V10  1  0.37588170  0.12096951  0.74817629  1
  V  V11  1  0.87364348  0.87280710  0.50018783  1
  V  V12  1  0.00144366  0.37650933  0.37243126  1
  V  V13  1  0.38127314  0.87904638  0.49743988  1
  V  V14  1  -0.00488011  0.61301147  0.61562400  1
  V  V15  1  0.24739553  0.87560467  0.62164522  1
  V  V16  1  0.87766256  0.75068368  0.12695583  1
  V  V17  1  0.37469282  0.62238962  0.74877307  1
  V  V18  1  0.24988030  0.74995124  0.49605264  1
  V  V19  1  0.75639374  0.37620018  0.62927529  1
  V  V20  1  0.50963578  0.49131598  0.49017767  1
  V  V21  1  0.03389536  0.34446395  0.89297747  1
  V  V22  1  0.74616219  0.24642024  0.50310746  1
  V  V23  1  0.62039665  0.24171634  0.87813370  1
  V  V24  1  0.50697495  0.62787346  0.61534074  1
  V  V25  1  0.00241239  0.25063795  0.24894667  1
  V  V26  1  0.12410285  0.49752052  0.12910534  1
  V  V27  1  0.87222261  0.24960219  0.12372621  1
  V  V28  1  0.12436322  0.87285885  0.74780633  1
  V  V29  1  0.87657307  0.62381490  0.25165643  1
  V  V30  1  0.37752959  0.75234606  0.62308645  1
  V  V31  1  0.00028201  0.12201091  0.11294114  1
  V  V32  1  0.87735138  0.50829912  0.87909011  1
  V  V33  1  0.25404658  0.00130799  0.74639172  1
  V  V34  1  0.62614424  -0.00445849  0.13663188  1
  V  V35  1  0.12352205  0.74824239  0.37960640  1
  V  V36  1  0.24598742  0.62309503  0.37186587  1
  V  V37  1  -0.00308384  0.74638323  0.74857690  1
  V  V38  1  0.17200187  0.56595462  0.55342683  1
  V  V39  1  0.50049912  0.62797014  0.12687254  1
  V  V40  1  0.51219276  0.00133916  0.49548239  1
  V  V41  1  0.63050479  0.75704181  0.87184955  1
  V  V42  1  0.75184230  0.50747671  0.75932894  1
  V  V43  1  0.24982713  0.62319530  0.87090708  1
  V  V44  1  0.74232205  0.24192107  0.00205043  1
  V  V45  1  0.12516109  0.62751968  0.00359627  1
  V  V46  1  0.62417107  0.00129140  0.63585893  1
  V  V47  1  0.24909598  0.37158554  0.12493240  1
  V  V48  1  0.49524995  0.87547439  0.87780780  1
  V  V49  1  0.62327513  0.49899780  0.12418224  1
  V  V50  1  0.49859946  0.25110534  0.25734533  1
  V  V51  1  0.61880285  0.37537514  0.25999289  1
  V  V52  1  0.48964905  0.49915226  -0.00094072  1
  V  V53  1  0.74362717  0.87245476  0.63104573  1
  V  V54  1  0.25600106  0.76105906  -0.00085733  1
  V  V55  1  0.12284382  0.87600621  0.25313458  1
  V  V56  1  0.50446265  0.12810214  0.11479769  1
  V  V57  1  0.74212501  0.74057159  0.50048642  1
  V  V58  1  0.25206006  0.87609771  0.12214382  1
  V  V59  1  0.87585673  0.88462797  0.00210322  1
  V  V60  1  0.00029228  0.88044267  0.87835567  1
  V  V61  1  0.24933704  0.25600214  0.50452668  1
  V  V62  1  0.88215929  0.37588081  0.50682522  1
  V  V63  1  0.12852674  0.39496831  0.73577766  1
  V  V64  1  0.24537505  0.00409657  0.25289168  1
  V  V65  1  0.50238033  0.37570348  0.87497860  1
  V  V66  1  0.11752004  0.12667403  0.50807153  1
  V  V67  1  0.74658844  0.37287551  0.12535821  1
  V  V68  1  0.51230810  -0.00158609  -0.00203876  1
  V  V69  1  0.34579320  0.33750963  -0.03251605  1
  V  V70  1  0.74067014  0.12414736  0.37867685  1
  V  V71  1  0.12413492  0.75269516  0.87605296  1
  V  V72  1  0.75698743  0.12417609  0.87268859  1
  V  V73  1  0.75716520  -0.00055591  0.75305245  1
  V  V74  1  0.87177355  0.12312595  0.25307340  1
  V  V75  1  0.37886511  0.00297334  0.37510542  1
  V  V76  1  0.62996120  0.50464016  0.62246542  1
  V  V77  1  0.86944715  0.37281902  -0.00705174  1
  V  V78  1  0.12573094  0.24997935  0.37089234  1
  V  V79  1  0.37507156  0.62736536  0.24731837  1
  V  V80  1  0.11887925  0.00239177  0.11421599  1
  V  V81  1  0.75439922  0.74621611  -0.00376440  1
  V  V82  1  0.62770328  0.37635485  0.75321224  1
  V  V83  1  0.24861998  0.49391295  0.24974080  1
  V  V84  1  0.62705983  0.62493481  -0.00725178  1
  Zn  Zn85  1  0.87367982  0.62761936  0.75601533  1
  Zn  Zn86  1  0.52009854  0.77889175  0.24013920  1
  Zn  Zn87  1  0.87321313  0.74764032  0.62717305  1
  Zn  Zn88  1  0.87375187  0.00029896  0.37781419  1
  Zn  Zn89  1  0.74527075  -0.00858175  0.25910118  1
  Zn  Zn90  1  -0.00069851  0.49917243  0.00049237  1
  Zn  Zn91  1  0.38327215  0.49427953  0.36931130  1
  Zn  Zn92  1  -0.00885098  0.00849685  0.50585382  1
  Zn  Zn93  1  0.61853272  0.25148541  0.38517112  1
  Zn  Zn94  1  -0.00033604  0.74988554  0.25315936  1
  Zn  Zn95  1  0.74256446  0.86865342  0.13262732  1
  Zn  Zn96  1  0.49945798  0.25092514  0.74954488  1
  Zn  Zn97  1  0.37896447  0.37185271  0.49010893  1
  Zn  Zn98  1  0.00087380  0.62333248  0.12638644  1
  Zn  Zn99  1  0.24771903  0.12630458  0.37726706  1
  Zn  Zn100  1  0.11653818  0.00245135  0.62368776  1
  Zn  Zn101  1  0.38135067  0.75711346  0.12049924  1
  Zn  Zn102  1  0.37258970  0.50087985  0.86802326  1
  Zn  Zn103  1  0.88140291  0.00684251  0.87700731  1
  Zn  Zn104  1  0.74753884  0.62065861  0.38177315  1
  Zn  Zn105  1  -0.00088071  0.87775052  0.37874859  1
  Zn  Zn106  1  0.37486137  0.12554613  0.25100640  1
  Zn  Zn107  1  0.18400199  0.18605549  0.18466089  1
  Zn  Zn108  1  0.19085763  0.18839703  0.68880186  1
  Zn  Zn109  1  0.18894631  0.68916758  0.18902558  1
  Zn  Zn110  1  0.18707477  0.68909262  0.68863188  1
  Zn  Zn111  1  0.68255976  0.18366927  0.19078246  1
  Zn  Zn112  1  0.68761938  0.18601295  0.69031963  1
  Zn  Zn113  1  0.69149384  0.68586645  0.18795047  1
  Zn  Zn114  1  0.68832507  0.68656862  0.68988138  1
  Zn  Zn115  1  0.31326888  0.31502587  0.31413148  1
  Zn  Zn116  1  0.30650216  0.31638043  0.79642333  1
  Zn  Zn117  1  0.34428089  0.83084667  0.29474739  1
  Zn  Zn118  1  0.31546304  0.81499942  0.81239582  1
  Zn  Zn119  1  0.81116569  0.31022342  0.31445715  1
  Zn  Zn120  1  0.81389080  0.30956234  0.81392292  1
  Zn  Zn121  1  0.80710449  0.81167057  0.31520910  1
  Zn  Zn122  1  0.81356501  0.81660470  0.81265072  1
  Zn  Zn123  1  0.18963641  0.43000368  0.43215887  1
  Zn  Zn124  1  0.18794767  0.44403957  0.93843336  1
  Zn  Zn125  1  0.18712032  0.93993414  0.43749498  1
  Zn  Zn126  1  0.18330990  1.03335962  0.93013448  1
  Zn  Zn127  1  0.69287190  0.43495231  0.44041867  1
  Zn  Zn128  1  0.68738552  0.43823020  0.93823380  1
  Zn  Zn129  1  0.68862728  0.93240790  0.43748388  1
  Zn  Zn130  1  0.68848313  0.93411129  0.94032913  1
  Zn  Zn131  1  0.32310358  0.05167252  0.07251786  1
  Zn  Zn132  1  0.31139812  0.06825651  0.56137861  1
  Zn  Zn133  1  0.30959510  0.56607299  0.06184007  1
  Zn  Zn134  1  0.33447548  0.56061035  0.56003061  1
  Zn  Zn135  1  0.80787133  0.06607873  0.06386687  1
  Zn  Zn136  1  0.80779712  0.06031481  0.56224016  1
  Zn  Zn137  1  0.81103685  0.56364344  0.06363545  1
  Zn  Zn138  1  0.81932132  0.56067788  0.56676484  1
  Zn  Zn139  1  0.43433446  0.43495044  0.18591467  1
  Zn  Zn140  1  0.44228048  0.44039293  0.68533024  1
  Zn  Zn141  1  0.43726911  0.94200188  0.18492983  1
  Zn  Zn142  1  0.44055250  0.93659960  0.68496877  1
  Zn  Zn143  1  0.93735043  0.43566642  0.18723053  1
  Zn  Zn144  1  0.94638708  0.43124354  0.70124893  1
  Zn  Zn145  1  0.93540761  0.93781370  0.19007417  1
  Zn  Zn146  1  0.93624643  0.93702113  0.68332217  1
  Zn  Zn147  1  0.05624180  0.06309196  0.31795970  1
  Zn  Zn148  1  0.06146595  0.05720776  0.79923669  1
  Zn  Zn149  1  0.06283180  0.56115706  0.31325684  1
  Zn  Zn150  1  0.05942209  0.55997457  0.81476067  1
  Zn  Zn151  1  0.55939945  0.06838899  0.31062896  1
  Zn  Zn152  1  0.55941964  0.06352100  0.81116617  1
  Zn  Zn153  1  0.56983533  0.57322680  0.31196757  1
  Zn  Zn154  1  0.56206051  0.56637552  0.81059381  1
  Zn  Zn155  1  0.43548142  0.18508480  0.43937473  1
  Zn  Zn156  1  0.31760225  0.17431187  0.93020634  1
  Zn  Zn157  1  0.43775455  0.68506767  0.43365738  1
  Zn  Zn158  1  0.43747403  0.68852203  0.93713162  1
  Zn  Zn159  1  0.93344771  0.19038517  0.43827775  1
  Zn  Zn160  1  1.05813934  0.17624183  0.93145478  1
  Zn  Zn161  1  0.93551351  0.68968845  0.43945717  1
  Zn  Zn162  1  0.94006750  0.68968422  0.93890594  1
  Zn  Zn163  1  0.06061238  0.31469309  0.06654420  1
  Zn  Zn164  1  0.06076144  0.31224159  0.56374132  1
  Zn  Zn165  1  0.06187348  0.81602358  0.06321018  1
  Zn  Zn166  1  0.06012219  0.80786512  0.56363377  1
  Zn  Zn167  1  0.55666304  0.31479158  0.06179483  1
  Zn  Zn168  1  0.56534687  0.31592420  0.56849106  1
  Zn  Zn169  1  0.56476600  0.81418339  0.05807431  1
  Zn  Zn170  1  0.56658682  0.81616741  0.55718921  1
  O  O171  1  0.11427146  0.11582986  0.12532850  1
  O  O172  1  0.12851109  0.12686580  0.61033231  1
  O  O173  1  0.12545728  0.61905326  0.11940160  1
  O  O174  1  0.11576498  0.62619967  0.61950767  1
  O  O175  1  0.61490835  0.11234044  0.12887284  1
  O  O176  1  0.61681678  0.11692985  0.62765276  1
  O  O177  1  0.61863122  0.62022910  0.11695543  1
  O  O178  1  0.62016448  0.61296351  0.63045819  1
  O  O179  1  0.37546097  0.38189704  0.37586585  1
  O  O180  1  0.38423665  0.38227120  0.87027014  1
  O  O181  1  0.36284316  0.89065653  0.39174431  1
  O  O182  1  0.38746249  0.88592293  0.86950168  1
  O  O183  1  0.88036477  0.37963451  0.38202530  1
  O  O184  1  0.86915244  0.37981776  0.88790745  1
  O  O185  1  0.87404860  0.87360162  0.39002757  1
  O  O186  1  0.88163122  0.87606684  0.88589785  1
  O  O187  1  0.25550389  0.00356749  0.36788813  1
  O  O188  1  0.26165879  -0.01996928  0.85444712  1
  O  O189  1  0.24706840  0.50555308  0.36464235  1
  O  O190  1  0.25447555  0.51971621  0.88004299  1
  O  O191  1  0.75104264  0.00936268  0.37768965  1
  O  O192  1  0.74368550  0.00625697  0.86868730  1
  O  O193  1  0.75989088  0.49909124  0.36944708  1
  O  O194  1  0.75857364  0.49622774  0.86889174  1
  O  O195  1  0.24518381  0.49509440  0.13058994  1
  O  O196  1  0.23908652  0.51667432  0.60765457  1
  O  O197  1  0.24079857  0.99412103  0.13325794  1
  O  O198  1  0.25005196  0.99119474  0.62954038  1
  O  O199  1  0.74297796  0.49425579  0.13095019  1
  O  O200  1  0.74610773  0.49554513  0.63232881  1
  O  O201  1  0.73208482  1.00324293  0.12579181  1
  O  O202  1  0.74247187  0.99469123  0.63339091  1
  O  O203  1  -0.00933984  0.35929071  0.25703793  1
  O  O204  1  0.01409464  0.36375023  0.76608530  1
  O  O205  1  0.01236675  0.87324724  0.25286197  1
  O  O206  1  0.00203569  0.86256146  0.75360027  1
  O  O207  1  0.50858037  0.36593401  0.24164382  1
  O  O208  1  0.50982978  0.37781109  0.75695951  1
  O  O209  1  0.45216556  0.86235736  0.25939480  1
  O  O210  1  0.49786727  0.86199225  0.75362852  1
  O  O211  1  0.49701861  0.13544342  0.23919803  1
  O  O212  1  0.49394373  0.12614939  0.73736431  1
  O  O213  1  0.49332765  0.62176906  0.23683862  1
  O  O214  1  0.49563610  0.63603344  0.74096976  1
  O  O215  1  0.99068644  0.13562786  0.24761844  1
  O  O216  1  0.99988209  0.13784443  0.74602974  1
  O  O217  1  0.98780183  0.62451447  0.24938784  1
  O  O218  1  1.00078642  0.63618700  0.74662151  1
  O  O219  1  0.37991393  0.24552001  0.01383765  1
  O  O220  1  0.36837646  0.24999574  0.50754888  1
  O  O221  1  0.35995498  0.74569376  0.00147965  1
  O  O222  1  0.37197828  0.75830733  0.50217610  1
  O  O223  1  0.85779331  0.26058829  0.00935549  1
  O  O224  1  0.86876872  0.25650339  0.51421810  1
  O  O225  1  0.86915958  0.75338273  0.00671420  1
  O  O226  1  0.86217720  0.75679976  0.50352532  1
  O  O227  1  0.12940108  0.24371865  0.49560868  1
  O  O228  1  0.09373875  0.28025696  0.96400093  1
  O  O229  1  0.13252295  0.75579390  0.48698651  1
  O  O230  1  0.13269807  0.74571324  0.99624173  1
  O  O231  1  0.64132594  0.25988876  0.50318231  1
  O  O232  1  0.63134260  0.26052872  0.99042321  1
  O  O233  1  0.63734723  0.74825362  0.49607177  1
  O  O234  1  0.63362956  0.74390787  0.99391637  1
  O  O235  1  0.49330302  0.24431842  0.13068220  1
  O  O236  1  0.49641754  0.24256444  0.62579703  1
  O  O237  1  0.50065050  0.74355299  0.12602086  1
  O  O238  1  0.50185843  0.74559362  0.62896102  1
  O  O239  1  0.99488042  0.24512562  0.13269445  1
  O  O240  1  0.98627184  0.25314317  0.63499160  1
  O  O241  1  0.98888767  0.74755274  0.12784441  1
  O  O242  1  0.99791915  0.74022609  0.63399860  1
  O  O243  1  0.00266487  0.25681486  0.36783116  1
  O  O244  1  -0.00855372  0.24884015  0.85771605  1
  O  O245  1  0.00967406  0.75148558  0.37393997  1
  O  O246  1  0.00416235  0.75597568  0.86782034  1
  O  O247  1  0.50033069  0.24255270  0.36194660  1
  O  O248  1  0.50748976  0.26712447  0.87221726  1
  O  O249  1  0.51434121  0.74241089  0.37170965  1
  O  O250  1  0.50381292  0.75733852  0.86845366  1
  O  O251  1  0.24056219  0.13716971  0.49750612  1
  O  O252  1  0.28080327  0.07844605  0.97142142  1
  O  O253  1  0.24576838  0.62417201  0.49388449  1
  O  O254  1  0.24044514  0.63579375  0.99511677  1
  O  O255  1  0.75469817  0.13523977  0.49267931  1
  O  O256  1  0.74624125  0.13682699  0.99506268  1
  O  O257  1  0.75696389  0.63830549  0.50552789  1
  O  O258  1  0.74029558  0.63541080  1.00383100  1
  O  O259  1  0.26238968  0.38937771  0.00820758  1
  O  O260  1  0.25170310  0.36008830  0.49773287  1
  O  O261  1  0.24419026  0.86159254  0.00538936  1
  O  O262  1  0.25577514  0.87296359  0.50875482  1
  O  O263  1  0.75183310  0.36917234  0.00705107  1
  O  O264  1  0.76365202  0.36908094  0.50813200  1
  O  O265  1  0.75691465  0.86239561  0.00617930  1
  O  O266  1  0.75639638  0.86423153  0.50793414  1
  O  O267  1  0.13262389  0.50375279  0.23688920  1
  O  O268  1  0.12173204  0.49531597  0.74518197  1
  O  O269  1  0.12957180  0.99335877  0.24945805  1
  O  O270  1  0.13680956  0.98918095  0.74237186  1
  O  O271  1  0.62867247  0.49388523  0.24532112  1
  O  O272  1  0.63300215  0.49656463  0.74690032  1
  O  O273  1  0.62190568  0.99984535  0.23992391  1
  O  O274  1  0.62734326  0.99900434  0.73946930  1
  O  O275  1  0.36453176  0.00333187  0.25904721  1
  O  O276  1  0.37046794  0.00559179  0.74557401  1
  O  O277  1  0.36724377  0.50955607  0.24669575  1
  O  O278  1  0.38200211  0.51774812  0.74675928  1
  O  O279  1  0.87498033  0.01489993  0.25245589  1
  O  O280  1  0.86027975  -0.00655260  0.75417489  1
  O  O281  1  0.87118686  0.50303086  0.25887258  1
  O  O282  1  0.86883991  0.49773395  0.76345272  1
  O  O283  1  0.11402472  0.36084103  0.37772713  1
  O  O284  1  0.12291209  0.39014499  0.86367366  1
  O  O285  1  0.12590051  0.86819327  0.36869942  1
  O  O286  1  0.11471554  0.86567167  0.86439790  1
  O  O287  1  0.63012789  0.37340167  0.36278894  1
  O  O288  1  0.61993488  0.37098448  0.87071466  1
  O  O289  1  0.63023364  0.85239324  0.38177931  1
  O  O290  1  0.61532338  0.86300567  0.87848262  1
  O  O291  1  0.38256021  0.13139715  0.12967984  1
  O  O292  1  0.38372173  0.13183187  0.63126826  1
  O  O293  1  0.38460971  0.62624303  0.12814126  1
  O  O294  1  0.38639269  0.63473066  0.62973508  1
  O  O295  1  0.87815078  0.13099800  0.13257724  1
  O  O296  1  0.86977680  0.13704371  0.62498176  1
  O  O297  1  0.87771854  0.63076048  0.13246982  1
  O  O298  1  0.88482390  0.62741962  0.63311301  1
  O  O299  1  0.25630601  0.25771549  0.12779983  1
  O  O300  1  0.26229953  0.24532276  0.61732098  1
  O  O301  1  0.24743190  0.75665095  0.11320232  1
  O  O302  1  0.25614449  0.75513051  0.61603936  1
  O  O303  1  0.74874907  0.25216639  0.11940050  1
  O  O304  1  0.76011398  0.25535430  0.62416423  1
  O  O305  1  0.76183982  0.74806077  0.11722497  1
  O  O306  1  0.74673021  0.75551355  0.61815496  1
  O  O307  1  0.23985870  0.24833717  0.37835755  1
  O  O308  1  0.28312565  0.27510387  0.90059974  1
  O  O309  1  0.24662699  0.73861660  0.38094269  1
  O  O310  1  0.24649292  0.74737175  0.88446272  1
  O  O311  1  0.74947610  0.24476688  0.38744630  1
  O  O312  1  0.74151003  0.24381031  0.88141458  1
  O  O313  1  0.74700997  0.74455039  0.38953487  1
  O  O314  1  0.74213447  0.75461177  0.88288928  1
  O  O315  1  -0.00814933  0.13033811  0.01438135  1
  O  O316  1  0.01368233  0.13129855  0.49760758  1
  O  O317  1  0.01489978  0.62596558  0.00205263  1
  O  O318  1  -0.00646058  0.62522786  0.51616526  1
  O  O319  1  0.49921370  0.11410247  0.01421621  1
  O  O320  1  0.49674624  0.11662065  0.51156158  1
  O  O321  1  0.50618258  0.62164990  0.00848991  1
  O  O322  1  0.49683182  0.61862218  0.51208675  1
  O  O323  1  0.50573034  0.38849441  0.50107851  1
  O  O324  1  0.48857755  0.38273644  0.99119651  1
  O  O325  1  0.49038027  0.88578987  0.50502187  1
  O  O326  1  0.50352023  0.88071418  0.98766318  1
  O  O327  1  0.98772279  0.36605326  0.48933924  1
  O  O328  1  0.98571808  0.37733626  0.99300892  1
  O  O329  1  0.98085473  0.86647361  0.50275098  1
  O  O330  1  0.98952845  0.86783096  0.98972693  1
  O  O331  1  0.50842745  0.51015497  0.38927697  1
  O  O332  1  0.50192584  0.49270494  0.88116681  1
  O  O333  1  0.49210686  1.00785650  0.38372461  1
  O  O334  1  0.49614394  0.99442588  0.88167851  1
  O  O335  1  0.99371135  0.48449557  0.36628824  1
  O  O336  1  0.98894124  0.49456224  0.88107374  1
  O  O337  1  0.99315413  0.99661461  0.38649946  1
  O  O338  1  0.99666076  0.98393014  0.86449099  1
  O  O339  1  0.00732446  0.01054510  0.13283764  1
  O  O340  1  0.00353218  -0.00505770  0.61805531  1
  O  O341  1  0.00946872  0.49917917  0.12250719  1
  O  O342  1  -0.00693719  0.51487758  0.63306243  1
  O  O343  1  0.50790249  0.00447466  0.12016609  1
  O  O344  1  0.50783405  0.00591020  0.61856503  1
  O  O345  1  0.50363466  0.50507695  0.11611419  1
  O  O346  1  0.51109012  0.50776952  0.61651880  1
  O  O347  1  0.25275606  0.38672792  0.24023078  1
  O  O348  1  0.22825445  0.37356954  0.74416460  1
  O  O349  1  0.24338296  0.88438006  0.24319892  1
  O  O350  1  0.24902652  0.87476761  0.73507171  1
  O  O351  1  0.74259086  0.37786658  0.24428672  1
  O  O352  1  0.74601453  0.38349450  0.74728382  1
  O  O353  1  0.76229449  0.88118662  0.24281117  1
  O  O354  1  0.74829079  0.88152757  0.74146385  1
  O  O355  1  0.24842280  0.11309137  0.25006252  1
  O  O356  1  0.25997339  0.11200926  0.74332519  1
  O  O357  1  0.25393302  0.61381240  0.25418498  1
  O  O358  1  0.26113333  0.63761197  0.75933524  1
  O  O359  1  0.75609871  0.12343449  0.25921369  1
  O  O360  1  0.74223671  0.11321486  0.76039255  1
  O  O361  1  0.76284532  0.61545870  0.25007462  1
  O  O362  1  0.75309319  0.61115953  0.74832779  1
  O  O363  1  0.36993051  0.11478325  0.37381072  1
  O  O364  1  0.38314941  0.10950859  0.85611975  1
  O  O365  1  0.36497540  0.61894942  0.36671279  1
  O  O366  1  0.36947396  0.62879559  0.86466310  1
  O  O367  1  0.86453214  0.12771109  0.36820491  1
  O  O368  1  0.85594933  0.12192573  0.87832370  1
  O  O369  1  0.87457069  0.61506989  0.37008483  1
  O  O370  1  0.87821343  0.61265367  0.87804441  1
  O  O371  1  0.13927833  0.38233047  0.11821118  1
  O  O372  1  0.11094501  0.38018952  0.63696973  1
  O  O373  1  0.13150646  0.87907934  0.13486586  1
  O  O374  1  0.13431847  0.87172180  0.62783110  1
  O  O375  1  0.62803662  0.38186851  0.13074831  1
  O  O376  1  0.63269752  0.38658638  0.63465017  1
  O  O377  1  0.62233572  0.88958357  0.12441010  1
  O  O378  1  0.63618315  0.88434018  0.61986329  1
  O  O379  1  0.11397316  0.24492192  0.25764554  1
  O  O380  1  0.11237231  0.25029106  0.74380247  1
  O  O381  1  0.12706217  0.75856765  0.26045373  1
  O  O382  1  0.11797928  0.75414809  0.75521102  1
  O  O383  1  0.61538467  0.25945124  0.25049436  1
  O  O384  1  0.62480892  0.25956809  0.75849556  1
  O  O385  1  0.62790910  0.74866962  0.26022720  1
  O  O386  1  0.61778016  0.74286679  0.76103210  1
  O  O387  1  0.38028795  0.24953269  0.23997183  1
  O  O388  1  0.37661708  0.24098332  0.74195979  1
  O  O389  1  0.36012945  0.73018323  0.24038316  1
  O  O390  1  0.38408861  0.74420767  0.74206166  1
  O  O391  1  0.87749765  0.24110072  0.24395215  1
  O  O392  1  0.88104154  0.25553468  0.73731130  1
  O  O393  1  0.87529928  0.74018711  0.24427283  1
  O  O394  1  0.88215356  0.74766974  0.75006114  1
  O  O395  1  0.39662997  0.49424991  0.49674251  1
  O  O396  1  0.38692153  0.51120565  0.99369817  1
  O  O397  1  0.38278857  0.99677415  0.49587736  1
  O  O398  1  0.39639191  0.99089748  0.99677795  1
  O  O399  1  0.87177241  0.49171076  0.48850267  1
  O  O400  1  0.87216826  0.49263403  0.99565224  1
  O  O401  1  0.86922795  0.98460939  0.50157843  1
  O  O402  1  0.86582148  0.98740230  1.00048416  1
  O  O403  1  0.12353692  -0.01250252  0.01617239  1
  O  O404  1  0.12777335  0.01826292  0.49893780  1
  O  O405  1  0.12598954  0.51026681  0.01201545  1
  O  O406  1  0.12313834  0.50268897  0.49468470  1
  O  O407  1  0.61704870  -0.00317663  0.00904683  1
  O  O408  1  0.61506924  -0.00505634  0.50706855  1
  O  O409  1  0.61596180  0.50812135  0.00242407  1
  O  O410  1  0.62135655  0.49632881  0.50963264  1
  O  O411  1  0.36416176  0.36540163  0.12003257  1
  O  O412  1  0.38433410  0.36199550  0.62374551  1
  O  O413  1  0.35587073  0.87668323  0.12299716  1
  O  O414  1  0.36913581  0.87107820  0.61545769  1
  O  O415  1  0.86700514  0.37014754  0.11741400  1
  O  O416  1  0.87447790  0.37540330  0.62069275  1
  O  O417  1  0.87835498  0.86625693  0.11732252  1
  O  O418  1  0.86058846  0.87037057  0.61745630  1
  O  O419  1  0.12372841  0.13709773  0.38305121  1
  O  O420  1  0.12555707  0.11042691  0.87473970  1
  O  O421  1  0.13623841  0.63247157  0.36802832  1
  O  O422  1  0.13169653  0.63187035  0.88141844  1
  O  O423  1  0.63667616  0.13145283  0.37072524  1
  O  O424  1  0.62499308  0.13908680  0.87188224  1
  O  O425  1  0.63443902  0.64034171  0.37513104  1
  O  O426  1  0.61626709  0.63631808  0.88769464  1
