# generated using pymatgen
data_V85Zn86O256
_symmetry_space_group_name_H-M   'P 1'
_cell_length_a   16.94829616
_cell_length_b   16.95593556
_cell_length_c   16.95626598
_cell_angle_alpha   90.00619001
_cell_angle_beta   89.98112209
_cell_angle_gamma   90.08963750
_symmetry_Int_Tables_number   1
_chemical_formula_structural   V85Zn86O256
_chemical_formula_sum   'V85 Zn86 O256'
_cell_volume   4872.78741179
_cell_formula_units_Z   1
loop_
 _symmetry_equiv_pos_site_id
 _symmetry_equiv_pos_as_xyz
  1  'x, y, z'
loop_
 _atom_site_type_symbol
 _atom_site_label
 _atom_site_symmetry_multiplicity
 _atom_site_fract_x
 _atom_site_fract_y
 _atom_site_fract_z
 _atom_site_occupancy
  V  V0  1  0.00106714  0.87629293  0.88064960  1
  V  V1  1  0.12835737  0.87696089  0.24928317  1
  V  V2  1  0.12033972  0.11029312  0.00501664  1
  V  V3  1  0.12460082  0.50133489  0.12631456  1
  V  V4  1  0.38477091  -0.00004874  0.37949718  1
  V  V5  1  0.24928055  0.24968407  0.00348010  1
  V  V6  1  0.75208129  0.88175207  0.13101521  1
  V  V7  1  0.25138036  -0.00028556  0.74740377  1
  V  V8  1  0.12890263  0.74927844  0.38853436  1
  V  V9  1  0.87453337  0.00311508  0.36645510  1
  V  V10  1  0.75510015  0.37758657  0.61612287  1
  V  V11  1  0.75313669  0.24982906  0.00022503  1
  V  V12  1  0.87575777  0.62512455  0.74480633  1
  V  V13  1  0.37156683  0.12721932  0.25098513  1
  V  V14  1  0.86795280  0.51158219  0.36898383  1
  V  V15  1  0.50654476  -0.00698332  -0.00424955  1
  V  V16  1  0.37525824  0.87145995  -0.00672245  1
  V  V17  1  0.38756201  0.37964711  0.50103867  1
  V  V18  1  0.74643587  0.24516815  0.49942713  1
  V  V19  1  0.24553298  0.62682665  0.39647877  1
  V  V20  1  0.50090908  0.75780058  0.75311995  1
  V  V21  1  0.87599008  0.87283350  0.00216179  1
  V  V22  1  0.62856458  0.11991500  0.00477349  1
  V  V23  1  0.24917937  0.50859064  0.75454709  1
  V  V24  1  0.73923494  0.74407361  0.49787193  1
  V  V25  1  0.62779682  0.50449208  0.12618635  1
  V  V26  1  0.87452381  0.50045331  0.87448908  1
  V  V27  1  0.24222530  0.87711184  0.12181440  1
  V  V28  1  0.75207373  0.12875363  0.36613780  1
  V  V29  1  0.25045336  0.24966415  0.49753338  1
  V  V30  1  0.50205954  0.37583325  0.87880038  1
  V  V31  1  0.25203866  0.37548633  0.62591053  1
  V  V32  1  0.00084717  -0.00033174  0.49825583  1
  V  V33  1  0.00021832  0.37381567  0.87527651  1
  V  V34  1  0.12326206  0.37422685  0.25469478  1
  V  V35  1  0.25070330  0.37620429  0.12914086  1
  V  V36  1  0.87725581  -0.00243105  0.87689131  1
  V  V37  1  0.88055979  0.24628208  0.13156465  1
  V  V38  1  0.13120196  0.62289654  -0.00368494  1
  V  V39  1  0.69611281  0.93351726  0.57744642  1
  V  V40  1  0.87563951  0.37402591  0.00072380  1
  V  V41  1  0.61954236  0.50079541  0.61675751  1
  V  V42  1  -0.01063434  0.37434179  0.38296595  1
  V  V43  1  0.74225343  0.62713787  0.35701135  1
  V  V44  1  0.37256266  0.50528078  0.87554370  1
  V  V45  1  0.00034978  0.50100521  0.00073999  1
  V  V46  1  0.62762308  0.24926242  0.87672138  1
  V  V47  1  0.12670769  0.37453371  0.75062534  1
  V  V48  1  0.00353355  0.74136735  0.25276419  1
  V  V49  1  0.86969432  0.87822784  0.49878881  1
  V  V50  1  0.49993035  0.37616628  0.36472381  1
  V  V51  1  0.63762308  0.88489976  0.75716305  1
  V  V52  1  0.12335841  0.50557329  0.61631962  1
  V  V53  1  0.37919948  -0.00211391  0.87503430  1
  V  V54  1  0.50432456  0.51199221  -0.00136841  1
  V  V55  1  0.87295855  0.74298565  0.13636485  1
  V  V56  1  0.86723254  0.75440142  0.62206601  1
  V  V57  1  0.13067158  0.74343901  0.87201163  1
  V  V58  1  0.75130753  0.11929218  0.87230099  1
  V  V59  1  0.57552729  -0.05571939  0.18229293  1
  V  V60  1  0.37995661  0.88211180  0.49945266  1
  V  V61  1  0.50286684  0.24693378  0.75085801  1
  V  V62  1  0.25291462  0.51290024  0.25149089  1
  V  V63  1  0.49818244  0.62773452  0.13721077  1
  V  V64  1  0.51255621  0.11523664  0.61315318  1
  V  V65  1  0.87731031  0.25367954  0.61965000  1
  V  V66  1  0.37285942  0.74370305  0.13030305  1
  V  V67  1  -0.00017445  0.11042031  0.13061135  1
  V  V68  1  0.74284691  0.62822347  0.88029988  1
  V  V69  1  0.74910001  0.49807187  0.74737593  1
  V  V70  1  -0.00216259  0.74990615  0.74918779  1
  V  V71  1  0.50611967  0.13108184  0.12905561  1
  V  V72  1  0.12539398  0.24932346  0.87640369  1
  V  V73  1  0.00114014  0.12562355  0.62563812  1
  V  V74  1  0.36932882  0.74940290  0.61818596  1
  V  V75  1  0.25041636  0.12478017  0.87661440  1
  V  V76  1  0.37853616  0.25139399  0.13094636  1
  V  V77  1  0.12345903  0.87623632  0.74959878  1
  V  V78  1  0.75120447  0.37843531  0.13254929  1
  V  V79  1  0.12630406  0.00107791  0.62383511  1
  V  V80  1  0.37854203  0.25018350  0.62537838  1
  V  V81  1  0.87408479  0.11950373  0.74841977  1
  V  V82  1  0.61992143  0.24919604  0.37335900  1
  V  V83  1  0.38028577  0.50812214  0.37659205  1
  V  V84  1  0.37747336  0.12438316  0.75072957  1
  Zn  Zn85  1  0.54250513  0.79881512  0.31657037  1
  Zn  Zn86  1  0.75225691  0.00911416  0.24132938  1
  Zn  Zn87  1  0.12337026  0.24977451  0.37677107  1
  Zn  Zn88  1  0.74404785  0.74755026  0.00421038  1
  Zn  Zn89  1  0.37648007  0.62972191  0.75225529  1
  Zn  Zn90  1  0.25240257  0.74423537  -0.00683855  1
  Zn  Zn91  1  0.37615594  0.37565273  0.00168621  1
  Zn  Zn92  1  0.12666020  0.12532735  0.49680216  1
  Zn  Zn93  1  -0.00364424  0.62155707  0.12847098  1
  Zn  Zn94  1  -0.00029390  0.25014347  0.75016108  1
  Zn  Zn95  1  0.00089828  0.87338686  0.37343085  1
  Zn  Zn96  1  0.62411919  0.37479655  0.24884990  1
  Zn  Zn97  1  0.62864719  0.37357151  0.74950101  1
  Zn  Zn98  1  0.49823112  0.62427042  0.62290911  1
  Zn  Zn99  1  0.24571615  0.87053058  0.61628110  1
  Zn  Zn100  1  0.24565830  -0.00066722  0.25211085  1
  Zn  Zn101  1  0.00382435  0.63202319  0.61043211  1
  Zn  Zn102  1  -0.00773018  0.50464382  0.49754507  1
  Zn  Zn103  1  0.61954234  0.62150244  0.49101240  1
  Zn  Zn104  1  0.24755267  0.12521823  0.37412662  1
  Zn  Zn105  1  0.00011287  0.24528209  0.25282524  1
  Zn  Zn106  1  0.61648875  0.75321726  0.88091187  1
  Zn  Zn107  1  0.18449499  0.18692045  0.18676462  1
  Zn  Zn108  1  0.18879333  0.18750865  0.68568065  1
  Zn  Zn109  1  0.18657435  0.69269527  0.18536993  1
  Zn  Zn110  1  0.18853939  0.68610255  0.68709212  1
  Zn  Zn111  1  0.68798052  0.19376604  0.19015243  1
  Zn  Zn112  1  0.68913429  0.18536877  0.68836126  1
  Zn  Zn113  1  0.67781086  0.69009178  0.18113443  1
  Zn  Zn114  1  0.68549482  0.68877577  0.68980589  1
  Zn  Zn115  1  0.31323240  0.31627834  0.31350492  1
  Zn  Zn116  1  0.31473170  0.31584906  0.81419320  1
  Zn  Zn117  1  0.34530282  0.78775553  0.33669933  1
  Zn  Zn118  1  0.31260344  0.81411381  0.80801407  1
  Zn  Zn119  1  0.81455225  0.31201855  0.31163936  1
  Zn  Zn120  1  0.81429273  0.31012036  0.80835621  1
  Zn  Zn121  1  0.70598305  0.80903910  0.30998409  1
  Zn  Zn122  1  0.80979219  0.81264420  0.81060930  1
  Zn  Zn123  1  0.19180999  0.43352783  0.43626239  1
  Zn  Zn124  1  0.18938885  0.43603748  0.93888678  1
  Zn  Zn125  1  0.19639460  0.93619847  0.43440239  1
  Zn  Zn126  1  0.19104570  0.93430463  0.93420732  1
  Zn  Zn127  1  0.69308492  0.43684181  0.43468420  1
  Zn  Zn128  1  0.68735972  0.43897345  0.94062501  1
  Zn  Zn129  1  0.66355948  0.95406434  0.40908411  1
  Zn  Zn130  1  0.69125394  0.93315716  0.93879145  1
  Zn  Zn131  1  0.31306660  0.06096466  0.06345014  1
  Zn  Zn132  1  0.31823028  0.06417261  0.56326732  1
  Zn  Zn133  1  0.31317819  0.56163641  0.05989014  1
  Zn  Zn134  1  0.31582396  0.56106978  0.56560870  1
  Zn  Zn135  1  0.82015294  0.05919594  0.05916610  1
  Zn  Zn136  1  0.81300323  0.06895046  0.55692344  1
  Zn  Zn137  1  0.81227408  0.56153289  0.06404642  1
  Zn  Zn138  1  0.81610115  0.56318076  0.55326368  1
  Zn  Zn139  1  0.43616285  0.44266580  0.18874399  1
  Zn  Zn140  1  0.43856944  0.43507817  0.69307066  1
  Zn  Zn141  1  0.40844428  0.93647502  0.18510837  1
  Zn  Zn142  1  0.44214623  0.93371626  0.68495662  1
  Zn  Zn143  1  0.93803577  0.43620406  0.19176576  1
  Zn  Zn144  1  0.93973865  0.43679180  0.68651868  1
  Zn  Zn145  1  0.94004457  0.92939879  0.19056834  1
  Zn  Zn146  1  0.93369187  0.93741807  0.68710267  1
  Zn  Zn147  1  0.06546327  0.06170978  0.31391191  1
  Zn  Zn148  1  0.06059616  0.06246631  0.81387708  1
  Zn  Zn149  1  0.06384591  0.56149299  0.31865738  1
  Zn  Zn150  1  0.06091406  0.56201299  0.80932972  1
  Zn  Zn151  1  0.55818745  0.07804018  0.31615821  1
  Zn  Zn152  1  0.56496139  0.06033679  0.81216786  1
  Zn  Zn153  1  0.56264728  0.55970381  0.30867516  1
  Zn  Zn154  1  0.56108341  0.56468860  0.80431902  1
  Zn  Zn155  1  0.43813615  0.18969920  0.43749260  1
  Zn  Zn156  1  0.43861705  0.18444532  0.94271759  1
  Zn  Zn157  1  0.44600927  0.68416691  0.44345327  1
  Zn  Zn158  1  0.43807413  0.68786545  0.93598599  1
  Zn  Zn159  1  0.93680244  0.18679746  0.43802675  1
  Zn  Zn160  1  0.94020981  0.18556279  0.94143042  1
  Zn  Zn161  1  0.93485096  0.68685866  0.43633745  1
  Zn  Zn162  1  0.93728881  0.68744757  0.93849995  1
  Zn  Zn163  1  0.06356763  0.31117249  0.06481682  1
  Zn  Zn164  1  0.06410169  0.31532880  0.56193201  1
  Zn  Zn165  1  0.06116921  0.80763791  0.06185126  1
  Zn  Zn166  1  0.05738585  0.81526756  0.56368984  1
  Zn  Zn167  1  0.56525633  0.31390253  0.06098515  1
  Zn  Zn168  1  0.56695900  0.31209431  0.56238705  1
  Zn  Zn169  1  0.56072094  0.80286157  0.05887147  1
  Zn  Zn170  1  0.55603099  0.81147341  0.56437722  1
  O  O171  1  0.11545105  0.12617199  0.11317854  1
  O  O172  1  0.11819213  0.11770364  0.62383108  1
  O  O173  1  0.12219228  0.61848980  0.11490508  1
  O  O174  1  0.12215364  0.60933270  0.63315475  1
  O  O175  1  0.61702288  0.13460443  0.11924818  1
  O  O176  1  0.61172403  0.12964106  0.62937829  1
  O  O177  1  0.61320429  0.61590258  0.12223862  1
  O  O178  1  0.63009059  0.60656592  0.62749388  1
  O  O179  1  0.38173843  0.38209493  0.38284819  1
  O  O180  1  0.38586092  0.38318503  0.87734204  1
  O  O181  1  0.37103188  0.89327951  0.38396860  1
  O  O182  1  0.36978113  0.88102033  0.88583609  1
  O  O183  1  0.88677801  0.37755835  0.37352302  1
  O  O184  1  0.87933241  0.37997647  0.87910553  1
  O  O185  1  0.87647158  0.88693630  0.39255421  1
  O  O186  1  0.87994453  0.87869847  0.87867744  1
  O  O187  1  0.26167983  0.00830248  0.37138038  1
  O  O188  1  0.25733850  0.00699750  0.86861241  1
  O  O189  1  0.25213486  0.50974527  0.37013595  1
  O  O190  1  0.26056167  0.48960587  0.86670413  1
  O  O191  1  0.75591524  0.01242251  0.36942377  1
  O  O192  1  0.76526162  0.00742012  0.87957737  1
  O  O193  1  0.75799308  0.51155099  0.37346281  1
  O  O194  1  0.75490243  0.50557351  0.86707186  1
  O  O195  1  0.24674640  0.49518263  0.13191693  1
  O  O196  1  0.24178706  0.49494384  0.63399535  1
  O  O197  1  0.26050787  0.98235573  0.12848324  1
  O  O198  1  0.24331242  1.00342985  0.63231527  1
  O  O199  1  0.74114631  0.49072121  0.11662082  1
  O  O200  1  0.74929953  0.49312480  0.62971980  1
  O  O201  1  0.75649612  0.99291178  0.12520389  1
  O  O202  1  0.75648144  0.99656092  0.62643559  1
  O  O203  1  0.00832409  0.37180057  0.26071290  1
  O  O204  1  0.00828031  0.37301468  0.75770150  1
  O  O205  1  0.00930213  0.86152183  0.25149154  1
  O  O206  1  0.00332614  0.87041093  0.75938173  1
  O  O207  1  0.49663397  0.37448518  0.26184830  1
  O  O208  1  0.50213192  0.36353377  0.76240055  1
  O  O209  1  0.50583730  0.88972754  0.23178069  1
  O  O210  1  0.51089347  0.86315510  0.74612994  1
  O  O211  1  0.48782147  0.12558382  0.23607293  1
  O  O212  1  0.49685926  0.13631379  0.75183851  1
  O  O213  1  0.49416014  0.61766883  0.23623142  1
  O  O214  1  0.49859887  0.63709178  0.74220422  1
  O  O215  1  1.00929552  0.12710387  0.23395605  1
  O  O216  1  0.99333167  0.12799150  0.74378383  1
  O  O217  1  1.00878272  0.63654461  0.24830101  1
  O  O218  1  0.98672333  0.62898464  0.74830298  1
  O  O219  1  0.36330328  0.24785139  0.00893719  1
  O  O220  1  0.37023582  0.25930803  0.50648009  1
  O  O221  1  0.37226523  0.75692418  0.00028191  1
  O  O222  1  0.37370652  0.75762109  0.51569339  1
  O  O223  1  0.87258575  0.25577465  0.00714432  1
  O  O224  1  0.86892991  0.24610399  0.51424160  1
  O  O225  1  0.87492254  0.75991344  0.00637502  1
  O  O226  1  0.86612281  0.75965688  0.50414046  1
  O  O227  1  0.13655031  0.24985009  0.50134164  1
  O  O228  1  0.13616754  0.24431342  0.99712259  1
  O  O229  1  0.12090224  0.75810661  0.48770816  1
  O  O230  1  0.12380477  0.73903043  0.98941102  1
  O  O231  1  0.63632313  0.25844504  0.48819979  1
  O  O232  1  0.63243977  0.24182421  0.99397236  1
  O  O233  1  0.63726861  0.74938199  0.51009554  1
  O  O234  1  0.63098752  0.75135787  0.99278809  1
  O  O235  1  0.48953135  0.24269868  0.11499930  1
  O  O236  1  0.49757129  0.24869048  0.63577549  1
  O  O237  1  0.48390346  0.74125930  0.11900407  1
  O  O238  1  0.48664552  0.75000821  0.63581943  1
  O  O239  1  0.99400689  0.24286218  0.12520245  1
  O  O240  1  0.99369671  0.24556902  0.62519819  1
  O  O241  1  0.98976222  0.74653115  0.13019344  1
  O  O242  1  0.99000949  0.74948212  0.63242762  1
  O  O243  1  -0.00065054  0.26074664  0.37410828  1
  O  O244  1  0.00715829  0.25566679  0.87549671  1
  O  O245  1  0.00848034  0.75144384  0.36799353  1
  O  O246  1  0.00604096  0.75645391  0.86762576  1
  O  O247  1  0.50899110  0.26049550  0.38024103  1
  O  O248  1  0.50491222  0.25462343  0.87295624  1
  O  O249  1  0.45261657  0.75535598  0.36127335  1
  O  O250  1  0.49888430  0.74592450  0.85823989  1
  O  O251  1  0.25315847  0.14050085  0.50372342  1
  O  O252  1  0.24073822  0.13025717  0.99945362  1
  O  O253  1  0.24515329  0.62141405  0.49459049  1
  O  O254  1  0.23549746  0.62130894  0.99755122  1
  O  O255  1  0.75230396  0.13959798  0.49037354  1
  O  O256  1  0.75068854  0.12929488  0.99015584  1
  O  O257  1  0.74467834  0.63196253  0.49175728  1
  O  O258  1  0.75653777  0.62272888  0.98249129  1
  O  O259  1  0.25155500  0.36556031  0.00876704  1
  O  O260  1  0.25890429  0.36602717  0.50669179  1
  O  O261  1  0.25654682  0.87180198  0.00399436  1
  O  O262  1  0.26769111  0.87939536  0.50373324  1
  O  O263  1  0.75707977  0.36843641  0.00560312  1
  O  O264  1  0.75117335  0.36615494  0.51075856  1
  O  O265  1  0.76047602  0.87256829  0.01000207  1
  O  O266  1  0.75449792  0.87027695  0.50965355  1
  O  O267  1  0.13043940  0.49070921  0.24647874  1
  O  O268  1  0.13152537  0.49199884  0.74667744  1
  O  O269  1  0.12469486  0.98199201  0.25451020  1
  O  O270  1  0.13035875  0.99771066  0.74505362  1
  O  O271  1  0.61843874  0.49265799  0.23116196  1
  O  O272  1  0.63895574  0.49701065  0.74377851  1
  O  O273  1  0.62572436  1.00542458  0.24789970  1
  O  O274  1  0.62384232  0.98456372  0.75329139  1
  O  O275  1  0.37099039  0.01029486  0.26045999  1
  O  O276  1  0.37140751  0.00322211  0.75589286  1
  O  O277  1  0.36325664  0.49432232  0.26326165  1
  O  O278  1  0.36675624  0.49924140  0.75687027  1
  O  O279  1  0.87820586  -0.00527066  0.26443687  1
  O  O280  1  0.87869005  0.01280560  0.75614842  1
  O  O281  1  0.87748110  0.49276228  0.26912406  1
  O  O282  1  0.86699541  0.50593231  0.75161696  1
  O  O283  1  0.11680090  0.37487600  0.36843268  1
  O  O284  1  0.12148542  0.36863384  0.87051878  1
  O  O285  1  0.12783411  0.86533025  0.36739565  1
  O  O286  1  0.11699378  0.86940327  0.86978813  1
  O  O287  1  0.61596187  0.37438476  0.37354238  1
  O  O288  1  0.61906382  0.36892217  0.87405646  1
  O  O289  1  0.62405864  0.86409515  0.36736123  1
  O  O290  1  0.63168855  0.87140657  0.86237316  1
  O  O291  1  0.38149038  0.13179245  0.12963506  1
  O  O292  1  0.38377389  0.13350657  0.63442904  1
  O  O293  1  0.37918805  0.63647618  0.11647048  1
  O  O294  1  0.37358166  0.63679898  0.62901066  1
  O  O295  1  0.89242555  0.13240248  0.11390398  1
  O  O296  1  0.88046400  0.13045629  0.63268054  1
  O  O297  1  0.87615148  0.63888815  0.11957490  1
  O  O298  1  0.87632721  0.63088758  0.63125496  1
  O  O299  1  0.25555742  0.25454473  0.11919242  1
  O  O300  1  0.25867968  0.25692139  0.62155953  1
  O  O301  1  0.25693038  0.75485863  0.11464536  1
  O  O302  1  0.26469800  0.75370276  0.63703407  1
  O  O303  1  0.75927051  0.25486262  0.11747232  1
  O  O304  1  0.75564517  0.25557171  0.61937527  1
  O  O305  1  0.76216379  0.75622059  0.12410859  1
  O  O306  1  0.76187095  0.74170039  0.61782779  1
  O  O307  1  0.25031100  0.25075079  0.38524037  1
  O  O308  1  0.24757697  0.24480031  0.88379192  1
  O  O309  1  0.24768312  0.73248376  0.37388431  1
  O  O310  1  0.23441514  0.75445291  0.87221245  1
  O  O311  1  0.74818361  0.24805961  0.38218499  1
  O  O312  1  0.74839026  0.24351853  0.88113229  1
  O  O313  1  0.75537310  0.73394707  0.38321264  1
  O  O314  1  0.75381787  0.73350447  0.87376708  1
  O  O315  1  0.01492043  0.12594109  0.00728426  1
  O  O316  1  -0.00010393  0.11432771  0.50795077  1
  O  O317  1  0.00744317  0.61428018  -0.00037714  1
  O  O318  1  -0.00301287  0.61916577  0.49895026  1
  O  O319  1  0.50307277  0.11271755  0.01256011  1
  O  O320  1  0.49785287  0.13133458  0.51494978  1
  O  O321  1  0.49721203  0.61400051  0.00327738  1
  O  O322  1  0.50804681  0.62456687  0.50952315  1
  O  O323  1  0.49026875  0.37180692  0.49542188  1
  O  O324  1  0.49886662  0.37931729  0.98891833  1
  O  O325  1  0.48152817  0.87341784  0.50580563  1
  O  O326  1  0.49112030  0.88703716  1.00759060  1
  O  O327  1  1.00524341  0.37936506  0.48533730  1
  O  O328  1  0.99721322  0.38176243  0.99505771  1
  O  O329  1  0.99199053  0.88770644  0.49932524  1
  O  O330  1  0.99576583  0.86885118  0.98668940  1
  O  O331  1  0.48914153  0.49337263  0.37190677  1
  O  O332  1  0.49834055  0.49345239  0.87873268  1
  O  O333  1  0.48441191  1.01006255  0.37192663  1
  O  O334  1  0.49104564  1.00749762  0.88553399  1
  O  O335  1  0.99322448  0.48957182  0.37494823  1
  O  O336  1  0.99396997  0.49343088  0.87958749  1
  O  O337  1  0.99309902  0.99981060  0.38345433  1
  O  O338  1  0.98865229  0.99074244  0.87044638  1
  O  O339  1  -0.00617186  0.01178971  0.12694016  1
  O  O340  1  0.00584179  0.00498502  0.61950239  1
  O  O341  1  0.00541146  0.49946632  0.11892582  1
  O  O342  1  0.01399375  0.49758720  0.62340700  1
  O  O343  1  0.50779182  0.00373502  0.12366100  1
  O  O344  1  0.49598831  0.01744167  0.62987434  1
  O  O345  1  0.50185212  0.50586261  0.11547733  1
  O  O346  1  0.51765657  0.49530297  0.63462837  1
  O  O347  1  0.24270314  0.38363014  0.24685834  1
  O  O348  1  0.24521341  0.38058243  0.74458482  1
  O  O349  1  0.24117416  0.87241498  0.23654365  1
  O  O350  1  0.24130270  0.88655252  0.74945760  1
  O  O351  1  0.75136271  0.37152835  0.23501812  1
  O  O352  1  0.75158020  0.38257703  0.74090726  1
  O  O353  1  0.75667970  0.88181533  0.23421103  1
  O  O354  1  0.73722710  0.87040087  0.74572631  1
  O  O355  1  0.26088785  0.12380825  0.24510764  1
  O  O356  1  0.25622477  0.11923949  0.75586869  1
  O  O357  1  0.24468648  0.61371999  0.24917453  1
  O  O358  1  0.25107730  0.61121286  0.75191355  1
  O  O359  1  0.75221462  0.12919420  0.26100996  1
  O  O360  1  0.75858750  0.13045798  0.76434910  1
  O  O361  1  0.74606692  0.63029794  0.25888570  1
  O  O362  1  0.76012670  0.61796119  0.75577360  1
  O  O363  1  0.37408912  0.12263297  0.36595829  1
  O  O364  1  0.36911656  0.12035068  0.87126707  1
  O  O365  1  0.35994460  0.61293181  0.38310290  1
  O  O366  1  0.37903643  0.60940235  0.87278452  1
  O  O367  1  0.86651985  0.11548316  0.38089454  1
  O  O368  1  0.87306879  0.11800074  0.87095196  1
  O  O369  1  0.86373323  0.61735601  0.37094274  1
  O  O370  1  0.86943661  0.61815627  0.86608408  1
  O  O371  1  0.13027718  0.38200828  0.13213167  1
  O  O372  1  0.13052467  0.38238461  0.63368295  1
  O  O373  1  0.13326672  0.86580867  0.12981801  1
  O  O374  1  0.12481590  0.88370413  0.63184758  1
  O  O375  1  0.63529960  0.37837759  0.12462844  1
  O  O376  1  0.63547166  0.38372048  0.62834943  1
  O  O377  1  0.63158550  0.88252840  0.12068271  1
  O  O378  1  0.62809758  0.87616630  0.63280210  1
  O  O379  1  0.12557126  0.26419041  0.24993867  1
  O  O380  1  0.12623606  0.25698926  0.75723782  1
  O  O381  1  0.12014371  0.75693981  0.25661096  1
  O  O382  1  0.11793843  0.75360739  0.75402685  1
  O  O383  1  0.62956797  0.25696071  0.26670036  1
  O  O384  1  0.61892930  0.25145900  0.75834761  1
  O  O385  1  0.62364504  0.75956850  0.24653919  1
  O  O386  1  0.61497603  0.75677360  0.75079726  1
  O  O387  1  0.36949723  0.24526922  0.23777789  1
  O  O388  1  0.38357677  0.24613536  0.74753763  1
  O  O389  1  0.36383519  0.75280018  0.22706087  1
  O  O390  1  0.38460590  0.75243677  0.74465439  1
  O  O391  1  0.87803016  0.25194558  0.23488180  1
  O  O392  1  0.87658894  0.23803191  0.74043782  1
  O  O393  1  0.88519930  0.75275831  0.23558074  1
  O  O394  1  0.87684771  0.74374833  0.74176453  1
  O  O395  1  0.36701060  0.48884624  0.49158066  1
  O  O396  1  0.38303521  0.49599279  0.99252416  1
  O  O397  1  0.37581754  0.99791895  0.48921364  1
  O  O398  1  0.38181092  0.99348267  0.99492104  1
  O  O399  1  0.87397203  0.49689674  0.47937934  1
  O  O400  1  0.88174468  0.49360864  0.99530986  1
  O  O401  1  0.88201421  0.99598656  0.49671209  1
  O  O402  1  0.87838944  0.98397154  0.99044965  1
  O  O403  1  0.12970786  0.01252749  -0.00507459  1
  O  O404  1  0.11780248  -0.00041280  0.50593136  1
  O  O405  1  0.11952987  0.50347508  0.00380944  1
  O  O406  1  0.12953738  0.49250931  0.51618165  1
  O  O407  1  0.61710418  0.00641266  -0.00766290  1
  O  O408  1  0.64302261  -0.01011425  0.51444574  1
  O  O409  1  0.61366964  0.49325801  0.01032962  1
  O  O410  1  0.63193506  0.49652733  0.51510068  1
  O  O411  1  0.37055247  0.36736320  0.12400801  1
  O  O412  1  0.37313312  0.37156172  0.61943321  1
  O  O413  1  0.36620624  0.86284934  0.11084747  1
  O  O414  1  0.37136792  0.86771075  0.62064779  1
  O  O415  1  0.87118760  0.36895602  0.11892907  1
  O  O416  1  0.86823850  0.36513913  0.63144554  1
  O  O417  1  0.87213824  0.86654474  0.11818966  1
  O  O418  1  0.88015614  0.86617226  0.61446151  1
  O  O419  1  0.12856837  0.13128938  0.37825395  1
  O  O420  1  0.12901841  0.12983102  0.88552198  1
  O  O421  1  0.13913912  0.63131488  0.37352675  1
  O  O422  1  0.11731230  0.63315247  0.88049169  1
  O  O423  1  0.63491653  0.13667773  0.37547454  1
  O  O424  1  0.63529414  0.12855319  0.88036205  1
  O  O425  1  0.63770096  0.61624678  0.37358163  1
  O  O426  1  0.64148900  0.62308525  0.86605168  1
