# generated using pymatgen
data_V85Zn86O256
_symmetry_space_group_name_H-M   'P 1'
_cell_length_a   16.93281329
_cell_length_b   16.94741321
_cell_length_c   16.93544415
_cell_angle_alpha   90.06792887
_cell_angle_beta   89.96805780
_cell_angle_gamma   90.10466660
_symmetry_Int_Tables_number   1
_chemical_formula_structural   V85Zn86O256
_chemical_formula_sum   'V85 Zn86 O256'
_cell_volume   4859.90782427
_cell_formula_units_Z   1
loop_
 _symmetry_equiv_pos_site_id
 _symmetry_equiv_pos_as_xyz
  1  'x, y, z'
loop_
 _atom_site_type_symbol
 _atom_site_label
 _atom_site_symmetry_multiplicity
 _atom_site_fract_x
 _atom_site_fract_y
 _atom_site_fract_z
 _atom_site_occupancy
  V  V0  1  0.25365000  -0.00294433  0.74512295  1
  V  V1  1  0.49882772  0.23911840  0.24766180  1
  V  V2  1  0.37639311  0.62460127  0.24552158  1
  V  V3  1  0.25081141  0.75185340  0.50260319  1
  V  V4  1  0.00044450  0.49922950  0.50089839  1
  V  V5  1  0.62767149  -0.00345358  0.64217547  1
  V  V6  1  0.31248318  0.92169010  0.55891715  1
  V  V7  1  0.24953985  0.11572034  0.37734475  1
  V  V8  1  0.38282949  0.00038496  0.87750026  1
  V  V9  1  0.38090488  0.74889691  0.12441482  1
  V  V10  1  0.87685896  0.61944245  0.75687169  1
  V  V11  1  0.74921670  0.61948844  0.87924637  1
  V  V12  1  0.62118396  0.87760621  0.24950216  1
  V  V13  1  0.36543912  0.37203530  0.49839764  1
  V  V14  1  -0.00111227  0.62330909  0.62659884  1
  V  V15  1  0.62139480  0.24496568  0.88555084  1
  V  V16  1  0.12904623  0.75334392  0.87587702  1
  V  V17  1  0.87994846  0.87693487  0.00209668  1
  V  V18  1  0.08127762  0.18859943  0.93110423  1
  V  V19  1  0.75317433  0.49564437  0.75857695  1
  V  V20  1  0.62381000  0.37181216  0.75369815  1
  V  V21  1  0.60746596  0.11677532  0.50954756  1
  V  V22  1  0.37462721  0.25404855  0.12096125  1
  V  V23  1  0.37605285  0.75368879  0.62681472  1
  V  V24  1  0.00187399  0.24608995  0.24752433  1
  V  V25  1  0.49581570  0.87606984  0.39413397  1
  V  V26  1  0.49917299  0.86532043  0.86197188  1
  V  V27  1  0.12823296  0.87236548  0.73318246  1
  V  V28  1  0.50092974  0.24795962  0.74538363  1
  V  V29  1  0.62197657  0.51051566  0.12485306  1
  V  V30  1  0.00334210  0.87594235  0.87663638  1
  V  V31  1  0.37111833  0.24815399  0.62281010  1
  V  V32  1  0.75200191  0.50535226  0.25649205  1
  V  V33  1  0.62446946  0.37628687  0.24818762  1
  V  V34  1  -0.00233967  0.62929556  0.11997452  1
  V  V35  1  0.62215693  0.24800666  0.37695592  1
  V  V36  1  0.38434533  0.12222890  0.74510856  1
  V  V37  1  0.38540565  0.87781503  0.00041251  1
  V  V38  1  0.49848667  0.50311769  0.50171490  1
  V  V39  1  0.12000589  0.50091197  0.11729160  1
  V  V40  1  0.50170187  0.74534759  0.25067685  1
  V  V41  1  0.61822452  0.00644737  0.11174875  1
  V  V42  1  0.87495313  0.12614084  0.24472219  1
  V  V43  1  0.64573337  0.86918173  0.74774152  1
  V  V44  1  -0.00409439  0.86737144  0.36469927  1
  V  V45  1  0.48588523  0.50138564  0.00644551  1
  V  V46  1  0.36780030  0.49315161  0.86535708  1
  V  V47  1  0.74908498  0.87674145  0.12528814  1
  V  V48  1  0.49999918  0.63454682  0.63353974  1
  V  V49  1  0.12793308  0.37913897  0.75707161  1
  V  V50  1  0.12696308  0.37723307  0.24909307  1
  V  V51  1  0.12712495  0.87227253  0.24483498  1
  V  V52  1  0.87561989  0.25200653  0.12331670  1
  V  V53  1  0.87508702  0.24872312  0.62683088  1
  V  V54  1  0.87925240  0.63408394  0.25828670  1
  V  V55  1  -0.00186965  0.39320606  0.87957925  1
  V  V56  1  0.63594544  0.74730542  0.38037954  1
  V  V57  1  0.74743524  0.24773904  0.50259737  1
  V  V58  1  0.75007854  0.74765994  0.00057656  1
  V  V59  1  0.00560318  0.12645722  0.61734701  1
  V  V60  1  0.63815242  0.62628213  0.49802944  1
  V  V61  1  0.13249145  0.24540604  0.38781323  1
  V  V62  1  0.74422268  0.12080175  0.87917534  1
  V  V63  1  0.87361033  0.37568029  0.50125296  1
  V  V64  1  -0.00078429  0.00247750  0.49141190  1
  V  V65  1  0.24947833  0.37935869  0.62993793  1
  V  V66  1  0.62238090  0.49854944  0.62800674  1
  V  V67  1  -0.00088052  0.37454873  0.37555020  1
  V  V68  1  0.37409817  0.50145261  0.37304171  1
  V  V69  1  0.25015245  0.62676690  0.37330806  1
  V  V70  1  0.74892778  0.12452028  0.37584935  1
  V  V71  1  0.12424045  0.62694013  0.49884092  1
  V  V72  1  0.25018302  0.12498303  0.87641113  1
  V  V73  1  0.87324531  0.38816231  -0.00307312  1
  V  V74  1  0.74927102  0.37340277  0.62775869  1
  V  V75  1  0.86883861  0.12074905  0.74662051  1
  V  V76  1  0.00692863  0.24821493  0.75351006  1
  V  V77  1  0.11983408  0.01228923  0.12157628  1
  V  V78  1  0.49809919  0.37435957  0.37542342  1
  V  V79  1  0.25176816  0.74855770  0.00071596  1
  V  V80  1  -0.00024630  0.74937283  0.75223420  1
  V  V81  1  0.25251750  0.25639008  -0.00449936  1
  V  V82  1  0.25432131  0.88754222  0.12827663  1
  V  V83  1  0.12654925  0.00222851  0.61697385  1
  V  V84  1  0.87110154  -0.00259035  0.87103505  1
  Zn  Zn85  1  0.74545095  0.24827883  0.00403354  1
  Zn  Zn86  1  0.37734984  -0.00602929  0.37274418  1
  Zn  Zn87  1  0.61901496  0.62668317  0.00349961  1
  Zn  Zn88  1  0.00570075  0.01484853  -0.00171652  1
  Zn  Zn89  1  0.87549073  0.00120934  0.37176707  1
  Zn  Zn90  1  0.88126433  0.75583219  0.13169552  1
  Zn  Zn91  1  0.36597869  0.62392180  0.74830147  1
  Zn  Zn92  1  0.61948603  0.74423435  0.87223985  1
  Zn  Zn93  1  0.49483596  0.37369241  0.88087049  1
  Zn  Zn94  1  0.36304831  0.11343486  0.24313135  1
  Zn  Zn95  1  0.86923087  0.50353975  0.37952093  1
  Zn  Zn96  1  0.74834986  0.00349668  0.24670260  1
  Zn  Zn97  1  0.85652041  0.75742808  0.62508706  1
  Zn  Zn98  1  0.74850248  0.37646785  0.12328285  1
  Zn  Zn99  1  0.25384447  0.38015850  0.11903553  1
  Zn  Zn100  1  0.13398465  0.50368026  0.63122099  1
  Zn  Zn101  1  0.12076388  0.62244275  -0.00307237  1
  Zn  Zn102  1  0.49710860  0.12359550  0.10575264  1
  Zn  Zn103  1  0.86098063  0.87363368  0.50677433  1
  Zn  Zn104  1  0.24759119  0.50238232  0.24704427  1
  Zn  Zn105  1  0.24829644  0.62094788  0.86566933  1
  Zn  Zn106  1  0.12291994  0.74721699  0.36630897  1
  Zn  Zn107  1  0.19046201  0.19087074  0.18926305  1
  Zn  Zn108  1  0.19072158  0.18903000  0.68875527  1
  Zn  Zn109  1  0.18861744  0.69067241  0.18449999  1
  Zn  Zn110  1  0.19050784  0.68781672  0.68517003  1
  Zn  Zn111  1  0.68783696  0.18831929  0.18606542  1
  Zn  Zn112  1  0.68557512  0.18156727  0.68955667  1
  Zn  Zn113  1  0.69288841  0.68880399  0.19171105  1
  Zn  Zn114  1  0.68377484  0.68384821  0.69347131  1
  Zn  Zn115  1  0.31120531  0.30913808  0.30713394  1
  Zn  Zn116  1  0.31145378  0.31164468  0.81337157  1
  Zn  Zn117  1  0.31242852  0.81614319  0.31349467  1
  Zn  Zn118  1  0.31124089  0.81257722  0.80813205  1
  Zn  Zn119  1  0.81065593  0.31318739  0.31300243  1
  Zn  Zn120  1  0.81299413  0.30845666  0.81718590  1
  Zn  Zn121  1  0.81039287  0.81649994  0.31517188  1
  Zn  Zn122  1  0.81662653  0.80419872  0.81620432  1
  Zn  Zn123  1  0.18698838  0.43874042  0.43595876  1
  Zn  Zn124  1  0.18466657  0.43596873  0.93609289  1
  Zn  Zn125  1  0.17532124  0.93946783  0.43210108  1
  Zn  Zn126  1  0.19255234  0.93805928  0.94043173  1
  Zn  Zn127  1  0.68579939  0.43784301  0.43806256  1
  Zn  Zn128  1  0.68360136  0.43484237  0.94141378  1
  Zn  Zn129  1  0.68275576  0.94274110  0.43396442  1
  Zn  Zn130  1  0.69134504  0.93022480  0.93187259  1
  Zn  Zn131  1  0.31450733  0.06816743  0.05809419  1
  Zn  Zn132  1  0.30526987  0.08563842  0.55209652  1
  Zn  Zn133  1  0.30784803  0.56431075  0.06306487  1
  Zn  Zn134  1  0.31313293  0.56373680  0.56375786  1
  Zn  Zn135  1  0.81311447  0.06149511  0.06114024  1
  Zn  Zn136  1  0.80984902  0.05709438  0.56073121  1
  Zn  Zn137  1  0.81069349  0.56261255  0.07128452  1
  Zn  Zn138  1  0.81351736  0.56321883  0.57122159  1
  Zn  Zn139  1  0.43903203  0.43584244  0.18589396  1
  Zn  Zn140  1  0.43830624  0.43474400  0.68819358  1
  Zn  Zn141  1  0.44009647  0.94013451  0.19184471  1
  Zn  Zn142  1  0.45292173  0.94440708  0.68425967  1
  Zn  Zn143  1  0.93813637  0.44036434  0.18656103  1
  Zn  Zn144  1  0.93950371  0.43710329  0.69080745  1
  Zn  Zn145  1  0.94101295  0.94531349  0.18579820  1
  Zn  Zn146  1  0.93815400  0.93767377  0.68666003  1
  Zn  Zn147  1  0.06805985  0.06285965  0.30434250  1
  Zn  Zn148  1  0.05754958  0.05391913  0.80200594  1
  Zn  Zn149  1  0.05837980  0.56182867  0.31060286  1
  Zn  Zn150  1  0.06824922  0.56345476  0.81396455  1
  Zn  Zn151  1  0.56140863  0.05709411  0.31520828  1
  Zn  Zn152  1  0.56237276  0.05789813  0.93210231  1
  Zn  Zn153  1  0.56232131  0.56491181  0.31358917  1
  Zn  Zn154  1  0.55888522  0.55890565  0.81821421  1
  Zn  Zn155  1  0.43067789  0.18702278  0.43468891  1
  Zn  Zn156  1  0.43265587  0.19180050  0.93431130  1
  Zn  Zn157  1  0.44002657  0.69271091  0.44021554  1
  Zn  Zn158  1  0.43546537  0.68036269  0.93601811  1
  Zn  Zn159  1  0.93745273  0.18939156  0.43479053  1
  Zn  Zn160  1  0.91773886  0.19089782  0.93633288  1
  Zn  Zn161  1  0.93303648  0.68946601  0.43684853  1
  Zn  Zn162  1  0.93549170  0.68639805  0.93974470  1
  Zn  Zn163  1  0.05609191  0.31827316  0.06523074  1
  Zn  Zn164  1  0.06381448  0.31520917  0.56628200  1
  Zn  Zn165  1  0.06445305  0.81164820  0.06582857  1
  Zn  Zn166  1  0.02231963  0.80147869  0.54894337  1
  Zn  Zn167  1  0.55707903  0.31904521  0.06429837  1
  Zn  Zn168  1  0.55846507  0.31089689  0.56275242  1
  Zn  Zn169  1  0.56251975  0.81223247  0.06132811  1
  Zn  Zn170  1  0.69116406  0.81467354  0.56119746  1
  O  O171  1  0.13334693  0.11037298  0.12904788  1
  O  O172  1  0.11782523  0.11641000  0.63093129  1
  O  O173  1  0.11396352  0.62060414  0.12611381  1
  O  O174  1  0.11907466  0.62077325  0.61620653  1
  O  O175  1  0.62646975  0.10894080  0.12551990  1
  O  O176  1  0.62433214  0.12029747  0.61543695  1
  O  O177  1  0.62867727  0.61415518  0.12852296  1
  O  O178  1  0.61329016  0.61809261  0.61903176  1
  O  O179  1  0.37807981  0.37853657  0.38066059  1
  O  O180  1  0.37536724  0.38762640  0.87281397  1
  O  O181  1  0.38988170  0.87165422  0.37581664  1
  O  O182  1  0.38343512  0.87783620  0.87788311  1
  O  O183  1  0.88092472  0.37495447  0.38345435  1
  O  O184  1  0.88227420  0.36931547  0.88822487  1
  O  O185  1  0.88699009  0.88057517  0.37114240  1
  O  O186  1  0.87974286  0.88058529  0.88171014  1
  O  O187  1  0.24361754  0.01295413  0.37638694  1
  O  O188  1  0.25992131  0.00428446  0.86782471  1
  O  O189  1  0.25702230  0.50796636  0.37156079  1
  O  O190  1  0.26475553  0.50130966  0.88561917  1
  O  O191  1  0.75061123  0.01518305  0.36991938  1
  O  O192  1  0.76291490  0.00447230  0.87818571  1
  O  O193  1  0.74856159  0.49545281  0.36158104  1
  O  O194  1  0.74549820  0.50329625  0.86640528  1
  O  O195  1  0.23922967  0.49890282  0.12828442  1
  O  O196  1  0.25224891  0.48466312  0.62086335  1
  O  O197  1  0.24575968  0.99025275  0.11623745  1
  O  O198  1  0.24766802  0.99466472  0.61884032  1
  O  O199  1  0.74068388  0.49644352  0.13800369  1
  O  O200  1  0.74236577  0.49417112  0.63858947  1
  O  O201  1  0.74171400  0.98995441  0.12257400  1
  O  O202  1  0.72889237  1.00711525  0.61960218  1
  O  O203  1  0.00627969  0.36809558  0.25563219  1
  O  O204  1  0.00141012  0.36572789  0.76122287  1
  O  O205  1  0.00606458  0.88125691  0.25825971  1
  O  O206  1  0.01071388  0.87107428  0.75881799  1
  O  O207  1  0.50991550  0.36900858  0.25505706  1
  O  O208  1  0.50758393  0.36703590  0.75310879  1
  O  O209  1  0.51180948  0.86291658  0.24753399  1
  O  O210  1  0.50068188  0.87205022  0.76148104  1
  O  O211  1  0.50497603  0.13588046  0.25005661  1
  O  O212  1  0.48537147  0.13346138  0.75150208  1
  O  O213  1  0.49261328  0.63726817  0.25414793  1
  O  O214  1  0.50023506  0.61984108  0.73566271  1
  O  O215  1  0.99146165  0.13866583  0.25481206  1
  O  O216  1  0.99293245  0.13064366  0.73926976  1
  O  O217  1  0.98548102  0.62276372  0.24253462  1
  O  O218  1  0.99379559  0.62463821  0.74691481  1
  O  O219  1  0.36429620  0.25059123  0.00628671  1
  O  O220  1  0.38299543  0.26128024  0.50984809  1
  O  O221  1  0.37190758  0.75386205  0.00707638  1
  O  O222  1  0.36409763  0.74555172  0.51072162  1
  O  O223  1  0.87036873  0.25959610  0.01045643  1
  O  O224  1  0.86849025  0.25556980  0.50639820  1
  O  O225  1  0.86529862  0.75788121  0.00331064  1
  O  O226  1  0.90937489  0.76201244  0.51580833  1
  O  O227  1  0.11739379  0.25436437  0.48542365  1
  O  O228  1  0.12830293  0.24855228  1.00201590  1
  O  O229  1  0.12646640  0.73685913  0.49770188  1
  O  O230  1  0.13430428  0.75266602  0.99254879  1
  O  O231  1  0.62867065  0.24208869  0.49824338  1
  O  O232  1  0.62318820  0.25608374  0.98855835  1
  O  O233  1  0.62500875  0.74143974  0.48709764  1
  O  O234  1  0.63711304  0.74798565  0.99918767  1
  O  O235  1  0.49479453  0.24739837  0.13091137  1
  O  O236  1  0.48853936  0.25668771  0.63773981  1
  O  O237  1  0.48862187  0.75352390  0.13150487  1
  O  O238  1  0.49310038  0.73416667  0.61988304  1
  O  O239  1  0.98659818  0.25425568  0.13424792  1
  O  O240  1  0.99491869  0.24473248  0.63180406  1
  O  O241  1  0.99950389  0.73572357  0.12568647  1
  O  O242  1  1.01211806  0.73126773  0.63893426  1
  O  O243  1  0.00788390  0.25631856  0.36781330  1
  O  O244  1  0.00741539  0.24542117  0.87113339  1
  O  O245  1  0.00260745  0.76493810  0.37235631  1
  O  O246  1  0.00752750  0.75475560  0.87179349  1
  O  O247  1  0.50241041  0.25545178  0.36726897  1
  O  O248  1  0.50477090  0.25262663  0.86329545  1
  O  O249  1  0.50701974  0.75733238  0.36743782  1
  O  O250  1  0.49989018  0.76150634  0.87990046  1
  O  O251  1  0.24230913  0.13924978  0.47744424  1
  O  O252  1  0.25018765  0.13206982  0.98346478  1
  O  O253  1  0.24251508  0.63034243  0.49498825  1
  O  O254  1  0.24674091  0.64003820  0.99929802  1
  O  O255  1  0.74674374  0.13254448  0.49173535  1
  O  O256  1  0.75935497  0.12921366  0.98415156  1
  O  O257  1  0.73639938  0.60852387  0.49986260  1
  O  O258  1  0.75199808  0.63048979  0.99574271  1
  O  O259  1  0.24269783  0.35999989  -0.00006318  1
  O  O260  1  0.26124134  0.37791333  0.50456507  1
  O  O261  1  0.26226377  0.86497916  0.00550292  1
  O  O262  1  0.24411162  0.86844877  0.49603077  1
  O  O263  1  0.76104463  0.37138814  0.00027006  1
  O  O264  1  0.75242511  0.36913270  0.50768883  1
  O  O265  1  0.76026788  0.86839294  0.00440361  1
  O  O266  1  0.74985389  0.87225922  0.48490335  1
  O  O267  1  0.12396155  0.49201003  0.24346212  1
  O  O268  1  0.11905467  0.48414321  0.74806627  1
  O  O269  1  0.12278588  0.98873814  0.23258814  1
  O  O270  1  0.13156124  0.99316997  0.73537217  1
  O  O271  1  0.62716921  0.49512256  0.24650228  1
  O  O272  1  0.63003002  0.49162341  0.74795586  1
  O  O273  1  0.62642971  0.99097222  0.24018725  1
  O  O274  1  0.62568904  0.98279791  0.74552577  1
  O  O275  1  0.37779344  0.00234361  0.25640997  1
  O  O276  1  0.37334023  0.00526980  0.75250753  1
  O  O277  1  0.37591868  0.50871507  0.25391818  1
  O  O278  1  0.37776867  0.49916844  0.76245626  1
  O  O279  1  0.87115587  0.01254177  0.24908838  1
  O  O280  1  0.88343084  0.00966828  0.75877627  1
  O  O281  1  0.86701416  0.50716981  0.25249677  1
  O  O282  1  0.86473403  0.50588278  0.74730605  1
  O  O283  1  0.11879636  0.36908266  0.36846641  1
  O  O284  1  0.11253850  0.37566790  0.86936121  1
  O  O285  1  0.11525033  0.87425205  0.36118527  1
  O  O286  1  0.12348597  0.86710820  0.87068240  1
  O  O287  1  0.61746724  0.36813984  0.37063305  1
  O  O288  1  0.62447116  0.36410221  0.86768612  1
  O  O289  1  0.61711110  0.86501937  0.36624691  1
  O  O290  1  0.61429007  0.87417900  0.86529946  1
  O  O291  1  0.37716025  0.13630440  0.12673017  1
  O  O292  1  0.36792361  0.13585606  0.63199693  1
  O  O293  1  0.36921590  0.63358246  0.13771707  1
  O  O294  1  0.38602269  0.62929240  0.62532042  1
  O  O295  1  0.86829577  0.13425680  0.13591629  1
  O  O296  1  0.88096125  0.12818941  0.63055008  1
  O  O297  1  0.88486051  0.62752006  0.13350229  1
  O  O298  1  0.88410641  0.62514553  0.63839696  1
  O  O299  1  0.25643736  0.25045240  0.11448980  1
  O  O300  1  0.26214423  0.26111159  0.62872994  1
  O  O301  1  0.26205965  0.75861609  0.11866177  1
  O  O302  1  0.25567438  0.75158604  0.61063740  1
  O  O303  1  0.75980143  0.25539825  0.12563917  1
  O  O304  1  0.75553075  0.25345483  0.62362786  1
  O  O305  1  0.75157806  0.76256884  0.11969114  1
  O  O306  1  0.74622379  0.73494348  0.61803681  1
  O  O307  1  0.23376560  0.25696670  0.37494037  1
  O  O308  1  0.25112827  0.23910844  0.88057672  1
  O  O309  1  0.24838979  0.74481696  0.38557340  1
  O  O310  1  0.24418780  0.75258624  0.88301619  1
  O  O311  1  0.74206732  0.24312488  0.38032070  1
  O  O312  1  0.73888988  0.23963435  0.87516477  1
  O  O313  1  0.73417506  0.74784602  0.36667004  1
  O  O314  1  0.74866975  0.73872076  0.88494584  1
  O  O315  1  0.00940207  0.13355984  -0.01667256  1
  O  O316  1  -0.00403734  0.12259422  0.51076758  1
  O  O317  1  -0.00088481  0.62605934  0.01440944  1
  O  O318  1  0.00512724  0.61848901  0.50729573  1
  O  O319  1  0.49646322  0.12304779  -0.00704648  1
  O  O320  1  0.51007785  0.13092624  0.49728307  1
  O  O321  1  0.50341716  0.60834404  -0.00357597  1
  O  O322  1  0.50426567  0.61454763  0.50654854  1
  O  O323  1  0.49193499  0.38587844  0.49732012  1
  O  O324  1  0.50459513  0.39489613  0.99695534  1
  O  O325  1  0.50393201  0.86780519  0.48861586  1
  O  O326  1  0.48933508  0.87162034  0.99178848  1
  O  O327  1  0.99479494  0.38125888  0.49792315  1
  O  O328  1  0.98602098  0.37263892  0.99134171  1
  O  O329  1  1.00830745  0.88956494  0.47728530  1
  O  O330  1  0.98909782  0.87054564  0.99638821  1
  O  O331  1  0.49478381  0.49485790  0.38205622  1
  O  O332  1  0.48689853  0.49720597  0.88507663  1
  O  O333  1  0.50211531  0.98142427  0.37563189  1
  O  O334  1  0.48808943  0.98562361  0.87485954  1
  O  O335  1  0.99778001  0.49197735  0.38439755  1
  O  O336  1  0.99846850  0.49221119  0.87342802  1
  O  O337  1  1.00146894  0.99961947  0.37818824  1
  O  O338  1  0.99205041  0.99341416  0.87775058  1
  O  O339  1  0.01372756  0.00281123  0.11717529  1
  O  O340  1  0.00930921  0.00931322  0.61763639  1
  O  O341  1  0.00793236  0.51427384  0.13052589  1
  O  O342  1  0.00224788  0.50825271  0.62024659  1
  O  O343  1  0.51550433  -0.00015585  0.12305431  1
  O  O344  1  0.52582492  0.00130479  0.62178445  1
  O  O345  1  0.50453455  0.49925860  0.11507917  1
  O  O346  1  0.50301695  0.50471601  0.61808887  1
  O  O347  1  0.23579326  0.37564029  0.24706380  1
  O  O348  1  0.23908182  0.36944128  0.74418636  1
  O  O349  1  0.24405356  0.87207470  0.23826695  1
  O  O350  1  0.23909736  0.88379619  0.75088438  1
  O  O351  1  0.73662936  0.37985564  0.25102737  1
  O  O352  1  0.74649513  0.37844190  0.74857099  1
  O  O353  1  0.73918445  0.87630642  0.24196889  1
  O  O354  1  0.74374828  0.87361637  0.76109393  1
  O  O355  1  0.25095816  0.13963987  0.27049142  1
  O  O356  1  0.25762209  0.11868062  0.75744906  1
  O  O357  1  0.25800637  0.62756524  0.25656028  1
  O  O358  1  0.25023705  0.62315261  0.75086352  1
  O  O359  1  0.75596968  0.12812436  0.25839888  1
  O  O360  1  0.76324720  0.12933443  0.75864464  1
  O  O361  1  0.76624247  0.61729367  0.24481272  1
  O  O362  1  0.75597542  0.61487665  0.75921652  1
  O  O363  1  0.36173651  0.11955817  0.37543612  1
  O  O364  1  0.36817509  0.11620281  0.86546302  1
  O  O365  1  0.37185473  0.62294859  0.36558234  1
  O  O366  1  0.37238275  0.61194406  0.86995457  1
  O  O367  1  0.86608724  0.12910557  0.36393156  1
  O  O368  1  0.86921586  0.11605947  0.86523257  1
  O  O369  1  0.87985823  0.62237795  0.36330108  1
  O  O370  1  0.86530188  0.62703609  0.86590044  1
  O  O371  1  0.12202459  0.38429559  0.13272700  1
  O  O372  1  0.13330494  0.37641414  0.63352572  1
  O  O373  1  0.13552540  0.87941611  0.12800635  1
  O  O374  1  0.11428344  0.88125508  0.63152431  1
  O  O375  1  0.62485200  0.38509677  0.13467012  1
  O  O376  1  0.62981742  0.37813719  0.63247487  1
  O  O377  1  0.63067409  0.88204831  0.12888555  1
  O  O378  1  0.63132878  0.88073610  0.64056979  1
  O  O379  1  0.11585569  0.25887784  0.25207977  1
  O  O380  1  0.11217865  0.25807637  0.74399739  1
  O  O381  1  0.12786477  0.76529703  0.24741354  1
  O  O382  1  0.12212135  0.75766039  0.75628763  1
  O  O383  1  0.61864352  0.25766700  0.25370637  1
  O  O384  1  0.61677398  0.25157127  0.75501438  1
  O  O385  1  0.61864246  0.75296441  0.25631626  1
  O  O386  1  0.62728940  0.76415307  0.75482169  1
  O  O387  1  0.38496474  0.24652819  0.24377524  1
  O  O388  1  0.38071893  0.24437954  0.74410700  1
  O  O389  1  0.38219884  0.74549107  0.24421818  1
  O  O390  1  0.36862397  0.74949812  0.73134677  1
  O  O391  1  0.88108822  0.24801218  0.24447221  1
  O  O392  1  0.88661396  0.24234863  0.74844751  1
  O  O393  1  0.86938266  0.73743642  0.25007819  1
  O  O394  1  0.88349680  0.73894359  0.74927973  1
  O  O395  1  0.38132103  0.49465422  0.49388035  1
  O  O396  1  0.38272562  0.50300892  0.99831210  1
  O  O397  1  0.36066437  0.99369068  0.50166032  1
  O  O398  1  0.36706918  0.98938023  0.98871893  1
  O  O399  1  0.88066719  0.49409549  0.50174256  1
  O  O400  1  0.86962878  0.48675330  1.00509757  1
  O  O401  1  0.88874985  1.00057885  0.49607628  1
  O  O402  1  0.88144552  0.99325808  0.99309623  1
  O  O403  1  0.12409685  -0.00574475  0.01385550  1
  O  O404  1  0.11516072  0.00201582  0.50945103  1
  O  O405  1  0.12712445  0.50247098  0.01262128  1
  O  O406  1  0.11921313  0.51005061  0.50115215  1
  O  O407  1  0.62839373  -0.00638242  0.00779208  1
  O  O408  1  0.62306641  0.01696541  0.49776900  1
  O  O409  1  0.62106463  0.50327045  0.01108133  1
  O  O410  1  0.61554236  0.50324016  0.50565684  1
  O  O411  1  0.37161740  0.36022995  0.13238872  1
  O  O412  1  0.36908577  0.37012453  0.61876178  1
  O  O413  1  0.37224822  0.87061079  0.11788238  1
  O  O414  1  0.37986819  0.87198436  0.62390646  1
  O  O415  1  0.87459079  0.37082225  0.11537516  1
  O  O416  1  0.86977830  0.36841199  0.62240977  1
  O  O417  1  0.86905099  0.87722464  0.11930020  1
  O  O418  1  0.88691278  0.86906223  0.62040976  1
  O  O419  1  0.13013803  0.13948353  0.36829903  1
  O  O420  1  0.13110562  0.12131880  0.86568526  1
  O  O421  1  0.12959471  0.62585453  0.37965114  1
  O  O422  1  0.12585912  0.63935944  0.87801914  1
  O  O423  1  0.62974911  0.13053981  0.38220438  1
  O  O424  1  0.63361987  0.12947693  0.87218756  1
  O  O425  1  0.61820385  0.63782393  0.38372559  1
  O  O426  1  0.63688462  0.62470414  0.87656727  1
