# generated using pymatgen
data_V85Zn86O256
_symmetry_space_group_name_H-M   'P 1'
_cell_length_a   16.93923432
_cell_length_b   16.93779576
_cell_length_c   16.94933381
_cell_angle_alpha   89.97503053
_cell_angle_beta   89.96129003
_cell_angle_gamma   89.95301931
_symmetry_Int_Tables_number   1
_chemical_formula_structural   V85Zn86O256
_chemical_formula_sum   'V85 Zn86 O256'
_cell_volume   4862.98593930
_cell_formula_units_Z   1
loop_
 _symmetry_equiv_pos_site_id
 _symmetry_equiv_pos_as_xyz
  1  'x, y, z'
loop_
 _atom_site_type_symbol
 _atom_site_label
 _atom_site_symmetry_multiplicity
 _atom_site_fract_x
 _atom_site_fract_y
 _atom_site_fract_z
 _atom_site_occupancy
  V  V0  1  -0.00744218  0.50290453  0.00403795  1
  V  V1  1  0.62554624  0.87880911  0.24559796  1
  V  V2  1  0.25275562  0.49712112  0.26338984  1
  V  V3  1  0.88961423  0.74323512  0.12293476  1
  V  V4  1  0.37941562  0.61784140  0.26432493  1
  V  V5  1  -0.00256306  0.74181887  0.75070765  1
  V  V6  1  0.10887793  0.50808213  0.62237544  1
  V  V7  1  0.12504821  0.00043054  0.12670821  1
  V  V8  1  0.61440257  0.25280649  0.88234470  1
  V  V9  1  0.74695127  0.12783466  0.36963125  1
  V  V10  1  0.49710679  0.63081528  0.62265861  1
  V  V11  1  0.75378862  0.26915857  -0.00038569  1
  V  V12  1  0.12783102  0.74609940  0.87378524  1
  V  V13  1  0.12879460  0.87372474  0.74993062  1
  V  V14  1  0.75835843  0.25510072  0.49255415  1
  V  V15  1  0.37388412  0.25252680  0.62449085  1
  V  V16  1  0.24720996  0.37720161  0.62268898  1
  V  V17  1  0.49504253  0.50173283  0.49103690  1
  V  V18  1  0.25024000  0.00040869  0.74900156  1
  V  V19  1  -0.00358838  0.11967663  0.62299365  1
  V  V20  1  0.12019438  0.37475391  0.75010024  1
  V  V21  1  0.50179865  0.24677129  0.25946373  1
  V  V22  1  0.37578462  0.00178853  0.87829200  1
  V  V23  1  -0.01311722  0.24429600  0.75210772  1
  V  V24  1  0.12665553  0.00003316  0.61650078  1
  V  V25  1  0.63112799  0.12014424  0.00880408  1
  V  V26  1  0.23980363  0.74487803  0.50233388  1
  V  V27  1  0.93221493  0.69707478  0.58144624  1
  V  V28  1  0.37642713  0.62644268  0.75054848  1
  V  V29  1  0.37921730  0.86523712  0.50583868  1
  V  V30  1  0.25050384  0.12487975  0.87682351  1
  V  V31  1  0.74950150  0.75540203  0.51375833  1
  V  V32  1  0.50124423  0.00218133  0.49928692  1
  V  V33  1  -0.00486322  0.12619400  0.12335884  1
  V  V34  1  0.50560271  0.00121176  0.00625892  1
  V  V35  1  0.88934371  0.62427804  0.24673736  1
  V  V36  1  0.12256580  0.24952850  0.87580157  1
  V  V37  1  0.75067889  0.50922056  0.24811579  1
  V  V38  1  0.50265534  0.87463913  0.37437520  1
  V  V39  1  0.62481687  0.13518660  0.49637337  1
  V  V40  1  0.75091777  -0.00175269  0.24346781  1
  V  V41  1  0.38157680  0.74842487  0.12643300  1
  V  V42  1  0.87135267  0.49945057  0.38452288  1
  V  V43  1  0.62002823  0.37697410  0.75539677  1
  V  V44  1  0.25530792  0.00704321  0.25238044  1
  V  V45  1  0.50244016  0.12518222  0.62703725  1
  V  V46  1  0.62991006  0.62567929  0.49366866  1
  V  V47  1  0.49934336  0.12184677  0.12849572  1
  V  V48  1  0.74947232  0.86626138  0.12320752  1
  V  V49  1  0.11809642  0.37598395  0.25029985  1
  V  V50  1  -0.01062604  0.37457584  0.88081925  1
  V  V51  1  0.37516225  0.24536654  0.13200493  1
  V  V52  1  0.75480163  0.37326003  0.62126584  1
  V  V53  1  0.63136747  0.49488615  0.12071556  1
  V  V54  1  0.63458589  0.36899201  0.25452080  1
  V  V55  1  0.25445180  0.25392759  -0.00010690  1
  V  V56  1  0.63882130  0.74921809  0.37214507  1
  V  V57  1  0.49922211  0.25415266  0.75352600  1
  V  V58  1  0.12234536  0.50731962  0.12568886  1
  V  V59  1  0.45269664  0.56742244  0.06794512  1
  V  V60  1  0.37778106  0.87493894  0.00029391  1
  V  V61  1  0.75010593  0.50325082  0.75313849  1
  V  V62  1  0.87153643  0.87024455  0.00020219  1
  V  V63  1  0.63111707  0.63035248  0.00885417  1
  V  V64  1  0.00328394  0.86128119  0.37338373  1
  V  V65  1  0.25083905  0.50020800  0.75393645  1
  V  V66  1  0.25335599  0.37393491  0.12479831  1
  V  V67  1  0.25156510  0.75046805  0.00022668  1
  V  V68  1  0.75091760  0.62595953  0.87935619  1
  V  V69  1  0.50273678  0.74422268  0.24838983  1
  V  V70  1  0.12385024  0.86261132  0.25198025  1
  V  V71  1  0.62949478  0.75342888  0.87823789  1
  V  V72  1  0.75290987  0.12344941  0.87310550  1
  V  V73  1  0.88766259  0.00064189  0.37068276  1
  V  V74  1  0.87233703  0.26445654  0.12119362  1
  V  V75  1  0.12245247  0.24869283  0.37874879  1
  V  V76  1  0.87652650  0.88018114  0.50699618  1
  V  V77  1  0.37265730  0.37821248  0.49025680  1
  V  V78  1  0.00035594  0.87410358  0.87691884  1
  V  V79  1  0.37403953  0.12633400  0.75013738  1
  V  V80  1  -0.00736016  0.37758981  0.39226337  1
  V  V81  1  0.62352698  0.49898192  0.62236921  1
  V  V82  1  0.49903456  0.75703852  0.74578114  1
  V  V83  1  0.63762452  0.88476993  0.74500983  1
  V  V84  1  0.87361099  0.00131858  0.87291263  1
  Zn  Zn85  1  0.81155622  0.05883295  0.70847108  1
  Zn  Zn86  1  0.25635579  0.12865626  0.37707166  1
  Zn  Zn87  1  0.23928273  0.63174659  0.37587676  1
  Zn  Zn88  1  0.12589239  0.12420672  0.00216398  1
  Zn  Zn89  1  0.00156514  -0.00045489  0.00023489  1
  Zn  Zn90  1  0.50422004  0.87977431  0.87411312  1
  Zn  Zn91  1  0.10475915  0.62460759  0.49760445  1
  Zn  Zn92  1  0.12013500  0.62842165  0.00388433  1
  Zn  Zn93  1  -0.00543521  0.25138479  0.25050164  1
  Zn  Zn94  1  0.24770337  0.24685688  0.50018465  1
  Zn  Zn95  1  0.37848652  0.00489400  0.37163599  1
  Zn  Zn96  1  0.50135781  0.37423533  0.37481374  1
  Zn  Zn97  1  0.12271867  0.11810690  0.49552473  1
  Zn  Zn98  1  0.86822655  0.49782417  0.88124327  1
  Zn  Zn99  1  0.64145582  0.00085683  0.62459224  1
  Zn  Zn100  1  0.25885049  0.87086290  0.62816115  1
  Zn  Zn101  1  0.87346582  0.62860729  0.74903905  1
  Zn  Zn102  1  0.25121258  0.87380144  0.12987657  1
  Zn  Zn103  1  0.39620228  0.48710805  0.87546405  1
  Zn  Zn104  1  0.87187292  0.24400988  0.62636765  1
  Zn  Zn105  1  0.25377436  0.62168448  0.87608331  1
  Zn  Zn106  1  0.87346647  0.12653376  0.24521021  1
  Zn  Zn107  1  0.18223582  0.18804853  0.19024715  1
  Zn  Zn108  1  0.18214462  0.18807639  0.68726490  1
  Zn  Zn109  1  0.19380098  0.68501415  0.19016995  1
  Zn  Zn110  1  0.19043163  0.68768846  0.68109182  1
  Zn  Zn111  1  0.69085380  0.19030594  0.18453582  1
  Zn  Zn112  1  0.68456878  0.19114915  0.68645647  1
  Zn  Zn113  1  0.69369968  0.68851690  0.18646737  1
  Zn  Zn114  1  0.68253069  0.68918291  0.68863481  1
  Zn  Zn115  1  0.31045902  0.30869872  0.31163150  1
  Zn  Zn116  1  0.31021939  0.31511628  0.81094419  1
  Zn  Zn117  1  0.31249021  0.81434050  0.31709892  1
  Zn  Zn118  1  0.31629684  0.81300890  0.81351318  1
  Zn  Zn119  1  0.81310511  0.31349847  0.30925199  1
  Zn  Zn120  1  0.80609426  0.31433132  0.81543628  1
  Zn  Zn121  1  0.81706453  0.81023519  0.31062503  1
  Zn  Zn122  1  0.81310821  0.81093423  0.81046532  1
  Zn  Zn123  1  0.17955373  0.43868481  0.44097958  1
  Zn  Zn124  1  0.18399870  0.43565957  0.93793314  1
  Zn  Zn125  1  0.19149943  0.93125057  0.43470051  1
  Zn  Zn126  1  0.18826290  0.93476051  0.93957133  1
  Zn  Zn127  1  0.68852554  0.43810166  0.43371448  1
  Zn  Zn128  1  0.57282001  0.43854887  0.93966602  1
  Zn  Zn129  1  0.69171246  0.94041425  0.43595690  1
  Zn  Zn130  1  0.69063060  0.93790671  0.93649566  1
  Zn  Zn131  1  0.31382975  0.06444398  0.06514543  1
  Zn  Zn132  1  0.31226338  0.06290091  0.55747814  1
  Zn  Zn133  1  0.29118736  0.56435099  0.06742091  1
  Zn  Zn134  1  0.31231569  0.56227441  0.56602001  1
  Zn  Zn135  1  0.81414165  0.05923830  0.05993668  1
  Zn  Zn136  1  0.81597715  0.06367935  0.54763159  1
  Zn  Zn137  1  0.81013405  0.56115546  0.06360238  1
  Zn  Zn138  1  0.80426101  0.56087093  0.56073347  1
  Zn  Zn139  1  0.43621048  0.42926562  0.19304353  1
  Zn  Zn140  1  0.43669188  0.44115096  0.68351183  1
  Zn  Zn141  1  0.43773764  0.93466887  0.18583002  1
  Zn  Zn142  1  0.44165445  0.94054393  0.68682359  1
  Zn  Zn143  1  0.93772494  0.43998954  0.18749125  1
  Zn  Zn144  1  0.93262589  0.43461775  0.69214572  1
  Zn  Zn145  1  0.93977137  0.93512029  0.18769194  1
  Zn  Zn146  1  0.94573414  0.93260217  0.68938915  1
  Zn  Zn147  1  0.06482255  0.06403193  0.30566128  1
  Zn  Zn148  1  0.06158260  0.06188277  0.81001446  1
  Zn  Zn149  1  0.06237768  0.56018065  0.31871727  1
  Zn  Zn150  1  0.06242513  0.56089520  0.81493791  1
  Zn  Zn151  1  0.56532736  0.06137195  0.31208067  1
  Zn  Zn152  1  0.56428987  0.06522426  0.81849837  1
  Zn  Zn153  1  0.56525920  0.56238778  0.31057763  1
  Zn  Zn154  1  0.56651018  0.56980812  0.81075850  1
  Zn  Zn155  1  0.43105706  0.18618418  0.43746129  1
  Zn  Zn156  1  0.43266889  0.31902558  0.94821773  1
  Zn  Zn157  1  0.44187019  0.68986893  0.43392878  1
  Zn  Zn158  1  0.43895326  0.68939515  0.92757463  1
  Zn  Zn159  1  0.93804404  0.18536164  0.43789571  1
  Zn  Zn160  1  0.93517437  0.18563690  0.94162725  1
  Zn  Zn161  1  0.93078924  0.68843470  0.41759836  1
  Zn  Zn162  1  0.93671639  0.68499052  0.93835067  1
  Zn  Zn163  1  0.06349947  0.31472353  0.06122791  1
  Zn  Zn164  1  0.05935567  0.31051363  0.56618323  1
  Zn  Zn165  1  0.06303069  0.81425177  0.06363150  1
  Zn  Zn166  1  0.06701579  0.82386603  0.55841201  1
  Zn  Zn167  1  0.57143653  0.30590636  0.07576423  1
  Zn  Zn168  1  0.56339849  0.31402948  0.56242560  1
  Zn  Zn169  1  0.56363178  0.81223633  0.06226283  1
  Zn  Zn170  1  0.56674793  0.81477424  0.56475274  1
  O  O171  1  0.11699754  0.11770706  0.12474874  1
  O  O172  1  0.11909425  0.11551114  0.62398280  1
  O  O173  1  0.13182938  0.61105500  0.12625868  1
  O  O174  1  0.12431970  0.61162429  0.62231394  1
  O  O175  1  0.62291491  0.12821842  0.11449759  1
  O  O176  1  0.61726079  0.12553837  0.61669198  1
  O  O177  1  0.63040873  0.62245024  0.11544917  1
  O  O178  1  0.61490405  0.62024915  0.61712380  1
  O  O179  1  0.37632685  0.37036424  0.38747353  1
  O  O180  1  0.36521316  0.37855592  0.88235020  1
  O  O181  1  0.38514218  0.87991882  0.38627853  1
  O  O182  1  0.37944678  0.88316714  0.88283508  1
  O  O183  1  0.88490426  0.38422643  0.36929460  1
  O  O184  1  0.88540921  0.37752084  0.87214046  1
  O  O185  1  0.88816941  0.87960255  0.37382450  1
  O  O186  1  0.87783046  0.87622859  0.88440275  1
  O  O187  1  0.24851167  -0.00056353  0.36116766  1
  O  O188  1  0.25281514  0.00616683  0.87061681  1
  O  O189  1  0.24693051  0.49517666  0.36504305  1
  O  O190  1  0.24404936  0.50110706  0.86113994  1
  O  O191  1  0.75836364  0.00549940  0.36142118  1
  O  O192  1  0.75951742  0.00982391  0.87739523  1
  O  O193  1  0.76445773  0.49319220  0.36520309  1
  O  O194  1  0.74801872  0.51373251  0.86530287  1
  O  O195  1  0.24101467  0.48984393  0.13537403  1
  O  O196  1  0.24474371  0.49141563  0.63529234  1
  O  O197  1  0.24414875  0.99804022  0.13462141  1
  O  O198  1  0.24534207  0.99964693  0.63421641  1
  O  O199  1  0.74230033  0.50004555  0.13340334  1
  O  O200  1  0.74167587  0.49336805  0.63013415  1
  O  O201  1  0.75963898  0.98698360  0.13672167  1
  O  O202  1  0.75288515  1.01336334  0.62554402  1
  O  O203  1  0.00969429  0.37391113  0.25155792  1
  O  O204  1  0.00289478  0.36680373  0.75862187  1
  O  O205  1  0.01478638  0.87928910  0.25767882  1
  O  O206  1  0.01011113  0.86368939  0.75843445  1
  O  O207  1  0.50931461  0.36492445  0.25341217  1
  O  O208  1  0.51170409  0.37031875  0.74017631  1
  O  O209  1  0.50905964  0.86902931  0.25241109  1
  O  O210  1  0.50459206  0.86964791  0.75283658  1
  O  O211  1  0.51399588  0.13086022  0.23702521  1
  O  O212  1  0.49708574  0.13186419  0.74444220  1
  O  O213  1  0.49250096  0.63087145  0.25284268  1
  O  O214  1  0.49777153  0.63451190  0.74094630  1
  O  O215  1  0.99751513  0.13031450  0.23578681  1
  O  O216  1  1.00579799  0.13534621  0.74071896  1
  O  O217  1  0.98779446  0.61509390  0.24598536  1
  O  O218  1  0.99981997  0.63753598  0.75454305  1
  O  O219  1  0.36072874  0.25076871  0.01401208  1
  O  O220  1  0.37390465  0.26048114  0.50921572  1
  O  O221  1  0.37140514  0.75173097  0.00443949  1
  O  O222  1  0.38254116  0.76369595  0.50129594  1
  O  O223  1  0.86301013  0.25047906  0.00714821  1
  O  O224  1  0.86108006  0.24592939  0.50252593  1
  O  O225  1  0.87839944  0.75325828  0.01392392  1
  O  O226  1  0.86990311  0.75261992  0.50452993  1
  O  O227  1  0.12355469  0.25447505  0.48748227  1
  O  O228  1  0.13522348  0.24769327  0.99449748  1
  O  O229  1  0.13696615  0.74842850  0.50369115  1
  O  O230  1  0.13312800  0.75116744  0.99421662  1
  O  O231  1  0.62960172  0.23923435  0.50044650  1
  O  O232  1  0.63824309  0.24239976  0.99799362  1
  O  O233  1  0.63115092  0.74757611  0.49224606  1
  O  O234  1  0.62240097  0.74301253  0.99151177  1
  O  O235  1  0.49231372  0.24118354  0.13437847  1
  O  O236  1  0.49622879  0.24139294  0.62959872  1
  O  O237  1  0.48904927  0.75314219  0.13085620  1
  O  O238  1  0.50639364  0.74177461  0.63228800  1
  O  O239  1  0.98777202  0.24539170  0.12045020  1
  O  O240  1  0.99557179  0.24422018  0.63603457  1
  O  O241  1  0.98853328  0.75097043  0.12662646  1
  O  O242  1  1.00357146  0.75582016  0.63300925  1
  O  O243  1  -0.00023939  0.26243759  0.37283815  1
  O  O244  1  0.00206100  0.25412173  0.87237875  1
  O  O245  1  -0.00157424  0.76283502  0.36471653  1
  O  O246  1  0.00855761  0.75389207  0.87071563  1
  O  O247  1  0.49850022  0.24769225  0.36232603  1
  O  O248  1  0.51058376  0.24924627  0.87464544  1
  O  O249  1  0.51171283  0.75723486  0.36783981  1
  O  O250  1  0.51314120  0.75253788  0.86550248  1
  O  O251  1  0.24192261  0.12874972  0.49802351  1
  O  O252  1  0.24870323  0.13185755  0.99273187  1
  O  O253  1  0.25673009  0.63896549  0.50184246  1
  O  O254  1  0.24493174  0.63768894  0.99564946  1
  O  O255  1  0.74263711  0.13404312  0.48830480  1
  O  O256  1  0.74440376  0.12548047  0.99233491  1
  O  O257  1  0.73615908  0.63472505  0.50244391  1
  O  O258  1  0.74254186  0.62322304  0.99143079  1
  O  O259  1  0.24129492  0.36645800  0.01247977  1
  O  O260  1  0.25555208  0.37635815  0.50768617  1
  O  O261  1  0.25698830  0.86376475  0.00353857  1
  O  O262  1  0.26410760  0.86651484  0.50109735  1
  O  O263  1  0.74636399  0.36377178  -0.00459223  1
  O  O264  1  0.73945464  0.36546829  0.50703864  1
  O  O265  1  0.76265065  0.87847871  0.00815218  1
  O  O266  1  0.76371206  0.86656525  0.49080422  1
  O  O267  1  0.13024130  0.49241833  0.24458905  1
  O  O268  1  0.13021645  0.49601714  0.74189167  1
  O  O269  1  0.13336445  0.99251508  0.24058872  1
  O  O270  1  0.13368197  0.99278635  0.74632038  1
  O  O271  1  0.63235312  0.49607158  0.24312236  1
  O  O272  1  0.63292278  0.49450995  0.74400552  1
  O  O273  1  0.63341652  0.98572038  0.25245440  1
  O  O274  1  0.62012396  0.98773918  0.75317885  1
  O  O275  1  0.35819116  -0.01003868  0.24865642  1
  O  O276  1  0.37076514  0.00663565  0.75595042  1
  O  O277  1  0.36602057  0.50647193  0.24499979  1
  O  O278  1  0.36742536  0.50615863  0.75105046  1
  O  O279  1  0.86832703  0.00065724  0.25427751  1
  O  O280  1  0.88245626  -0.00898181  0.76723666  1
  O  O281  1  0.86843733  0.50824139  0.24864096  1
  O  O282  1  0.86003935  0.50269007  0.75200266  1
  O  O283  1  0.10982275  0.37323307  0.37062445  1
  O  O284  1  0.11531906  0.36834879  0.86890897  1
  O  O285  1  0.11327810  0.87886138  0.36529429  1
  O  O286  1  0.12291647  0.86419401  0.87122362  1
  O  O287  1  0.62100812  0.38124174  0.35840611  1
  O  O288  1  0.62970377  0.36542800  0.86495251  1
  O  O289  1  0.62284631  0.86857047  0.36730467  1
  O  O290  1  0.62529387  0.86956704  0.86787739  1
  O  O291  1  0.38573947  0.13316789  0.12442496  1
  O  O292  1  0.38191049  0.13162445  0.62985600  1
  O  O293  1  0.38320751  0.62527068  0.12655155  1
  O  O294  1  0.38841195  0.61955969  0.63651636  1
  O  O295  1  0.88122295  0.13152715  0.12258700  1
  O  O296  1  0.88247257  0.12253488  0.62873490  1
  O  O297  1  0.87175921  0.63562928  0.13192465  1
  O  O298  1  0.87135988  0.62693131  0.62820999  1
  O  O299  1  0.25408360  0.25308309  0.12282470  1
  O  O300  1  0.25142003  0.26344732  0.62647258  1
  O  O301  1  0.26366571  0.74748071  0.11809436  1
  O  O302  1  0.25367489  0.75386366  0.61003660  1
  O  O303  1  0.76164585  0.24908995  0.11195875  1
  O  O304  1  0.74941531  0.25638885  0.61564950  1
  O  O305  1  0.76334276  0.76238905  0.12975292  1
  O  O306  1  0.74193126  0.75260962  0.61325295  1
  O  O307  1  0.23698260  0.25038399  0.37634305  1
  O  O308  1  0.24570632  0.24322868  0.88281080  1
  O  O309  1  0.25893088  0.75030355  0.39589782  1
  O  O310  1  0.24516817  0.74936847  0.88251963  1
  O  O311  1  0.75480375  0.24104002  0.37850910  1
  O  O312  1  0.74435491  0.24532587  0.88730923  1
  O  O313  1  0.74186796  0.75290858  0.38078244  1
  O  O314  1  0.73777139  0.74128827  0.86788518  1
  O  O315  1  0.00426972  0.12223646  0.01049439  1
  O  O316  1  0.00334791  0.13088000  0.51702705  1
  O  O317  1  0.00405584  0.60828512  -0.00538583  1
  O  O318  1  -0.01269423  0.64412817  0.50878491  1
  O  O319  1  0.51194850  0.11756019  0.01597249  1
  O  O320  1  0.50678139  0.12147544  0.50583205  1
  O  O321  1  0.50650114  0.62987427  0.00579841  1
  O  O322  1  0.50563934  0.62156430  0.50540550  1
  O  O323  1  0.49326527  0.38358576  0.49935774  1
  O  O324  1  0.51365370  0.36816384  1.00482679  1
  O  O325  1  0.49665626  0.88212775  0.49744824  1
  O  O326  1  0.49669873  0.88384617  0.99913323  1
  O  O327  1  0.99583128  0.37388755  0.49044408  1
  O  O328  1  1.00701919  0.38721987  0.99062099  1
  O  O329  1  0.99464803  0.87100008  0.48161167  1
  O  O330  1  0.98981447  0.87439222  0.99475439  1
  O  O331  1  0.50225193  0.50069684  0.38811585  1
  O  O332  1  0.50766654  0.50341696  0.87568643  1
  O  O333  1  0.50303208  0.99311303  0.38243651  1
  O  O334  1  0.49327370  1.00462107  0.88937918  1
  O  O335  1  0.98626951  0.48584784  0.37182415  1
  O  O336  1  0.99854718  0.49187537  0.88472561  1
  O  O337  1  0.99044948  0.99638720  0.36545907  1
  O  O338  1  0.99691524  0.99196240  0.87833890  1
  O  O339  1  0.00704492  0.00707436  0.12454603  1
  O  O340  1  0.01356842  0.00829114  0.63396445  1
  O  O341  1  0.00809893  0.49251353  0.11227207  1
  O  O342  1  0.01068947  0.49597418  0.63393944  1
  O  O343  1  0.49553039  0.00516814  0.11558837  1
  O  O344  1  0.50305758  0.01448489  0.61945627  1
  O  O345  1  0.50529453  0.50312140  0.12884187  1
  O  O346  1  0.50668153  0.50804149  0.61506370  1
  O  O347  1  0.23983908  0.37908912  0.24598524  1
  O  O348  1  0.24147929  0.38161557  0.74245088  1
  O  O349  1  0.23862704  0.88138082  0.25192210  1
  O  O350  1  0.24764312  0.88089904  0.74943400  1
  O  O351  1  0.73867360  0.38302262  0.25244930  1
  O  O352  1  0.73903627  0.38116727  0.74474593  1
  O  O353  1  0.74570809  0.87920176  0.24469864  1
  O  O354  1  0.73615550  0.87383876  0.75196192  1
  O  O355  1  0.24316665  0.10968672  0.25087711  1
  O  O356  1  0.25266227  0.12121342  0.75643664  1
  O  O357  1  0.25973032  0.61487140  0.25416602  1
  O  O358  1  0.26038649  0.61905169  0.74780502  1
  O  O359  1  0.74898767  0.11676054  0.25268544  1
  O  O360  1  0.74590257  0.13496965  0.76734916  1
  O  O361  1  0.75569432  0.61325291  0.24916805  1
  O  O362  1  0.74561847  0.61868267  0.75561991  1
  O  O363  1  0.37081926  0.11817000  0.37568041  1
  O  O364  1  0.35962311  0.11979620  0.86766140  1
  O  O365  1  0.37336333  0.62606888  0.36597345  1
  O  O366  1  0.37526508  0.61837416  0.86196600  1
  O  O367  1  0.86723974  0.11740504  0.37085709  1
  O  O368  1  0.86706100  0.11464190  0.88110685  1
  O  O369  1  0.87577689  0.61059776  0.35824107  1
  O  O370  1  0.86378537  0.62433455  0.87281303  1
  O  O371  1  0.13218864  0.37896560  0.13434258  1
  O  O372  1  0.12972207  0.38154705  0.63055379  1
  O  O373  1  0.12654461  0.88059734  0.13608668  1
  O  O374  1  0.12987224  0.88351643  0.63369165  1
  O  O375  1  0.62376308  0.38602974  0.14160697  1
  O  O376  1  0.63279807  0.37930832  0.63223323  1
  O  O377  1  0.63590389  0.86777284  0.13353334  1
  O  O378  1  0.62143250  0.88182804  0.64018887  1
  O  O379  1  0.12091873  0.25907371  0.26070725  1
  O  O380  1  0.11658081  0.25613645  0.75796064  1
  O  O381  1  0.13202859  0.76370671  0.24572368  1
  O  O382  1  0.12388913  0.75391492  0.75612615  1
  O  O383  1  0.62096289  0.26290035  0.24316183  1
  O  O384  1  0.61887762  0.25720564  0.76022240  1
  O  O385  1  0.62525274  0.75668663  0.25556563  1
  O  O386  1  0.61643620  0.76080316  0.75535114  1
  O  O387  1  0.38406356  0.25391223  0.24008757  1
  O  O388  1  0.38036742  0.24598970  0.74485842  1
  O  O389  1  0.37756747  0.74038517  0.24272585  1
  O  O390  1  0.38916113  0.74292964  0.75579170  1
  O  O391  1  0.87292750  0.24838436  0.23339151  1
  O  O392  1  0.88388845  0.25264753  0.75223173  1
  O  O393  1  0.87293500  0.73301107  0.24248625  1
  O  O394  1  0.88784079  0.74984758  0.75008358  1
  O  O395  1  0.38355909  0.49124353  0.50772609  1
  O  O396  1  0.38573714  0.51675363  1.01146587  1
  O  O397  1  0.39010921  0.99387169  0.50035727  1
  O  O398  1  0.38089756  0.99567680  0.99723807  1
  O  O399  1  0.86790204  0.50578588  0.48308409  1
  O  O400  1  0.88844432  0.50146984  1.00149836  1
  O  O401  1  0.87269392  0.99093959  0.48108487  1
  O  O402  1  0.87890074  0.98892852  0.99106307  1
  O  O403  1  0.12650880  -0.00255206  0.01499099  1
  O  O404  1  0.13123899  -0.00611181  0.51329156  1
  O  O405  1  0.11963344  0.50244205  0.00959175  1
  O  O406  1  0.12278325  0.49988377  0.51873131  1
  O  O407  1  0.61760695  0.00721502  -0.00388548  1
  O  O408  1  0.61585839  0.00781869  0.50094564  1
  O  O409  1  0.62496778  0.51179826  0.01535463  1
  O  O410  1  0.62062699  0.50924138  0.50156347  1
  O  O411  1  0.36006270  0.36698357  0.13049176  1
  O  O412  1  0.36553290  0.37140187  0.61973887  1
  O  O413  1  0.37265327  0.86403252  0.11922192  1
  O  O414  1  0.37833388  0.88178343  0.60991548  1
  O  O415  1  0.87836661  0.36295933  0.12388402  1
  O  O416  1  0.85806127  0.37234962  0.63009363  1
  O  O417  1  0.87376020  0.86347891  0.12059892  1
  O  O418  1  0.88632388  0.88277979  0.60632566  1
  O  O419  1  0.12090546  0.13548244  0.37593944  1
  O  O420  1  0.13521637  0.12911016  0.87599405  1
  O  O421  1  0.12659833  0.61633611  0.38686069  1
  O  O422  1  0.12883042  0.63760876  0.87476143  1
  O  O423  1  0.63841890  0.11938604  0.38155826  1
  O  O424  1  0.63074309  0.13418682  0.88671316  1
  O  O425  1  0.61998303  0.63561996  0.38368795  1
  O  O426  1  0.63200476  0.63459137  0.88491936  1
