# generated using pymatgen
data_V85Zn86O256
_symmetry_space_group_name_H-M   'P 1'
_cell_length_a   16.93978125
_cell_length_b   16.94290829
_cell_length_c   16.94558709
_cell_angle_alpha   89.94176079
_cell_angle_beta   89.98778340
_cell_angle_gamma   90.02512322
_symmetry_Int_Tables_number   1
_chemical_formula_structural   V85Zn86O256
_chemical_formula_sum   'V85 Zn86 O256'
_cell_volume   4863.53562674
_cell_formula_units_Z   1
loop_
 _symmetry_equiv_pos_site_id
 _symmetry_equiv_pos_as_xyz
  1  'x, y, z'
loop_
 _atom_site_type_symbol
 _atom_site_label
 _atom_site_symmetry_multiplicity
 _atom_site_fract_x
 _atom_site_fract_y
 _atom_site_fract_z
 _atom_site_occupancy
  V  V0  1  0.73833260  0.75327797  0.50311251  1
  V  V1  1  0.62495013  0.49603690  0.12742647  1
  V  V2  1  0.00135596  0.00077824  0.49938505  1
  V  V3  1  0.00085019  0.00197362  0.00436681  1
  V  V4  1  0.49375574  0.86911638  0.38591355  1
  V  V5  1  0.01176465  0.37183797  0.37480762  1
  V  V6  1  0.62562874  0.74887462  0.87809801  1
  V  V7  1  0.75189668  0.37262462  0.12611956  1
  V  V8  1  0.87191562  0.25245245  0.62408903  1
  V  V9  1  0.24005969  0.12520543  0.89256387  1
  V  V10  1  0.64169931  0.88031581  0.75140440  1
  V  V11  1  0.25219818  0.39854840  0.12640376  1
  V  V12  1  0.12857281  0.75284769  0.87918794  1
  V  V13  1  0.12977872  0.48969406  0.62547843  1
  V  V14  1  0.36142876  0.11215293  0.75237893  1
  V  V15  1  0.25146323  0.48886480  0.74768379  1
  V  V16  1  0.00312443  0.62642358  0.62535865  1
  V  V17  1  0.00390846  0.24903383  0.74991952  1
  V  V18  1  0.00074901  0.87625101  0.37477468  1
  V  V19  1  0.00203303  0.12412796  0.62338798  1
  V  V20  1  0.25231119  0.62866178  0.87322363  1
  V  V21  1  0.75566350  0.61779542  0.87801069  1
  V  V22  1  0.05433930  0.17454249  0.07017251  1
  V  V23  1  0.37496490  0.01079983  0.38219006  1
  V  V24  1  0.12731204  0.00096537  0.12107148  1
  V  V25  1  0.25654173  0.76219499  0.50226596  1
  V  V26  1  0.00266737  0.75507063  0.25094327  1
  V  V27  1  0.48974261  0.24423479  0.24857421  1
  V  V28  1  0.36185247  0.25346274  0.62945367  1
  V  V29  1  0.49650428  0.12024077  0.62760760  1
  V  V30  1  0.49837244  0.37240004  0.87727633  1
  V  V31  1  0.86880425  -0.00068276  0.37370322  1
  V  V32  1  0.75154594  0.49460992  0.74859226  1
  V  V33  1  0.12539074  0.62289449  -0.00069521  1
  V  V34  1  0.62324239  0.24767065  0.37296795  1
  V  V35  1  -0.01120281  0.50484313  -0.00637837  1
  V  V36  1  0.87528317  0.12508947  0.24639011  1
  V  V37  1  0.50217974  0.75118561  0.25410942  1
  V  V38  1  0.75401500  0.49966838  0.25016623  1
  V  V39  1  0.49604207  0.87364457  0.87345950  1
  V  V40  1  0.87476181  0.50103031  0.37784639  1
  V  V41  1  0.13857092  -0.00126203  0.62607318  1
  V  V42  1  0.00046528  0.49947929  0.50197414  1
  V  V43  1  0.62681995  0.37392775  0.74701147  1
  V  V44  1  0.62839904  0.62066877  0.00175879  1
  V  V45  1  0.52623523  0.72556904  0.72424188  1
  V  V46  1  0.73960048  0.88066018  0.12827576  1
  V  V47  1  0.13213080  0.75252803  0.37707748  1
  V  V48  1  0.00926887  0.24864183  0.25795472  1
  V  V49  1  0.87379323  0.75401787  0.12829013  1
  V  V50  1  0.25550597  0.61449204  0.37508032  1
  V  V51  1  0.87510534  0.62925419  0.25529303  1
  V  V52  1  0.00206989  0.87775331  0.87295570  1
  V  V53  1  0.87108955  0.37522435  0.50324511  1
  V  V54  1  -0.00308409  0.37964326  0.87193685  1
  V  V55  1  0.49221263  0.37638951  0.37331380  1
  V  V56  1  0.62167853  0.24519320  0.87576373  1
  V  V57  1  0.25951579  0.01130459  0.25277680  1
  V  V58  1  0.00232974  0.75146564  0.74894884  1
  V  V59  1  0.24596686  0.24823117  0.47867493  1
  V  V60  1  0.12763564  0.12649240  0.48535884  1
  V  V61  1  0.74519191  0.25031245  0.50255425  1
  V  V62  1  0.49980090  0.62437097  0.12684538  1
  V  V63  1  0.49937056  0.11536018  0.12875682  1
  V  V64  1  0.87177870  0.87359266  0.50767079  1
  V  V65  1  0.87571499  0.87567030  0.00162896  1
  V  V66  1  0.86878280  -0.00119862  0.87062855  1
  V  V67  1  0.13560596  0.87573639  0.25013409  1
  V  V68  1  0.86787764  0.12104699  0.74692381  1
  V  V69  1  0.62144883  0.11190905  0.00402556  1
  V  V70  1  0.37541267  0.50052017  0.87646236  1
  V  V71  1  0.25760725  0.87044091  0.10883134  1
  V  V72  1  0.37699115  0.62172321  0.73664704  1
  V  V73  1  0.37209197  0.76777968  0.62501830  1
  V  V74  1  0.36864096  0.37760775  0.49930997  1
  V  V75  1  0.13929947  0.87965953  0.74623632  1
  V  V76  1  0.00250762  0.62690804  0.12603718  1
  V  V77  1  0.88020964  0.61771196  0.75493585  1
  V  V78  1  0.74905964  0.24604063  -0.00151748  1
  V  V79  1  0.73820215  0.63101088  0.38045880  1
  V  V80  1  0.37555021  0.61046279  0.25887669  1
  V  V81  1  0.87487983  0.24998835  0.12423551  1
  V  V82  1  0.12970648  0.62717462  0.50301456  1
  V  V83  1  0.63814150  -0.00236834  0.62716939  1
  V  V84  1  0.36631681  0.24367472  0.11622592  1
  Zn  Zn85  1  0.69211699  0.42789044  0.58629512  1
  Zn  Zn86  1  0.12642424  0.25001724  0.89119755  1
  Zn  Zn87  1  0.36445315  0.36836357  -0.00540997  1
  Zn  Zn88  1  0.49888351  0.49450685  0.50135372  1
  Zn  Zn89  1  0.49941417  0.49578955  0.00190686  1
  Zn  Zn90  1  0.74588716  0.12472399  0.37397124  1
  Zn  Zn91  1  0.61789776  0.88248408  0.25513587  1
  Zn  Zn92  1  0.87475951  0.75338730  0.62621165  1
  Zn  Zn93  1  0.75164414  0.74795370  0.00302291  1
  Zn  Zn94  1  0.12896005  0.36951814  0.75220159  1
  Zn  Zn95  1  0.57022786  0.58466210  0.58588977  1
  Zn  Zn96  1  0.49357245  -0.01428472  0.00719636  1
  Zn  Zn97  1  0.87152012  0.37928539  -0.00539009  1
  Zn  Zn98  1  0.37604434  0.75294241  0.11598756  1
  Zn  Zn99  1  0.62070363  0.12184278  0.50130578  1
  Zn  Zn100  1  0.36186601  -0.01149305  0.87846379  1
  Zn  Zn101  1  0.14100310  0.51142351  0.14529346  1
  Zn  Zn102  1  0.49330834  -0.00519466  0.50743536  1
  Zn  Zn103  1  0.62310865  0.37109485  0.24889601  1
  Zn  Zn104  1  0.74383720  0.11812749  0.86933803  1
  Zn  Zn105  1  0.49511227  0.24686160  0.75070324  1
  Zn  Zn106  1  0.74023335  0.00616270  0.24479397  1
  Zn  Zn107  1  0.19441876  0.19294874  0.19445900  1
  Zn  Zn108  1  0.18572292  0.18305205  0.68443563  1
  Zn  Zn109  1  0.19497360  0.68874260  0.18938566  1
  Zn  Zn110  1  0.19124950  0.68811612  0.68843197  1
  Zn  Zn111  1  0.68402528  0.18391619  0.18860976  1
  Zn  Zn112  1  0.68560689  0.18802755  0.68525121  1
  Zn  Zn113  1  0.68555303  0.69055720  0.19275933  1
  Zn  Zn114  1  0.70071837  0.69254982  0.69126206  1
  Zn  Zn115  1  0.31259135  0.31685913  0.30530382  1
  Zn  Zn116  1  0.30979696  0.30520515  0.81693626  1
  Zn  Zn117  1  0.32226135  0.80845035  0.31190439  1
  Zn  Zn118  1  0.31655392  0.80565023  0.80669565  1
  Zn  Zn119  1  0.81502826  0.31271597  0.31387064  1
  Zn  Zn120  1  0.81363695  0.30965742  0.81338722  1
  Zn  Zn121  1  0.80828455  0.81486401  0.31571955  1
  Zn  Zn122  1  0.81482016  0.80618680  0.81492269  1
  Zn  Zn123  1  0.18999328  0.43545510  0.44011148  1
  Zn  Zn124  1  0.18435907  0.43770713  0.94270809  1
  Zn  Zn125  1  0.19199129  0.94290108  0.43677695  1
  Zn  Zn126  1  0.18743954  0.94508781  0.93466217  1
  Zn  Zn127  1  0.67708427  0.44305601  0.42884586  1
  Zn  Zn128  1  0.68798737  0.43473414  0.93591066  1
  Zn  Zn129  1  0.68031750  0.93530395  0.43739723  1
  Zn  Zn130  1  0.68779411  0.93339389  0.94122164  1
  Zn  Zn131  1  0.31886535  0.05808655  0.06042695  1
  Zn  Zn132  1  0.31124051  0.06789341  0.55907240  1
  Zn  Zn133  1  0.32468785  0.58980741  0.05001087  1
  Zn  Zn134  1  0.31302186  0.56287382  0.56151305  1
  Zn  Zn135  1  0.81417372  0.06462293  0.06150560  1
  Zn  Zn136  1  0.81275890  0.06643380  0.55799683  1
  Zn  Zn137  1  0.81646860  0.56285184  0.06583266  1
  Zn  Zn138  1  0.81348060  0.56981872  0.56386002  1
  Zn  Zn139  1  0.43378420  0.43209617  0.18654411  1
  Zn  Zn140  1  0.44280814  0.43443054  0.68616978  1
  Zn  Zn141  1  0.43394065  0.93470182  0.19116350  1
  Zn  Zn142  1  0.44762518  0.93349489  0.69731700  1
  Zn  Zn143  1  0.97354122  0.45600210  0.20668171  1
  Zn  Zn144  1  0.93768995  0.43801064  0.68733943  1
  Zn  Zn145  1  0.93847834  0.93978794  0.18799282  1
  Zn  Zn146  1  0.94313057  0.93921746  0.68717729  1
  Zn  Zn147  1  0.05922098  0.06106831  0.30607708  1
  Zn  Zn148  1  0.06506912  0.06365010  0.81253679  1
  Zn  Zn149  1  0.06569949  0.56778988  0.31902442  1
  Zn  Zn150  1  0.06567847  0.56023470  0.81219471  1
  Zn  Zn151  1  0.56032426  0.05896754  0.31288021  1
  Zn  Zn152  1  0.55948535  0.06076957  0.80785184  1
  Zn  Zn153  1  0.56016342  0.56032800  0.31589939  1
  Zn  Zn154  1  0.56598881  0.55800795  0.80874290  1
  Zn  Zn155  1  0.43559727  0.18776665  0.44111874  1
  Zn  Zn156  1  0.43497919  0.17768537  0.93878218  1
  Zn  Zn157  1  0.44423102  0.68296944  0.44786155  1
  Zn  Zn158  1  0.44123323  0.68782535  0.93721904  1
  Zn  Zn159  1  0.93597041  0.18614464  0.43538371  1
  Zn  Zn160  1  0.93225048  0.19137999  0.92817172  1
  Zn  Zn161  1  0.93782191  0.69042446  0.43863665  1
  Zn  Zn162  1  0.93834181  0.69132190  0.93669692  1
  Zn  Zn163  1  0.06671175  0.34085985  0.06713906  1
  Zn  Zn164  1  0.06405948  0.30958374  0.55931995  1
  Zn  Zn165  1  0.06622770  0.81457708  0.06170427  1
  Zn  Zn166  1  0.06562966  0.81523082  0.56290791  1
  Zn  Zn167  1  0.55930667  0.30805863  0.06251751  1
  Zn  Zn168  1  0.55211054  0.30586284  0.56231222  1
  Zn  Zn169  1  0.56120979  0.80702922  0.06062993  1
  Zn  Zn170  1  0.56383661  0.81951969  0.56365948  1
  O  O171  1  0.12316467  0.12040042  0.12754031  1
  O  O172  1  0.11779499  0.11710676  0.61637936  1
  O  O173  1  0.12276069  0.62828998  0.11657414  1
  O  O174  1  0.11944736  0.61933979  0.62284097  1
  O  O175  1  0.61393630  0.13156248  0.11399146  1
  O  O176  1  0.61513716  0.11531750  0.62827219  1
  O  O177  1  0.61895469  0.61682109  0.12515042  1
  O  O178  1  0.59722578  0.65707317  0.66633165  1
  O  O179  1  0.38147448  0.36507989  0.38447048  1
  O  O180  1  0.38106571  0.37969704  0.87540062  1
  O  O181  1  0.38668189  0.88670685  0.36790748  1
  O  O182  1  0.39205793  0.86849507  0.86572997  1
  O  O183  1  0.87901179  0.38076155  0.38769600  1
  O  O184  1  0.89083743  0.36602482  0.87761878  1
  O  O185  1  0.88041919  0.88211507  0.38055165  1
  O  O186  1  0.88166127  0.87991370  0.87960993  1
  O  O187  1  0.26145215  -0.00427487  0.36240233  1
  O  O188  1  0.24766551  0.01720813  0.87256029  1
  O  O189  1  0.24299532  0.51538406  0.37873597  1
  O  O190  1  0.25435879  0.50710409  0.86716287  1
  O  O191  1  0.76030218  -0.00062222  0.37604317  1
  O  O192  1  0.76514642  -0.00053988  0.88284761  1
  O  O193  1  0.75507610  0.51013553  0.37048505  1
  O  O194  1  0.74722208  0.51036352  0.86716110  1
  O  O195  1  0.25846004  0.50248922  0.12122925  1
  O  O196  1  0.24112954  0.50542526  0.63499312  1
  O  O197  1  0.24636381  0.99215258  0.13414378  1
  O  O198  1  0.23762638  1.00418369  0.62042874  1
  O  O199  1  0.74693775  0.49498467  0.13143626  1
  O  O200  1  0.75822231  0.50403357  0.64201201  1
  O  O201  1  0.75907697  0.98350569  0.12474242  1
  O  O202  1  0.73680137  1.00770738  0.62223662  1
  O  O203  1  -0.01324583  0.35604494  0.26180922  1
  O  O204  1  0.00102225  0.36757664  0.75528943  1
  O  O205  1  0.01294856  0.87390087  0.25360508  1
  O  O206  1  0.00588186  0.86834743  0.75638889  1
  O  O207  1  0.49958186  0.36339916  0.25622116  1
  O  O208  1  0.50698567  0.36959214  0.76186805  1
  O  O209  1  0.49752143  0.86575847  0.25625818  1
  O  O210  1  0.51621638  0.85870524  0.75964714  1
  O  O211  1  0.50439102  0.13451345  0.24111689  1
  O  O212  1  0.48730892  0.12629205  0.74339686  1
  O  O213  1  0.49486220  0.62960255  0.24997541  1
  O  O214  1  0.48700752  0.63092942  0.76522486  1
  O  O215  1  0.98800693  0.13699129  0.25387349  1
  O  O216  1  0.99246507  0.13150537  0.74426673  1
  O  O217  1  0.99286460  0.63934457  0.24763909  1
  O  O218  1  0.99686611  0.62942906  0.74661845  1
  O  O219  1  0.38154131  0.25040061  0.01293679  1
  O  O220  1  0.36127697  0.25094558  0.50829610  1
  O  O221  1  0.36553474  0.69872710  0.01623423  1
  O  O222  1  0.37048127  0.74676063  0.51672584  1
  O  O223  1  0.86527509  0.24621369  0.00584002  1
  O  O224  1  0.86690885  0.25693278  0.50196669  1
  O  O225  1  0.87566417  0.75718093  0.01030685  1
  O  O226  1  0.87117707  0.76057086  0.50086271  1
  O  O227  1  0.13771432  0.24237896  0.50106307  1
  O  O228  1  0.10601859  0.24250457  1.01350480  1
  O  O229  1  0.13325341  0.74508424  0.49732646  1
  O  O230  1  0.11908506  0.74409590  0.98544875  1
  O  O231  1  0.63021725  0.24928530  0.49458691  1
  O  O232  1  0.63026165  0.24416295  0.99004916  1
  O  O233  1  0.63928104  0.75532547  0.50454234  1
  O  O234  1  0.62969656  0.73918620  0.99407916  1
  O  O235  1  0.49198673  0.24421443  0.13223539  1
  O  O236  1  0.48474594  0.23826473  0.62809905  1
  O  O237  1  0.49898714  0.73935947  0.13100259  1
  O  O238  1  0.48776527  0.75839984  0.62762046  1
  O  O239  1  0.99679459  0.24841616  0.12830897  1
  O  O240  1  0.99277202  0.24398691  0.62854043  1
  O  O241  1  0.99454875  0.74828102  0.12979546  1
  O  O242  1  1.00175433  0.74367263  0.63189572  1
  O  O243  1  -0.00299495  0.25594560  0.36615669  1
  O  O244  1  0.00521617  0.25428613  0.86511142  1
  O  O245  1  0.00972982  0.75739208  0.37102773  1
  O  O246  1  0.00886229  0.75609160  0.86781251  1
  O  O247  1  0.50339795  0.25328054  0.36816252  1
  O  O248  1  0.50567413  0.25377275  0.87459413  1
  O  O249  1  0.48809751  0.76224752  0.37038491  1
  O  O250  1  0.51434058  0.75036854  0.87031422  1
  O  O251  1  0.24183217  0.13845781  0.49802741  1
  O  O252  1  0.24910218  0.12386602  0.99111960  1
  O  O253  1  0.24689919  0.63310647  0.49341177  1
  O  O254  1  0.23128484  0.61484238  0.98596140  1
  O  O255  1  0.74769337  0.13873711  0.49509513  1
  O  O256  1  0.74081000  0.13236052  0.99964252  1
  O  O257  1  0.75428511  0.63632929  0.48878843  1
  O  O258  1  0.74746797  0.62408332  0.99415912  1
  O  O259  1  0.25093863  0.37882339  0.01463802  1
  O  O260  1  0.25303954  0.35758157  0.49617557  1
  O  O261  1  0.24516504  0.87906511  0.01080026  1
  O  O262  1  0.24553119  0.86112662  0.49617022  1
  O  O263  1  0.75090477  0.36244789  0.00390039  1
  O  O264  1  0.75462340  0.36755917  0.50115697  1
  O  O265  1  0.75760168  0.87106324  0.01171109  1
  O  O266  1  0.75756245  0.86131521  0.49038073  1
  O  O267  1  0.07938014  0.49689094  0.23793219  1
  O  O268  1  0.13452641  0.49789155  0.74269017  1
  O  O269  1  0.13119605  0.99429809  0.24036384  1
  O  O270  1  0.11685239  0.99112690  0.73880718  1
  O  O271  1  0.63275433  0.49750517  0.24020639  1
  O  O272  1  0.63632030  0.48699789  0.75202495  1
  O  O273  1  0.62852286  0.99692662  0.25118341  1
  O  O274  1  0.62571387  0.99404762  0.73956245  1
  O  O275  1  0.36338132  0.00062153  0.25597908  1
  O  O276  1  0.37792603  0.01001354  0.75594430  1
  O  O277  1  0.38548886  0.51166976  0.25788837  1
  O  O278  1  0.36941894  0.50300117  0.75727370  1
  O  O279  1  0.87382758  0.00768251  0.25608494  1
  O  O280  1  0.88353567  0.00796471  0.75900868  1
  O  O281  1  0.87417700  0.50835813  0.25734805  1
  O  O282  1  0.87247708  0.51087285  0.75108900  1
  O  O283  1  0.11083476  0.37916883  0.37932358  1
  O  O284  1  0.11323261  0.36916604  0.87538368  1
  O  O285  1  0.12248841  0.87359295  0.36743682  1
  O  O286  1  0.12130235  0.87011287  0.87018966  1
  O  O287  1  0.61643698  0.36127754  0.37257251  1
  O  O288  1  0.61883889  0.36613618  0.86843042  1
  O  O289  1  0.60083096  0.88028005  0.37508996  1
  O  O290  1  0.62453187  0.86591220  0.87092378  1
  O  O291  1  0.38269085  0.13661239  0.12241835  1
  O  O292  1  0.37623295  0.12878563  0.63567188  1
  O  O293  1  0.39319080  0.61330149  0.14271623  1
  O  O294  1  0.37241477  0.62895141  0.63491786  1
  O  O295  1  0.87245874  0.13636559  0.13250243  1
  O  O296  1  0.88223925  0.12924898  0.62913220  1
  O  O297  1  0.87807008  0.63932866  0.13273018  1
  O  O298  1  0.88799888  0.62660156  0.63395431  1
  O  O299  1  0.26498661  0.25025315  0.12678608  1
  O  O300  1  0.26049929  0.24546563  0.62063963  1
  O  O301  1  0.24794330  0.76818721  0.12588576  1
  O  O302  1  0.26285638  0.74793496  0.61884876  1
  O  O303  1  0.75505744  0.25206119  0.11850714  1
  O  O304  1  0.75835364  0.24628459  0.61569147  1
  O  O305  1  0.75847578  0.75786852  0.12650280  1
  O  O306  1  0.75820292  0.74320405  0.60778576  1
  O  O307  1  0.25194749  0.24891073  0.38010569  1
  O  O308  1  0.24220413  0.23417731  0.87342660  1
  O  O309  1  0.24860342  0.74487730  0.38164391  1
  O  O310  1  0.24390750  0.73714126  0.86830786  1
  O  O311  1  0.74041995  0.25126583  0.38198600  1
  O  O312  1  0.74279960  0.24502497  0.88340681  1
  O  O313  1  0.75335396  0.73874798  0.38466906  1
  O  O314  1  0.74227528  0.73748765  0.87833540  1
  O  O315  1  -0.00541564  0.12120673  0.00295951  1
  O  O316  1  0.00523260  0.12151408  0.50423217  1
  O  O317  1  0.00708240  0.62384568  0.00184889  1
  O  O318  1  0.00736997  0.62040971  0.50561255  1
  O  O319  1  0.50874943  0.12415960  0.00913657  1
  O  O320  1  0.49775168  0.12231227  0.51583682  1
  O  O321  1  0.51220758  0.61721719  0.01081039  1
  O  O322  1  0.51228249  0.60975343  0.49002727  1
  O  O323  1  0.48641812  0.36925487  0.49139101  1
  O  O324  1  0.50090523  0.37629399  0.98675543  1
  O  O325  1  0.49440347  0.87521679  0.49010585  1
  O  O326  1  0.50792109  0.86934243  0.98047827  1
  O  O327  1  0.99296043  0.37820278  0.49354409  1
  O  O328  1  0.99532470  0.38845335  0.99313269  1
  O  O329  1  0.99394584  0.88017535  0.49274859  1
  O  O330  1  0.99599802  0.88304329  0.99448375  1
  O  O331  1  0.50842875  0.47879311  0.37627493  1
  O  O332  1  0.49255642  0.49061532  0.87378302  1
  O  O333  1  0.48645586  0.99373141  0.37937131  1
  O  O334  1  0.50408070  0.97823235  0.86844029  1
  O  O335  1  0.99232344  0.49412865  0.38560316  1
  O  O336  1  1.00215814  0.49253209  0.87941619  1
  O  O337  1  0.98954963  0.99484348  0.37826325  1
  O  O338  1  0.99410106  0.99841719  0.88646232  1
  O  O339  1  0.00774601  -0.00255304  0.11363128  1
  O  O340  1  0.00473169  0.00727571  0.61499349  1
  O  O341  1  -0.01234868  0.51777194  0.10982886  1
  O  O342  1  0.00804453  0.50681352  0.62085646  1
  O  O343  1  0.49219369  0.01123791  0.12643863  1
  O  O344  1  0.50504917  0.00504103  0.62699521  1
  O  O345  1  0.51041439  0.50210627  0.12583935  1
  O  O346  1  0.49509138  0.50211473  0.61850249  1
  O  O347  1  0.26097279  0.37847457  0.22675513  1
  O  O348  1  0.24942088  0.38528832  0.75544926  1
  O  O349  1  0.24240453  0.88122153  0.24744229  1
  O  O350  1  0.23805045  0.87212312  0.75586788  1
  O  O351  1  0.75038200  0.38142146  0.24436471  1
  O  O352  1  0.74377571  0.38277126  0.75765679  1
  O  O353  1  0.74741817  0.87406400  0.23771084  1
  O  O354  1  0.74163770  0.87128976  0.75548237  1
  O  O355  1  0.24602037  0.10881077  0.25033297  1
  O  O356  1  0.26007235  0.12349201  0.74943457  1
  O  O357  1  0.26601295  0.62756991  0.25759162  1
  O  O358  1  0.25773515  0.61614467  0.75612063  1
  O  O359  1  0.76151894  0.12551502  0.25291583  1
  O  O360  1  0.76443617  0.13017790  0.74980748  1
  O  O361  1  0.75672904  0.62399919  0.26089388  1
  O  O362  1  0.76105994  0.61868044  0.75863826  1
  O  O363  1  0.38077909  0.11015010  0.37439587  1
  O  O364  1  0.36401237  0.12868510  0.86179810  1
  O  O365  1  0.36974148  0.62984126  0.36591010  1
  O  O366  1  0.36657565  0.61783821  0.86523696  1
  O  O367  1  0.87253076  0.11557649  0.36761334  1
  O  O368  1  0.87272745  0.11629145  0.86444019  1
  O  O369  1  0.87042994  0.62035704  0.37207816  1
  O  O370  1  0.86738465  0.63129332  0.86777030  1
  O  O371  1  0.14491726  0.39098011  0.12604406  1
  O  O372  1  0.11956992  0.38694648  0.62640992  1
  O  O373  1  0.13380709  0.88264756  0.13099356  1
  O  O374  1  0.12085898  0.88579517  0.63414579  1
  O  O375  1  0.63156025  0.38007161  0.12551979  1
  O  O376  1  0.62183438  0.35624475  0.64336783  1
  O  O377  1  0.63834782  0.86964677  0.12213719  1
  O  O378  1  0.62499368  0.88878028  0.63494166  1
  O  O379  1  0.10797350  0.24641553  0.24601599  1
  O  O380  1  0.11148741  0.25029755  0.74228578  1
  O  O381  1  0.12398692  0.75856853  0.25526664  1
  O  O382  1  0.12150434  0.75592162  0.75825030  1
  O  O383  1  0.61668765  0.25046052  0.25789710  1
  O  O384  1  0.62535920  0.25152641  0.76382336  1
  O  O385  1  0.60757059  0.75277904  0.24827454  1
  O  O386  1  0.63008387  0.75927918  0.76147968  1
  O  O387  1  0.38444684  0.25154752  0.23771522  1
  O  O388  1  0.37206195  0.24197377  0.73969779  1
  O  O389  1  0.38629951  0.73885109  0.24175385  1
  O  O390  1  0.38219301  0.73968779  0.73660447  1
  O  O391  1  0.88042009  0.24316902  0.24256572  1
  O  O392  1  0.88430840  0.24326017  0.74419825  1
  O  O393  1  0.88097637  0.75109569  0.24566617  1
  O  O394  1  0.88308251  0.73948706  0.74786736  1
  O  O395  1  0.36487976  0.48002960  0.50282412  1
  O  O396  1  0.37738408  0.50253123  0.98375360  1
  O  O397  1  0.37055229  1.00132259  0.48671195  1
  O  O398  1  0.38374046  1.00535172  0.98787925  1
  O  O399  1  0.87880684  0.49431714  0.49885660  1
  O  O400  1  0.88337914  0.50218194  0.99535963  1
  O  O401  1  0.87892688  0.99462178  0.49201713  1
  O  O402  1  0.88317476  0.99568332  0.99522372  1
  O  O403  1  0.11814236  -0.00090545  0.01289763  1
  O  O404  1  0.12076723  0.00556624  0.50475522  1
  O  O405  1  0.10904167  0.51086694  0.00066048  1
  O  O406  1  0.12189029  0.50625274  0.50862590  1
  O  O407  1  0.62003540  0.00925133  -0.00339355  1
  O  O408  1  0.62049874  0.00073283  0.51430580  1
  O  O409  1  0.62880683  0.50213264  0.01253410  1
  O  O410  1  0.62993527  0.49370673  0.51751893  1
  O  O411  1  0.36996913  0.36636717  0.11652374  1
  O  O412  1  0.37759326  0.35750956  0.61942878  1
  O  O413  1  0.36208253  0.87326469  0.12283201  1
  O  O414  1  0.37294506  0.86583207  0.63620218  1
  O  O415  1  0.86958145  0.35896542  0.12042748  1
  O  O416  1  0.88155036  0.36998294  0.61125849  1
  O  O417  1  0.87137106  0.86645444  0.12384591  1
  O  O418  1  0.88025934  0.87697243  0.61096793  1
  O  O419  1  0.11848204  0.11643290  0.38655252  1
  O  O420  1  0.13453563  0.12849163  0.87629333  1
  O  O421  1  0.13291933  0.63456842  0.38147531  1
  O  O422  1  0.13009574  0.63340059  0.87785838  1
  O  O423  1  0.62258517  0.13624466  0.38009245  1
  O  O424  1  0.62375672  0.12929078  0.88063241  1
  O  O425  1  0.64075087  0.62283272  0.36952428  1
  O  O426  1  0.63321963  0.62879042  0.87938750  1
