# generated using pymatgen
data_V85Zn86O256
_symmetry_space_group_name_H-M   'P 1'
_cell_length_a   16.92856100
_cell_length_b   16.91731257
_cell_length_c   16.93504272
_cell_angle_alpha   90.08635677
_cell_angle_beta   89.95703904
_cell_angle_gamma   90.03877875
_symmetry_Int_Tables_number   1
_chemical_formula_structural   V85Zn86O256
_chemical_formula_sum   'V85 Zn86 O256'
_cell_volume   4849.94706554
_cell_formula_units_Z   1
loop_
 _symmetry_equiv_pos_site_id
 _symmetry_equiv_pos_as_xyz
  1  'x, y, z'
loop_
 _atom_site_type_symbol
 _atom_site_label
 _atom_site_symmetry_multiplicity
 _atom_site_fract_x
 _atom_site_fract_y
 _atom_site_fract_z
 _atom_site_occupancy
  V  V0  1  0.62223266  0.62397445  -0.00257024  1
  V  V1  1  0.36967163  0.87480945  0.00382098  1
  V  V2  1  0.88175603  0.25368721  0.62806024  1
  V  V3  1  0.26191528  0.37172717  0.62140190  1
  V  V4  1  0.86943778  0.50778096  0.37294630  1
  V  V5  1  0.25919374  0.37494276  0.12809011  1
  V  V6  1  0.24940739  -0.01417149  0.24539817  1
  V  V7  1  -0.00115939  -0.00474002  0.50524409  1
  V  V8  1  0.62361688  0.62367998  0.49865019  1
  V  V9  1  0.75219696  0.12614949  0.37576128  1
  V  V10  1  0.60716529  0.25653033  0.87512248  1
  V  V11  1  0.36857534  0.75089584  0.12639887  1
  V  V12  1  0.37285593  0.50186139  0.39041291  1
  V  V13  1  0.25452892  0.50122980  0.75357663  1
  V  V14  1  0.63005680  0.74095871  0.37356181  1
  V  V15  1  0.74890524  0.87283484  0.12412323  1
  V  V16  1  0.62334033  0.48939502  0.12705431  1
  V  V17  1  -0.00018488  0.50705217  0.50378912  1
  V  V18  1  0.13244751  0.74844537  0.36922283  1
  V  V19  1  0.87748852  0.13360086  0.75177673  1
  V  V20  1  0.62121784  0.75131356  0.87297551  1
  V  V21  1  0.25357791  0.25138338  0.00574850  1
  V  V22  1  0.87777350  0.37468798  0.49901826  1
  V  V23  1  0.62588355  0.87301318  0.24968572  1
  V  V24  1  0.62687645  0.25593847  0.37129663  1
  V  V25  1  0.12770287  -0.01623530  0.12837145  1
  V  V26  1  0.11931347  0.37200184  0.74845998  1
  V  V27  1  0.00198860  0.37102717  0.37206901  1
  V  V28  1  0.75240615  0.00166416  0.75094110  1
  V  V29  1  0.87576008  0.87534713  -0.00056120  1
  V  V30  1  0.49795748  0.87270374  0.86619032  1
  V  V31  1  0.25158469  0.62108337  0.88064639  1
  V  V32  1  0.00435460  0.62386226  0.12498839  1
  V  V33  1  0.88555456  0.12772764  0.24685327  1
  V  V34  1  0.76184964  0.87649125  0.62238868  1
  V  V35  1  0.74653298  0.37592666  0.62633718  1
  V  V36  1  0.37362924  0.00362230  0.87277145  1
  V  V37  1  0.00615589  0.87285786  0.37901932  1
  V  V38  1  0.75239582  -0.00152964  0.25068947  1
  V  V39  1  0.12263390  0.12902705  0.01341333  1
  V  V40  1  0.74933817  0.74989932  -0.00160510  1
  V  V41  1  0.24255057  0.74866606  0.00276917  1
  V  V42  1  0.24942697  0.12709354  0.87197304  1
  V  V43  1  0.75065044  0.13900271  0.88184375  1
  V  V44  1  0.24457866  0.00016528  0.74857070  1
  V  V45  1  0.87925167  0.73374412  0.62548075  1
  V  V46  1  -0.00362974  0.73691402  0.74759505  1
  V  V47  1  0.50062779  0.87390170  0.37493734  1
  V  V48  1  0.00327885  0.12873134  0.62909348  1
  V  V49  1  0.00256006  0.75346808  0.25014451  1
  V  V50  1  0.86521367  0.37444684  0.00325712  1
  V  V51  1  0.37551793  -0.00050657  0.37340509  1
  V  V52  1  0.37867838  0.63475650  0.75330964  1
  V  V53  1  0.75175540  0.62644001  0.87094908  1
  V  V54  1  0.24835243  0.87449760  0.62634092  1
  V  V55  1  0.62340494  0.00036662  0.12521877  1
  V  V56  1  0.75232080  0.50656062  0.74600930  1
  V  V57  1  0.49807198  0.13052942  0.12596582  1
  V  V58  1  0.24730522  0.12740549  0.37583675  1
  V  V59  1  0.12635072  0.62680384  0.49613052  1
  V  V60  1  0.12414011  0.50639613  0.62674505  1
  V  V61  1  0.87473996  0.74730803  0.12525488  1
  V  V62  1  0.00046395  0.00407337  0.00523085  1
  V  V63  1  0.50138979  0.63957127  0.62723271  1
  V  V64  1  0.37516044  0.37701356  -0.01898678  1
  V  V65  1  0.25460995  0.74652276  0.50060338  1
  V  V66  1  0.11790166  0.25023669  0.87392163  1
  V  V67  1  0.87568264  0.00147494  0.87619839  1
  V  V68  1  0.43554277  0.17162051  0.69359904  1
  V  V69  1  0.62006553  0.12681461  0.50295793  1
  V  V70  1  0.61434718  0.49927435  0.62204668  1
  V  V71  1  0.75498451  0.75193422  0.49639597  1
  V  V72  1  0.49641855  0.62128161  0.12242998  1
  V  V73  1  0.87713152  -0.00764996  0.37893667  1
  V  V74  1  0.62519973  0.87262984  0.74668984  1
  V  V75  1  0.12324931  0.74691331  0.87410466  1
  V  V76  1  0.49976666  0.74741393  0.24799005  1
  V  V77  1  0.12816489  0.49890818  0.12471332  1
  V  V78  1  0.00246552  0.50319825  -0.00122315  1
  V  V79  1  0.49835412  0.37924746  0.40502053  1
  V  V80  1  0.50030133  0.26237361  0.24669518  1
  V  V81  1  0.49414955  0.49687843  -0.01821561  1
  V  V82  1  0.37335320  0.13159808  0.24608521  1
  V  V83  1  0.87605091  0.50518706  0.87074428  1
  V  V84  1  0.49928083  0.00096344  0.00155552  1
  Zn  Zn85  1  0.74265077  0.36026250  0.13247338  1
  Zn  Zn86  1  0.63207374  0.13247438  0.00579674  1
  Zn  Zn87  1  -0.00329486  0.37323292  0.87279050  1
  Zn  Zn88  1  0.50245211  0.00155296  0.50223137  1
  Zn  Zn89  1  0.00053928  0.87430298  0.87257563  1
  Zn  Zn90  1  0.00608908  0.24895794  0.23414461  1
  Zn  Zn91  1  0.61355915  0.37608588  0.75956931  1
  Zn  Zn92  1  0.25329704  0.50392251  0.25719462  1
  Zn  Zn93  1  0.36973055  0.62219386  0.25968040  1
  Zn  Zn94  1  0.12460863  0.12861998  0.50019129  1
  Zn  Zn95  1  0.11938024  0.87332985  0.74951730  1
  Zn  Zn96  1  0.73899738  0.50014847  0.25603036  1
  Zn  Zn97  1  0.86648128  0.62741095  0.25391134  1
  Zn  Zn98  1  0.37416325  0.87847723  0.50159546  1
  Zn  Zn99  1  0.25742133  0.26014443  0.49699927  1
  Zn  Zn100  1  0.62338670  0.00682594  0.62787860  1
  Zn  Zn101  1  0.12619724  0.25088785  0.37444933  1
  Zn  Zn102  1  0.12829589  0.37326596  0.25000602  1
  Zn  Zn103  1  0.38111852  0.76060466  0.62962878  1
  Zn  Zn104  1  0.87351208  0.24074745  0.11371796  1
  Zn  Zn105  1  0.12393685  0.00147759  0.62640673  1
  Zn  Zn106  1  0.75115698  0.25008215  0.50112030  1
  Zn  Zn107  1  0.18787981  0.18891651  0.19161027  1
  Zn  Zn108  1  0.19000578  0.18961614  0.68842090  1
  Zn  Zn109  1  0.18862179  0.68149693  0.18933781  1
  Zn  Zn110  1  0.18737466  0.68744601  0.68801114  1
  Zn  Zn111  1  0.69056256  0.18922448  0.18924487  1
  Zn  Zn112  1  0.68616172  0.19244172  0.69037454  1
  Zn  Zn113  1  0.68786216  0.67835408  0.18814503  1
  Zn  Zn114  1  0.68941048  0.69031350  0.68544430  1
  Zn  Zn115  1  0.31830401  0.31748963  0.31423395  1
  Zn  Zn116  1  0.31045180  0.30660640  0.80417450  1
  Zn  Zn117  1  0.31291079  0.80957763  0.31284016  1
  Zn  Zn118  1  0.30972844  0.81370070  0.81387556  1
  Zn  Zn119  1  0.81073707  0.31720505  0.30624686  1
  Zn  Zn120  1  0.81156059  0.31949306  0.81120889  1
  Zn  Zn121  1  0.81526665  0.81174958  0.31302788  1
  Zn  Zn122  1  0.81551872  0.81170424  0.80914608  1
  Zn  Zn123  1  0.18867322  0.43763130  0.43971408  1
  Zn  Zn124  1  0.18520733  0.43751639  0.93926613  1
  Zn  Zn125  1  0.18669707  0.93870011  0.43908019  1
  Zn  Zn126  1  0.18594710  0.93496343  0.93901144  1
  Zn  Zn127  1  0.68717264  0.43513053  0.44068824  1
  Zn  Zn128  1  0.68482952  0.43818546  0.93685730  1
  Zn  Zn129  1  0.68853236  0.93520576  0.43829624  1
  Zn  Zn130  1  0.68766823  0.94163077  0.93679237  1
  Zn  Zn131  1  0.31023544  0.06372798  0.06324581  1
  Zn  Zn132  1  0.33820975  0.10203579  0.54414431  1
  Zn  Zn133  1  0.31284423  0.56041848  0.06103212  1
  Zn  Zn134  1  0.31434800  0.56422584  0.56588967  1
  Zn  Zn135  1  0.81156509  0.06228175  0.06465392  1
  Zn  Zn136  1  0.81394850  0.06245232  0.56233405  1
  Zn  Zn137  1  0.81178408  0.56171876  0.06231713  1
  Zn  Zn138  1  0.80644422  0.56382375  0.55619821  1
  Zn  Zn139  1  0.43240935  0.44230826  0.18514751  1
  Zn  Zn140  1  0.43582164  0.44861979  0.69607611  1
  Zn  Zn141  1  0.43558984  0.93745449  0.18853985  1
  Zn  Zn142  1  0.42322537  0.97747885  0.67175157  1
  Zn  Zn143  1  0.93623381  0.43537380  0.18864707  1
  Zn  Zn144  1  0.93899598  0.44281251  0.68767325  1
  Zn  Zn145  1  0.94106259  0.93677181  0.18871764  1
  Zn  Zn146  1  0.93930294  0.93525585  0.69190468  1
  Zn  Zn147  1  0.06611642  0.05793755  0.31151614  1
  Zn  Zn148  1  0.06239786  0.06473449  0.81554908  1
  Zn  Zn149  1  0.06125173  0.56238016  0.31177079  1
  Zn  Zn150  1  0.06659014  0.56417608  0.81440705  1
  Zn  Zn151  1  0.56287537  0.06532133  0.31192419  1
  Zn  Zn152  1  0.56793455  0.06066191  0.81717146  1
  Zn  Zn153  1  0.55219310  0.55786340  0.31239848  1
  Zn  Zn154  1  0.56460847  0.56426384  0.80601032  1
  Zn  Zn155  1  0.43833258  0.19599983  0.43583715  1
  Zn  Zn156  1  0.43499463  0.18796806  0.93860429  1
  Zn  Zn157  1  0.43994691  0.68705798  0.44151684  1
  Zn  Zn158  1  0.43462244  0.68857256  0.93626837  1
  Zn  Zn159  1  0.93831145  0.18551689  0.43967366  1
  Zn  Zn160  1  0.93983059  0.18891199  0.94148633  1
  Zn  Zn161  1  0.94008468  0.68913322  0.44267789  1
  Zn  Zn162  1  0.93890136  0.68442401  0.93751622  1
  Zn  Zn163  1  0.05735824  0.31675444  0.06451334  1
  Zn  Zn164  1  0.06941508  0.31269036  0.55908244  1
  Zn  Zn165  1  0.06083258  0.81250940  0.05993667  1
  Zn  Zn166  1  0.06195327  0.81243400  0.56285624  1
  Zn  Zn167  1  0.55767749  0.31022842  0.05305739  1
  Zn  Zn168  1  0.52550092  0.32607678  0.60830968  1
  Zn  Zn169  1  0.55803598  0.81244393  0.05949173  1
  Zn  Zn170  1  0.56528397  0.82214647  0.56337543  1
  O  O171  1  0.12955717  0.11853264  0.11488999  1
  O  O172  1  0.11592732  0.12415833  0.62620350  1
  O  O173  1  0.11104986  0.61971126  0.12591305  1
  O  O174  1  0.13045472  0.61370204  0.61563437  1
  O  O175  1  0.61793692  0.11652131  0.12630633  1
  O  O176  1  0.63829223  0.12615091  0.60694016  1
  O  O177  1  0.61065454  0.62314741  0.11486393  1
  O  O178  1  0.62058883  0.62232446  0.61994794  1
  O  O179  1  0.39255854  0.38123704  0.37959070  1
  O  O180  1  0.36534818  0.37440098  0.88221658  1
  O  O181  1  0.38393422  0.88143241  0.37387159  1
  O  O182  1  0.38196175  0.87833418  0.88288065  1
  O  O183  1  0.88178150  0.38298736  0.38422273  1
  O  O184  1  0.87542507  0.38835954  0.88119302  1
  O  O185  1  0.88569401  0.88576371  0.37070156  1
  O  O186  1  0.87355419  0.88257664  0.88285711  1
  O  O187  1  0.25693719  0.00021906  0.36357788  1
  O  O188  1  0.25314947  0.00567897  0.87177338  1
  O  O189  1  0.26864368  0.49089688  0.37713270  1
  O  O190  1  0.23989650  0.51177984  0.86820594  1
  O  O191  1  0.75987547  0.00258601  0.37150315  1
  O  O192  1  0.75693284  0.00897357  0.86906077  1
  O  O193  1  0.76689777  0.49641835  0.38053358  1
  O  O194  1  0.75403230  0.50573214  0.86607485  1
  O  O195  1  0.24224442  0.49319972  0.12248595  1
  O  O196  1  0.24271801  0.49602714  0.63384400  1
  O  O197  1  0.23759249  1.00267573  0.13004884  1
  O  O198  1  0.24592822  0.99514675  0.64168114  1
  O  O199  1  0.72706674  0.50404716  0.11717325  1
  O  O200  1  0.74590331  0.49602289  0.63013205  1
  O  O201  1  0.74347663  0.99258153  0.12985984  1
  O  O202  1  0.75064498  0.99402748  0.63248917  1
  O  O203  1  -0.00033283  0.37217680  0.26018821  1
  O  O204  1  0.01482605  0.38339008  0.75311323  1
  O  O205  1  -0.00248080  0.86103885  0.25754092  1
  O  O206  1  0.00052114  0.86178386  0.75411064  1
  O  O207  1  0.49675618  0.36203495  0.24007448  1
  O  O208  1  0.51167036  0.37195020  0.71173550  1
  O  O209  1  0.50487459  0.86822071  0.25687485  1
  O  O210  1  0.51016165  0.88080800  0.76396751  1
  O  O211  1  0.49246293  0.13129574  0.24417543  1
  O  O212  1  0.49734185  0.12030695  0.75541204  1
  O  O213  1  0.49681926  0.63119441  0.23863674  1
  O  O214  1  0.49062014  0.62430988  0.74230893  1
  O  O215  1  0.98761641  0.12265358  0.25626612  1
  O  O216  1  0.99119440  0.12096558  0.73916984  1
  O  O217  1  0.99598122  0.63626237  0.24423213  1
  O  O218  1  1.00323536  0.63665775  0.75110895  1
  O  O219  1  0.36543415  0.26294925  -0.00441508  1
  O  O220  1  0.35931770  0.21075690  0.51027638  1
  O  O221  1  0.36728105  0.75697728  0.00649852  1
  O  O222  1  0.36711976  0.75426505  0.50265949  1
  O  O223  1  0.87875370  0.27087320  -0.00708927  1
  O  O224  1  0.87354739  0.25859577  0.50800729  1
  O  O225  1  0.87036007  0.75507371  0.00485090  1
  O  O226  1  0.86839310  0.74750419  0.51170914  1
  O  O227  1  0.13591486  0.24638176  0.49486117  1
  O  O228  1  0.13040528  0.24473182  0.99512444  1
  O  O229  1  0.12958199  0.74294690  0.49365906  1
  O  O230  1  0.13665696  0.75271441  0.99596884  1
  O  O231  1  0.63254084  0.23560948  0.48506955  1
  O  O232  1  0.62242113  0.24642041  0.98318928  1
  O  O233  1  0.63231936  0.74735015  0.49083563  1
  O  O234  1  0.62965880  0.74541424  0.99349872  1
  O  O235  1  0.50721878  0.23736210  0.13062748  1
  O  O236  1  0.49322553  0.21930281  0.62488815  1
  O  O237  1  0.49055844  0.74271603  0.12640628  1
  O  O238  1  0.50222467  0.74448645  0.62418868  1
  O  O239  1  0.98741106  0.25152753  0.12162478  1
  O  O240  1  0.98989968  0.24517072  0.62126731  1
  O  O241  1  0.99769803  0.74450836  0.13086529  1
  O  O242  1  0.98615141  0.75242791  0.62940265  1
  O  O243  1  -0.00140142  0.26422927  0.38077153  1
  O  O244  1  0.01367623  0.25082636  0.87788103  1
  O  O245  1  0.00572354  0.75512559  0.37006050  1
  O  O246  1  0.00638737  0.74789383  0.86924408  1
  O  O247  1  0.50565609  0.26356854  0.36990574  1
  O  O248  1  0.50821413  0.24719197  0.87370402  1
  O  O249  1  0.50715932  0.75535640  0.36768765  1
  O  O250  1  0.50923642  0.76016476  0.88185889  1
  O  O251  1  0.24214042  0.10507206  0.47930928  1
  O  O252  1  0.24291812  0.13312103  0.99534943  1
  O  O253  1  0.24352420  0.63852168  0.50563421  1
  O  O254  1  0.25673427  0.63465073  0.99110387  1
  O  O255  1  0.75034576  0.12574614  0.48660892  1
  O  O256  1  0.75230566  0.11992650  0.98539486  1
  O  O257  1  0.73798424  0.64114980  0.50355075  1
  O  O258  1  0.74300604  0.63063919  0.99246296  1
  O  O259  1  0.25759626  0.36960325  0.00268731  1
  O  O260  1  0.24950107  0.37797059  0.51699444  1
  O  O261  1  0.26224292  0.86604447  -0.00494144  1
  O  O262  1  0.24942881  0.86667719  0.50738049  1
  O  O263  1  0.76318109  0.38324880  0.00120946  1
  O  O264  1  0.76458794  0.37520712  0.50734728  1
  O  O265  1  0.75444256  0.87102567  0.00509232  1
  O  O266  1  0.74635891  0.86345241  0.50892525  1
  O  O267  1  0.12359362  0.49785982  0.23663842  1
  O  O268  1  0.13322221  0.49811225  0.74308358  1
  O  O269  1  0.13223297  0.99997978  0.23567144  1
  O  O270  1  0.13094621  0.99527712  0.75339140  1
  O  O271  1  0.61584286  0.50366825  0.22998324  1
  O  O272  1  0.63370693  0.49726542  0.73957617  1
  O  O273  1  0.63187999  0.99362351  0.24598697  1
  O  O274  1  0.63548084  0.98994187  0.75206274  1
  O  O275  1  0.36921604  0.00568146  0.25585563  1
  O  O276  1  0.36246799  -0.01055401  0.76879535  1
  O  O277  1  0.37899485  0.50077759  0.26532419  1
  O  O278  1  0.36116538  0.51486802  0.74964748  1
  O  O279  1  0.87242165  0.00541017  0.25779985  1
  O  O280  1  0.87088200  0.01125696  0.75571332  1
  O  O281  1  0.88350369  0.50347373  0.26808491  1
  O  O282  1  0.86632861  0.49753835  0.75793828  1
  O  O283  1  0.11523996  0.37806764  0.37384891  1
  O  O284  1  0.12494523  0.36714875  0.86826786  1
  O  O285  1  0.11431998  0.86538697  0.37823752  1
  O  O286  1  0.12388091  0.86009354  0.87618304  1
  O  O287  1  0.61288527  0.36720897  0.38404334  1
  O  O288  1  0.62438479  0.36238702  0.87635283  1
  O  O289  1  0.62002445  0.86596696  0.36814949  1
  O  O290  1  0.61921697  0.87147874  0.87067709  1
  O  O291  1  0.38285545  0.11868171  0.13596499  1
  O  O292  1  0.38449383  0.09078191  0.64543036  1
  O  O293  1  0.38589327  0.63153061  0.12005384  1
  O  O294  1  0.38551282  0.62996952  0.63225449  1
  O  O295  1  0.87267757  0.11764649  0.14396527  1
  O  O296  1  0.87849186  0.13465764  0.63294991  1
  O  O297  1  0.88554603  0.63047891  0.12452867  1
  O  O298  1  0.87156904  0.63507900  0.62286465  1
  O  O299  1  0.24555724  0.25728534  0.11283076  1
  O  O300  1  0.24691654  0.26898698  0.62914875  1
  O  O301  1  0.26078309  0.74437033  0.11769447  1
  O  O302  1  0.25114821  0.75830800  0.61863550  1
  O  O303  1  0.75983568  0.24718599  0.12593210  1
  O  O304  1  0.76112308  0.25990159  0.62534396  1
  O  O305  1  0.75290337  0.75393035  0.11784267  1
  O  O306  1  0.76206786  0.75557989  0.62014309  1
  O  O307  1  0.25299721  0.24006695  0.37360618  1
  O  O308  1  0.24151143  0.24285487  0.88370883  1
  O  O309  1  0.24051634  0.75610453  0.38437391  1
  O  O310  1  0.24362930  0.74369280  0.88295321  1
  O  O311  1  0.74458409  0.24318374  0.37312054  1
  O  O312  1  0.75427214  0.23933480  0.87423725  1
  O  O313  1  0.74195632  0.75640672  0.38268066  1
  O  O314  1  0.74446898  0.74657365  0.87929056  1
  O  O315  1  0.00755271  0.11273743  -0.00247790  1
  O  O316  1  -0.00091506  0.11822070  0.51386816  1
  O  O317  1  -0.00491884  0.61286662  0.00879139  1
  O  O318  1  0.01006273  0.61691325  0.50000467  1
  O  O319  1  0.49797632  0.11848529  0.01030269  1
  O  O320  1  0.51859313  0.12179087  0.48683622  1
  O  O321  1  0.50120375  0.61760712  0.00254993  1
  O  O322  1  0.51548969  0.63239668  0.51053543  1
  O  O323  1  0.49925651  0.36968847  0.50291876  1
  O  O324  1  0.48212089  0.38077005  0.99940176  1
  O  O325  1  0.49966896  0.87257354  0.48276586  1
  O  O326  1  0.49059529  0.88182412  0.99248738  1
  O  O327  1  0.99107350  0.38257100  0.49744719  1
  O  O328  1  0.99129399  0.39016434  0.99504314  1
  O  O329  1  0.99975724  0.88108550  0.49176025  1
  O  O330  1  0.99408391  0.88533895  0.99736317  1
  O  O331  1  0.49906016  0.48285455  0.38142984  1
  O  O332  1  0.50456265  0.50272267  0.88258181  1
  O  O333  1  0.49385929  0.99035049  0.37007191  1
  O  O334  1  0.49174148  0.99470527  0.88233908  1
  O  O335  1  0.99406346  0.49197784  0.38625667  1
  O  O336  1  0.99306853  0.50382559  0.88122115  1
  O  O337  1  0.99688256  0.99117753  0.38059577  1
  O  O338  1  0.99290908  0.99912362  0.88437878  1
  O  O339  1  0.01443154  -0.00436953  0.11906378  1
  O  O340  1  -0.00174527  0.00660790  0.62004015  1
  O  O341  1  0.00418666  0.50612726  0.11977851  1
  O  O342  1  0.00821295  0.49684006  0.61320737  1
  O  O343  1  0.50420771  0.00769896  0.12283515  1
  O  O344  1  0.51588228  -0.02713548  0.61238816  1
  O  O345  1  0.50494654  0.50601866  0.11368142  1
  O  O346  1  0.51238561  0.51577390  0.62544267  1
  O  O347  1  0.25124525  0.37923842  0.24105365  1
  O  O348  1  0.24117931  0.38468942  0.74560357  1
  O  O349  1  0.25746333  0.88640128  0.24749798  1
  O  O350  1  0.24473401  0.88056105  0.74505739  1
  O  O351  1  0.75446934  0.38839878  0.24340615  1
  O  O352  1  0.74705780  0.38665682  0.74079136  1
  O  O353  1  0.74622224  0.87892357  0.24376121  1
  O  O354  1  0.74620323  0.88293977  0.74573854  1
  O  O355  1  0.25761867  0.11692687  0.25568400  1
  O  O356  1  0.24113463  0.11645202  0.76454858  1
  O  O357  1  0.25667801  0.61865927  0.24840987  1
  O  O358  1  0.25495138  0.62021252  0.75747446  1
  O  O359  1  0.75809018  0.11648970  0.26199119  1
  O  O360  1  0.75784577  0.12083629  0.75907280  1
  O  O361  1  0.75368233  0.61336799  0.24774418  1
  O  O362  1  0.74506107  0.61498916  0.75472920  1
  O  O363  1  0.37123461  0.11625815  0.36211048  1
  O  O364  1  0.36174174  0.11430719  0.88658622  1
  O  O365  1  0.39101977  0.60649958  0.37703802  1
  O  O366  1  0.36358127  0.63039792  0.86741190  1
  O  O367  1  0.87158234  0.11395542  0.36964313  1
  O  O368  1  0.86924745  0.12414913  0.86979122  1
  O  O369  1  0.88104611  0.61063203  0.37969750  1
  O  O370  1  0.86622878  0.61412915  0.87960423  1
  O  O371  1  0.13624708  0.38319552  0.12311728  1
  O  O372  1  0.12988116  0.38700093  0.63183043  1
  O  O373  1  0.12822730  0.88512005  0.12004162  1
  O  O374  1  0.13547649  0.87765700  0.62582070  1
  O  O375  1  0.62275453  0.38678927  0.11378694  1
  O  O376  1  0.63968530  0.38347652  0.61257129  1
  O  O377  1  0.62692086  0.87910651  0.13031727  1
  O  O378  1  0.64189705  0.87080148  0.63514615  1
  O  O379  1  0.12099707  0.25405974  0.25477601  1
  O  O380  1  0.13104997  0.26054138  0.76037701  1
  O  O381  1  0.11866301  0.74470636  0.26156051  1
  O  O382  1  0.11713683  0.75015075  0.75680128  1
  O  O383  1  0.61516393  0.24074128  0.26438834  1
  O  O384  1  0.63327425  0.25332222  0.76992587  1
  O  O385  1  0.62097271  0.75271838  0.25517785  1
  O  O386  1  0.63270006  0.76428730  0.75767674  1
  O  O387  1  0.38482613  0.24011419  0.25389902  1
  O  O388  1  0.37188294  0.23325097  0.74547562  1
  O  O389  1  0.38090402  0.74789995  0.24163090  1
  O  O390  1  0.36924584  0.73991663  0.74777859  1
  O  O391  1  0.87834525  0.23234393  0.25788043  1
  O  O392  1  0.87296963  0.24218081  0.74484052  1
  O  O393  1  0.88263538  0.74831193  0.24292282  1
  O  O394  1  0.88019132  0.74902978  0.73642259  1
  O  O395  1  0.37565056  0.50294309  0.49060799  1
  O  O396  1  0.37976399  0.48796125  0.99651214  1
  O  O397  1  0.37954666  1.00255636  0.48243376  1
  O  O398  1  0.37606952  0.99199495  0.99429479  1
  O  O399  1  0.88181204  0.49584091  0.49520889  1
  O  O400  1  0.87980944  0.49497641  0.99164029  1
  O  O401  1  0.88726489  1.00450388  0.49156291  1
  O  O402  1  0.88341637  0.99693253  0.99856714  1
  O  O403  1  0.12061200  0.00509487  0.00919344  1
  O  O404  1  0.10991274  0.00207821  0.50190328  1
  O  O405  1  0.11561145  0.49764470  0.01194848  1
  O  O406  1  0.11981995  0.50781924  0.50530263  1
  O  O407  1  0.61743340  0.00309929  0.00719515  1
  O  O408  1  0.62995045  0.01550021  0.49547942  1
  O  O409  1  0.61384910  0.50600782  0.00358806  1
  O  O410  1  0.63569975  0.51307651  0.50916878  1
  O  O411  1  0.36175575  0.38058642  0.11307644  1
  O  O412  1  0.35933038  0.38514733  0.63185510  1
  O  O413  1  0.38190269  0.86440001  0.11536282  1
  O  O414  1  0.36037544  0.88032720  0.62295117  1
  O  O415  1  0.87201107  0.38406331  0.10871100  1
  O  O416  1  0.87056238  0.37112132  0.62068343  1
  O  O417  1  0.87042260  0.86860065  0.11959284  1
  O  O418  1  0.86443945  0.86962289  0.62982873  1
  O  O419  1  0.13385198  0.12573764  0.37296459  1
  O  O420  1  0.13085477  0.13080891  0.88610906  1
  O  O421  1  0.12095233  0.63250625  0.38705526  1
  O  O422  1  0.13580666  0.63753533  0.87399809  1
  O  O423  1  0.63569902  0.12923975  0.37848211  1
  O  O424  1  0.63845218  0.13281748  0.87736818  1
  O  O425  1  0.61625414  0.63449578  0.38020323  1
  O  O426  1  0.63010043  0.63253446  0.87755890  1
