# generated using pymatgen
data_V85Zn86O256
_symmetry_space_group_name_H-M   'P 1'
_cell_length_a   16.96135676
_cell_length_b   16.96326937
_cell_length_c   16.95942465
_cell_angle_alpha   90.00254185
_cell_angle_beta   90.02627764
_cell_angle_gamma   90.03043650
_symmetry_Int_Tables_number   1
_chemical_formula_structural   V85Zn86O256
_chemical_formula_sum   'V85 Zn86 O256'
_cell_volume   4879.56553286
_cell_formula_units_Z   1
loop_
 _symmetry_equiv_pos_site_id
 _symmetry_equiv_pos_as_xyz
  1  'x, y, z'
loop_
 _atom_site_type_symbol
 _atom_site_label
 _atom_site_symmetry_multiplicity
 _atom_site_fract_x
 _atom_site_fract_y
 _atom_site_fract_z
 _atom_site_occupancy
  V  V0  1  -0.01521437  0.37405659  0.37744549  1
  V  V1  1  0.73843770  0.74625393  0.00285100  1
  V  V2  1  0.11874868  0.12216260  -0.00306731  1
  V  V3  1  0.75270067  0.37515276  0.61294797  1
  V  V4  1  -0.00570985  0.38926987  0.88095436  1
  V  V5  1  0.12545046  0.24961900  0.87386582  1
  V  V6  1  0.36172711  0.12489887  0.74962130  1
  V  V7  1  -0.01078068  0.75127086  0.24623209  1
  V  V8  1  0.37391896  0.74861067  0.12420408  1
  V  V9  1  0.12409854  0.87362677  0.24917467  1
  V  V10  1  0.11643175  0.36926657  0.25283174  1
  V  V11  1  -0.00990874  0.62610978  0.12077256  1
  V  V12  1  0.62645743  0.00041530  0.12564932  1
  V  V13  1  0.25671825  0.36317901  0.61739946  1
  V  V14  1  0.24616802  0.37514907  0.12294157  1
  V  V15  1  -0.00103448  0.62406612  0.62412748  1
  V  V16  1  0.13042346  0.75010850  0.37790348  1
  V  V17  1  0.49649407  0.24479745  0.74102436  1
  V  V18  1  0.62590266  0.25018046  0.37304085  1
  V  V19  1  0.12964714  0.62574366  0.49925961  1
  V  V20  1  0.87160335  0.00674047  0.37712489  1
  V  V21  1  0.74719620  0.75059716  0.49946443  1
  V  V22  1  0.12766555  0.74374285  0.87135819  1
  V  V23  1  0.37359758  0.37597152  -0.00312667  1
  V  V24  1  0.11778494  -0.00136073  0.12029043  1
  V  V25  1  0.62908149  0.12586072  -0.00043846  1
  V  V26  1  0.12597976  0.12475934  0.50320302  1
  V  V27  1  0.24603294  0.50226244  0.25212491  1
  V  V28  1  0.62022435  0.62538038  0.49926180  1
  V  V29  1  0.05546142  0.92167038  0.82034872  1
  V  V30  1  0.62098736  0.87482272  0.76461750  1
  V  V31  1  0.62278529  0.49934095  0.62281731  1
  V  V32  1  0.51161106  0.50424307  0.00129904  1
  V  V33  1  0.74906408  0.01088871  0.25256575  1
  V  V34  1  0.86682125  0.11959160  0.75318800  1
  V  V35  1  0.87501961  0.25298950  0.62224494  1
  V  V36  1  0.12439914  0.37382498  0.74710642  1
  V  V37  1  0.37383981  0.62544441  0.24713534  1
  V  V38  1  0.12527130  0.49801076  0.62065026  1
  V  V39  1  0.36911490  -0.00051056  0.37799891  1
  V  V40  1  0.24179580  0.87128251  0.64741037  1
  V  V41  1  0.37248954  0.62642280  0.74848960  1
  V  V42  1  0.36159861  0.00119226  0.87055001  1
  V  V43  1  -0.00151590  0.87505982  0.37684977  1
  V  V44  1  0.37962829  0.49412680  0.37924911  1
  V  V45  1  -0.01335696  0.49706052  0.49701585  1
  V  V46  1  0.25282291  0.74303096  -0.00382260  1
  V  V47  1  0.24950812  0.00422265  0.24992099  1
  V  V48  1  0.62654022  0.24853538  0.87370167  1
  V  V49  1  0.87591145  0.61603988  0.25579486  1
  V  V50  1  0.49949102  0.12544989  0.12433174  1
  V  V51  1  0.51609236  0.62269508  0.12363605  1
  V  V52  1  0.62402500  -0.00147512  0.62945088  1
  V  V53  1  0.36031457  0.86553355  0.50098741  1
  V  V54  1  0.50033179  0.25950356  0.25194966  1
  V  V55  1  0.50107935  -0.00235386  -0.00930355  1
  V  V56  1  0.25082652  0.87456812  0.12506961  1
  V  V57  1  0.11654582  0.49998995  0.12301826  1
  V  V58  1  0.49730028  0.37462606  0.87364525  1
  V  V59  1  0.12157605  0.24544052  0.37484653  1
  V  V60  1  0.74551988  0.87745204  0.63202845  1
  V  V61  1  0.49894269  -0.00624197  0.50242018  1
  V  V62  1  0.75432468  0.61426743  0.37869848  1
  V  V63  1  0.38103463  0.87207204  -0.00361494  1
  V  V64  1  0.86521342  -0.01035769  0.87894634  1
  V  V65  1  0.29386374  0.18124206  0.43617877  1
  V  V66  1  0.87418883  0.87437985  0.50187613  1
  V  V67  1  0.87246640  0.62022262  0.76048926  1
  V  V68  1  0.88787634  0.86635293  0.00572980  1
  V  V69  1  0.75191567  0.24008969  0.49214987  1
  V  V70  1  0.62533840  0.37192603  0.74687066  1
  V  V71  1  0.50368875  0.74877335  0.76141727  1
  V  V72  1  0.37124345  0.12644843  0.25077887  1
  V  V73  1  0.37482449  0.24979231  0.12196724  1
  V  V74  1  -0.00118935  0.12362292  0.62593668  1
  V  V75  1  0.87451297  0.75008198  0.62906441  1
  V  V76  1  0.75202715  0.49796098  0.75740816  1
  V  V77  1  0.37162287  0.50890586  0.87654508  1
  V  V78  1  0.12346806  0.62048132  -0.00269363  1
  V  V79  1  0.25105787  0.24230159  -0.00529224  1
  V  V80  1  -0.00196035  0.13336582  0.13164557  1
  V  V81  1  0.25043638  0.50308873  0.75123739  1
  V  V82  1  0.74137059  0.38420993  0.12332108  1
  V  V83  1  -0.00021943  0.74709004  0.75750003  1
  V  V84  1  0.62614872  0.87468169  0.25294448  1
  Zn  Zn85  1  0.50056435  0.75114950  0.25107585  1
  Zn  Zn86  1  0.50256956  0.48804699  0.49513266  1
  Zn  Zn87  1  0.87812554  0.13122893  0.25789385  1
  Zn  Zn88  1  0.00199483  -0.00320953  0.50405932  1
  Zn  Zn89  1  0.62056994  0.38475710  0.25223554  1
  Zn  Zn90  1  0.75863461  0.25371063  -0.00035447  1
  Zn  Zn91  1  0.74982460  0.12247941  0.87291610  1
  Zn  Zn92  1  0.49820132  0.87190313  0.37497175  1
  Zn  Zn93  1  0.87368191  0.25710729  0.12778854  1
  Zn  Zn94  1  0.37197386  0.74838207  0.62321098  1
  Zn  Zn95  1  0.74373388  0.50334595  0.24458454  1
  Zn  Zn96  1  0.49516692  0.12139864  0.62712656  1
  Zn  Zn97  1  0.75907526  0.87303600  0.12702675  1
  Zn  Zn98  1  -0.00469992  0.25435283  0.75138262  1
  Zn  Zn99  1  0.73931266  0.62641914  0.88271323  1
  Zn  Zn100  1  0.49750316  0.62774147  0.62274890  1
  Zn  Zn101  1  0.37640094  0.35553339  0.49684066  1
  Zn  Zn102  1  0.25235918  0.62890975  0.37936892  1
  Zn  Zn103  1  0.87758353  0.38569808  0.00321363  1
  Zn  Zn104  1  0.62261212  0.75125267  0.37460795  1
  Zn  Zn105  1  0.62865849  0.11752897  0.49437151  1
  Zn  Zn106  1  0.12442462  -0.00527583  0.64073791  1
  Zn  Zn107  1  0.18546015  0.18778763  0.18656607  1
  Zn  Zn108  1  0.18621887  0.18739441  0.68660473  1
  Zn  Zn109  1  0.18319901  0.68742888  0.18726223  1
  Zn  Zn110  1  0.18984966  0.68956030  0.68469452  1
  Zn  Zn111  1  0.69029865  0.19474955  0.18474222  1
  Zn  Zn112  1  0.68822907  0.18622906  0.68426340  1
  Zn  Zn113  1  0.69652339  0.69280430  0.18722481  1
  Zn  Zn114  1  0.68506363  0.68740576  0.69081849  1
  Zn  Zn115  1  0.31112918  0.31775010  0.30616371  1
  Zn  Zn116  1  0.31122478  0.31199343  0.80932313  1
  Zn  Zn117  1  0.31201906  0.81339097  0.31255240  1
  Zn  Zn118  1  0.31877853  0.80824746  0.81970162  1
  Zn  Zn119  1  0.80926421  0.30819962  0.30176032  1
  Zn  Zn120  1  0.81270485  0.31180279  0.80920675  1
  Zn  Zn121  1  0.80974996  0.81519580  0.31372556  1
  Zn  Zn122  1  0.80752372  0.80960391  0.81803681  1
  Zn  Zn123  1  0.18688306  0.43653672  0.43734411  1
  Zn  Zn124  1  0.18589776  0.43613180  0.93540680  1
  Zn  Zn125  1  0.18607287  0.94176227  0.43788453  1
  Zn  Zn126  1  0.19281779  0.93553590  0.94329105  1
  Zn  Zn127  1  0.68437752  0.43425165  0.43225666  1
  Zn  Zn128  1  0.68943084  0.43545010  0.93655198  1
  Zn  Zn129  1  0.68859736  0.93752031  0.43753348  1
  Zn  Zn130  1  0.69290223  0.93256124  0.94292229  1
  Zn  Zn131  1  0.31085916  0.06152122  0.06149402  1
  Zn  Zn132  1  0.31120281  0.04803680  0.57582222  1
  Zn  Zn133  1  0.31109204  0.56190838  0.06301720  1
  Zn  Zn134  1  0.30916471  0.55985442  0.56520703  1
  Zn  Zn135  1  0.81463563  0.05739541  0.05986360  1
  Zn  Zn136  1  0.81223530  0.06019008  0.56414904  1
  Zn  Zn137  1  0.81552530  0.55743474  0.05488935  1
  Zn  Zn138  1  0.80965599  0.56483735  0.56829282  1
  Zn  Zn139  1  0.43571514  0.44161446  0.18370772  1
  Zn  Zn140  1  0.43778175  0.43531277  0.68307246  1
  Zn  Zn141  1  0.44017396  0.93869478  0.18649128  1
  Zn  Zn142  1  0.43608080  0.93233555  0.68967959  1
  Zn  Zn143  1  0.93309836  0.43718396  0.18642218  1
  Zn  Zn144  1  0.93741774  0.43711514  0.68654811  1
  Zn  Zn145  1  0.93747796  0.94348176  0.18803336  1
  Zn  Zn146  1  0.93113365  0.94200571  0.68648114  1
  Zn  Zn147  1  0.06308811  0.06092196  0.31308172  1
  Zn  Zn148  1  0.05315126  0.08105110  0.81802442  1
  Zn  Zn149  1  0.05895176  0.56028972  0.31447815  1
  Zn  Zn150  1  0.06649669  0.56438777  0.81035807  1
  Zn  Zn151  1  0.56031466  0.06521025  0.31382905  1
  Zn  Zn152  1  0.56060899  0.06107235  0.81193867  1
  Zn  Zn153  1  0.56239393  0.56591595  0.31208107  1
  Zn  Zn154  1  0.56035253  0.55945465  0.80874796  1
  Zn  Zn155  1  0.45984819  0.18172822  0.43587401  1
  Zn  Zn156  1  0.43959170  0.18364586  0.93133177  1
  Zn  Zn157  1  0.43928943  0.68635012  0.43306315  1
  Zn  Zn158  1  0.56498409  0.68681245  0.93715017  1
  Zn  Zn159  1  0.94058046  0.19149725  0.44069653  1
  Zn  Zn160  1  0.93730919  0.19265555  0.94032009  1
  Zn  Zn161  1  0.93962524  0.68815665  0.43818982  1
  Zn  Zn162  1  0.93471523  0.68382854  0.94035746  1
  Zn  Zn163  1  0.06126128  0.31157016  0.05867209  1
  Zn  Zn164  1  0.06291861  0.31016277  0.55755514  1
  Zn  Zn165  1  0.06216618  0.80808426  0.06094306  1
  Zn  Zn166  1  0.06525438  0.81052585  0.56543530  1
  Zn  Zn167  1  0.56409267  0.31437222  0.06182892  1
  Zn  Zn168  1  0.56206435  0.31195530  0.55648555  1
  Zn  Zn169  1  0.56137375  0.81468901  0.07185490  1
  Zn  Zn170  1  0.55666128  0.81081161  0.56856364  1
  O  O171  1  0.11754346  0.11855527  0.11942539  1
  O  O172  1  0.11755761  0.12116222  0.62168413  1
  O  O173  1  0.11746813  0.61752547  0.11881565  1
  O  O174  1  0.11820263  0.62062934  0.61821542  1
  O  O175  1  0.61933079  0.12124216  0.11699563  1
  O  O176  1  0.62497176  0.10620045  0.62963466  1
  O  O177  1  0.61339759  0.62808119  0.13434104  1
  O  O178  1  0.62733202  0.61601749  0.61568072  1
  O  O179  1  0.36620449  0.39097860  0.37587235  1
  O  O180  1  0.37946132  0.38137051  0.87794142  1
  O  O181  1  0.37386526  0.88131364  0.38550451  1
  O  O182  1  0.37429292  0.88720632  0.88532736  1
  O  O183  1  0.88723396  0.36982600  0.37063818  1
  O  O184  1  0.89321117  0.36975125  0.86794149  1
  O  O185  1  0.88197029  0.88166666  0.38057520  1
  O  O186  1  0.87241805  0.88477633  0.88085390  1
  O  O187  1  0.26132939  -0.00311126  0.36755649  1
  O  O188  1  0.26317166  -0.00044711  0.87872865  1
  O  O189  1  0.25342895  0.50319471  0.36355656  1
  O  O190  1  0.25688725  0.49039353  0.86036679  1
  O  O191  1  0.76073976  -0.00375165  0.36803648  1
  O  O192  1  0.76192622  0.00182911  0.87632616  1
  O  O193  1  0.75346276  0.51289735  0.38226136  1
  O  O194  1  0.74683587  0.49900055  0.85984693  1
  O  O195  1  0.24115495  0.49546886  0.13477898  1
  O  O196  1  0.24354286  0.49034957  0.63398756  1
  O  O197  1  0.24228995  0.99386921  0.12977602  1
  O  O198  1  0.24003058  0.97943668  0.62927215  1
  O  O199  1  0.74943514  0.48963596  0.12447902  1
  O  O200  1  0.74002038  0.49231594  0.62862948  1
  O  O201  1  0.74324707  0.99820209  0.13246518  1
  O  O202  1  0.74296259  0.98448904  0.62197780  1
  O  O203  1  0.01003807  0.38412372  0.26285341  1
  O  O204  1  0.01267568  0.37478523  0.75229207  1
  O  O205  1  0.00348939  0.86951429  0.25540476  1
  O  O206  1  -0.00182909  0.86649309  0.75234103  1
  O  O207  1  0.49766490  0.36225467  0.23882867  1
  O  O208  1  0.50373199  0.36642469  0.75372637  1
  O  O209  1  0.51014315  0.87526364  0.25131447  1
  O  O210  1  0.50934056  0.86178897  0.74874792  1
  O  O211  1  0.49079916  0.13214057  0.24238356  1
  O  O212  1  0.49174997  0.13112507  0.75072897  1
  O  O213  1  0.49035101  0.62558342  0.23946392  1
  O  O214  1  0.49198298  0.63339491  0.74682494  1
  O  O215  1  1.00178687  0.11918633  0.23442561  1
  O  O216  1  0.98912894  0.13178747  0.73968611  1
  O  O217  1  0.99357483  0.63243506  0.24771733  1
  O  O218  1  0.99252833  0.62902518  0.74482394  1
  O  O219  1  0.36843996  0.25224589  -0.00041728  1
  O  O220  1  0.36804910  0.23674303  0.48575390  1
  O  O221  1  0.36627740  0.75879375  0.00698716  1
  O  O222  1  0.37716664  0.76319903  0.49855343  1
  O  O223  1  0.87619335  0.26124879  0.00537015  1
  O  O224  1  0.86650020  0.24318801  0.51317205  1
  O  O225  1  0.87202466  0.76360379  -0.00298637  1
  O  O226  1  0.86855474  0.75453963  0.50866353  1
  O  O227  1  0.12626549  0.23566574  0.49264760  1
  O  O228  1  0.13259504  0.24418292  0.99348890  1
  O  O229  1  0.11457954  0.73905157  0.48909178  1
  O  O230  1  0.13216543  0.74264530  0.99167975  1
  O  O231  1  0.63306767  0.24446088  0.49350808  1
  O  O232  1  0.62175001  0.24038265  0.98957837  1
  O  O233  1  0.63138911  0.74330954  0.50345586  1
  O  O234  1  0.63199665  0.75645144  1.00241638  1
  O  O235  1  0.49330410  0.24321039  0.12711442  1
  O  O236  1  0.50700191  0.24438822  0.63852371  1
  O  O237  1  0.49214819  0.73717512  0.12725112  1
  O  O238  1  0.49131410  0.74640759  0.63630524  1
  O  O239  1  1.00522681  0.23574477  0.12447727  1
  O  O240  1  0.99169506  0.24395449  0.62459333  1
  O  O241  1  1.00869470  0.73861843  0.13662107  1
  O  O242  1  0.99676337  0.74511156  0.63818393  1
  O  O243  1  0.00802125  0.26440170  0.38084232  1
  O  O244  1  0.01340756  0.25692670  0.87199526  1
  O  O245  1  0.00560603  0.76060436  0.36838578  1
  O  O246  1  0.00714571  0.74356790  0.86422123  1
  O  O247  1  0.50684448  0.25029867  0.36128453  1
  O  O248  1  0.50971483  0.25372914  0.86684974  1
  O  O249  1  0.50421133  0.75341436  0.36907312  1
  O  O250  1  0.49787261  0.74683473  0.86087730  1
  O  O251  1  0.24475112  0.11834116  0.50568591  1
  O  O252  1  0.24137030  0.13802288  1.00712514  1
  O  O253  1  0.23419812  0.62022376  0.49943797  1
  O  O254  1  0.24094226  0.63652122  1.00790996  1
  O  O255  1  0.74634270  0.13546907  0.50814226  1
  O  O256  1  0.73790481  0.12534672  0.99888903  1
  O  O257  1  0.74382931  0.63238237  0.49739840  1
  O  O258  1  0.75406015  0.64133850  1.00369970  1
  O  O259  1  0.25321256  0.36640643  0.00485181  1
  O  O260  1  0.25446055  0.37871941  0.51301315  1
  O  O261  1  0.25981240  0.86570006  0.00699580  1
  O  O262  1  0.25993362  0.87676352  0.49908266  1
  O  O263  1  0.74987662  0.37494192  0.00962627  1
  O  O264  1  0.74621042  0.36743423  0.51027749  1
  O  O265  1  0.76032908  0.86497129  0.00394795  1
  O  O266  1  0.75390028  0.86719889  0.50809038  1
  O  O267  1  0.13065490  0.49492547  0.24502579  1
  O  O268  1  0.13270330  0.49426955  0.74288196  1
  O  O269  1  0.13074767  0.99296558  0.24397621  1
  O  O270  1  0.11043055  0.98831013  0.76573275  1
  O  O271  1  0.63159097  0.49712197  0.26301360  1
  O  O272  1  0.63143817  0.49190889  0.74027329  1
  O  O273  1  0.63023745  0.99621774  0.24776172  1
  O  O274  1  0.61619202  0.98361659  0.74464998  1
  O  O275  1  0.37180673  0.00585658  0.25859999  1
  O  O276  1  0.38033266  0.00567319  0.76440528  1
  O  O277  1  0.36603948  0.50515958  0.25589290  1
  O  O278  1  0.36875174  0.50372772  0.75326652  1
  O  O279  1  0.86703260  0.00464400  0.25889453  1
  O  O280  1  0.87968316  0.00640246  0.76608187  1
  O  O281  1  0.87199682  0.51386363  0.25173237  1
  O  O282  1  0.86379399  0.50900937  0.73901352  1
  O  O283  1  0.12448969  0.36378202  0.36894784  1
  O  O284  1  0.11838264  0.37106974  0.86502767  1
  O  O285  1  0.11744929  0.86984126  0.37183298  1
  O  O286  1  0.12036849  0.86693697  0.88092190  1
  O  O287  1  0.62590867  0.35763244  0.37262780  1
  O  O288  1  0.61840271  0.36698148  0.86739276  1
  O  O289  1  0.62292176  0.87597173  0.36536313  1
  O  O290  1  0.62685675  0.88012479  0.86287292  1
  O  O291  1  0.37995973  0.13092268  0.12764543  1
  O  O292  1  0.37662861  0.11328875  0.64514459  1
  O  O293  1  0.37486433  0.62830096  0.13539010  1
  O  O294  1  0.37469339  0.62333808  0.63574514  1
  O  O295  1  0.89421522  0.11876811  0.11861347  1
  O  O296  1  0.88146090  0.12644008  0.63229356  1
  O  O297  1  0.88676362  0.62367062  0.13502425  1
  O  O298  1  0.88046885  0.63331144  0.63297230  1
  O  O299  1  0.25459378  0.25635402  0.11696208  1
  O  O300  1  0.24583090  0.26485138  0.62642742  1
  O  O301  1  0.25272710  0.75560418  0.11954869  1
  O  O302  1  0.25400472  0.76423996  0.62702855  1
  O  O303  1  0.75010166  0.26303870  0.11854825  1
  O  O304  1  0.75513670  0.25680786  0.61819374  1
  O  O305  1  0.75130464  0.75628709  0.11060135  1
  O  O306  1  0.75224066  0.75741694  0.61723530  1
  O  O307  1  0.24326476  0.24708957  0.37136531  1
  O  O308  1  0.23768262  0.25988237  0.88367931  1
  O  O309  1  0.23440791  0.74890553  0.36959894  1
  O  O310  1  0.24180540  0.75263317  0.88589125  1
  O  O311  1  0.74558473  0.25328293  0.38583381  1
  O  O312  1  0.73743215  0.24916917  0.87562670  1
  O  O313  1  0.74918209  0.74765964  0.39024365  1
  O  O314  1  0.75187433  0.74789509  0.89483013  1
  O  O315  1  0.01456344  0.12815288  0.00782009  1
  O  O316  1  0.00598821  0.12389803  0.51333901  1
  O  O317  1  0.01066433  0.63243474  0.01040791  1
  O  O318  1  0.00688406  0.61791852  0.50443534  1
  O  O319  1  0.50951214  0.11841684  0.00344928  1
  O  O320  1  0.50379522  0.10725686  0.50831631  1
  O  O321  1  0.50266950  0.61985630  0.01454104  1
  O  O322  1  0.51040903  0.62165764  0.50095006  1
  O  O323  1  0.48648516  0.37687497  0.50924880  1
  O  O324  1  0.49141423  0.38130153  0.99544185  1
  O  O325  1  0.48913377  0.88285607  0.50061002  1
  O  O326  1  0.48823638  0.88285662  1.00929760  1
  O  O327  1  1.00288981  0.38234189  0.48708998  1
  O  O328  1  1.00639132  0.37702671  0.98377155  1
  O  O329  1  0.99344489  0.87326954  0.49356367  1
  O  O330  1  0.98762620  0.86798560  0.99820848  1
  O  O331  1  0.48200112  0.50452904  0.37401534  1
  O  O332  1  0.48931454  0.49381034  0.88067326  1
  O  O333  1  0.48592872  0.99931458  0.38253273  1
  O  O334  1  0.49328933  1.00236621  0.88866330  1
  O  O335  1  1.00352029  0.48561434  0.38380319  1
  O  O336  1  1.00529968  0.48675947  0.86697670  1
  O  O337  1  0.99570046  0.98619001  0.37510940  1
  O  O338  1  0.99647757  0.98807107  0.87117300  1
  O  O339  1  0.01427781  0.00687152  0.12643942  1
  O  O340  1  0.00513213  0.00738371  0.62564197  1
  O  O341  1  0.01188799  0.50884371  0.13442675  1
  O  O342  1  0.00724098  0.50345203  0.61852342  1
  O  O343  1  0.50462920  0.00845074  0.11550103  1
  O  O344  1  0.50644690  -0.00525905  0.61938688  1
  O  O345  1  0.49290767  0.51468679  0.11563434  1
  O  O346  1  0.51393538  0.50286293  0.62660404  1
  O  O347  1  0.23823928  0.38309377  0.24258404  1
  O  O348  1  0.24018631  0.37949487  0.74153641  1
  O  O349  1  0.24394226  0.88172055  0.24410808  1
  O  O350  1  0.25282046  0.86960233  0.74565355  1
  O  O351  1  0.74588127  0.37925381  0.23675936  1
  O  O352  1  0.74461594  0.38036443  0.74071151  1
  O  O353  1  0.74352935  0.88500513  0.24805341  1
  O  O354  1  0.73349070  0.86359468  0.74294707  1
  O  O355  1  0.25779523  0.11597662  0.24184833  1
  O  O356  1  0.26238481  0.12855408  0.75045408  1
  O  O357  1  0.25437093  0.61729279  0.24940431  1
  O  O358  1  0.25670834  0.61366729  0.74490696  1
  O  O359  1  0.74843877  0.11318662  0.24572798  1
  O  O360  1  0.76305629  0.12719971  0.75108440  1
  O  O361  1  0.75939559  0.62880392  0.26109273  1
  O  O362  1  0.75698366  0.61626670  0.74728582  1
  O  O363  1  0.36762835  0.12011027  0.37519315  1
  O  O364  1  0.37696727  0.11046799  0.86719635  1
  O  O365  1  0.37085642  0.61882181  0.36242643  1
  O  O366  1  0.37348077  0.60992210  0.86107214  1
  O  O367  1  0.88832518  0.10956063  0.37823794  1
  O  O368  1  0.87749547  0.11527412  0.87020609  1
  O  O369  1  0.86704193  0.63313703  0.36838301  1
  O  O370  1  0.87060424  0.62721755  0.86242827  1
  O  O371  1  0.12440699  0.38124799  0.13175190  1
  O  O372  1  0.13032670  0.37785682  0.62958479  1
  O  O373  1  0.12876739  0.88130815  0.12720867  1
  O  O374  1  0.13651186  0.87263734  0.62819863  1
  O  O375  1  0.63623989  0.37259702  0.12736513  1
  O  O376  1  0.63297121  0.37991757  0.62876109  1
  O  O377  1  0.62502300  0.88580148  0.13662109  1
  O  O378  1  0.62951143  0.88153694  0.63103658  1
  O  O379  1  0.12860265  0.25936826  0.25802621  1
  O  O380  1  0.12435173  0.25771942  0.75669851  1
  O  O381  1  0.11514154  0.75583661  0.25735812  1
  O  O382  1  0.11881456  0.73985820  0.76393202  1
  O  O383  1  0.61524078  0.25006658  0.25498300  1
  O  O384  1  0.61913024  0.25171370  0.75532651  1
  O  O385  1  0.62787046  0.76354862  0.25056092  1
  O  O386  1  0.61237432  0.75883377  0.74591848  1
  O  O387  1  0.37968076  0.24563505  0.24421388  1
  O  O388  1  0.38208831  0.23395691  0.76006005  1
  O  O389  1  0.37308416  0.74191783  0.24380647  1
  O  O390  1  0.38316679  0.74107941  0.75202867  1
  O  O391  1  0.87321857  0.24066418  0.24174473  1
  O  O392  1  0.87473539  0.24163075  0.73852337  1
  O  O393  1  0.88587337  0.74725671  0.25447460  1
  O  O394  1  0.88099609  0.74422416  0.74810725  1
  O  O395  1  0.37172864  0.50735620  0.48295370  1
  O  O396  1  0.37596557  0.49661087  0.99119720  1
  O  O397  1  0.37836387  0.99100318  0.49520656  1
  O  O398  1  0.38001938  0.99500325  0.99283411  1
  O  O399  1  0.88790929  0.50574435  0.50843082  1
  O  O400  1  0.88620171  0.49826690  0.99697748  1
  O  O401  1  0.87697826  0.99143806  0.49499682  1
  O  O402  1  0.87529394  0.99003612  0.98521673  1
  O  O403  1  0.13395130  0.00981714  0.00859529  1
  O  O404  1  0.12072653  0.01479901  0.49606879  1
  O  O405  1  0.13458774  0.50910357  0.01042750  1
  O  O406  1  0.11744141  0.50620649  0.50372306  1
  O  O407  1  0.61874876  0.00420317  0.00344683  1
  O  O408  1  0.61645141  -0.00429343  0.50812200  1
  O  O409  1  0.60976162  0.49411758  -0.00523908  1
  O  O410  1  0.62412797  0.50625606  0.50513456  1
  O  O411  1  0.36756695  0.36970492  0.11684818  1
  O  O412  1  0.35945753  0.37419718  0.62656000  1
  O  O413  1  0.37020334  0.87099422  0.11929597  1
  O  O414  1  0.36201652  0.87623082  0.61512615  1
  O  O415  1  0.86306632  0.37644497  0.12444244  1
  O  O416  1  0.86615561  0.36416834  0.63013998  1
  O  O417  1  0.87801499  0.88524144  0.10922946  1
  O  O418  1  0.86529645  0.86986044  0.62404581  1
  O  O419  1  0.11768390  0.13709537  0.38131007  1
  O  O420  1  0.12508701  0.13578601  0.88387318  1
  O  O421  1  0.12304892  0.63297159  0.38148108  1
  O  O422  1  0.12289289  0.62963931  0.88739911  1
  O  O423  1  0.61773919  0.13953653  0.37837572  1
  O  O424  1  0.62595560  0.13049296  0.88064308  1
  O  O425  1  0.63432481  0.62962071  0.38602395  1
  O  O426  1  0.62635050  0.62080492  0.87221854  1
