# generated using pymatgen
data_V85Zn86O256
_symmetry_space_group_name_H-M   'P 1'
_cell_length_a   16.97338084
_cell_length_b   16.96224755
_cell_length_c   16.95273126
_cell_angle_alpha   90.03163126
_cell_angle_beta   90.10590819
_cell_angle_gamma   89.98455556
_symmetry_Int_Tables_number   1
_chemical_formula_structural   V85Zn86O256
_chemical_formula_sum   'V85 Zn86 O256'
_cell_volume   4880.79544172
_cell_formula_units_Z   1
loop_
 _symmetry_equiv_pos_site_id
 _symmetry_equiv_pos_as_xyz
  1  'x, y, z'
loop_
 _atom_site_type_symbol
 _atom_site_label
 _atom_site_symmetry_multiplicity
 _atom_site_fract_x
 _atom_site_fract_y
 _atom_site_fract_z
 _atom_site_occupancy
  V  V0  1  0.62385236  0.51102382  0.12585355  1
  V  V1  1  0.25090832  0.37853527  0.12733603  1
  V  V2  1  0.50575244  0.11997119  0.62637909  1
  V  V3  1  0.62730313  0.61496699  0.50837075  1
  V  V4  1  0.13888760  0.13372349  0.50439622  1
  V  V5  1  0.04406280  0.18077942  0.17741425  1
  V  V6  1  0.49869851  0.86475254  0.37186450  1
  V  V7  1  0.36880598  0.24772230  0.62091784  1
  V  V8  1  0.63147931  0.74199573  0.37190619  1
  V  V9  1  0.74332055  0.00049465  0.24287395  1
  V  V10  1  0.12364275  0.49630685  0.12564659  1
  V  V11  1  0.37595201  0.86899762  0.50488712  1
  V  V12  1  0.37378677  0.12811614  0.75236723  1
  V  V13  1  0.74244522  0.87766183  0.62172667  1
  V  V14  1  0.38956176  0.74945162  0.12299897  1
  V  V15  1  0.12210674  0.87634719  0.25151072  1
  V  V16  1  0.87200351  -0.00507606  0.87541234  1
  V  V17  1  0.62578292  0.24787271  0.37795754  1
  V  V18  1  0.87606278  0.74844219  0.62409115  1
  V  V19  1  0.50810335  -0.00377582  0.50285039  1
  V  V20  1  -0.00106072  0.87522713  0.37480270  1
  V  V21  1  0.37557646  0.37344421  0.50064472  1
  V  V22  1  0.86864305  0.62377443  0.25660395  1
  V  V23  1  0.37977055  0.50191143  0.37630125  1
  V  V24  1  -0.00568532  0.37929195  0.87585821  1
  V  V25  1  0.12508364  0.74761107  0.37297214  1
  V  V26  1  0.75028239  0.61762842  0.88317104  1
  V  V27  1  0.74850244  0.50254748  0.26033564  1
  V  V28  1  0.49999140  0.50942395  0.00088688  1
  V  V29  1  0.24803134  0.12653764  0.87768588  1
  V  V30  1  -0.00414692  0.62315572  0.13146641  1
  V  V31  1  0.86161783  0.24491054  0.11553167  1
  V  V32  1  0.62422326  0.37570486  0.24828448  1
  V  V33  1  0.62977009  0.12447315  0.00363160  1
  V  V34  1  0.24689142  0.00225798  0.25101089  1
  V  V35  1  0.87100896  0.13215992  0.24686746  1
  V  V36  1  0.24419979  0.75398539  0.00214611  1
  V  V37  1  0.12733364  -0.00399377  0.62624854  1
  V  V38  1  0.25079300  0.50163504  0.24482059  1
  V  V39  1  0.87503511  0.87429945  0.49958445  1
  V  V40  1  0.74216600  0.50189558  0.73472624  1
  V  V41  1  0.62800042  0.25350804  0.87875822  1
  V  V42  1  -0.02896200  0.27940398  0.72857987  1
  V  V43  1  0.61883634  0.87532032  0.24700209  1
  V  V44  1  0.49718866  0.38120964  0.87673323  1
  V  V45  1  0.63191096  0.75383199  0.87446494  1
  V  V46  1  0.11574780  0.61804927  0.49277488  1
  V  V47  1  0.24582525  0.24954485  -0.00056314  1
  V  V48  1  0.87753354  0.11819467  0.74584697  1
  V  V49  1  0.37457378  -0.00171529  0.37415186  1
  V  V50  1  0.87442020  0.00162236  0.37320380  1
  V  V51  1  0.74617884  0.86987390  0.11925361  1
  V  V52  1  0.38688682  0.62861776  0.23830263  1
  V  V53  1  0.25075299  -0.00118738  0.75264150  1
  V  V54  1  0.12609930  0.86611708  0.75451257  1
  V  V55  1  0.12027171  0.63148923  -0.00415764  1
  V  V56  1  0.49958469  0.00018888  -0.00075276  1
  V  V57  1  0.25351018  0.74666274  0.49874566  1
  V  V58  1  0.50015174  0.25147844  0.75026191  1
  V  V59  1  0.25290806  0.87001498  0.62619661  1
  V  V60  1  0.00209202  0.00054317  0.50160845  1
  V  V61  1  -0.00272680  0.00494385  0.00058422  1
  V  V62  1  0.75264872  0.13359992  0.87685051  1
  V  V63  1  0.12105246  0.50008544  0.62123932  1
  V  V64  1  0.12152919  0.25188775  0.87114259  1
  V  V65  1  0.86332875  0.37195302  -0.00593958  1
  V  V66  1  0.88680432  0.49321822  0.38564585  1
  V  V67  1  0.37833755  0.25019144  0.12503834  1
  V  V68  1  0.00165752  0.86622677  0.87582711  1
  V  V69  1  0.48957906  0.74727340  0.74159534  1
  V  V70  1  0.73925920  -0.00036152  0.74517356  1
  V  V71  1  0.87241730  0.62107012  0.75147243  1
  V  V72  1  -0.00246588  0.74939333  0.24797370  1
  V  V73  1  0.25149270  0.38014397  0.62306392  1
  V  V74  1  0.11638748  -0.00175004  0.12711832  1
  V  V75  1  0.50329318  0.37712982  0.38188415  1
  V  V76  1  0.62482566  0.38028576  0.73744636  1
  V  V77  1  -0.01056842  0.50152914  -0.00075107  1
  V  V78  1  0.13319582  0.38119766  0.75368579  1
  V  V79  1  0.75703758  0.26154812  0.51363522  1
  V  V80  1  0.48880955  0.61462583  0.62218741  1
  V  V81  1  0.25263540  0.62515266  0.37141014  1
  V  V82  1  0.00300172  0.12395827  0.63110291  1
  V  V83  1  0.75158649  0.12427783  0.38059134  1
  V  V84  1  0.50334005  0.12029750  0.12636749  1
  Zn  Zn85  1  0.37389741  0.37889321  -0.00305267  1
  Zn  Zn86  1  0.25825434  0.13545326  0.38580725  1
  Zn  Zn87  1  0.38060569  0.12301524  0.25285940  1
  Zn  Zn88  1  0.50034698  0.24860991  0.25082662  1
  Zn  Zn89  1  0.18075327  0.69366712  0.83605034  1
  Zn  Zn90  1  0.62089563  0.87459577  0.74400774  1
  Zn  Zn91  1  0.37538094  -0.00023011  0.87774358  1
  Zn  Zn92  1  0.00261986  0.74229516  0.75139635  1
  Zn  Zn93  1  0.32200711  0.57473757  0.81601451  1
  Zn  Zn94  1  0.75110756  0.74660065  0.49556411  1
  Zn  Zn95  1  -0.01622381  0.33670699  0.36441224  1
  Zn  Zn96  1  0.74492680  0.37433958  0.11911567  1
  Zn  Zn97  1  0.86938950  0.87045005  -0.00055812  1
  Zn  Zn98  1  0.62684513  0.63510263  0.00567589  1
  Zn  Zn99  1  0.11818015  0.12733736  0.00005878  1
  Zn  Zn100  1  -0.00498686  0.61822696  0.62081734  1
  Zn  Zn101  1  0.12520829  0.26487444  0.37269609  1
  Zn  Zn102  1  0.86570208  0.74433461  0.11953238  1
  Zn  Zn103  1  0.37100109  0.87936209  0.00114549  1
  Zn  Zn104  1  0.62687500  0.12142668  0.50597199  1
  Zn  Zn105  1  0.50028454  0.87647522  0.87051299  1
  Zn  Zn106  1  0.25115128  0.87498626  0.12758563  1
  Zn  Zn107  1  0.21911120  0.21232061  0.22307110  1
  Zn  Zn108  1  0.18752160  0.19358982  0.69060744  1
  Zn  Zn109  1  0.18932245  0.68516678  0.18215865  1
  Zn  Zn110  1  0.20032324  0.67569361  0.67202228  1
  Zn  Zn111  1  0.68650848  0.18924291  0.18864789  1
  Zn  Zn112  1  0.68613524  0.18821308  0.69139100  1
  Zn  Zn113  1  0.68451063  0.68986740  0.19350524  1
  Zn  Zn114  1  0.68544687  0.69010134  0.68668643  1
  Zn  Zn115  1  0.31495617  0.31673392  0.31275639  1
  Zn  Zn116  1  0.31434720  0.41443169  0.81510589  1
  Zn  Zn117  1  0.31428346  0.81214177  0.30763627  1
  Zn  Zn118  1  0.31821439  0.81319517  0.81897676  1
  Zn  Zn119  1  0.80796299  0.31279928  0.31379114  1
  Zn  Zn120  1  0.81680932  0.31994434  0.79418076  1
  Zn  Zn121  1  0.81074095  0.81348831  0.30761863  1
  Zn  Zn122  1  0.81027884  0.81000987  0.80862948  1
  Zn  Zn123  1  0.19360895  0.43563680  0.43973339  1
  Zn  Zn124  1  0.18358615  0.44293358  0.94270831  1
  Zn  Zn125  1  0.18835043  0.93846978  0.43789706  1
  Zn  Zn126  1  0.18603472  0.93698437  0.93954509  1
  Zn  Zn127  1  0.69273399  0.43730161  0.44249678  1
  Zn  Zn128  1  0.68183695  0.44290638  0.93244964  1
  Zn  Zn129  1  0.68804830  0.93395880  0.43285940  1
  Zn  Zn130  1  0.68242435  0.94199509  0.93475007  1
  Zn  Zn131  1  0.31088584  0.06431608  0.06637702  1
  Zn  Zn132  1  0.31877849  0.05507718  0.56600863  1
  Zn  Zn133  1  0.32711767  0.58258229  0.00696336  1
  Zn  Zn134  1  0.31169855  0.55732467  0.56179429  1
  Zn  Zn135  1  0.81006808  0.05889223  0.06184742  1
  Zn  Zn136  1  0.81556655  0.06419727  0.56295027  1
  Zn  Zn137  1  0.80912599  0.55823401  0.06788502  1
  Zn  Zn138  1  0.80758581  0.56529664  0.55856067  1
  Zn  Zn139  1  0.43975505  0.43926733  0.18475745  1
  Zn  Zn140  1  0.44170706  0.44384251  0.68709483  1
  Zn  Zn141  1  0.43777043  0.93678065  0.18482484  1
  Zn  Zn142  1  0.43741563  0.93626136  0.68831642  1
  Zn  Zn143  1  0.93078080  0.42941374  0.18923350  1
  Zn  Zn144  1  0.93470174  0.44589123  0.68622069  1
  Zn  Zn145  1  0.93214510  0.93991748  0.18727826  1
  Zn  Zn146  1  0.93716201  0.93406030  0.68827831  1
  Zn  Zn147  1  0.05722939  0.07974819  0.32653632  1
  Zn  Zn148  1  0.06414524  0.05634387  0.81538059  1
  Zn  Zn149  1  0.06830804  0.45607075  0.30902074  1
  Zn  Zn150  1  0.05883636  0.55588974  0.80915487  1
  Zn  Zn151  1  0.56163167  0.05993449  0.31427650  1
  Zn  Zn152  1  0.56291841  0.06470682  0.81590063  1
  Zn  Zn153  1  0.56122254  0.56239953  0.31396431  1
  Zn  Zn154  1  0.56027145  0.56701169  0.81059829  1
  Zn  Zn155  1  0.44013930  0.18676080  0.43966177  1
  Zn  Zn156  1  0.43781323  0.19051017  0.93849304  1
  Zn  Zn157  1  0.44113845  0.68370827  0.43937877  1
  Zn  Zn158  1  0.44277350  0.69679449  0.93315585  1
  Zn  Zn159  1  0.95622894  0.21378886  0.45943105  1
  Zn  Zn160  1  0.93630688  0.19140258  0.93109035  1
  Zn  Zn161  1  0.93468571  0.68457156  0.43344777  1
  Zn  Zn162  1  0.92917046  0.68940328  0.94009700  1
  Zn  Zn163  1  0.06085973  0.31878120  0.06018556  1
  Zn  Zn164  1  0.06391938  0.32023012  0.55497195  1
  Zn  Zn165  1  0.05618020  0.81416994  0.06270243  1
  Zn  Zn166  1  0.06310410  0.80785183  0.56295705  1
  Zn  Zn167  1  0.56337662  0.31248674  0.06061891  1
  Zn  Zn168  1  0.56171036  0.30729234  0.55998382  1
  Zn  Zn169  1  0.56713591  0.81513500  0.05987944  1
  Zn  Zn170  1  0.56207780  0.80458426  0.56025879  1
  O  O171  1  0.10898776  0.11986019  0.12366612  1
  O  O172  1  0.12458025  0.11763833  0.62182988  1
  O  O173  1  0.11383022  0.61527437  0.11961360  1
  O  O174  1  0.12249941  0.61594602  0.61285409  1
  O  O175  1  0.61788428  0.13416007  0.11443137  1
  O  O176  1  0.60963390  0.12739531  0.62677807  1
  O  O177  1  0.62978350  0.61556321  0.12474377  1
  O  O178  1  0.61985822  0.62962955  0.61189041  1
  O  O179  1  0.38239638  0.37949438  0.38018205  1
  O  O180  1  0.39502835  0.36063242  0.88012328  1
  O  O181  1  0.38195951  0.87904450  0.37894974  1
  O  O182  1  0.38311967  0.88158474  0.88283792  1
  O  O183  1  0.87242784  0.38925367  0.36874094  1
  O  O184  1  0.88453067  0.36912627  0.87963088  1
  O  O185  1  0.87918867  0.88085493  0.37825948  1
  O  O186  1  0.87810985  0.88369527  0.87155671  1
  O  O187  1  0.26267741  -0.00265246  0.37037764  1
  O  O188  1  0.24948526  0.00861627  0.86971275  1
  O  O189  1  0.26266245  0.50261826  0.36417581  1
  O  O190  1  0.26407421  0.48834530  0.88528211  1
  O  O191  1  0.75478682  0.00458438  0.36535722  1
  O  O192  1  0.75594576  0.00634909  0.86651560  1
  O  O193  1  0.75278985  0.49764321  0.36291650  1
  O  O194  1  0.74456253  0.51606604  0.86582748  1
  O  O195  1  0.24238053  0.49408325  0.12749326  1
  O  O196  1  0.23809221  0.49074437  0.62148492  1
  O  O197  1  0.23454322  1.00016792  0.13253287  1
  O  O198  1  0.24644617  0.99024697  0.63274935  1
  O  O199  1  0.73973511  0.49381173  0.13586139  1
  O  O200  1  0.74813254  0.50233268  0.63600754  1
  O  O201  1  0.74908377  0.99375620  0.13804083  1
  O  O202  1  0.75730769  0.99159859  0.63415160  1
  O  O203  1  0.00029629  0.37988354  0.25885490  1
  O  O204  1  0.01321965  0.38209219  0.76011691  1
  O  O205  1  0.00162167  0.87065320  0.25567062  1
  O  O206  1  0.00897618  0.87339079  0.75688716  1
  O  O207  1  0.50987714  0.37428993  0.26030566  1
  O  O208  1  0.50777776  0.37077737  0.75741209  1
  O  O209  1  0.50914716  0.88288966  0.25893002  1
  O  O210  1  0.50273000  0.86422395  0.74727478  1
  O  O211  1  0.50144578  0.12671989  0.24135886  1
  O  O212  1  0.49309448  0.12737349  0.74473823  1
  O  O213  1  0.48544790  0.61959439  0.24898824  1
  O  O214  1  0.50477650  0.63546364  0.73533359  1
  O  O215  1  0.98894670  0.11705642  0.24004884  1
  O  O216  1  0.99614812  0.11508157  0.74053325  1
  O  O217  1  0.99038959  0.63003229  0.23841014  1
  O  O218  1  0.98816380  0.62306722  0.74673324  1
  O  O219  1  0.36535812  0.24982877  0.01090085  1
  O  O220  1  0.38034384  0.26173485  0.50604762  1
  O  O221  1  0.36687593  0.75529912  0.01232803  1
  O  O222  1  0.36772898  0.76064628  0.48930935  1
  O  O223  1  0.87641851  0.25778100  0.00436908  1
  O  O224  1  0.85094087  0.22894532  0.50039092  1
  O  O225  1  0.87706921  0.75909953  0.00807068  1
  O  O226  1  0.87271302  0.75498352  0.50436029  1
  O  O227  1  0.13439385  0.23424300  0.50360833  1
  O  O228  1  0.12819064  0.24927983  0.99438747  1
  O  O229  1  0.13317402  0.74428684  0.49220132  1
  O  O230  1  0.12687429  0.74230170  1.00687696  1
  O  O231  1  0.63347037  0.24555496  0.49032791  1
  O  O232  1  0.62306224  0.24172550  0.98633726  1
  O  O233  1  0.62767898  0.74693042  0.48524054  1
  O  O234  1  0.61999960  0.75030153  0.98100440  1
  O  O235  1  0.49352790  0.24169999  0.12367198  1
  O  O236  1  0.49047646  0.24174817  0.62936993  1
  O  O237  1  0.48858603  0.75306170  0.11837223  1
  O  O238  1  0.50248341  0.74410394  0.63661291  1
  O  O239  1  0.98891193  0.24444870  0.11753194  1
  O  O240  1  1.01054808  0.23992407  0.63871234  1
  O  O241  1  0.99881877  0.74157926  0.13412239  1
  O  O242  1  0.98656003  0.74938206  0.62756806  1
  O  O243  1  0.01855225  0.21894458  0.36368160  1
  O  O244  1  0.00412096  0.26289936  0.86393437  1
  O  O245  1  0.00407892  0.75446691  0.36633663  1
  O  O246  1  -0.00668834  0.76329324  0.87236363  1
  O  O247  1  0.50896637  0.25610544  0.37417579  1
  O  O248  1  0.51023165  0.25352669  0.86899331  1
  O  O249  1  0.50620792  0.76136533  0.37774958  1
  O  O250  1  0.51319828  0.75033763  0.86174358  1
  O  O251  1  0.24308420  0.11907356  0.50672026  1
  O  O252  1  0.24388664  0.13375074  0.99904928  1
  O  O253  1  0.24759746  0.63195721  0.49224190  1
  O  O254  1  0.22882689  0.63774552  1.00971758  1
  O  O255  1  0.74348261  0.11414030  0.48780470  1
  O  O256  1  0.74258790  0.11932095  0.98872976  1
  O  O257  1  0.73287515  0.63072724  0.50131146  1
  O  O258  1  0.74880530  0.61827497  0.98702187  1
  O  O259  1  0.25000152  0.36540170  0.01250775  1
  O  O260  1  0.26045662  0.37280384  0.51253008  1
  O  O261  1  0.24758735  0.87074934  0.00841172  1
  O  O262  1  0.25752735  0.86787834  0.50260235  1
  O  O263  1  0.76088044  0.38290500  -0.00597735  1
  O  O264  1  0.75290813  0.36173056  0.50102923  1
  O  O265  1  0.74331927  0.88673794  0.01751897  1
  O  O266  1  0.75922176  0.87620227  0.50469346  1
  O  O267  1  0.14229816  0.50926622  0.24012146  1
  O  O268  1  0.12572280  0.48859098  0.74110017  1
  O  O269  1  0.12790062  0.99934348  0.24716957  1
  O  O270  1  0.13203010  0.98976836  0.74416446  1
  O  O271  1  0.62821060  0.49526035  0.24567866  1
  O  O272  1  0.63324510  0.49546069  0.75063679  1
  O  O273  1  0.63300132  0.98856325  0.25863766  1
  O  O274  1  0.63629645  0.99908199  0.75305501  1
  O  O275  1  0.36752549  -0.00280445  0.25787467  1
  O  O276  1  0.36881038  0.01227678  0.74959954  1
  O  O277  1  0.36725588  0.50668202  0.25026912  1
  O  O278  1  0.37521683  0.49250450  0.75889216  1
  O  O279  1  0.86597956  0.01077233  0.25311145  1
  O  O280  1  0.86882947  0.00408750  0.75720573  1
  O  O281  1  0.86423877  0.50672501  0.25327752  1
  O  O282  1  0.86056334  0.51377896  0.74537807  1
  O  O283  1  0.12094261  0.37948486  0.37771091  1
  O  O284  1  0.11947405  0.37225348  0.86918539  1
  O  O285  1  0.11813941  0.86992776  0.37080606  1
  O  O286  1  0.11404436  0.88287873  0.86506374  1
  O  O287  1  0.61918683  0.36964657  0.37221156  1
  O  O288  1  0.61799589  0.36774722  0.86902984  1
  O  O289  1  0.61724763  0.86588851  0.36869828  1
  O  O290  1  0.62484359  0.86556311  0.86970776  1
  O  O291  1  0.38395131  0.13303878  0.12769689  1
  O  O292  1  0.38223798  0.13045400  0.62932111  1
  O  O293  1  0.37111790  0.64153683  0.12593857  1
  O  O294  1  0.38886344  0.62293767  0.61390423  1
  O  O295  1  0.86772803  0.13155627  0.13101548  1
  O  O296  1  0.88835463  0.11860387  0.63465609  1
  O  O297  1  0.87939578  0.62342606  0.13436573  1
  O  O298  1  0.87432069  0.63216731  0.62905497  1
  O  O299  1  0.25655402  0.25731964  0.12225533  1
  O  O300  1  0.26487976  0.25489307  0.62813496  1
  O  O301  1  0.25252998  0.75506887  0.11637728  1
  O  O302  1  0.24779681  0.75568516  0.60633929  1
  O  O303  1  0.75789555  0.25368610  0.12354902  1
  O  O304  1  0.74265598  0.24393285  0.61217632  1
  O  O305  1  0.74634457  0.76595523  0.13076681  1
  O  O306  1  0.76121194  0.75928112  0.62352599  1
  O  O307  1  0.23548933  0.24087247  0.34048228  1
  O  O308  1  0.24162826  0.24540449  0.89128591  1
  O  O309  1  0.24623138  0.74775284  0.38081599  1
  O  O310  1  0.24749538  0.76361950  0.89560408  1
  O  O311  1  0.74262053  0.24076493  0.38103908  1
  O  O312  1  0.74558417  0.23842928  0.86369093  1
  O  O313  1  0.73494659  0.75474307  0.37376266  1
  O  O314  1  0.73785754  0.74078682  0.86707900  1
  O  O315  1  -0.00235223  0.10909073  -0.01188895  1
  O  O316  1  0.01386315  0.12118492  0.51661589  1
  O  O317  1  -0.00180418  0.61890232  0.01063256  1
  O  O318  1  0.01357233  0.63271439  0.50001854  1
  O  O319  1  0.50693026  0.12035725  0.00577518  1
  O  O320  1  0.50125182  0.11427227  0.50798744  1
  O  O321  1  0.50771545  0.61170507  -0.00334817  1
  O  O322  1  0.51177168  0.63393906  0.51308532  1
  O  O323  1  0.49579707  0.37232096  0.48833176  1
  O  O324  1  0.50372918  0.38330978  0.99154158  1
  O  O325  1  0.49317107  0.87772273  0.49479941  1
  O  O326  1  0.50508570  0.89372919  1.00266441  1
  O  O327  1  0.98512796  0.32637696  0.48040334  1
  O  O328  1  0.99048856  0.38261791  0.99312942  1
  O  O329  1  0.99504937  0.87888500  0.49435683  1
  O  O330  1  0.99983245  0.88673995  0.99080360  1
  O  O331  1  0.48752644  0.49163925  0.36924678  1
  O  O332  1  0.51140835  0.49284609  0.88875741  1
  O  O333  1  0.49004745  0.99111298  0.38193203  1
  O  O334  1  0.49768391  1.00234393  0.88465844  1
  O  O335  1  0.98539644  0.50599101  0.37668424  1
  O  O336  1  1.00116780  0.48887968  0.88537742  1
  O  O337  1  0.99392577  0.99704794  0.38194777  1
  O  O338  1  0.98997177  0.99061304  0.87900935  1
  O  O339  1  0.00764615  -0.00642371  0.11660474  1
  O  O340  1  0.00721033  0.00359283  0.62130042  1
  O  O341  1  0.00450740  0.50515732  0.12111675  1
  O  O342  1  0.01377617  0.49761173  0.62299020  1
  O  O343  1  0.49727241  0.01432663  0.11906607  1
  O  O344  1  0.49203815  0.00746510  0.61478324  1
  O  O345  1  0.51381766  0.49368644  0.11460946  1
  O  O346  1  0.50317529  0.51558633  0.62392341  1
  O  O347  1  0.25563403  0.38490020  0.23589996  1
  O  O348  1  0.24331705  0.36829515  0.73495761  1
  O  O349  1  0.24118817  0.88650910  0.25082691  1
  O  O350  1  0.24465883  0.87625300  0.74777596  1
  O  O351  1  0.73559600  0.38105523  0.25082174  1
  O  O352  1  0.73878611  0.39457454  0.75745729  1
  O  O353  1  0.74049130  0.88296934  0.24405328  1
  O  O354  1  0.74968450  0.88374195  0.73983644  1
  O  O355  1  0.25661128  0.10770794  0.25075823  1
  O  O356  1  0.25672289  0.12242616  0.75503505  1
  O  O357  1  0.25911605  0.61913234  0.25323793  1
  O  O358  1  0.24420387  0.63780774  0.76278217  1
  O  O359  1  0.75173961  0.11894449  0.25780809  1
  O  O360  1  0.75748152  0.11651683  0.75402691  1
  O  O361  1  0.75741575  0.61652914  0.24585717  1
  O  O362  1  0.75083677  0.61663408  0.75401182  1
  O  O363  1  0.37506914  0.11477688  0.37535931  1
  O  O364  1  0.36741913  0.12753239  0.86691988  1
  O  O365  1  0.37299101  0.61791053  0.36830626  1
  O  O366  1  0.36382045  0.62632095  0.90716365  1
  O  O367  1  0.86402654  0.11862132  0.36462392  1
  O  O368  1  0.86877581  0.11059277  0.87284913  1
  O  O369  1  0.87549340  0.61630056  0.36223510  1
  O  O370  1  0.85795296  0.63232137  0.86618026  1
  O  O371  1  0.13115485  0.38909407  0.11989258  1
  O  O372  1  0.13263685  0.37886109  0.62666824  1
  O  O373  1  0.12168897  0.88376539  0.13518402  1
  O  O374  1  0.13107209  0.87708992  0.63265873  1
  O  O375  1  0.62545274  0.37828095  0.13462431  1
  O  O376  1  0.61731212  0.36775872  0.63884930  1
  O  O377  1  0.63241000  0.87209139  0.13676070  1
  O  O378  1  0.63934726  0.86997204  0.62102455  1
  O  O379  1  0.10751605  0.23924315  0.22731430  1
  O  O380  1  0.12132815  0.26488472  0.75524987  1
  O  O381  1  0.11892627  0.75422444  0.25420970  1
  O  O382  1  0.12362362  0.75913061  0.74934772  1
  O  O383  1  0.62531092  0.25832114  0.26146386  1
  O  O384  1  0.62028776  0.25592769  0.76022603  1
  O  O385  1  0.62314480  0.75842723  0.26299278  1
  O  O386  1  0.61926788  0.75270981  0.75876753  1
  O  O387  1  0.37839508  0.24836882  0.23754044  1
  O  O388  1  0.38313306  0.23616068  0.74007713  1
  O  O389  1  0.37057044  0.74261674  0.23487292  1
  O  O390  1  0.39106949  0.75044901  0.75499199  1
  O  O391  1  0.86622002  0.23768894  0.24153726  1
  O  O392  1  0.88223252  0.22179117  0.77129582  1
  O  O393  1  0.87955987  0.74171311  0.24791898  1
  O  O394  1  0.87415280  0.73869032  0.74111774  1
  O  O395  1  0.37073159  0.48597218  0.48824611  1
  O  O396  1  0.39700039  0.49342768  1.01521656  1
  O  O397  1  0.38116064  0.98758269  0.49189702  1
  O  O398  1  0.38414245  1.00290476  1.00143548  1
  O  O399  1  0.86928980  0.50644781  0.48363207  1
  O  O400  1  0.88455679  0.49219529  1.00657206  1
  O  O401  1  0.88347675  0.99518584  0.49412507  1
  O  O402  1  0.87905774  0.99261920  0.99275800  1
  O  O403  1  0.11652213  0.00333099  0.01072171  1
  O  O404  1  0.12089232  0.00088966  0.51093525  1
  O  O405  1  0.11073526  0.50766498  0.00856332  1
  O  O406  1  0.13184748  0.51071942  0.50532190  1
  O  O407  1  0.61687700  0.01728266  -0.00598630  1
  O  O408  1  0.61062240  -0.00249408  0.49279024  1
  O  O409  1  0.61938112  0.50170275  0.01064577  1
  O  O410  1  0.62519537  0.51681296  0.49023418  1
  O  O411  1  0.36907408  0.36751268  0.12256078  1
  O  O412  1  0.37251028  0.36972721  0.61803652  1
  O  O413  1  0.37265008  0.86413786  0.12515480  1
  O  O414  1  0.36820608  0.87791428  0.61316362  1
  O  O415  1  0.86964347  0.36474652  0.11315692  1
  O  O416  1  0.88955726  0.34212124  0.69309058  1
  O  O417  1  0.85573191  0.87583525  0.12893006  1
  O  O418  1  0.86942803  0.86851046  0.61860912  1
  O  O419  1  0.13797025  0.11138127  0.39959351  1
  O  O420  1  0.13010523  0.13260886  0.87351656  1
  O  O421  1  0.13670723  0.63249403  0.38145596  1
  O  O422  1  0.10752466  0.62406746  0.89070959  1
  O  O423  1  0.63145324  0.13283476  0.37519005  1
  O  O424  1  0.63394829  0.13393020  0.87906668  1
  O  O425  1  0.61457092  0.63919567  0.38094507  1
  O  O426  1  0.63630418  0.63465281  0.87501771  1
