# generated using pymatgen
data_V85Zn86O256
_symmetry_space_group_name_H-M   'P 1'
_cell_length_a   16.92601185
_cell_length_b   16.91473088
_cell_length_c   16.92841924
_cell_angle_alpha   89.97760223
_cell_angle_beta   90.01686571
_cell_angle_gamma   89.99845296
_symmetry_Int_Tables_number   1
_chemical_formula_structural   V85Zn86O256
_chemical_formula_sum   'V85 Zn86 O256'
_cell_volume   4846.58782558
_cell_formula_units_Z   1
loop_
 _symmetry_equiv_pos_site_id
 _symmetry_equiv_pos_as_xyz
  1  'x, y, z'
loop_
 _atom_site_type_symbol
 _atom_site_label
 _atom_site_symmetry_multiplicity
 _atom_site_fract_x
 _atom_site_fract_y
 _atom_site_fract_z
 _atom_site_occupancy
  V  V0  1  0.85697901  0.50844923  0.35888799  1
  V  V1  1  0.13087826  0.24727689  0.37400072  1
  V  V2  1  0.62333226  0.25446558  0.86269021  1
  V  V3  1  0.62851284  0.50948969  0.13154661  1
  V  V4  1  0.36728119  0.37406142  0.50499819  1
  V  V5  1  0.12832876  0.11581926  0.49366444  1
  V  V6  1  0.62129350  0.74717530  0.88109709  1
  V  V7  1  0.62611256  0.62750673  0.50034641  1
  V  V8  1  0.74841968  0.49462184  0.75287866  1
  V  V9  1  0.50322851  0.37144296  0.86439577  1
  V  V10  1  0.65455980  0.73479616  0.35397759  1
  V  V11  1  0.12943647  0.25167722  0.87653608  1
  V  V12  1  0.00101163  0.11902023  0.61639231  1
  V  V13  1  0.36996773  0.50064298  0.37182109  1
  V  V14  1  0.12662981  0.74804274  0.37596286  1
  V  V15  1  0.12684119  0.49531441  0.62227218  1
  V  V16  1  0.87484418  0.25111409  0.62190616  1
  V  V17  1  0.75121075  0.87821863  0.63113255  1
  V  V18  1  0.37329345  0.62980025  0.74323095  1
  V  V19  1  0.62477504  0.00284971  0.61975516  1
  V  V20  1  0.74915960  0.74875554  0.50711100  1
  V  V21  1  0.25832261  0.87222350  0.62956997  1
  V  V22  1  0.75080103  0.37898278  0.13440873  1
  V  V23  1  0.25421813  0.25276565  0.01388188  1
  V  V24  1  0.87649820  0.12718885  0.24982353  1
  V  V25  1  0.49703931  0.37255569  0.37395502  1
  V  V26  1  0.62398986  0.49520787  0.62832875  1
  V  V27  1  0.75116796  -0.00020066  0.75331407  1
  V  V28  1  0.37452235  0.49830480  0.87526756  1
  V  V29  1  0.49828356  0.13102683  0.62909765  1
  V  V30  1  0.87831312  -0.00201939  0.37924313  1
  V  V31  1  0.12923806  0.37245442  0.74390087  1
  V  V32  1  0.12781180  0.88020471  0.24783117  1
  V  V33  1  0.36079858  0.00362989  0.37266736  1
  V  V34  1  0.88232212  0.00139989  0.88495535  1
  V  V35  1  -0.00576727  0.49843475  0.49713972  1
  V  V36  1  0.62260321  0.87743963  0.24824403  1
  V  V37  1  0.13196271  0.37871965  0.24659362  1
  V  V38  1  0.00132308  0.61808922  0.10538459  1
  V  V39  1  0.74250917  0.12358055  0.37707185  1
  V  V40  1  0.87338795  0.62095200  0.75594816  1
  V  V41  1  0.50003779  0.87133872  0.37512927  1
  V  V42  1  0.87745469  0.12374723  0.75051664  1
  V  V43  1  0.12629857  0.62416535  0.50127998  1
  V  V44  1  0.00144996  0.25079489  0.74865213  1
  V  V45  1  0.75155337  0.12737925  0.87707949  1
  V  V46  1  0.24828875  0.24703582  0.50824494  1
  V  V47  1  0.87753907  0.87612706  0.50100867  1
  V  V48  1  0.24751626  -0.00145073  0.75213633  1
  V  V49  1  0.25515917  0.74185413  0.00803418  1
  V  V50  1  0.37170561  0.62706600  0.23962952  1
  V  V51  1  0.48962845  0.75335804  0.23855266  1
  V  V52  1  0.62135547  0.24745723  0.37753696  1
  V  V53  1  0.50402186  0.00687956  0.49480751  1
  V  V54  1  0.75128871  0.25570056  0.00199431  1
  V  V55  1  0.26032453  0.74908085  0.50422661  1
  V  V56  1  0.74733951  0.62204670  0.88404149  1
  V  V57  1  0.74716525  0.24761565  0.49918141  1
  V  V58  1  0.88159207  0.87471962  0.00501599  1
  V  V59  1  0.50703850  0.50504809  -0.00045407  1
  V  V60  1  0.61974841  0.87674517  0.75960805  1
  V  V61  1  0.49486742  0.75493408  0.74840198  1
  V  V62  1  0.00136822  0.25194564  0.24894104  1
  V  V63  1  0.49940100  0.50191793  0.49942697  1
  V  V64  1  0.01100836  0.87869190  0.87680014  1
  V  V65  1  0.12020414  0.11811963  0.00001003  1
  V  V66  1  0.62226278  0.12841976  0.00303158  1
  V  V67  1  -0.00137931  0.87424244  0.37719169  1
  V  V68  1  0.25859477  0.88138586  0.12639732  1
  V  V69  1  -0.00004610  0.62521935  0.62709581  1
  V  V70  1  0.00045903  0.73713541  0.24913704  1
  V  V71  1  0.35945657  0.12597552  0.24760862  1
  V  V72  1  0.12785664  0.49941928  0.10641602  1
  V  V73  1  0.50040863  -0.00593431  -0.00168552  1
  V  V74  1  0.37512700  0.37271955  0.01228654  1
  V  V75  1  0.38050049  -0.00496361  0.87341944  1
  V  V76  1  0.25258632  0.49622970  0.74305493  1
  V  V77  1  0.00944383  0.75475425  0.75385296  1
  V  V78  1  0.87625679  0.74474207  0.12316859  1
  V  V79  1  -0.00555933  0.38438864  0.88047459  1
  V  V80  1  0.87717823  0.75203877  0.62996778  1
  V  V81  1  0.74994539  -0.00203194  0.24891290  1
  V  V82  1  0.12245968  -0.00831503  0.62697315  1
  V  V83  1  0.12292051  0.74124241  0.88511581  1
  V  V84  1  0.49619294  0.24760146  0.24031079  1
  Zn  Zn85  1  0.74312280  0.37088903  0.62880597  1
  Zn  Zn86  1  0.24535657  0.62215449  0.87758928  1
  Zn  Zn87  1  0.74878100  0.75045941  0.00037759  1
  Zn  Zn88  1  0.24959827  0.49848575  0.24166431  1
  Zn  Zn89  1  0.87207252  0.37776727  0.49721335  1
  Zn  Zn90  1  0.38016135  0.86952685  -0.00088164  1
  Zn  Zn91  1  0.87635822  0.38800867  0.00260875  1
  Zn  Zn92  1  0.12070206  -0.00317875  0.12330176  1
  Zn  Zn93  1  0.37754414  0.13119416  0.75492122  1
  Zn  Zn94  1  -0.00260913  0.37732391  0.37390530  1
  Zn  Zn95  1  0.62688668  0.38010971  0.25344435  1
  Zn  Zn96  1  0.75223131  0.87333505  0.12396003  1
  Zn  Zn97  1  0.49495992  0.63228113  0.62187801  1
  Zn  Zn98  1  0.37893915  0.87348013  0.50252553  1
  Zn  Zn99  1  0.37362285  0.25667121  0.63415627  1
  Zn  Zn100  1  0.50043547  0.63254548  0.11509338  1
  Zn  Zn101  1  0.62352486  0.00374285  0.12503967  1
  Zn  Zn102  1  -0.00320590  0.11820029  0.12115798  1
  Zn  Zn103  1  0.25140213  0.62591450  0.37186511  1
  Zn  Zn104  1  0.87706489  0.25386852  0.12427566  1
  Zn  Zn105  1  0.25307153  0.12495930  0.87558139  1
  Zn  Zn106  1  0.48914545  0.12813399  0.12162035  1
  Zn  Zn107  1  0.18560101  0.18633876  0.18534506  1
  Zn  Zn108  1  0.18915215  0.18209780  0.68629782  1
  Zn  Zn109  1  0.18442445  0.68484232  0.18457567  1
  Zn  Zn110  1  0.18852816  0.68699028  0.68887222  1
  Zn  Zn111  1  0.68606266  0.19153989  0.18889579  1
  Zn  Zn112  1  0.68605688  0.18234299  0.68543171  1
  Zn  Zn113  1  0.68819816  0.68862979  0.18571160  1
  Zn  Zn114  1  0.68400870  0.68521085  0.69121684  1
  Zn  Zn115  1  0.30998377  0.30848652  0.31347776  1
  Zn  Zn116  1  0.31498383  0.31187236  0.81277608  1
  Zn  Zn117  1  0.31182451  0.81478480  0.31324691  1
  Zn  Zn118  1  0.30894944  0.81430930  0.81619728  1
  Zn  Zn119  1  0.81544356  0.31744368  0.31591389  1
  Zn  Zn120  1  0.81215207  0.31275075  0.81110402  1
  Zn  Zn121  1  0.81064254  0.79838301  0.30609861  1
  Zn  Zn122  1  0.81657057  0.81027380  0.81865248  1
  Zn  Zn123  1  0.18631315  0.43346623  0.43473204  1
  Zn  Zn124  1  0.19088853  0.43203025  0.93303638  1
  Zn  Zn125  1  0.18583145  0.93240413  0.44252962  1
  Zn  Zn126  1  0.19379734  0.93344587  0.93835921  1
  Zn  Zn127  1  0.68782499  0.43571821  0.43849360  1
  Zn  Zn128  1  0.68749190  0.43974010  0.94117018  1
  Zn  Zn129  1  0.68778482  0.93028920  0.43641086  1
  Zn  Zn130  1  0.69129780  0.93827079  0.94014198  1
  Zn  Zn131  1  0.31004943  0.06233936  0.06064129  1
  Zn  Zn132  1  0.31295292  0.06038919  0.56024018  1
  Zn  Zn133  1  0.31230861  0.55947294  0.06055063  1
  Zn  Zn134  1  0.31174129  0.56135445  0.56208166  1
  Zn  Zn135  1  0.81216665  0.06449753  0.06449896  1
  Zn  Zn136  1  0.81162546  0.06362477  0.56018319  1
  Zn  Zn137  1  0.81187085  0.56289111  0.06818676  1
  Zn  Zn138  1  0.81076507  0.56418016  0.56488941  1
  Zn  Zn139  1  0.44185780  0.44138316  0.18778544  1
  Zn  Zn140  1  0.43992569  0.43944027  0.68558115  1
  Zn  Zn141  1  0.43639892  0.94671483  0.18669921  1
  Zn  Zn142  1  0.43765606  0.94075711  0.68862716  1
  Zn  Zn143  1  0.93917907  0.43995970  0.18701369  1
  Zn  Zn144  1  0.93699016  0.43675644  0.68774381  1
  Zn  Zn145  1  0.94289868  0.93621248  0.18999606  1
  Zn  Zn146  1  0.94030686  0.93801061  0.69313240  1
  Zn  Zn147  1  0.06159959  0.06043295  0.31146643  1
  Zn  Zn148  1  0.06512339  0.06378442  0.81072842  1
  Zn  Zn149  1  0.06289530  0.55976011  0.31325406  1
  Zn  Zn150  1  0.06673539  0.56278823  0.80803744  1
  Zn  Zn151  1  0.55807243  0.06463010  0.31010301  1
  Zn  Zn152  1  0.56321759  0.06437133  0.81431332  1
  Zn  Zn153  1  0.55760297  0.56610489  0.31103840  1
  Zn  Zn154  1  0.56175828  0.56525514  0.81117275  1
  Zn  Zn155  1  0.43360397  0.18454848  0.43849358  1
  Zn  Zn156  1  0.43594665  0.18675363  0.93472025  1
  Zn  Zn157  1  0.44004021  0.68664000  0.43040692  1
  Zn  Zn158  1  0.43524409  0.68693536  0.93052273  1
  Zn  Zn159  1  0.93923980  0.18728284  0.43482914  1
  Zn  Zn160  1  0.93975132  0.19463258  0.93715871  1
  Zn  Zn161  1  0.93445524  0.68340231  0.43740526  1
  Zn  Zn162  1  0.93538073  0.56322664  0.93381775  1
  Zn  Zn163  1  0.06469359  0.31198014  0.06419128  1
  Zn  Zn164  1  0.06153343  0.31088169  0.55949419  1
  Zn  Zn165  1  0.06362642  0.81092235  0.06152824  1
  Zn  Zn166  1  0.06485936  0.81197530  0.56159704  1
  Zn  Zn167  1  0.56585066  0.32045081  0.05953477  1
  Zn  Zn168  1  0.56232441  0.31303802  0.55788097  1
  Zn  Zn169  1  0.56406486  0.81592491  0.06316843  1
  Zn  Zn170  1  0.56281495  0.81512299  0.56566699  1
  O  O171  1  0.12609888  0.12306785  0.11063254  1
  O  O172  1  0.11795649  0.11558494  0.61656702  1
  O  O173  1  0.11220782  0.61232708  0.12611580  1
  O  O174  1  0.11923696  0.61715654  0.62159398  1
  O  O175  1  0.62651966  0.12681572  0.11190474  1
  O  O176  1  0.61612532  0.11138928  0.62622501  1
  O  O177  1  0.62359329  0.61522274  0.12731121  1
  O  O178  1  0.62324049  0.61824362  0.61342538  1
  O  O179  1  0.37906083  0.37985197  0.38141479  1
  O  O180  1  0.38528796  0.38323450  0.88053047  1
  O  O181  1  0.38345688  0.88657486  0.37399045  1
  O  O182  1  0.37061422  0.88997743  0.87884845  1
  O  O183  1  0.87794172  0.39081872  0.37782449  1
  O  O184  1  0.89242658  0.36897002  0.87310342  1
  O  O185  1  0.88105885  0.87936371  0.37670222  1
  O  O186  1  0.88417317  0.88290035  0.88321175  1
  O  O187  1  0.26286415  -0.00711336  0.37891467  1
  O  O188  1  0.25533068  0.00064735  0.86720178  1
  O  O189  1  0.26146897  0.50014563  0.37406005  1
  O  O190  1  0.25829029  0.49964062  0.86566009  1
  O  O191  1  0.75319546  0.00504193  0.36793192  1
  O  O192  1  0.75929154  0.00843474  0.87201468  1
  O  O193  1  0.75703568  0.49807349  0.37311900  1
  O  O194  1  0.73945162  0.50917913  0.86527213  1
  O  O195  1  0.23222544  0.50477722  0.12334352  1
  O  O196  1  0.24457044  0.50012090  0.63505510  1
  O  O197  1  0.24281235  0.98429488  0.11995395  1
  O  O198  1  0.24373265  0.99278691  0.63005888  1
  O  O199  1  0.73629632  0.49629939  0.12614001  1
  O  O200  1  0.74104241  0.49824274  0.63168489  1
  O  O201  1  0.74906474  1.00004499  0.13939843  1
  O  O202  1  0.74399238  0.99940761  0.63173892  1
  O  O203  1  0.00925036  0.36731989  0.25106169  1
  O  O204  1  0.00677970  0.37000955  0.75707170  1
  O  O205  1  0.00840727  0.86336169  0.26123292  1
  O  O206  1  -0.00443767  0.86482441  0.76205417  1
  O  O207  1  0.49602987  0.36723975  0.26158200  1
  O  O208  1  0.49838669  0.38028238  0.76553985  1
  O  O209  1  0.50358193  0.87389750  0.25394897  1
  O  O210  1  0.50926728  0.87058019  0.74732066  1
  O  O211  1  0.49165161  0.13304443  0.24640352  1
  O  O212  1  0.50087173  0.11846745  0.73247504  1
  O  O213  1  0.49090935  0.63803487  0.24787341  1
  O  O214  1  0.49040672  0.63338986  0.74744481  1
  O  O215  1  0.99099305  0.13273035  0.25293053  1
  O  O216  1  0.99659562  0.13153689  0.73946592  1
  O  O217  1  1.00477643  0.63534793  0.24815775  1
  O  O218  1  0.99248432  0.63040529  0.74591803  1
  O  O219  1  0.36236854  0.25531457  -0.00372569  1
  O  O220  1  0.36525859  0.25594681  0.50007836  1
  O  O221  1  0.36038433  0.75235643  -0.00876124  1
  O  O222  1  0.36372400  0.74923218  0.49423440  1
  O  O223  1  0.86156655  0.25184570  0.00074145  1
  O  O224  1  0.86840168  0.24960878  0.50566827  1
  O  O225  1  0.87557927  0.76092421  0.01474271  1
  O  O226  1  0.86938052  0.75472175  0.50965789  1
  O  O227  1  0.12936841  0.24185695  0.49362338  1
  O  O228  1  0.13509966  0.24714644  0.99415236  1
  O  O229  1  0.13207423  0.74411301  0.49313500  1
  O  O230  1  0.13783475  0.75241329  0.99375456  1
  O  O231  1  0.63126944  0.25068337  0.48650475  1
  O  O232  1  0.63449336  0.24653901  0.99390431  1
  O  O233  1  0.63200233  0.74420537  0.49891981  1
  O  O234  1  0.62655998  0.75924046  0.98540653  1
  O  O235  1  0.50592775  0.25275252  0.13765512  1
  O  O236  1  0.50312725  0.23315191  0.61543001  1
  O  O237  1  0.49940786  0.75133309  0.13313221  1
  O  O238  1  0.50479291  0.75002139  0.64111705  1
  O  O239  1  0.99943653  0.24550429  0.13730228  1
  O  O240  1  0.99334100  0.24208879  0.62867966  1
  O  O241  1  1.00020961  0.73710981  0.12966505  1
  O  O242  1  0.99846927  0.74696848  0.63381046  1
  O  O243  1  0.00881962  0.25121360  0.36565711  1
  O  O244  1  0.01167241  0.25705691  0.86699390  1
  O  O245  1  0.00495762  0.75232571  0.36954794  1
  O  O246  1  0.01020355  0.76040264  0.86901704  1
  O  O247  1  0.50493296  0.25416252  0.37255431  1
  O  O248  1  0.50724234  0.26344512  0.88029227  1
  O  O249  1  0.50013907  0.76348401  0.36589989  1
  O  O250  1  0.50926428  0.74570709  0.86278233  1
  O  O251  1  0.23962246  0.13106404  0.50232099  1
  O  O252  1  0.24222645  0.13763306  0.99814760  1
  O  O253  1  0.24395769  0.63129510  0.49858054  1
  O  O254  1  0.25417432  0.63723124  0.99705755  1
  O  O255  1  0.75409270  0.13574034  0.48969947  1
  O  O256  1  0.74385910  0.13245327  0.99514715  1
  O  O257  1  0.74159024  0.63788740  0.50533384  1
  O  O258  1  0.75332227  0.62781781  0.98668281  1
  O  O259  1  0.25920567  0.36147458  -0.00604076  1
  O  O260  1  0.25774664  0.36537174  0.49585736  1
  O  O261  1  0.25252367  0.86536680  0.01302125  1
  O  O262  1  0.25315798  0.86562717  0.50883679  1
  O  O263  1  0.74994652  0.36903512  0.00979785  1
  O  O264  1  0.75117734  0.36024881  0.50308077  1
  O  O265  1  0.76528493  0.87490723  0.00180990  1
  O  O266  1  0.75697658  0.87538190  0.51607546  1
  O  O267  1  0.12727390  0.49131487  0.24786466  1
  O  O268  1  0.13285592  0.49213329  0.74380108  1
  O  O269  1  0.12684811  0.98279147  0.25682255  1
  O  O270  1  0.13301721  1.00316173  0.73918649  1
  O  O271  1  0.61629742  0.49956886  0.23687610  1
  O  O272  1  0.63330912  0.50888809  0.73820665  1
  O  O273  1  0.63172450  0.99429401  0.25145604  1
  O  O274  1  0.63106071  0.99432120  0.74629699  1
  O  O275  1  0.37729133  0.01173032  0.26341218  1
  O  O276  1  0.36879448  0.00365854  0.75699897  1
  O  O277  1  0.37232930  0.50547912  0.25589954  1
  O  O278  1  0.36855758  0.50279304  0.75409734  1
  O  O279  1  0.86739418  0.00478196  0.26066082  1
  O  O280  1  0.86998578  0.00558147  0.75997598  1
  O  O281  1  0.87484764  0.50161358  0.25989480  1
  O  O282  1  0.86534033  0.51064139  0.74144240  1
  O  O283  1  0.12008844  0.36587467  0.36668341  1
  O  O284  1  0.11627406  0.36983517  0.86511558  1
  O  O285  1  0.11928993  0.86422847  0.37299526  1
  O  O286  1  0.11502728  0.86893636  0.88211237  1
  O  O287  1  0.61493896  0.36810054  0.37363589  1
  O  O288  1  0.61192824  0.36918293  0.88046387  1
  O  O289  1  0.62113416  0.86324668  0.36297320  1
  O  O290  1  0.63284471  0.87059584  0.86371769  1
  O  O291  1  0.37083778  0.11904497  0.14248145  1
  O  O292  1  0.39089747  0.12247846  0.62239195  1
  O  O293  1  0.37894148  0.61745767  0.13627371  1
  O  O294  1  0.37427409  0.62094170  0.63866494  1
  O  O295  1  0.87331758  0.12907086  0.13927061  1
  O  O296  1  0.88187774  0.13158305  0.62703566  1
  O  O297  1  0.89028600  0.63150762  0.12316525  1
  O  O298  1  0.88011668  0.63351779  0.63382340  1
  O  O299  1  0.24649249  0.25346415  0.11221386  1
  O  O300  1  0.24893757  0.24777175  0.61238126  1
  O  O301  1  0.24565701  0.75497498  0.11205286  1
  O  O302  1  0.24224039  0.75995608  0.61732045  1
  O  O303  1  0.74945845  0.25912896  0.11793399  1
  O  O304  1  0.75520744  0.24659349  0.61712599  1
  O  O305  1  0.76062952  0.75042153  0.12135905  1
  O  O306  1  0.75343380  0.75723534  0.62312930  1
  O  O307  1  0.23584143  0.25141913  0.38475823  1
  O  O308  1  0.23788827  0.25033216  0.87924622  1
  O  O309  1  0.24155817  0.75108554  0.38418023  1
  O  O310  1  0.23899553  0.75106820  0.88490059  1
  O  O311  1  0.74349842  0.24358252  0.37887417  1
  O  O312  1  0.74437145  0.24767053  0.88160891  1
  O  O313  1  0.74754022  0.77965051  0.40399090  1
  O  O314  1  0.74241984  0.74079660  0.87408207  1
  O  O315  1  0.01638352  0.13553065  0.00070145  1
  O  O316  1  0.00731642  0.12885197  0.51049111  1
  O  O317  1  0.00262149  0.62640654  0.00714338  1
  O  O318  1  0.00619222  0.61986740  0.50842648  1
  O  O319  1  0.50726738  0.12207271  0.00245073  1
  O  O320  1  0.50014304  0.11201213  0.50542920  1
  O  O321  1  0.49136244  0.60993384  -0.00240624  1
  O  O322  1  0.50583854  0.62159660  0.50119246  1
  O  O323  1  0.49282474  0.37922052  0.48773546  1
  O  O324  1  0.49282596  0.38456806  0.99270114  1
  O  O325  1  0.49938219  0.88124943  0.49206368  1
  O  O326  1  0.49944207  0.88938512  1.00279999  1
  O  O327  1  0.99695258  0.38414891  0.49857599  1
  O  O328  1  0.99969202  0.36696462  0.98303464  1
  O  O329  1  0.99376285  0.86670172  0.48608302  1
  O  O330  1  0.99053289  0.87299722  0.99230312  1
  O  O331  1  0.48966534  0.49264719  0.37787388  1
  O  O332  1  0.49679853  0.49197866  0.88003296  1
  O  O333  1  0.50122928  0.98958200  0.38021557  1
  O  O334  1  0.49307743  1.00610299  0.88396699  1
  O  O335  1  0.99808515  0.50138255  0.38886106  1
  O  O336  1  1.00277285  0.48895263  0.87039581  1
  O  O337  1  0.98965534  0.98823766  0.36996446  1
  O  O338  1  0.99271033  0.99286175  0.86736617  1
  O  O339  1  0.00776054  0.00548903  0.13348611  1
  O  O340  1  0.00718358  0.00775114  0.62994418  1
  O  O341  1  0.00749949  0.51226879  0.12508445  1
  O  O342  1  0.00556813  0.50410245  0.61701068  1
  O  O343  1  0.50363153  0.00696784  0.11520557  1
  O  O344  1  0.50711898  0.00428246  0.61546212  1
  O  O345  1  0.51144446  0.50290925  0.11727150  1
  O  O346  1  0.50668098  0.50534735  0.61689191  1
  O  O347  1  0.23646563  0.37305446  0.25148459  1
  O  O348  1  0.24026516  0.38383046  0.75560583  1
  O  O349  1  0.24301115  0.86389369  0.23423426  1
  O  O350  1  0.25151525  0.88559740  0.74258000  1
  O  O351  1  0.74643022  0.36712807  0.23810115  1
  O  O352  1  0.75380218  0.38933279  0.74870920  1
  O  O353  1  0.74167425  0.88244114  0.25135174  1
  O  O354  1  0.74668592  0.88058112  0.74798978  1
  O  O355  1  0.26022345  0.13097481  0.25363265  1
  O  O356  1  0.25121202  0.11083046  0.75072062  1
  O  O357  1  0.25703491  0.62396368  0.25174791  1
  O  O358  1  0.25536914  0.61635266  0.75372437  1
  O  O359  1  0.75551090  0.12016067  0.25780213  1
  O  O360  1  0.75739247  0.12004270  0.75697885  1
  O  O361  1  0.73375222  0.69749375  0.28952552  1
  O  O362  1  0.75703132  0.61844272  0.75493385  1
  O  O363  1  0.37791306  0.11048908  0.36807858  1
  O  O364  1  0.37189846  0.11314103  0.87427089  1
  O  O365  1  0.37494174  0.61501282  0.36510997  1
  O  O366  1  0.37399842  0.60992862  0.86438416  1
  O  O367  1  0.86747975  0.11806310  0.36764539  1
  O  O368  1  0.87466973  0.11965622  0.87206442  1
  O  O369  1  0.87482597  0.60706063  0.38077581  1
  O  O370  1  0.86674800  0.62596409  0.86193125  1
  O  O371  1  0.11577186  0.39147016  0.13093645  1
  O  O372  1  0.11892123  0.37748731  0.63667852  1
  O  O373  1  0.13218929  0.87331435  0.13326991  1
  O  O374  1  0.13176162  0.88732933  0.61805744  1
  O  O375  1  0.63168455  0.38660800  0.12948977  1
  O  O376  1  0.62338295  0.38957348  0.61799268  1
  O  O377  1  0.62899703  0.87891367  0.13706257  1
  O  O378  1  0.63094495  0.88577452  0.63561568  1
  O  O379  1  0.11997904  0.25312759  0.25553716  1
  O  O380  1  0.12371517  0.25505792  0.75481958  1
  O  O381  1  0.12008182  0.75517669  0.25844147  1
  O  O382  1  0.11400097  0.74653889  0.75640958  1
  O  O383  1  0.61521522  0.25097324  0.26216144  1
  O  O384  1  0.63182241  0.24682082  0.76327326  1
  O  O385  1  0.60826824  0.75972809  0.25048141  1
  O  O386  1  0.61924366  0.75909717  0.75697423  1
  O  O387  1  0.38193580  0.23485817  0.26091209  1
  O  O388  1  0.37126375  0.24481234  0.74590672  1
  O  O389  1  0.38042246  0.74170485  0.25592686  1
  O  O390  1  0.38112328  0.74196243  0.75926841  1
  O  O391  1  0.88302034  0.24285708  0.25377716  1
  O  O392  1  0.87852709  0.24259128  0.74199098  1
  O  O393  1  0.88936850  0.75789075  0.23412216  1
  O  O394  1  0.88476632  0.74374485  0.74722880  1
  O  O395  1  0.37881554  0.49400497  0.49257354  1
  O  O396  1  0.37867914  0.49213965  0.99113197  1
  O  O397  1  0.38354093  0.99860232  0.48683658  1
  O  O398  1  0.38344532  1.00044366  0.99388335  1
  O  O399  1  0.88289811  0.49843417  0.50407174  1
  O  O400  1  0.87155931  0.50008573  0.99823669  1
  O  O401  1  0.86949634  0.99448679  0.48677441  1
  O  O402  1  0.87292114  0.99760955  0.99044475  1
  O  O403  1  0.13069630  0.01645803  -0.00594063  1
  O  O404  1  0.12814491  0.00850360  0.50700066  1
  O  O405  1  0.12684807  0.49441925  0.00737755  1
  O  O406  1  0.11945627  0.50354530  0.50359993  1
  O  O407  1  0.61925624  0.00978642  -0.00139452  1
  O  O408  1  0.61889727  -0.00842093  0.50867514  1
  O  O409  1  0.61662812  0.49690023  0.01374093  1
  O  O410  1  0.61984423  0.50885846  0.50213839  1
  O  O411  1  0.37907680  0.38170014  0.11180714  1
  O  O412  1  0.38439069  0.37415666  0.60887124  1
  O  O413  1  0.36213491  0.87935260  0.12550009  1
  O  O414  1  0.36266863  0.88057270  0.62178983  1
  O  O415  1  0.86702520  0.37403186  0.12385584  1
  O  O416  1  0.87353503  0.35935407  0.62510667  1
  O  O417  1  0.87679350  0.87073123  0.11948031  1
  O  O418  1  0.87243487  0.87160352  0.62296624  1
  O  O419  1  0.11777648  0.13063309  0.38489722  1
  O  O420  1  0.12629529  0.13424465  0.88351633  1
  O  O421  1  0.12633879  0.63501401  0.38041393  1
  O  O422  1  0.12521004  0.63670914  0.87230541  1
  O  O423  1  0.63528205  0.13015459  0.37084650  1
  O  O424  1  0.62917304  0.13408195  0.88467121  1
  O  O425  1  0.61657587  0.63601500  0.38562945  1
  O  O426  1  0.63394738  0.63621873  0.86851278  1
