# generated using pymatgen
data_V85Zn86O256
_symmetry_space_group_name_H-M   'P 1'
_cell_length_a   16.93260761
_cell_length_b   16.93652226
_cell_length_c   16.93372211
_cell_angle_alpha   90.06738415
_cell_angle_beta   90.00134498
_cell_angle_gamma   90.02618123
_symmetry_Int_Tables_number   1
_chemical_formula_structural   V85Zn86O256
_chemical_formula_sum   'V85 Zn86 O256'
_cell_volume   4856.24025283
_cell_formula_units_Z   1
loop_
 _symmetry_equiv_pos_site_id
 _symmetry_equiv_pos_as_xyz
  1  'x, y, z'
loop_
 _atom_site_type_symbol
 _atom_site_label
 _atom_site_symmetry_multiplicity
 _atom_site_fract_x
 _atom_site_fract_y
 _atom_site_fract_z
 _atom_site_occupancy
  V  V0  1  0.87414853  0.62508565  0.74588559  1
  V  V1  1  0.50846114  0.62381877  0.61623297  1
  V  V2  1  0.74805741  0.49561772  0.74668174  1
  V  V3  1  0.37824777  -0.00049482  0.38159241  1
  V  V4  1  0.12678387  0.74844920  0.38905856  1
  V  V5  1  0.12411308  0.12915355  0.49970223  1
  V  V6  1  0.86826499  0.25795983  0.62957433  1
  V  V7  1  0.37535374  0.74594418  0.61218535  1
  V  V8  1  0.87458650  0.37154463  0.00335575  1
  V  V9  1  0.61800247  0.37211652  0.24906348  1
  V  V10  1  0.75522232  0.87637253  0.61311128  1
  V  V11  1  0.62314077  -0.00535231  0.12963247  1
  V  V12  1  0.50481309  0.38281560  0.87813197  1
  V  V13  1  0.87126887  0.50312064  0.37624335  1
  V  V14  1  0.25249080  -0.00614403  0.74948860  1
  V  V15  1  0.12615042  0.00004471  0.62474878  1
  V  V16  1  -0.00315250  0.75349446  0.75430067  1
  V  V17  1  0.49729820  -0.00489927  0.00010783  1
  V  V18  1  0.37428509  -0.00305185  0.87929721  1
  V  V19  1  0.24979756  0.12893592  0.87185830  1
  V  V20  1  0.75262298  0.00013872  0.24967063  1
  V  V21  1  0.62623351  0.87566775  0.74845530  1
  V  V22  1  0.62290769  0.24904036  0.37236531  1
  V  V23  1  0.24538057  0.00545257  0.25183635  1
  V  V24  1  0.01024573  0.49463651  0.49893374  1
  V  V25  1  0.24958942  0.63412395  0.38373087  1
  V  V26  1  0.37250992  0.63016139  0.24529588  1
  V  V27  1  -0.00101377  0.12811859  0.62710014  1
  V  V28  1  0.37632778  0.49931392  0.37320450  1
  V  V29  1  0.12084085  0.37447797  0.25814173  1
  V  V30  1  0.01136372  0.25501088  0.75756914  1
  V  V31  1  0.87122645  0.37270309  0.49807244  1
  V  V32  1  0.89048706  -0.00553206  0.87482352  1
  V  V33  1  0.25075399  0.87033116  0.61416529  1
  V  V34  1  0.48976566  0.87238141  0.87506936  1
  V  V35  1  0.14323184  0.38824197  0.75480820  1
  V  V36  1  0.51344704  0.88210359  0.37954168  1
  V  V37  1  0.25057457  0.26755845  0.50555880  1
  V  V38  1  0.50019015  0.24696721  0.75029033  1
  V  V39  1  0.75243794  0.36862852  0.13001572  1
  V  V40  1  0.37709815  0.75659237  0.11931306  1
  V  V41  1  0.12222687  0.87516865  0.75422770  1
  V  V42  1  0.50769258  0.75888118  0.24957567  1
  V  V43  1  0.62523256  0.74873235  0.87254077  1
  V  V44  1  0.24444865  0.24959328  -0.00313207  1
  V  V45  1  0.75227854  0.75120415  0.00007458  1
  V  V46  1  0.62008665  -0.00086518  0.61562144  1
  V  V47  1  0.75519956  0.12825075  0.37817098  1
  V  V48  1  -0.00140240  0.74999198  0.25419912  1
  V  V49  1  0.63278088  0.37250211  0.74188107  1
  V  V50  1  0.37589647  0.13006524  0.25233642  1
  V  V51  1  0.74837881  0.62402646  0.87401791  1
  V  V52  1  0.12701546  0.62718065  -0.00234304  1
  V  V53  1  0.75563821  0.24299056  0.00070232  1
  V  V54  1  0.38224293  0.38330654  0.00196526  1
  V  V55  1  0.49604346  0.12124423  0.61573893  1
  V  V56  1  0.63327794  0.49668078  0.61748068  1
  V  V57  1  0.49915550  0.62154941  0.12197868  1
  V  V58  1  0.50005257  0.74677498  0.74307984  1
  V  V59  1  0.25300085  0.87695935  0.12314022  1
  V  V60  1  0.74827837  0.00166337  0.75835758  1
  V  V61  1  0.12726670  0.74918243  0.87575429  1
  V  V62  1  0.49264784  0.36812310  0.37304050  1
  V  V63  1  0.24867872  0.12954727  0.37810843  1
  V  V64  1  -0.01067249  -0.00454376  0.50125361  1
  V  V65  1  0.00998534  0.62068115  0.62241048  1
  V  V66  1  0.49839015  0.12451162  0.12748717  1
  V  V67  1  0.63100576  0.73381234  0.37463560  1
  V  V68  1  0.12148684  0.87666105  0.25547728  1
  V  V69  1  0.74820458  0.87374983  0.12914663  1
  V  V70  1  -0.00411709  0.62422646  0.12845000  1
  V  V71  1  0.37686664  0.24767969  0.12650799  1
  V  V72  1  0.12199602  0.49947107  0.12560738  1
  V  V73  1  0.12141720  0.11323884  -0.00242937  1
  V  V74  1  0.37262310  0.26216309  0.62213294  1
  V  V75  1  0.87607431  0.49808446  0.87610525  1
  V  V76  1  0.62892168  0.24234369  0.87426290  1
  V  V77  1  0.75403317  0.73411007  0.49556405  1
  V  V78  1  0.88644034  0.87638678  -0.00247730  1
  V  V79  1  0.62719523  0.12173262  -0.00247538  1
  V  V80  1  0.87135073  0.12800092  0.75709330  1
  V  V81  1  0.62570179  0.62149326  -0.00101598  1
  V  V82  1  0.24969170  0.37574873  0.12591779  1
  V  V83  1  0.50599236  0.49888808  0.49379685  1
  V  V84  1  0.62337347  0.49736840  0.11952292  1
  Zn  Zn85  1  0.11835191  0.26329878  0.38489180  1
  Zn  Zn86  1  -0.01248587  0.86830207  0.38451863  1
  Zn  Zn87  1  0.25426101  0.75638394  -0.00209260  1
  Zn  Zn88  1  0.74528023  0.50458812  0.25690509  1
  Zn  Zn89  1  0.31659309  0.57778585  0.71728909  1
  Zn  Zn90  1  0.87323970  -0.00055214  0.37383701  1
  Zn  Zn91  1  0.87455739  0.75091103  0.12809487  1
  Zn  Zn92  1  0.11486817  -0.00435104  0.12078237  1
  Zn  Zn93  1  0.25004005  0.50610642  0.24756756  1
  Zn  Zn94  1  -0.01356184  0.12062520  0.12664489  1
  Zn  Zn95  1  0.62161837  0.12360424  0.49630140  1
  Zn  Zn96  1  0.15039906  0.49894527  0.62613523  1
  Zn  Zn97  1  0.86429480  0.14688249  0.22709872  1
  Zn  Zn98  1  0.00484203  0.36950178  0.88103234  1
  Zn  Zn99  1  0.37688994  0.87604451  0.49643767  1
  Zn  Zn100  1  0.34732549  0.50504869  0.86569864  1
  Zn  Zn101  1  0.37414264  0.12349442  0.74780066  1
  Zn  Zn102  1  -0.00405475  0.49887308  0.00238225  1
  Zn  Zn103  1  -0.01250722  0.24669159  0.25516430  1
  Zn  Zn104  1  0.74260305  0.25247671  0.50743441  1
  Zn  Zn105  1  0.86884984  0.63025596  0.25939671  1
  Zn  Zn106  1  0.87871624  0.75422996  0.61730545  1
  Zn  Zn107  1  0.15643421  0.20094011  0.17179460  1
  Zn  Zn108  1  0.18947968  0.18942929  0.68769814  1
  Zn  Zn109  1  0.18572313  0.69033375  0.18832327  1
  Zn  Zn110  1  0.18742637  0.68816591  0.68257182  1
  Zn  Zn111  1  0.68564514  0.18685833  0.18870192  1
  Zn  Zn112  1  0.68722341  0.18199326  0.68680288  1
  Zn  Zn113  1  0.68922690  0.68561291  0.19084007  1
  Zn  Zn114  1  0.68669156  0.68492043  0.68139090  1
  Zn  Zn115  1  0.30414757  0.31241325  0.31161574  1
  Zn  Zn116  1  0.32006190  0.31355642  0.81582765  1
  Zn  Zn117  1  0.31464895  0.81552846  0.31019613  1
  Zn  Zn118  1  0.29802511  0.77111038  0.78962511  1
  Zn  Zn119  1  0.81259750  0.31477903  0.31713662  1
  Zn  Zn120  1  0.81178670  0.30952065  0.81831772  1
  Zn  Zn121  1  0.81293349  0.81788108  0.31621091  1
  Zn  Zn122  1  0.81277366  0.81451632  0.81070185  1
  Zn  Zn123  1  0.19321520  0.44765779  0.43750276  1
  Zn  Zn124  1  0.18191322  0.43344087  0.93642589  1
  Zn  Zn125  1  0.18275962  0.94112809  0.43627729  1
  Zn  Zn126  1  0.18842589  0.93265774  0.93361463  1
  Zn  Zn127  1  0.69050202  0.43251418  0.43761289  1
  Zn  Zn128  1  0.68679719  0.43304398  0.93625648  1
  Zn  Zn129  1  0.68988201  0.93657044  0.43500814  1
  Zn  Zn130  1  0.68721731  0.93427652  0.93875764  1
  Zn  Zn131  1  0.30761418  0.06103851  0.06227157  1
  Zn  Zn132  1  0.31123225  0.06604190  0.56303182  1
  Zn  Zn133  1  0.29460959  0.54940976  0.02990920  1
  Zn  Zn134  1  0.31961438  0.56176328  0.55141666  1
  Zn  Zn135  1  0.81451919  0.05819807  0.05894059  1
  Zn  Zn136  1  0.80792764  0.06917558  0.56831915  1
  Zn  Zn137  1  0.81002674  0.55964900  0.06865806  1
  Zn  Zn138  1  0.81699560  0.55951837  0.56281318  1
  Zn  Zn139  1  0.43734375  0.43914526  0.18736075  1
  Zn  Zn140  1  0.44464587  0.43573750  0.68596429  1
  Zn  Zn141  1  0.43605371  0.93955430  0.19462941  1
  Zn  Zn142  1  0.43554973  0.93456566  0.68666699  1
  Zn  Zn143  1  0.93659542  0.43105324  0.18974190  1
  Zn  Zn144  1  0.94039134  0.43637329  0.68616195  1
  Zn  Zn145  1  0.93806993  0.94172676  0.18500727  1
  Zn  Zn146  1  0.93671926  0.93867138  0.68662417  1
  Zn  Zn147  1  0.05477454  0.06947733  0.31368892  1
  Zn  Zn148  1  0.06614579  0.06673521  0.81263492  1
  Zn  Zn149  1  0.06167430  0.56208703  0.31594856  1
  Zn  Zn150  1  0.06178507  0.56312380  0.81437967  1
  Zn  Zn151  1  0.56379242  0.06459295  0.30953942  1
  Zn  Zn152  1  0.56039438  0.06159350  0.80887780  1
  Zn  Zn153  1  0.56067613  0.56117156  0.30418848  1
  Zn  Zn154  1  0.48554433  0.56669915  0.81384714  1
  Zn  Zn155  1  0.43529415  0.19059073  0.43998646  1
  Zn  Zn156  1  0.43593176  0.18708531  0.93877790  1
  Zn  Zn157  1  0.44348432  0.68615390  0.43437216  1
  Zn  Zn158  1  0.43633643  0.68851356  0.94118916  1
  Zn  Zn159  1  0.94036277  0.19160473  0.43449459  1
  Zn  Zn160  1  0.93557655  0.18238961  0.93818831  1
  Zn  Zn161  1  0.93880349  0.68345462  0.44119517  1
  Zn  Zn162  1  0.94061102  0.68768777  0.93723112  1
  Zn  Zn163  1  0.05703569  0.30554712  0.06725615  1
  Zn  Zn164  1  0.06284000  0.31882571  0.57352092  1
  Zn  Zn165  1  0.06362457  0.81286670  0.06857241  1
  Zn  Zn166  1  0.06073937  0.81258351  0.56914703  1
  Zn  Zn167  1  0.56180590  0.30740205  0.06297651  1
  Zn  Zn168  1  0.55684070  0.31450477  0.55805982  1
  Zn  Zn169  1  0.56339538  0.81235448  0.05955870  1
  Zn  Zn170  1  0.56875145  0.81196141  0.55460245  1
  O  O171  1  0.14663743  0.11112670  0.10230120  1
  O  O172  1  0.12099018  0.12168489  0.61792798  1
  O  O173  1  0.11320043  0.61864974  0.12588135  1
  O  O174  1  0.11295561  0.62076717  0.63012544  1
  O  O175  1  0.61823085  0.11821315  0.11767905  1
  O  O176  1  0.61605906  0.11597256  0.62366521  1
  O  O177  1  0.61988425  0.61603525  0.12098697  1
  O  O178  1  0.61747121  0.61254723  0.62185383  1
  O  O179  1  0.38192108  0.38554039  0.36071896  1
  O  O180  1  0.38558787  0.38306045  0.88465648  1
  O  O181  1  0.38546093  0.88294460  0.37489084  1
  O  O182  1  0.38742891  0.87870759  0.86780131  1
  O  O183  1  0.87661446  0.38152136  0.39247740  1
  O  O184  1  0.87445682  0.38183295  0.88652628  1
  O  O185  1  0.87591077  0.88616557  0.37639765  1
  O  O186  1  0.87306264  0.88621505  0.87859212  1
  O  O187  1  0.25690573  0.00554617  0.36859780  1
  O  O188  1  0.25828322  0.00235740  0.86931435  1
  O  O189  1  0.25927523  0.51503579  0.37068703  1
  O  O190  1  0.25486632  0.51441362  0.92498318  1
  O  O191  1  0.74432192  0.00929935  0.36557460  1
  O  O192  1  0.75075258  -0.00703308  0.86075008  1
  O  O193  1  0.76617430  0.49412908  0.37625965  1
  O  O194  1  0.75774344  0.50317571  0.86915930  1
  O  O195  1  0.24077373  0.49264662  0.12221500  1
  O  O196  1  0.26070292  0.52136576  0.63398525  1
  O  O197  1  0.25167030  0.99332682  0.13909237  1
  O  O198  1  0.24634113  0.99433061  0.63154303  1
  O  O199  1  0.74176915  0.48308069  0.12458713  1
  O  O200  1  0.74083937  0.50295637  0.62899969  1
  O  O201  1  0.74163346  0.99295972  0.12758408  1
  O  O202  1  0.74305766  0.99139932  0.63262962  1
  O  O203  1  0.01942165  0.37157093  0.24310508  1
  O  O204  1  -0.00052280  0.36255871  0.75478141  1
  O  O205  1  0.00691253  0.86856197  0.25334130  1
  O  O206  1  0.00835470  0.86476134  0.73896376  1
  O  O207  1  0.51045823  0.37775350  0.25596450  1
  O  O208  1  0.51201440  0.36215702  0.75643700  1
  O  O209  1  0.49761325  0.86468185  0.26079248  1
  O  O210  1  0.51235640  0.87115448  0.75324726  1
  O  O211  1  0.48743357  0.11971709  0.24167067  1
  O  O212  1  0.50035837  0.13601458  0.74139150  1
  O  O213  1  0.49497181  0.63728244  0.24106587  1
  O  O214  1  0.51545475  0.63970803  0.73388787  1
  O  O215  1  0.98164714  0.12371637  0.25122386  1
  O  O216  1  0.99595914  0.13548611  0.74678268  1
  O  O217  1  0.99612502  0.63192050  0.24654955  1
  O  O218  1  0.99131853  0.62961252  0.74453374  1
  O  O219  1  0.36685915  0.25359081  0.00902156  1
  O  O220  1  0.36675016  0.24732247  0.51409529  1
  O  O221  1  0.37489696  0.75242285  0.01464636  1
  O  O222  1  0.38504864  0.75323659  0.50833643  1
  O  O223  1  0.86303502  0.25553929  -0.00856785  1
  O  O224  1  0.87793788  0.26057618  0.51013085  1
  O  O225  1  0.86459137  0.75579308  -0.00278477  1
  O  O226  1  0.85984391  0.74745712  0.49871586  1
  O  O227  1  0.13139178  0.24685809  0.50726377  1
  O  O228  1  0.14119701  0.24285772  1.00180179  1
  O  O229  1  0.11998188  0.75512567  0.48840415  1
  O  O230  1  0.11838784  0.74664431  0.99091353  1
  O  O231  1  0.62336616  0.25179671  0.48678828  1
  O  O232  1  0.63010844  0.24074128  0.99292681  1
  O  O233  1  0.63625999  0.75049377  0.48370979  1
  O  O234  1  0.63682793  0.74632533  0.99464457  1
  O  O235  1  0.48453457  0.24228932  0.12197982  1
  O  O236  1  0.49171709  0.24321106  0.62921440  1
  O  O237  1  0.49726364  0.74932408  0.13280589  1
  O  O238  1  0.50359701  0.74310280  0.62343546  1
  O  O239  1  1.04034051  0.22765975  0.14533220  1
  O  O240  1  0.99031947  0.24681803  0.63818815  1
  O  O241  1  0.99915310  0.74220645  0.13676758  1
  O  O242  1  0.99674295  0.74028877  0.63336324  1
  O  O243  1  0.00838564  0.24874189  0.36980453  1
  O  O244  1  -0.00550864  0.24807409  0.85997720  1
  O  O245  1  0.00761548  0.74815617  0.37183387  1
  O  O246  1  0.00612334  0.74726513  0.86081394  1
  O  O247  1  0.50269751  0.26125402  0.37763107  1
  O  O248  1  0.50481201  0.25227362  0.86583882  1
  O  O249  1  0.51279375  0.75748293  0.36954577  1
  O  O250  1  0.50562503  0.75645288  0.86404835  1
  O  O251  1  0.24071002  0.13253875  0.49773642  1
  O  O252  1  0.24867828  0.13025248  0.98873901  1
  O  O253  1  0.25709842  0.63177157  0.48192489  1
  O  O254  1  0.22806599  0.64286925  1.02191279  1
  O  O255  1  0.74267055  0.12902267  0.49417049  1
  O  O256  1  0.73469695  0.12967349  1.00195644  1
  O  O257  1  0.75037575  0.63590826  0.50431225  1
  O  O258  1  0.74697958  0.63217963  0.99694124  1
  O  O259  1  0.25861676  0.36633232  0.00996443  1
  O  O260  1  0.24624654  0.36718893  0.49950457  1
  O  O261  1  0.24318579  0.87616130  0.01875892  1
  O  O262  1  0.24951524  0.88292359  0.51108763  1
  O  O263  1  0.75513558  0.36429463  0.00596595  1
  O  O264  1  0.76605438  0.37113092  0.50287360  1
  O  O265  1  0.75500208  0.86734207  0.00681803  1
  O  O266  1  0.74486780  0.86946269  0.51060822  1
  O  O267  1  0.12645071  0.49406241  0.24104999  1
  O  O268  1  0.12729187  0.49179380  0.75325278  1
  O  O269  1  0.13131291  0.99407732  0.25583846  1
  O  O270  1  0.13014460  0.99360697  0.74464152  1
  O  O271  1  0.62546967  0.49126587  0.23823377  1
  O  O272  1  0.63295951  0.48651532  0.73775889  1
  O  O273  1  0.63410729  1.00558840  0.23588428  1
  O  O274  1  0.63073182  0.99379984  0.74308444  1
  O  O275  1  0.36700513  0.00991512  0.26051372  1
  O  O276  1  0.37036670  -0.00097762  0.76075656  1
  O  O277  1  0.37765529  0.51381546  0.25607110  1
  O  O278  1  0.39528369  0.50440752  0.75913818  1
  O  O279  1  0.85773716  0.00141976  0.24751035  1
  O  O280  1  0.86898329  0.00449107  0.75812322  1
  O  O281  1  0.88105825  0.49123881  0.27092759  1
  O  O282  1  0.86911235  0.50426235  0.75579869  1
  O  O283  1  0.13229660  0.38603456  0.36053225  1
  O  O284  1  0.12006811  0.37543798  0.86274416  1
  O  O285  1  0.12284531  0.86781768  0.36729846  1
  O  O286  1  0.12250372  0.87145664  0.86076468  1
  O  O287  1  0.61818919  0.36949599  0.36681120  1
  O  O288  1  0.62268533  0.35834179  0.86964074  1
  O  O289  1  0.61545952  0.87085948  0.37314545  1
  O  O290  1  0.61927831  0.86913970  0.86568881  1
  O  O291  1  0.37571881  0.12904673  0.13177490  1
  O  O292  1  0.38241541  0.13037538  0.62860846  1
  O  O293  1  0.38400476  0.63472781  0.13071946  1
  O  O294  1  0.39235578  0.63238613  0.62211468  1
  O  O295  1  0.87213669  0.13394425  0.11226964  1
  O  O296  1  0.88071480  0.13081003  0.63921280  1
  O  O297  1  0.88780231  0.62624655  0.12298158  1
  O  O298  1  0.88024260  0.62547984  0.63687680  1
  O  O299  1  0.25643673  0.25688767  0.11868134  1
  O  O300  1  0.26491344  0.24739589  0.62210284  1
  O  O301  1  0.26081246  0.76137528  0.13237496  1
  O  O302  1  0.26224800  0.75826440  0.62115865  1
  O  O303  1  0.73754586  0.26155428  0.11445859  1
  O  O304  1  0.76389663  0.24321621  0.62615390  1
  O  O305  1  0.75042844  0.75706809  0.11694030  1
  O  O306  1  0.74724524  0.75731293  0.61022562  1
  O  O307  1  0.24736813  0.24608356  0.38911496  1
  O  O308  1  0.26164490  0.23904241  0.88281134  1
  O  O309  1  0.24419728  0.74173071  0.36718971  1
  O  O310  1  0.23183906  0.76445237  0.88347479  1
  O  O311  1  0.74039428  0.24436370  0.37930645  1
  O  O312  1  0.74020762  0.24801468  0.88666600  1
  O  O313  1  0.74023216  0.75117995  0.38230165  1
  O  O314  1  0.74546338  0.74624753  0.88021805  1
  O  O315  1  0.02093721  0.13358357  -0.00323165  1
  O  O316  1  0.00634408  0.12001941  0.50857058  1
  O  O317  1  0.00770045  0.62537985  0.01031044  1
  O  O318  1  -0.00651456  0.60977987  0.51194745  1
  O  O319  1  0.50763831  0.11737294  0.00567948  1
  O  O320  1  0.50139025  0.12708032  0.51158598  1
  O  O321  1  0.51184287  0.63687018  0.01623325  1
  O  O322  1  0.50204597  0.61092354  0.50123068  1
  O  O323  1  0.49946356  0.38720841  0.48638477  1
  O  O324  1  0.49275501  0.36115906  0.98937012  1
  O  O325  1  0.50054888  0.87441332  0.48276601  1
  O  O326  1  0.50634992  0.88169642  0.98646876  1
  O  O327  1  0.99127970  0.38831617  0.50923296  1
  O  O328  1  0.99053038  0.37157155  1.00117237  1
  O  O329  1  1.00402474  0.89192027  0.50586654  1
  O  O330  1  0.98526365  0.86704718  1.00432270  1
  O  O331  1  0.49694038  0.49302560  0.37516855  1
  O  O332  1  0.52654173  0.48021403  0.87693169  1
  O  O333  1  0.49604744  0.98823229  0.36635471  1
  O  O334  1  0.49374195  0.99319070  0.87717725  1
  O  O335  1  0.99455099  0.50271010  0.39270566  1
  O  O336  1  0.98532747  0.49852501  0.87769959  1
  O  O337  1  0.99896952  1.00183613  0.39420827  1
  O  O338  1  0.98885276  0.99913858  0.86786304  1
  O  O339  1  0.00313818  0.00583314  0.12263527  1
  O  O340  1  0.00577209  0.00726582  0.61996497  1
  O  O341  1  0.00462751  0.50580851  0.12655917  1
  O  O342  1  -0.00142969  0.50702004  0.61627412  1
  O  O343  1  0.50537939  0.00105486  0.12161159  1
  O  O344  1  0.50771582  0.00857721  0.63295301  1
  O  O345  1  0.50901118  0.51127361  0.13090954  1
  O  O346  1  0.50879884  0.50449031  0.61349077  1
  O  O347  1  0.24739881  0.38441438  0.23724995  1
  O  O348  1  0.24219668  0.37665242  0.76067754  1
  O  O349  1  0.24258215  0.88436704  0.24704764  1
  O  O350  1  0.24191282  0.87453925  0.73888591  1
  O  O351  1  0.73690276  0.37812490  0.24374332  1
  O  O352  1  0.73911550  0.37495595  0.75532337  1
  O  O353  1  0.74996773  0.88067378  0.23611164  1
  O  O354  1  0.73946927  0.87777085  0.74130611  1
  O  O355  1  0.25351050  0.11765333  0.25873836  1
  O  O356  1  0.25017230  0.11676356  0.75686052  1
  O  O357  1  0.26188453  0.62664114  0.25085209  1
  O  O358  1  0.26176331  0.66362879  0.76131278  1
  O  O359  1  0.75034086  0.11919269  0.25746750  1
  O  O360  1  0.75938515  0.11409204  0.74676978  1
  O  O361  1  0.76021869  0.61448016  0.23630714  1
  O  O362  1  0.75625432  0.62033418  0.75352169  1
  O  O363  1  0.37191005  0.12141070  0.36938896  1
  O  O364  1  0.36856735  0.11550431  0.87130050  1
  O  O365  1  0.36915577  0.62493532  0.36453607  1
  O  O366  1  0.40063362  0.60889697  0.87686720  1
  O  O367  1  0.85983189  0.12134004  0.38166282  1
  O  O368  1  0.87715718  0.11160295  0.86528930  1
  O  O369  1  0.87754982  0.60724720  0.37775710  1
  O  O370  1  0.86998075  0.61833957  0.86618480  1
  O  O371  1  0.13302882  0.38219227  0.12937710  1
  O  O372  1  0.12437247  0.38119043  0.64835443  1
  O  O373  1  0.13262895  0.87598337  0.13974982  1
  O  O374  1  0.13268970  0.87920524  0.63269998  1
  O  O375  1  0.62604548  0.37821709  0.13026259  1
  O  O376  1  0.61927560  0.38000358  0.63213659  1
  O  O377  1  0.63288844  0.88509488  0.11751610  1
  O  O378  1  0.63029563  0.88061534  0.63054092  1
  O  O379  1  0.14673310  0.27187003  0.26100662  1
  O  O380  1  0.11447666  0.25620035  0.74728238  1
  O  O381  1  0.11499041  0.75727676  0.25736042  1
  O  O382  1  0.11561711  0.75683960  0.75519376  1
  O  O383  1  0.62553550  0.25684640  0.26185694  1
  O  O384  1  0.62104153  0.25074473  0.75494798  1
  O  O385  1  0.62035339  0.74885097  0.26142337  1
  O  O386  1  0.62113706  0.75854955  0.75003526  1
  O  O387  1  0.36482011  0.23713850  0.24321007  1
  O  O388  1  0.38392837  0.24907342  0.74098586  1
  O  O389  1  0.38556958  0.74523982  0.24417860  1
  O  O390  1  0.39623095  0.76398271  0.72988706  1
  O  O391  1  0.87307423  0.26128280  0.24274691  1
  O  O392  1  0.87906439  0.24392194  0.74819102  1
  O  O393  1  0.88692980  0.75038677  0.25156306  1
  O  O394  1  0.87960814  0.74180054  0.74879586  1
  O  O395  1  0.38662155  0.50344965  0.47969494  1
  O  O396  1  0.38838164  0.48150876  1.02185212  1
  O  O397  1  0.37157635  1.00278881  0.48473606  1
  O  O398  1  0.37892798  1.00246696  0.98728715  1
  O  O399  1  0.88082891  0.49024116  0.49526105  1
  O  O400  1  0.87280412  0.49181215  0.99265454  1
  O  O401  1  0.88831227  1.00812330  0.50862504  1
  O  O402  1  0.86723709  0.99108392  0.98097651  1
  O  O403  1  0.12824538  0.00980148  -0.00562790  1
  O  O404  1  0.11802234  0.00980830  0.50760255  1
  O  O405  1  0.11669443  0.50728704  0.01303448  1
  O  O406  1  0.11394657  0.49482459  0.50687677  1
  O  O407  1  0.62055182  0.00581127  0.00622671  1
  O  O408  1  0.62690347  -0.00111064  0.51280342  1
  O  O409  1  0.63068144  0.50186220  0.01207344  1
  O  O410  1  0.62064564  0.49126419  0.50661584  1
  O  O411  1  0.37011986  0.36495087  0.12557827  1
  O  O412  1  0.38356316  0.36051832  0.62522353  1
  O  O413  1  0.36699777  0.86831994  0.13532227  1
  O  O414  1  0.36846818  0.87076639  0.61727259  1
  O  O415  1  0.86544635  0.37946197  0.11322651  1
  O  O416  1  0.87755221  0.36744734  0.61707411  1
  O  O417  1  0.86516376  0.87366076  0.11522429  1
  O  O418  1  0.85872120  0.87224375  0.63268793  1
  O  O419  1  0.12941982  0.12455092  0.39001560  1
  O  O420  1  0.13949390  0.12156227  0.88321342  1
  O  O421  1  0.14136985  0.63225886  0.36785075  1
  O  O422  1  0.11740696  0.63487144  0.88649293  1
  O  O423  1  0.63024017  0.13291372  0.37486179  1
  O  O424  1  0.61700309  0.13349427  0.88152624  1
  O  O425  1  0.62173768  0.63541285  0.37060006  1
  O  O426  1  0.63285057  0.63296056  0.88292868  1
