# generated using pymatgen
data_V85Zn86O256
_symmetry_space_group_name_H-M   'P 1'
_cell_length_a   16.93406793
_cell_length_b   16.94575628
_cell_length_c   16.95146691
_cell_angle_alpha   90.01731836
_cell_angle_beta   90.03938001
_cell_angle_gamma   90.01680622
_symmetry_Int_Tables_number   1
_chemical_formula_structural   V85Zn86O256
_chemical_formula_sum   'V85 Zn86 O256'
_cell_volume   4864.40133177
_cell_formula_units_Z   1
loop_
 _symmetry_equiv_pos_site_id
 _symmetry_equiv_pos_as_xyz
  1  'x, y, z'
loop_
 _atom_site_type_symbol
 _atom_site_label
 _atom_site_symmetry_multiplicity
 _atom_site_fract_x
 _atom_site_fract_y
 _atom_site_fract_z
 _atom_site_occupancy
  V  V0  1  0.00070248  0.75116308  0.25090895  1
  V  V1  1  0.01032140  0.50895819  -0.00899855  1
  V  V2  1  0.62360849  0.62538580  -0.00815677  1
  V  V3  1  0.61702461  0.49274674  0.62566919  1
  V  V4  1  0.11613768  0.89402912  0.77116903  1
  V  V5  1  0.25408368  0.13021827  0.36654863  1
  V  V6  1  0.62415544  0.74213020  0.36853810  1
  V  V7  1  0.62450284  0.00468503  0.12903599  1
  V  V8  1  0.37374676  0.24601110  0.63037106  1
  V  V9  1  0.11976617  0.48978885  0.12506481  1
  V  V10  1  0.87688940  0.88629886  -0.00108285  1
  V  V11  1  0.11865654  0.50420185  0.61825397  1
  V  V12  1  0.87169337  0.49735791  0.88199853  1
  V  V13  1  0.62620089  0.87023406  0.75682305  1
  V  V14  1  0.74579593  0.74932991  -0.00811444  1
  V  V15  1  0.50408085  0.37043337  0.87783846  1
  V  V16  1  0.87398509  0.74905089  0.62169605  1
  V  V17  1  0.38233772  0.50144876  0.37629745  1
  V  V18  1  0.49909743  0.87361686  0.87427313  1
  V  V19  1  0.25514722  0.00638162  0.24613795  1
  V  V20  1  0.37764518  0.63056617  0.24919187  1
  V  V21  1  0.63965798  0.12502558  -0.00456203  1
  V  V22  1  0.74669043  0.87427351  0.62225892  1
  V  V23  1  0.75737182  0.12553057  0.38377489  1
  V  V24  1  0.49950736  0.25281806  0.25165089  1
  V  V25  1  0.37605266  0.00783538  0.87035484  1
  V  V26  1  0.74804676  0.48914926  0.74792573  1
  V  V27  1  0.24522784  0.62511567  0.37266480  1
  V  V28  1  0.24952949  0.12964381  0.88083027  1
  V  V29  1  0.37207952  0.75095653  0.62743461  1
  V  V30  1  0.00224404  0.37960447  0.36994873  1
  V  V31  1  0.76051108  0.00269382  0.25833282  1
  V  V32  1  0.37207689  0.87613607  0.49888060  1
  V  V33  1  0.37477498  0.49748783  0.87729184  1
  V  V34  1  0.86906642  0.24065293  0.62638256  1
  V  V35  1  0.35559463  0.24605722  0.12884489  1
  V  V36  1  0.12084941  0.25672634  0.36522536  1
  V  V37  1  0.63929133  0.24547029  0.87450507  1
  V  V38  1  0.50101429  0.25154498  0.75335149  1
  V  V39  1  0.36946940  0.36791648  0.00321636  1
  V  V40  1  0.74613603  0.74605909  0.49331728  1
  V  V41  1  0.62048438  0.87089317  0.24955249  1
  V  V42  1  0.25480725  0.00981171  0.74438646  1
  V  V43  1  0.62530282  0.24964012  0.38072386  1
  V  V44  1  0.00880027  0.24042888  0.74095977  1
  V  V45  1  0.00972918  0.62647070  0.11708400  1
  V  V46  1  0.75724360  0.00278429  0.76132645  1
  V  V47  1  0.25050409  0.25081562  0.49971845  1
  V  V48  1  0.49831187  0.86969838  0.37233104  1
  V  V49  1  0.37539851  0.87477404  -0.00053843  1
  V  V50  1  0.24419061  0.75050918  0.49955204  1
  V  V51  1  0.61652921  0.62079218  0.50047383  1
  V  V52  1  0.25182363  0.87724826  0.12485762  1
  V  V53  1  0.00210336  0.75152524  0.74597847  1
  V  V54  1  0.49641840  0.12307827  0.63177757  1
  V  V55  1  0.74688878  0.87267881  0.12704372  1
  V  V56  1  -0.00116939  0.37162871  0.87031951  1
  V  V57  1  0.24176439  0.62438483  0.88062196  1
  V  V58  1  0.49997315  0.00046761  0.50022465  1
  V  V59  1  0.50123616  0.74794690  0.75453841  1
  V  V60  1  0.12237777  0.13015011  0.50205175  1
  V  V61  1  0.74714702  0.62709056  0.87076184  1
  V  V62  1  0.87259211  0.74285747  0.12231359  1
  V  V63  1  0.37286055  0.62758281  0.75163114  1
  V  V64  1  0.50188452  0.62881355  0.12822877  1
  V  V65  1  0.87620148  0.50938322  0.38715411  1
  V  V66  1  0.11530059  0.00409347  0.11842037  1
  V  V67  1  0.11834105  0.13328751  0.00114731  1
  V  V68  1  0.86864604  0.62278067  0.24983605  1
  V  V69  1  0.62410031  -0.00061042  0.62610932  1
  V  V70  1  -0.00615554  0.00449074  0.48845269  1
  V  V71  1  0.50102718  0.00168559  0.00007226  1
  V  V72  1  0.37595387  0.00566759  0.37180070  1
  V  V73  1  0.87720904  0.37495918  0.50871811  1
  V  V74  1  0.25078120  0.37625754  0.62494455  1
  V  V75  1  0.38164069  0.38114907  0.50064762  1
  V  V76  1  0.75791973  0.48996804  0.25339891  1
  V  V77  1  0.11485403  0.00434875  0.62303347  1
  V  V78  1  0.49953120  0.49785018  0.00196763  1
  V  V79  1  0.24432239  0.49383388  0.24862958  1
  V  V80  1  0.49786165  0.12860263  0.13131386  1
  V  V81  1  0.24548155  0.87882613  0.62561028  1
  V  V82  1  0.63556081  0.49433854  0.12539785  1
  V  V83  1  0.24367004  0.74661531  0.00236289  1
  V  V84  1  0.24966293  0.50084302  0.74936240  1
  Zn  Zn85  1  0.79757348  0.29262896  0.04106405  1
  Zn  Zn86  1  -0.00803374  0.62131212  0.61624217  1
  Zn  Zn87  1  0.62750261  0.37582356  0.25396753  1
  Zn  Zn88  1  0.12395632  0.87768868  0.24982967  1
  Zn  Zn89  1  0.87209687  0.87955178  0.49114660  1
  Zn  Zn90  1  0.12892496  0.25433483  0.87957887  1
  Zn  Zn91  1  0.24431821  0.37327716  0.12306876  1
  Zn  Zn92  1  0.74576577  0.36971789  0.62033664  1
  Zn  Zn93  1  0.50473580  0.37868338  0.37754335  1
  Zn  Zn94  1  0.87800416  0.11769969  0.75607892  1
  Zn  Zn95  1  0.11522760  0.62262407  0.49340672  1
  Zn  Zn96  1  -0.00500163  0.88220766  0.36792606  1
  Zn  Zn97  1  0.87431269  0.62593218  0.74925842  1
  Zn  Zn98  1  0.49416556  0.62025355  0.62161801  1
  Zn  Zn99  1  0.11727113  0.74657223  0.87989969  1
  Zn  Zn100  1  -0.01600882  0.87583007  0.87825922  1
  Zn  Zn101  1  0.90029427  0.13044049  0.26708756  1
  Zn  Zn102  1  -0.02155067  0.14178449  0.12332389  1
  Zn  Zn103  1  0.12262908  0.75527620  0.37262902  1
  Zn  Zn104  1  0.62747798  0.13042413  0.50481961  1
  Zn  Zn105  1  0.37942281  0.75206219  0.12841928  1
  Zn  Zn106  1  0.12628019  0.37679994  0.74978789  1
  Zn  Zn107  1  0.12733609  0.22422990  0.15823731  1
  Zn  Zn108  1  0.18674828  0.18585114  0.68898984  1
  Zn  Zn109  1  0.18762896  0.68714735  0.18758355  1
  Zn  Zn110  1  0.18335463  0.68978703  0.69000632  1
  Zn  Zn111  1  0.77880839  0.19851724  0.18878673  1
  Zn  Zn112  1  0.68770974  0.18410364  0.69351189  1
  Zn  Zn113  1  0.68793298  0.68266462  0.18509144  1
  Zn  Zn114  1  0.68349152  0.68495771  0.68504339  1
  Zn  Zn115  1  0.31550749  0.31235017  0.31026853  1
  Zn  Zn116  1  0.31428469  0.31127462  0.81185803  1
  Zn  Zn117  1  0.31081853  0.81305985  0.31112154  1
  Zn  Zn118  1  0.30303109  0.81800197  0.81508907  1
  Zn  Zn119  1  0.81031337  0.31446811  0.32920671  1
  Zn  Zn120  1  0.81938637  0.31160174  0.80931748  1
  Zn  Zn121  1  0.81371528  0.81428937  0.31451141  1
  Zn  Zn122  1  0.81248012  0.81289033  0.81202977  1
  Zn  Zn123  1  0.19111054  0.43758671  0.43756717  1
  Zn  Zn124  1  0.18343058  0.43532686  0.93910186  1
  Zn  Zn125  1  0.18204632  0.93874859  0.43311312  1
  Zn  Zn126  1  0.18517953  0.94187272  0.93558678  1
  Zn  Zn127  1  0.69262979  0.43831902  0.43984066  1
  Zn  Zn128  1  0.68485043  0.43484451  0.93566246  1
  Zn  Zn129  1  0.68526697  0.93763599  0.43680216  1
  Zn  Zn130  1  0.68783833  0.93596238  0.93860180  1
  Zn  Zn131  1  0.31368312  0.06561189  0.06043824  1
  Zn  Zn132  1  0.31189957  0.06585773  0.55807110  1
  Zn  Zn133  1  0.31129951  0.56103353  0.06417015  1
  Zn  Zn134  1  0.30911856  0.56480956  0.56095567  1
  Zn  Zn135  1  0.81176663  0.06475695  0.07046631  1
  Zn  Zn136  1  0.81224581  0.06329407  0.56592744  1
  Zn  Zn137  1  0.82824734  0.45297614  0.07300177  1
  Zn  Zn138  1  0.80356289  0.56533183  0.56221194  1
  Zn  Zn139  1  0.43798907  0.43707897  0.18767917  1
  Zn  Zn140  1  0.43794915  0.43398926  0.69106630  1
  Zn  Zn141  1  0.43742770  0.93866409  0.18886062  1
  Zn  Zn142  1  0.43570776  0.93571451  0.68876493  1
  Zn  Zn143  1  0.93994519  0.31053372  0.19994889  1
  Zn  Zn144  1  0.93460965  0.43657558  0.69215663  1
  Zn  Zn145  1  0.93478122  0.93535739  0.18439992  1
  Zn  Zn146  1  0.93605538  0.93444090  0.67842843  1
  Zn  Zn147  1  0.07113546  0.06867744  0.30766311  1
  Zn  Zn148  1  0.03648623  0.06725598  0.83403239  1
  Zn  Zn149  1  0.05672827  0.56116359  0.30817670  1
  Zn  Zn150  1  0.06133546  0.56550580  0.80440554  1
  Zn  Zn151  1  0.56726395  0.06519053  0.31274555  1
  Zn  Zn152  1  0.56553384  0.06369052  0.81019118  1
  Zn  Zn153  1  0.56423054  0.56217035  0.30861888  1
  Zn  Zn154  1  0.56174040  0.55902519  0.80879052  1
  Zn  Zn155  1  0.43913765  0.18848905  0.44212726  1
  Zn  Zn156  1  0.43969026  0.18690516  0.94576121  1
  Zn  Zn157  1  0.43538355  0.68878564  0.43670835  1
  Zn  Zn158  1  0.43216571  0.68741920  0.93806280  1
  Zn  Zn159  1  0.94025212  0.19322152  0.44324110  1
  Zn  Zn160  1  0.92914340  0.17266904  0.92909201  1
  Zn  Zn161  1  0.93827998  0.68959090  0.43873652  1
  Zn  Zn162  1  0.93298125  0.68910974  0.93439670  1
  Zn  Zn163  1  -0.03144826  0.31207378  0.04668946  1
  Zn  Zn164  1  0.05931843  0.31957202  0.56020970  1
  Zn  Zn165  1  0.06172287  0.81687293  0.06485326  1
  Zn  Zn166  1  0.06122938  0.81837366  0.56261715  1
  Zn  Zn167  1  0.61434545  0.28293499  0.09243431  1
  Zn  Zn168  1  0.56005745  0.31265394  0.56247082  1
  Zn  Zn169  1  0.56308710  0.81063259  0.06079743  1
  Zn  Zn170  1  0.56008505  0.80990392  0.56359912  1
  O  O171  1  0.13686074  0.11454689  0.11223601  1
  O  O172  1  0.13610802  0.11852446  0.60931831  1
  O  O173  1  0.11255848  0.62293700  0.12653333  1
  O  O174  1  0.12926388  0.61131714  0.62447499  1
  O  O175  1  0.61670430  0.11010552  0.11587524  1
  O  O176  1  0.61789052  0.11802742  0.62557609  1
  O  O177  1  0.62001677  0.61586152  0.11551115  1
  O  O178  1  0.61860324  0.61592338  0.61693103  1
  O  O179  1  0.37361298  0.38518235  0.38336280  1
  O  O180  1  0.38158305  0.37758578  0.88114657  1
  O  O181  1  0.38108536  0.88127030  0.37752940  1
  O  O182  1  0.37758312  0.88619627  0.88005455  1
  O  O183  1  0.88473543  0.38465268  0.38554641  1
  O  O184  1  0.88543049  0.38672005  0.86536150  1
  O  O185  1  0.88104611  0.87339420  0.37918043  1
  O  O186  1  0.86846970  0.87428987  0.89281521  1
  O  O187  1  0.25447536  0.00709559  0.36731681  1
  O  O188  1  0.25758259  0.00766097  0.86508486  1
  O  O189  1  0.25522131  0.50821587  0.36784949  1
  O  O190  1  0.25339249  0.50567171  0.86830932  1
  O  O191  1  0.74197218  0.01085261  0.36931502  1
  O  O192  1  0.74826361  -0.00808618  0.85913515  1
  O  O193  1  0.76617118  0.50067729  0.36955790  1
  O  O194  1  0.75392609  0.50662487  0.86694990  1
  O  O195  1  0.23983323  0.50264423  0.13255751  1
  O  O196  1  0.24639996  0.49656594  0.63322502  1
  O  O197  1  0.25156659  0.99454382  0.13062472  1
  O  O198  1  0.24766543  0.99828153  0.62806506  1
  O  O199  1  0.74634567  0.50512571  0.13871750  1
  O  O200  1  0.73927958  0.49972898  0.63314879  1
  O  O201  1  0.73950563  0.99213427  0.13560754  1
  O  O202  1  0.74335171  0.98742386  0.62688739  1
  O  O203  1  -0.00009565  0.37967460  0.27123816  1
  O  O204  1  0.00459160  0.37245040  0.75747924  1
  O  O205  1  0.00135309  0.86476549  0.24495174  1
  O  O206  1  0.00569357  0.86604947  0.74261036  1
  O  O207  1  0.50153183  0.36794666  0.25516331  1
  O  O208  1  0.49574229  0.36073898  0.75995806  1
  O  O209  1  0.51123499  0.87833247  0.25706706  1
  O  O210  1  0.50633999  0.86877569  0.75452041  1
  O  O211  1  0.50424825  0.12898873  0.23750542  1
  O  O212  1  0.50098030  0.13248740  0.73939409  1
  O  O213  1  0.49177869  0.62076287  0.23992626  1
  O  O214  1  0.49169820  0.63279912  0.74997091  1
  O  O215  1  1.00882713  0.12648000  0.23796127  1
  O  O216  1  1.01661721  0.14047350  0.73771977  1
  O  O217  1  0.98955976  0.63099111  0.23904688  1
  O  O218  1  0.99827490  0.63940152  0.74069731  1
  O  O219  1  0.37898351  0.25770189  0.01473645  1
  O  O220  1  0.37063745  0.25750531  0.51136757  1
  O  O221  1  0.36578760  0.75941506  0.00228924  1
  O  O222  1  0.36280827  0.75565478  0.50426090  1
  O  O223  1  0.88931082  0.24614705  -0.00465011  1
  O  O224  1  0.87986306  0.25664203  0.51974431  1
  O  O225  1  0.86141970  0.75227034  0.00599608  1
  O  O226  1  0.86206229  0.75066939  0.50500617  1
  O  O227  1  0.13101151  0.24612713  0.49744876  1
  O  O228  1  0.12950590  0.23286393  1.00038455  1
  O  O229  1  0.13576278  0.75203527  0.49968431  1
  O  O230  1  0.13934993  0.75793262  0.99936219  1
  O  O231  1  0.61455610  0.24796618  0.48716028  1
  O  O232  1  0.61838092  0.23732895  0.98250891  1
  O  O233  1  0.62747842  0.74562285  0.49256689  1
  O  O234  1  0.63638463  0.74100831  1.00418918  1
  O  O235  1  0.50870420  0.24147831  0.13440580  1
  O  O236  1  0.49523111  0.24394148  0.63293998  1
  O  O237  1  0.49930801  0.73380386  0.11767352  1
  O  O238  1  0.48966870  0.75086896  0.63728763  1
  O  O239  1  1.01874311  0.25319704  0.13170068  1
  O  O240  1  0.99154999  0.26074828  0.63733538  1
  O  O241  1  0.99347859  0.74578896  0.12971601  1
  O  O242  1  0.98888059  0.75275038  0.62734484  1
  O  O243  1  0.00790078  0.26533496  0.38235417  1
  O  O244  1  0.00464987  0.25819206  0.85742950  1
  O  O245  1  0.00025575  0.74709841  0.35875267  1
  O  O246  1  -0.00006107  0.75613542  0.86436816  1
  O  O247  1  0.50086256  0.25027948  0.36823948  1
  O  O248  1  0.49714930  0.25389964  0.86814270  1
  O  O249  1  0.50436565  0.76349043  0.37831435  1
  O  O250  1  0.49101068  0.75641104  0.86246995  1
  O  O251  1  0.24475400  0.13269432  0.48962889  1
  O  O252  1  0.24143574  0.11587778  0.98710337  1
  O  O253  1  0.24675433  0.63474627  0.49015254  1
  O  O254  1  0.25602336  0.63383593  0.99270117  1
  O  O255  1  0.74521020  0.11537228  0.48848756  1
  O  O256  1  0.73848484  0.11250653  0.99590322  1
  O  O257  1  0.73390065  0.63921596  0.50399822  1
  O  O258  1  0.73951229  0.63189898  0.98438891  1
  O  O259  1  0.26504473  0.38212928  0.00099323  1
  O  O260  1  0.25938577  0.36877664  0.50561479  1
  O  O261  1  0.25644192  0.87252995  0.01003756  1
  O  O262  1  0.25244813  0.87078997  0.50417031  1
  O  O263  1  0.75884195  0.39222280  0.00315795  1
  O  O264  1  0.76925095  0.37899914  0.50192258  1
  O  O265  1  0.75233766  0.86675833  0.00726258  1
  O  O266  1  0.74421968  0.86565814  0.50771742  1
  O  O267  1  0.13275526  0.50749727  0.23928392  1
  O  O268  1  0.13823307  0.50145997  0.74147762  1
  O  O269  1  0.14050068  1.00082676  0.23703207  1
  O  O270  1  0.13670927  1.00142300  0.73503270  1
  O  O271  1  0.63916306  0.50388959  0.24418149  1
  O  O272  1  0.63142078  0.50389688  0.73492483  1
  O  O273  1  0.62894728  0.99167581  0.24344412  1
  O  O274  1  0.63334983  0.99152346  0.74382524  1
  O  O275  1  0.36366127  -0.00284968  0.25610363  1
  O  O276  1  0.36875609  -0.00242175  0.75912724  1
  O  O277  1  0.36742488  0.51036092  0.25630224  1
  O  O278  1  0.36588908  0.50481885  0.75463437  1
  O  O279  1  0.86196706  -0.00332882  0.24967223  1
  O  O280  1  0.85922172  -0.00741156  0.74014738  1
  O  O281  1  0.86855404  0.50894223  0.26048569  1
  O  O282  1  0.86441072  0.50609338  0.75651562  1
  O  O283  1  0.11108815  0.37253424  0.38714016  1
  O  O284  1  0.11951625  0.37247462  0.86921943  1
  O  O285  1  0.11706094  0.87343643  0.36769380  1
  O  O286  1  0.16148760  0.85638425  0.86093287  1
  O  O287  1  0.62427506  0.36864608  0.37730301  1
  O  O288  1  0.61134805  0.36096377  0.88105387  1
  O  O289  1  0.61683304  0.86685514  0.36814363  1
  O  O290  1  0.61834853  0.87697737  0.86319670  1
  O  O291  1  0.38417636  0.13631895  0.11945742  1
  O  O292  1  0.38267554  0.13459662  0.62039372  1
  O  O293  1  0.38316425  0.62463469  0.13307427  1
  O  O294  1  0.37382213  0.63179783  0.63217705  1
  O  O295  1  0.86545240  0.12733444  0.14345980  1
  O  O296  1  0.87451210  0.13745822  0.63019198  1
  O  O297  1  0.88423239  0.63776741  0.13060262  1
  O  O298  1  0.86863187  0.63809055  0.62734674  1
  O  O299  1  0.25418611  0.25218397  0.13467303  1
  O  O300  1  0.25762021  0.25470290  0.62238459  1
  O  O301  1  0.25299675  0.75826280  0.11957960  1
  O  O302  1  0.25207529  0.75663454  0.61888474  1
  O  O303  1  0.71981177  0.24674809  0.11051028  1
  O  O304  1  0.76446189  0.25173170  0.63734574  1
  O  O305  1  0.75524687  0.75303200  0.11810662  1
  O  O306  1  0.75132024  0.75898133  0.61987484  1
  O  O307  1  0.24838918  0.24670629  0.38098848  1
  O  O308  1  0.24882391  0.23380495  0.86471420  1
  O  O309  1  0.24838893  0.74375252  0.38205634  1
  O  O310  1  0.25724069  0.73684322  0.88521853  1
  O  O311  1  0.73875754  0.23509134  0.37660106  1
  O  O312  1  0.73805454  0.25403429  0.86816846  1
  O  O313  1  0.73661450  0.75475005  0.38289726  1
  O  O314  1  0.75069132  0.74276442  0.88091518  1
  O  O315  1  0.01559738  0.12192581  0.00845660  1
  O  O316  1  0.01015850  0.11692401  0.49851818  1
  O  O317  1  -0.00262040  0.62326925  0.00474191  1
  O  O318  1  0.00357778  0.62870992  0.50453094  1
  O  O319  1  0.50707407  0.11703454  0.01052983  1
  O  O320  1  0.50091266  0.11743552  0.51386828  1
  O  O321  1  0.50537179  0.61891557  0.00222101  1
  O  O322  1  0.51054631  0.63225023  0.50285468  1
  O  O323  1  0.48499144  0.37419710  0.49888130  1
  O  O324  1  0.48694322  0.38354287  0.99082558  1
  O  O325  1  0.49284809  0.87955475  0.49325565  1
  O  O326  1  0.49623225  0.87954275  0.99324264  1
  O  O327  1  0.98539665  0.37960337  0.49553549  1
  O  O328  1  1.00718750  0.39266394  0.97662099  1
  O  O329  1  1.00184955  0.89409801  0.49860331  1
  O  O330  1  0.98120025  0.87016976  1.00105100  1
  O  O331  1  0.48580171  0.50166542  0.37049142  1
  O  O332  1  0.49588401  0.48975000  0.87763571  1
  O  O333  1  0.49623418  0.99157872  0.37822878  1
  O  O334  1  0.49357386  0.99623167  0.87689415  1
  O  O335  1  0.98793673  0.49357050  0.37465361  1
  O  O336  1  0.99411197  0.50094614  0.87331816  1
  O  O337  1  1.00648736  1.00596327  0.38613705  1
  O  O338  1  1.05919484  0.95610475  0.85090595  1
  O  O339  1  0.01557842  -0.00220313  0.12757061  1
  O  O340  1  0.01180787  0.00062981  0.61763469  1
  O  O341  1  0.00720126  0.51154735  0.10819429  1
  O  O342  1  0.01611586  0.50100409  0.63442726  1
  O  O343  1  0.50510960  0.00496818  0.12188171  1
  O  O344  1  0.50300809  0.00627937  0.62446305  1
  O  O345  1  0.50562948  0.50997372  0.11977226  1
  O  O346  1  0.51217548  0.50014471  0.63161197  1
  O  O347  1  0.25636680  0.39132995  0.24837544  1
  O  O348  1  0.25235761  0.38509837  0.74391834  1
  O  O349  1  0.25101820  0.88158209  0.23757057  1
  O  O350  1  0.24448060  0.89017784  0.74166995  1
  O  O351  1  0.74957937  0.38688084  0.25706231  1
  O  O352  1  0.75056557  0.38687081  0.74912970  1
  O  O353  1  0.73800229  0.88021252  0.24675303  1
  O  O354  1  0.74186298  0.87725241  0.74200766  1
  O  O355  1  0.25011606  0.11878551  0.26436116  1
  O  O356  1  0.24822492  0.11428695  0.75702442  1
  O  O357  1  0.25651602  0.61898933  0.25626639  1
  O  O358  1  0.25524016  0.62030701  0.75677713  1
  O  O359  1  0.74639243  0.11366004  0.26799148  1
  O  O360  1  0.75370204  0.10688200  0.74994851  1
  O  O361  1  0.76446265  0.62164886  0.24653004  1
  O  O362  1  0.74426358  0.62129053  0.76090964  1
  O  O363  1  0.36764764  0.11648641  0.38340976  1
  O  O364  1  0.36859161  0.11403163  0.88414758  1
  O  O365  1  0.36595047  0.62044737  0.37047825  1
  O  O366  1  0.36726243  0.61572932  0.86971193  1
  O  O367  1  0.86218508  0.12986515  0.38104380  1
  O  O368  1  0.92561031  0.09226004  0.85659836  1
  O  O369  1  0.88025325  0.61476699  0.36765377  1
  O  O370  1  0.86312266  0.61904257  0.87066423  1
  O  O371  1  0.12625877  0.39028272  0.12051664  1
  O  O372  1  0.13361384  0.38741404  0.62480077  1
  O  O373  1  0.13429845  0.88839821  0.12459652  1
  O  O374  1  0.12994905  0.88777677  0.63166737  1
  O  O375  1  0.61746647  0.39282139  0.13023298  1
  O  O376  1  0.62659259  0.38815143  0.61824346  1
  O  O377  1  0.62496385  0.88144039  0.13159328  1
  O  O378  1  0.62808236  0.87801865  0.63459844  1
  O  O379  1  0.13639074  0.25633748  0.26770276  1
  O  O380  1  0.11835322  0.25675565  0.74661962  1
  O  O381  1  0.11501791  0.75245625  0.24781666  1
  O  O382  1  0.11522407  0.76241825  0.74890658  1
  O  O383  1  0.60983593  0.25459287  0.26642155  1
  O  O384  1  0.61556962  0.24349810  0.76482339  1
  O  O385  1  0.62975475  0.75672023  0.25671746  1
  O  O386  1  0.61334299  0.75774615  0.74467111  1
  O  O387  1  0.38721557  0.25365989  0.23956481  1
  O  O388  1  0.38230229  0.25249777  0.73706229  1
  O  O389  1  0.37092892  0.73549115  0.24967862  1
  O  O390  1  0.37642096  0.74801376  0.74655916  1
  O  O391  1  0.86308447  0.24625522  0.25547034  1
  O  O392  1  0.88762394  0.24341154  0.74258894  1
  O  O393  1  0.87898719  0.74462937  0.24154332  1
  O  O394  1  0.88116888  0.75274787  0.73952823  1
  O  O395  1  0.36639010  0.49344661  0.48989725  1
  O  O396  1  0.38118610  0.49574261  0.99510504  1
  O  O397  1  0.37950044  0.99308235  0.49332378  1
  O  O398  1  0.38209228  0.99332473  0.99323161  1
  O  O399  1  0.87067850  0.50102157  0.49104866  1
  O  O400  1  0.88979792  0.50669423  0.98491463  1
  O  O401  1  0.89183024  1.00291329  0.50732585  1
  O  O402  1  0.86802652  0.98393724  1.01024504  1
  O  O403  1  0.13026357  0.00383062  0.01393260  1
  O  O404  1  0.11986850  0.01034540  0.50426692  1
  O  O405  1  0.11700601  0.50545292  0.00398639  1
  O  O406  1  0.13430923  0.50256973  0.51551499  1
  O  O407  1  0.61909749  0.00133647  0.00687540  1
  O  O408  1  0.61535707  -0.00355416  0.51061337  1
  O  O409  1  0.61904319  0.50794599  0.00611120  1
  O  O410  1  0.62996134  0.50915329  0.51179180  1
  O  O411  1  0.37298088  0.36557295  0.11887644  1
  O  O412  1  0.36978882  0.37056205  0.61937001  1
  O  O413  1  0.37032051  0.87345205  0.11911463  1
  O  O414  1  0.36681299  0.87055033  0.61906668  1
  O  O415  1  0.88447742  0.36326868  0.11363540  1
  O  O416  1  0.87198020  0.36780275  0.62354805  1
  O  O417  1  0.86757942  0.86327562  0.11736456  1
  O  O418  1  0.86371306  0.86526553  0.61579658  1
  O  O419  1  0.13395366  0.13599604  0.38474457  1
  O  O420  1  0.12935714  0.12260908  0.88806132  1
  O  O421  1  0.13582818  0.62618634  0.37258041  1
  O  O422  1  0.13821535  0.62854888  0.86798449  1
  O  O423  1  0.63004795  0.13240184  0.38117687  1
  O  O424  1  0.62181433  0.13503313  0.88126230  1
  O  O425  1  0.61632697  0.63656633  0.38051708  1
  O  O426  1  0.62653631  0.61891951  0.88536599  1
