# generated using pymatgen
data_V85Zn86O256
_symmetry_space_group_name_H-M   'P 1'
_cell_length_a   16.93650622
_cell_length_b   16.93520911
_cell_length_c   16.92781829
_cell_angle_alpha   90.05276842
_cell_angle_beta   90.00178733
_cell_angle_gamma   89.95866693
_symmetry_Int_Tables_number   1
_chemical_formula_structural   V85Zn86O256
_chemical_formula_sum   'V85 Zn86 O256'
_cell_volume   4855.28894609
_cell_formula_units_Z   1
loop_
 _symmetry_equiv_pos_site_id
 _symmetry_equiv_pos_as_xyz
  1  'x, y, z'
loop_
 _atom_site_type_symbol
 _atom_site_label
 _atom_site_symmetry_multiplicity
 _atom_site_fract_x
 _atom_site_fract_y
 _atom_site_fract_z
 _atom_site_occupancy
  V  V0  1  0.37627365  0.11665538  0.75353150  1
  V  V1  1  0.12982547  0.49683937  0.13652816  1
  V  V2  1  0.36386320  0.37589337  -0.00279308  1
  V  V3  1  0.75049521  0.37544641  0.12819591  1
  V  V4  1  -0.00166481  0.75503845  0.25863993  1
  V  V5  1  0.00032310  0.86230670  0.86953429  1
  V  V6  1  0.50073187  0.37946893  0.88162754  1
  V  V7  1  0.61816658  0.75081561  0.87258883  1
  V  V8  1  0.23184671  0.75494650  0.50439007  1
  V  V9  1  0.60857064  0.62501340  0.50721932  1
  V  V10  1  0.00121028  0.62449245  0.12644637  1
  V  V11  1  -0.00199337  0.00163358  0.00102140  1
  V  V12  1  0.50440776  -0.01007151  -0.01313187  1
  V  V13  1  0.13027022  -0.00809913  0.13094681  1
  V  V14  1  0.75089036  0.12350777  0.87585937  1
  V  V15  1  0.37769444  0.50508974  0.87899416  1
  V  V16  1  0.50317358  -0.00019688  0.50784181  1
  V  V17  1  0.50152014  0.74451677  0.74308552  1
  V  V18  1  0.87540301  -0.00273468  0.87251110  1
  V  V19  1  0.75335916  0.24906580  0.00436151  1
  V  V20  1  0.50039643  0.25069391  0.24954664  1
  V  V21  1  0.87706736  0.37217845  0.00783318  1
  V  V22  1  0.87426079  0.87254778  -0.00303941  1
  V  V23  1  0.37180724  0.12531024  0.25022250  1
  V  V24  1  0.13035414  0.86924663  0.74718810  1
  V  V25  1  0.37579327  0.00180693  0.37591709  1
  V  V26  1  0.87168114  0.87625128  0.49502483  1
  V  V27  1  -0.00148376  0.25403625  0.24362119  1
  V  V28  1  0.74920768  0.62411849  0.38639588  1
  V  V29  1  0.62681098  0.12210113  0.50999133  1
  V  V30  1  0.13078439  0.00038236  0.62717616  1
  V  V31  1  0.00014803  0.13364242  0.62887900  1
  V  V32  1  0.00120232  0.37711605  0.37279207  1
  V  V33  1  0.75797164  -0.00058991  0.25414217  1
  V  V34  1  0.49988644  0.24968628  0.75183375  1
  V  V35  1  0.38161649  0.61465892  0.24107725  1
  V  V36  1  0.87059532  0.62348271  0.25180584  1
  V  V37  1  0.24711547  0.37554661  0.14258679  1
  V  V38  1  0.12588327  0.25400461  0.36786754  1
  V  V39  1  0.17168165  0.81223035  0.31135779  1
  V  V40  1  0.25131951  0.63234110  0.87837001  1
  V  V41  1  -0.00089661  0.36743511  0.87259915  1
  V  V42  1  0.32970765  -0.05994638  0.93127298  1
  V  V43  1  0.75507948  0.12323883  0.37794522  1
  V  V44  1  0.12320430  0.12775888  0.50104775  1
  V  V45  1  0.75119608  0.49652284  0.73532356  1
  V  V46  1  0.74790411  0.74625133  -0.00263994  1
  V  V47  1  0.37604467  0.38931646  0.50368019  1
  V  V48  1  0.50274542  0.87279086  0.37709906  1
  V  V49  1  0.24556613  0.37876464  0.62745259  1
  V  V50  1  0.11973687  0.37653625  0.74600952  1
  V  V51  1  0.61173319  0.62019862  0.00083338  1
  V  V52  1  0.23972121  0.61759802  0.36594962  1
  V  V53  1  0.12699406  0.24959351  0.87130962  1
  V  V54  1  0.62710599  0.87395362  0.25175268  1
  V  V55  1  0.12882586  0.63403697  0.00006722  1
  V  V56  1  0.74925012  -0.00156831  0.74266899  1
  V  V57  1  0.87421485  0.13120871  0.24379828  1
  V  V58  1  0.37653890  0.62135519  0.73594318  1
  V  V59  1  0.25693003  0.13117352  0.87962974  1
  V  V60  1  0.86976658  0.37491490  0.50469777  1
  V  V61  1  0.87387336  0.74826704  0.12430619  1
  V  V62  1  0.88264928  0.74224980  0.62012172  1
  V  V63  1  0.37793594  0.75610847  0.61723581  1
  V  V64  1  0.74970751  0.62196289  0.87129019  1
  V  V65  1  0.74976561  0.86733959  0.62213140  1
  V  V66  1  0.60753006  0.49486364  0.62085668  1
  V  V67  1  0.87944849  0.13264733  0.75161941  1
  V  V68  1  0.01104838  0.50904191  0.50293747  1
  V  V69  1  -0.00585805  0.00303817  0.49433875  1
  V  V70  1  0.62601921  0.25125978  0.87618719  1
  V  V71  1  0.37560230  0.24866191  0.62555572  1
  V  V72  1  0.37133582  0.25067356  0.11781530  1
  V  V73  1  0.25087354  0.24991093  0.49987788  1
  V  V74  1  0.62313747  0.00145043  0.12569049  1
  V  V75  1  0.62126592  0.87695140  0.74779986  1
  V  V76  1  0.37670427  0.76864465  0.12072869  1
  V  V77  1  0.87346952  0.49811579  0.87481656  1
  V  V78  1  0.50012408  0.38296927  0.38174725  1
  V  V79  1  0.00320315  0.49871955  0.00248122  1
  V  V80  1  0.12801029  0.13040477  0.00180178  1
  V  V81  1  0.74970181  0.87367889  0.12387662  1
  V  V82  1  0.61109379  0.50067979  0.12219323  1
  V  V83  1  0.62599653  0.24962963  0.37776545  1
  V  V84  1  0.62861344  0.74752820  0.37969033  1
  Zn  Zn85  1  0.37358844  0.50451752  0.37623004  1
  Zn  Zn86  1  0.74683372  0.50071594  0.25017132  1
  Zn  Zn87  1  0.07302303  0.56940695  0.65697125  1
  Zn  Zn88  1  0.24850020  -0.01008818  0.24919642  1
  Zn  Zn89  1  0.25511968  -0.00498963  0.74849570  1
  Zn  Zn90  1  0.87340898  0.49918430  0.37619287  1
  Zn  Zn91  1  0.74698505  0.25605784  0.51035630  1
  Zn  Zn92  1  -0.00159859  0.12961360  0.12412673  1
  Zn  Zn93  1  0.00659341  0.73725336  0.74674389  1
  Zn  Zn94  1  0.62953243  0.37236538  0.74500691  1
  Zn  Zn95  1  0.50515635  0.74009318  0.24123597  1
  Zn  Zn96  1  0.88807517  0.61964260  0.74328366  1
  Zn  Zn97  1  0.50360155  0.11968617  0.62971097  1
  Zn  Zn98  1  0.62605690  0.37668337  0.25201499  1
  Zn  Zn99  1  0.24824665  0.12389019  0.37373941  1
  Zn  Zn100  1  0.36890532  0.87712810  0.50369357  1
  Zn  Zn101  1  0.87080025  0.25522057  0.63120397  1
  Zn  Zn102  1  -0.00400934  0.88323857  0.36961799  1
  Zn  Zn103  1  0.24411835  0.50364026  0.75045321  1
  Zn  Zn104  1  0.49867709  0.12372794  0.12213237  1
  Zn  Zn105  1  0.62305392  0.12569467  0.00090461  1
  Zn  Zn106  1  0.25379318  0.76262185  0.00325349  1
  Zn  Zn107  1  0.18818447  0.18767773  0.18569554  1
  Zn  Zn108  1  0.18892009  0.18851375  0.69177543  1
  Zn  Zn109  1  0.19765077  0.68291559  0.17990853  1
  Zn  Zn110  1  0.19598444  0.69462920  0.68930638  1
  Zn  Zn111  1  0.68797118  0.18878071  0.18803755  1
  Zn  Zn112  1  0.69094548  0.18935245  0.68823046  1
  Zn  Zn113  1  0.68510781  0.68381829  0.18757745  1
  Zn  Zn114  1  0.69156498  0.68488455  0.68312231  1
  Zn  Zn115  1  0.31652331  0.31247267  0.31617947  1
  Zn  Zn116  1  0.31150563  0.31090299  0.81242766  1
  Zn  Zn117  1  0.33323110  0.80684934  0.31052640  1
  Zn  Zn118  1  0.31141303  0.80547149  0.80748213  1
  Zn  Zn119  1  0.81357245  0.31248156  0.31591090  1
  Zn  Zn120  1  0.81071004  0.31452150  0.81397576  1
  Zn  Zn121  1  0.81124675  0.80914507  0.31503052  1
  Zn  Zn122  1  0.81449689  0.80630647  0.80477649  1
  Zn  Zn123  1  0.18699250  0.43571200  0.43472957  1
  Zn  Zn124  1  0.18867335  0.44317114  0.93854534  1
  Zn  Zn125  1  0.18937248  0.94265211  0.44246928  1
  Zn  Zn126  1  0.16827830  0.94053532  0.93370334  1
  Zn  Zn127  1  0.68646442  0.44177505  0.43942912  1
  Zn  Zn128  1  0.68653075  0.43796088  0.93869819  1
  Zn  Zn129  1  0.68920443  0.93956220  0.43977220  1
  Zn  Zn130  1  0.68599256  0.93522648  0.93423478  1
  Zn  Zn131  1  0.31010487  0.06393538  0.06656213  1
  Zn  Zn132  1  0.31414303  0.06419285  0.56338790  1
  Zn  Zn133  1  0.31383781  0.55900820  0.06251410  1
  Zn  Zn134  1  0.26332139  0.58063611  0.56952578  1
  Zn  Zn135  1  0.81212855  0.06242171  0.06494544  1
  Zn  Zn136  1  0.81330237  0.06351541  0.56520375  1
  Zn  Zn137  1  0.80835091  0.56009809  0.06181330  1
  Zn  Zn138  1  0.81547869  0.55952351  0.55736781  1
  Zn  Zn139  1  0.43526473  0.43525037  0.19029271  1
  Zn  Zn140  1  0.43434860  0.43462693  0.69301189  1
  Zn  Zn141  1  0.44251684  0.93921494  0.18980099  1
  Zn  Zn142  1  0.43995437  0.93296033  0.69056873  1
  Zn  Zn143  1  0.93852860  0.43862179  0.18911472  1
  Zn  Zn144  1  0.93859494  0.43677159  0.68656389  1
  Zn  Zn145  1  0.93739556  0.93902440  0.18523892  1
  Zn  Zn146  1  0.93991416  0.93904400  0.68282516  1
  Zn  Zn147  1  0.06208668  0.06665054  0.31271821  1
  Zn  Zn148  1  0.06297938  0.05965528  0.81274088  1
  Zn  Zn149  1  0.05917933  0.56329223  0.31415443  1
  Zn  Zn150  1  0.06471386  0.55910285  0.82396195  1
  Zn  Zn151  1  0.56367375  0.06388463  0.31471490  1
  Zn  Zn152  1  0.56712863  0.06312001  0.81191510  1
  Zn  Zn153  1  0.56342439  0.56086873  0.31122305  1
  Zn  Zn154  1  0.56196315  0.56212489  0.80869650  1
  Zn  Zn155  1  0.43939497  0.18879068  0.43932366  1
  Zn  Zn156  1  0.44155778  0.18370191  0.94029923  1
  Zn  Zn157  1  0.43362637  0.68474019  0.43179389  1
  Zn  Zn158  1  0.43543911  0.69396584  0.93696506  1
  Zn  Zn159  1  0.93646260  0.19050257  0.43545854  1
  Zn  Zn160  1  0.93698517  0.18827171  0.93824172  1
  Zn  Zn161  1  0.93766160  0.68895071  0.43935362  1
  Zn  Zn162  1  0.93649477  0.68321097  0.93697454  1
  Zn  Zn163  1  0.06859595  0.31209653  0.06212102  1
  Zn  Zn164  1  0.05917868  0.31514356  0.55922408  1
  Zn  Zn165  1  0.05997855  0.81167327  0.06513106  1
  Zn  Zn166  1  0.05710807  0.81871441  0.56357627  1
  Zn  Zn167  1  0.56170349  0.31501664  0.06172652  1
  Zn  Zn168  1  0.56189573  0.31224374  0.56337032  1
  Zn  Zn169  1  0.55897609  0.81068224  0.06180330  1
  Zn  Zn170  1  0.56425440  0.81059361  0.56337481  1
  O  O171  1  0.12234659  0.11972683  0.11582792  1
  O  O172  1  0.11865963  0.12253289  0.62290119  1
  O  O173  1  0.12269039  0.61642085  0.11953182  1
  O  O174  1  0.16304100  0.61642186  0.61747184  1
  O  O175  1  0.62701517  0.11174172  0.12531180  1
  O  O176  1  0.62433133  0.12573473  0.61370568  1
  O  O177  1  0.62852675  0.61066150  0.11624364  1
  O  O178  1  0.62638852  0.61789943  0.61267467  1
  O  O179  1  0.38200096  0.37692554  0.38544256  1
  O  O180  1  0.37877902  0.38045784  0.88007131  1
  O  O181  1  0.38726977  0.88268544  0.37718537  1
  O  O182  1  0.37790008  0.88107505  0.86742095  1
  O  O183  1  0.88305728  0.37679506  0.38356312  1
  O  O184  1  0.88133145  0.37797272  0.88491230  1
  O  O185  1  0.87151723  0.87047661  0.39055604  1
  O  O186  1  0.87919175  0.87790621  0.87708556  1
  O  O187  1  0.26288437  0.00207317  0.37283944  1
  O  O188  1  0.26054174  0.00273820  0.87835609  1
  O  O189  1  0.25062530  0.51456363  0.38003397  1
  O  O190  1  0.25969727  0.50948419  0.87300848  1
  O  O191  1  0.74384735  0.00995760  0.36462753  1
  O  O192  1  0.75656259  0.00296034  0.86746052  1
  O  O193  1  0.75060098  0.50935448  0.37027853  1
  O  O194  1  0.75208026  0.50871368  0.87042716  1
  O  O195  1  0.24439802  0.48411142  0.12149755  1
  O  O196  1  0.25664543  0.48103444  0.62857090  1
  O  O197  1  0.23562314  1.00130112  0.12817977  1
  O  O198  1  0.23558250  1.00579607  0.62471692  1
  O  O199  1  0.74383768  0.48733957  0.12529351  1
  O  O200  1  0.74619661  0.50337831  0.63348189  1
  O  O201  1  0.74360275  0.99306744  0.13122808  1
  O  O202  1  0.75548324  0.99134541  0.63832890  1
  O  O203  1  -0.00731480  0.36851735  0.26243820  1
  O  O204  1  0.00575287  0.37666964  0.76023972  1
  O  O205  1  -0.00979293  0.86508879  0.25249855  1
  O  O206  1  0.00678824  0.87581233  0.75650604  1
  O  O207  1  0.49897161  0.36309891  0.25935429  1
  O  O208  1  0.49989143  0.36492064  0.76201048  1
  O  O209  1  0.51014041  0.87862079  0.26449183  1
  O  O210  1  0.51476113  0.86612896  0.74675253  1
  O  O211  1  0.49089004  0.13426277  0.24948387  1
  O  O212  1  0.49463264  0.13070613  0.75119625  1
  O  O213  1  0.48673867  0.62370626  0.25420004  1
  O  O214  1  0.48954729  0.63276146  0.75228152  1
  O  O215  1  0.99011943  0.13376524  0.25041769  1
  O  O216  1  0.99097025  0.11764790  0.74297020  1
  O  O217  1  0.99109832  0.63226225  0.24493448  1
  O  O218  1  1.00813308  0.61858603  0.74456549  1
  O  O219  1  0.37948439  0.25504182  0.01299660  1
  O  O220  1  0.36659641  0.25377261  0.50544384  1
  O  O221  1  0.37600819  0.75169176  0.01453450  1
  O  O222  1  0.37974803  0.75362962  0.50703819  1
  O  O223  1  0.86300739  0.25728818  -0.00288327  1
  O  O224  1  0.87411871  0.26438072  0.49810441  1
  O  O225  1  0.86802413  0.75220695  0.00354454  1
  O  O226  1  0.87881292  0.75900245  0.51124016  1
  O  O227  1  0.13162178  0.24676635  0.49282705  1
  O  O228  1  0.12031895  0.23748607  0.98977852  1
  O  O229  1  0.13307572  0.75484996  0.50468738  1
  O  O230  1  0.12995677  0.73832788  1.00913049  1
  O  O231  1  0.62493769  0.24155208  0.49353888  1
  O  O232  1  0.63566685  0.25025016  0.99536304  1
  O  O233  1  0.62215721  0.73514058  0.49454068  1
  O  O234  1  0.62930626  0.74398310  0.99125776  1
  O  O235  1  0.49329239  0.25017756  0.13359316  1
  O  O236  1  0.49667203  0.24871083  0.63878097  1
  O  O237  1  0.48701490  0.75295163  0.12627927  1
  O  O238  1  0.49455216  0.74951729  0.63462534  1
  O  O239  1  1.00718003  0.25194648  0.13951584  1
  O  O240  1  0.99657393  0.23685593  0.62143271  1
  O  O241  1  0.99245363  0.74379004  0.13233204  1
  O  O242  1  0.98682842  0.75229371  0.62614522  1
  O  O243  1  0.00761211  0.25647741  0.36750669  1
  O  O244  1  0.00654695  0.26100548  0.88024336  1
  O  O245  1  -0.00177335  0.75114860  0.36177972  1
  O  O246  1  -0.00524497  0.75923176  0.87148857  1
  O  O247  1  0.50939910  0.25401927  0.36962549  1
  O  O248  1  0.50541008  0.25347444  0.86807476  1
  O  O249  1  0.51033776  0.75798582  0.37265966  1
  O  O250  1  0.51138345  0.74631295  0.86341104  1
  O  O251  1  0.24585626  0.13738669  0.49979557  1
  O  O252  1  0.24181536  0.11940015  0.98974575  1
  O  O253  1  0.25770333  0.65014640  0.47561362  1
  O  O254  1  0.24325974  0.62280892  0.99568739  1
  O  O255  1  0.74382019  0.12273215  0.49325941  1
  O  O256  1  0.75031258  0.13269542  0.99605782  1
  O  O257  1  0.74174289  0.62085721  0.48920637  1
  O  O258  1  0.74364107  0.62901698  0.99063485  1
  O  O259  1  0.26157546  0.37404669  0.00029908  1
  O  O260  1  0.25379215  0.36548876  0.50650136  1
  O  O261  1  0.25952014  0.88397751  -0.01779753  1
  O  O262  1  0.25290483  0.85874739  0.48889142  1
  O  O263  1  0.75793821  0.36909218  0.00492390  1
  O  O264  1  0.76593452  0.37694480  0.49326797  1
  O  O265  1  0.75474596  0.86695574  0.00269468  1
  O  O266  1  0.75638925  0.88288386  0.51259625  1
  O  O267  1  0.11827334  0.50234923  0.23546269  1
  O  O268  1  0.12535053  0.48644088  0.75110205  1
  O  O269  1  0.12432044  1.00597021  0.23532881  1
  O  O270  1  0.12821055  0.99240097  0.74385329  1
  O  O271  1  0.62607326  0.49808998  0.23607452  1
  O  O272  1  0.63244387  0.50157765  0.73516548  1
  O  O273  1  0.63332349  0.99574516  0.24396632  1
  O  O274  1  0.63525787  0.98853630  0.75563649  1
  O  O275  1  0.37401251  0.00807065  0.25658575  1
  O  O276  1  0.37559767  0.01219476  0.74459542  1
  O  O277  1  0.37639989  0.51000218  0.25368981  1
  O  O278  1  0.37201247  0.50693697  0.75915279  1
  O  O279  1  0.86304550  0.00692551  0.24624177  1
  O  O280  1  0.86933746  0.00534428  0.75496339  1
  O  O281  1  0.87423948  0.51390299  0.25133974  1
  O  O282  1  0.86601032  0.50021681  0.75369814  1
  O  O283  1  0.11674021  0.36442933  0.37757367  1
  O  O284  1  0.11902904  0.36856030  0.87206909  1
  O  O285  1  0.11972512  0.87665854  0.37164161  1
  O  O286  1  0.11276210  0.87787616  0.85950658  1
  O  O287  1  0.61893881  0.36755947  0.37707829  1
  O  O288  1  0.61690781  0.36989533  0.87446123  1
  O  O289  1  0.62364705  0.86630088  0.37383435  1
  O  O290  1  0.63626045  0.85899209  0.86299949  1
  O  O291  1  0.37527360  0.13345927  0.13191358  1
  O  O292  1  0.37781803  0.13188508  0.63421535  1
  O  O293  1  0.37102141  0.62204762  0.13862161  1
  O  O294  1  0.36144061  0.63081591  0.63419322  1
  O  O295  1  0.87590866  0.12421268  0.13845600  1
  O  O296  1  0.88347679  0.12433597  0.63566620  1
  O  O297  1  0.87722330  0.62921043  0.13094358  1
  O  O298  1  0.86836723  0.63905695  0.62212137  1
  O  O299  1  0.25761100  0.26320299  0.12865822  1
  O  O300  1  0.25465060  0.25622329  0.61946361  1
  O  O301  1  0.26844088  0.74969290  0.12069881  1
  O  O302  1  0.25922288  0.75292010  0.60784169  1
  O  O303  1  0.74334761  0.26324547  0.11713969  1
  O  O304  1  0.75696823  0.24852550  0.62319936  1
  O  O305  1  0.75360617  0.75428742  0.11951810  1
  O  O306  1  0.76309594  0.76027702  0.63076919  1
  O  O307  1  0.24356629  0.25055860  0.38257058  1
  O  O308  1  0.24123369  0.24162022  0.87478115  1
  O  O309  1  0.23815063  0.75361922  0.36895331  1
  O  O310  1  0.25799833  0.73712630  0.88376491  1
  O  O311  1  0.73781244  0.24420913  0.37771260  1
  O  O312  1  0.74499525  0.24586820  0.88295997  1
  O  O313  1  0.73560521  0.74181869  0.37169375  1
  O  O314  1  0.74482603  0.73664977  0.87400752  1
  O  O315  1  0.00491182  0.11756524  0.00070419  1
  O  O316  1  0.00204210  0.12162120  0.50680854  1
  O  O317  1  0.00772997  0.62098314  0.00618429  1
  O  O318  1  -0.00178897  0.60836089  0.49270841  1
  O  O319  1  0.50423759  0.11298278  0.00428497  1
  O  O320  1  0.50836603  0.11794820  0.50171885  1
  O  O321  1  0.51332070  0.62681464  -0.00836630  1
  O  O322  1  0.51068048  0.62299515  0.49556473  1
  O  O323  1  0.48812448  0.36720588  0.49324496  1
  O  O324  1  0.48847683  0.36685911  0.98662826  1
  O  O325  1  0.50470649  0.88254220  0.49002658  1
  O  O326  1  0.50549113  0.89030167  0.99884516  1
  O  O327  1  0.99229895  0.37977576  0.48911175  1
  O  O328  1  0.99324632  0.37627005  0.99717712  1
  O  O329  1  0.99085308  0.88555000  0.49659408  1
  O  O330  1  0.99464866  0.87979376  0.99159117  1
  O  O331  1  0.50032221  0.48569135  0.37392373  1
  O  O332  1  0.49225057  0.49017879  0.86816792  1
  O  O333  1  0.49241577  0.99584863  0.38180507  1
  O  O334  1  0.50645196  1.00157043  0.88771436  1
  O  O335  1  0.99767116  0.49204961  0.38061131  1
  O  O336  1  0.99475688  0.48666050  0.88386508  1
  O  O337  1  1.00277666  1.00388297  0.38943789  1
  O  O338  1  0.99562614  0.99247204  0.88578225  1
  O  O339  1  0.00503290  0.00298208  0.11348799  1
  O  O340  1  0.01001786  0.01040312  0.61601124  1
  O  O341  1  0.00602365  0.50498887  0.12025681  1
  O  O342  1  -0.00098610  0.49736971  0.60976655  1
  O  O343  1  0.50982680  0.00132811  0.11953764  1
  O  O344  1  0.49653096  -0.00118574  0.61164671  1
  O  O345  1  0.51260099  0.48989916  0.12326524  1
  O  O346  1  0.50932395  0.49958597  0.63103767  1
  O  O347  1  0.25439278  0.37537172  0.24113305  1
  O  O348  1  0.24046912  0.37324753  0.74384693  1
  O  O349  1  0.24073138  0.86855690  0.26126589  1
  O  O350  1  0.23511560  0.87668454  0.75520869  1
  O  O351  1  0.74885065  0.37558268  0.24185243  1
  O  O352  1  0.74679719  0.39223295  0.75830645  1
  O  O353  1  0.74750200  0.88206287  0.24648412  1
  O  O354  1  0.74549665  0.87973780  0.74279646  1
  O  O355  1  0.26292791  0.12551560  0.25205752  1
  O  O356  1  0.25712699  0.12067220  0.76195024  1
  O  O357  1  0.26156888  0.62876468  0.26006450  1
  O  O358  1  0.26038722  0.62642552  0.76210422  1
  O  O359  1  0.75508692  0.12012564  0.25578676  1
  O  O360  1  0.75617366  0.11506926  0.75616854  1
  O  O361  1  0.75652018  0.62501658  0.25823598  1
  O  O362  1  0.75094451  0.61283564  0.75628073  1
  O  O363  1  0.37578657  0.11881979  0.36844538  1
  O  O364  1  0.36685699  0.13239118  0.86845120  1
  O  O365  1  0.36641090  0.62597921  0.36096763  1
  O  O366  1  0.37166914  0.61888589  0.87078758  1
  O  O367  1  0.86063909  0.13086488  0.36735753  1
  O  O368  1  0.87162407  0.11761624  0.87006855  1
  O  O369  1  0.86536589  0.62710210  0.36900347  1
  O  O370  1  0.86787636  0.61588939  0.87155588  1
  O  O371  1  0.14033169  0.37943193  0.12147910  1
  O  O372  1  0.13094197  0.36391594  0.63574173  1
  O  O373  1  0.12089617  0.89358551  0.11747655  1
  O  O374  1  0.11761676  0.88580903  0.63838906  1
  O  O375  1  0.63143212  0.38471076  0.12442151  1
  O  O376  1  0.62152700  0.38989917  0.62484946  1
  O  O377  1  0.63050687  0.88341220  0.12971198  1
  O  O378  1  0.63692924  0.86727596  0.63406475  1
  O  O379  1  0.11778949  0.24217987  0.26113076  1
  O  O380  1  0.12604349  0.25762597  0.76381910  1
  O  O381  1  0.11833800  0.75390765  0.24311426  1
  O  O382  1  0.12299421  0.76459407  0.74422227  1
  O  O383  1  0.61682202  0.25093049  0.25750986  1
  O  O384  1  0.61756488  0.25110145  0.75698340  1
  O  O385  1  0.62286967  0.75541741  0.25655146  1
  O  O386  1  0.61953248  0.75036114  0.75303130  1
  O  O387  1  0.38154717  0.24459389  0.24355802  1
  O  O388  1  0.38225879  0.24099737  0.74716466  1
  O  O389  1  0.38233731  0.73868568  0.23642460  1
  O  O390  1  0.38291008  0.74256358  0.74139632  1
  O  O391  1  0.88420577  0.24260933  0.25472918  1
  O  O392  1  0.87228518  0.23640188  0.75525661  1
  O  O393  1  0.87920961  0.74062608  0.24573310  1
  O  O394  1  0.88234950  0.74283906  0.73715858  1
  O  O395  1  0.36600679  0.48897744  0.50084517  1
  O  O396  1  0.37488879  0.49205081  0.98777371  1
  O  O397  1  0.38174917  0.99908575  0.49292413  1
  O  O398  1  0.38490000  0.99854624  0.99948752  1
  O  O399  1  0.88359053  0.48924502  0.49682613  1
  O  O400  1  0.88044873  0.49216029  0.99487601  1
  O  O401  1  0.88360745  0.99154602  0.50795117  1
  O  O402  1  0.88065499  0.99425550  0.99572991  1
  O  O403  1  0.11607034  0.01141545  0.00630884  1
  O  O404  1  0.11965592  0.00830371  0.50750205  1
  O  O405  1  0.11895477  0.50669597  0.00845258  1
  O  O406  1  0.11062276  0.49415458  0.49747906  1
  O  O407  1  0.61940990  -0.00028687  0.00630378  1
  O  O408  1  0.61502999  0.01088148  0.49230161  1
  O  O409  1  0.62811305  0.50631357  0.01165998  1
  O  O410  1  0.62526457  0.50898301  0.51309044  1
  O  O411  1  0.36542615  0.37112324  0.11910378  1
  O  O412  1  0.36892592  0.36691861  0.62170515  1
  O  O413  1  0.37420252  0.86787370  0.13249127  1
  O  O414  1  0.37738921  0.86193316  0.62479344  1
  O  O415  1  0.86891855  0.37968174  0.11438808  1
  O  O416  1  0.88291944  0.37260491  0.60929842  1
  O  O417  1  0.86897840  0.86887688  0.11665889  1
  O  O418  1  0.86965038  0.86695028  0.61847812  1
  O  O419  1  0.12738143  0.13383139  0.38354648  1
  O  O420  1  0.13162836  0.13068418  0.87884337  1
  O  O421  1  0.14031328  0.62687127  0.36388042  1
  O  O422  1  0.13693997  0.61988431  0.88821712  1
  O  O423  1  0.63305433  0.13249685  0.38116331  1
  O  O424  1  0.63437440  0.13317783  0.87729777  1
  O  O425  1  0.62810954  0.62846316  0.38388130  1
  O  O426  1  0.63234174  0.62875647  0.87885044  1
