# generated using pymatgen
data_V85Zn86O256
_symmetry_space_group_name_H-M   'P 1'
_cell_length_a   16.95115288
_cell_length_b   16.99516796
_cell_length_c   16.97782632
_cell_angle_alpha   90.01551601
_cell_angle_beta   90.04303582
_cell_angle_gamma   90.07296177
_symmetry_Int_Tables_number   1
_chemical_formula_structural   V85Zn86O256
_chemical_formula_sum   'V85 Zn86 O256'
_cell_volume   4891.09724524
_cell_formula_units_Z   1
loop_
 _symmetry_equiv_pos_site_id
 _symmetry_equiv_pos_as_xyz
  1  'x, y, z'
loop_
 _atom_site_type_symbol
 _atom_site_label
 _atom_site_symmetry_multiplicity
 _atom_site_fract_x
 _atom_site_fract_y
 _atom_site_fract_z
 _atom_site_occupancy
  V  V0  1  0.74904136  0.37332342  0.62445661  1
  V  V1  1  0.00913579  0.62539792  0.63408243  1
  V  V2  1  -0.01318431  0.74192175  0.23941000  1
  V  V3  1  0.36689199  0.12439326  0.24678196  1
  V  V4  1  0.36688161  0.25655364  0.12402578  1
  V  V5  1  0.12879312  0.23808787  0.86516319  1
  V  V6  1  0.92889465  0.55903551  0.93742287  1
  V  V7  1  0.38332781  0.75316707  0.12917860  1
  V  V8  1  0.24910597  0.87536777  0.62143604  1
  V  V9  1  0.35767099  0.58757564  0.71932885  1
  V  V10  1  0.75409771  0.74538287  0.50338875  1
  V  V11  1  0.00244347  0.37361173  0.36882660  1
  V  V12  1  0.24519135  0.23379621  -0.00604519  1
  V  V13  1  0.49750388  0.37691526  0.87773511  1
  V  V14  1  0.87536923  0.87160327  0.50261665  1
  V  V15  1  0.37599207  0.49781231  0.37217866  1
  V  V16  1  0.37031998  0.00016403  0.36936723  1
  V  V17  1  0.62378915  0.12628313  -0.00043024  1
  V  V18  1  0.37382319  0.75445663  0.61985809  1
  V  V19  1  0.49758731  0.37516196  0.37510201  1
  V  V20  1  0.63349031  0.62288997  0.49870028  1
  V  V21  1  0.49846808  0.25244441  0.24583995  1
  V  V22  1  0.63441971  0.87970763  0.25436922  1
  V  V23  1  0.87985454  0.74755551  0.64727323  1
  V  V24  1  0.49785997  0.12528187  0.62474885  1
  V  V25  1  0.62445590  0.49992000  0.62863918  1
  V  V26  1  0.86590102  -0.00164150  0.37227955  1
  V  V27  1  0.37361816  0.62326622  0.24834117  1
  V  V28  1  0.22738913  0.73514399  0.02780771  1
  V  V29  1  0.37018777  0.87312746  0.49638697  1
  V  V30  1  -0.00052973  -0.00031388  0.49796857  1
  V  V31  1  0.50020873  0.49628406  0.49929988  1
  V  V32  1  0.75042372  0.87189370  0.62822764  1
  V  V33  1  0.75264589  0.51074317  0.25299403  1
  V  V34  1  0.62341353  0.25025380  0.87397876  1
  V  V35  1  0.74754920  -0.00451583  0.74925893  1
  V  V36  1  0.25086348  0.26352237  0.49954158  1
  V  V37  1  0.62427229  0.12453391  0.49883242  1
  V  V38  1  0.24549129  0.12342709  0.37491745  1
  V  V39  1  0.00635686  0.24292522  0.24754662  1
  V  V40  1  0.36374777  0.37558239  0.00093855  1
  V  V41  1  0.37204543  0.50670544  0.88533719  1
  V  V42  1  0.12734941  0.74433849  0.37757629  1
  V  V43  1  0.25387878  0.63138631  0.87605404  1
  V  V44  1  0.13075704  0.00616603  0.12014028  1
  V  V45  1  0.88123476  -0.00399108  0.87818909  1
  V  V46  1  0.37111589  0.87086359  0.00199672  1
  V  V47  1  0.11775608  0.87248858  0.74788527  1
  V  V48  1  0.00046647  0.12609846  0.62280841  1
  V  V49  1  0.37109726  0.25740615  0.61881660  1
  V  V50  1  0.00041218  0.87465950  0.36964016  1
  V  V51  1  0.75976664  0.25728430  -0.00078684  1
  V  V52  1  0.37008514  0.00150431  0.87639538  1
  V  V53  1  0.62956290  0.00415794  0.13134558  1
  V  V54  1  0.48974762  0.74516243  0.75183660  1
  V  V55  1  0.74998613  0.12371634  0.87293084  1
  V  V56  1  0.00946076  0.50524914  0.50032473  1
  V  V57  1  0.49888151  0.00018629  0.00020771  1
  V  V58  1  0.74934609  0.86897050  0.11667591  1
  V  V59  1  0.87706228  0.37521762  0.49786432  1
  V  V60  1  0.63075095  0.62637631  0.00212724  1
  V  V61  1  0.13597427  0.39100872  0.74036334  1
  V  V62  1  0.86689436  0.51712908  0.37799252  1
  V  V63  1  0.49714006  -0.00000534  0.49992913  1
  V  V64  1  0.87371758  0.12416518  0.74586012  1
  V  V65  1  -0.00533626  0.37844992  0.88135288  1
  V  V66  1  0.24773377  0.00273803  0.75424569  1
  V  V67  1  0.87510228  0.24947081  0.62230690  1
  V  V68  1  0.63353214  0.74793720  0.87605542  1
  V  V69  1  0.87051039  0.12106430  0.24991036  1
  V  V70  1  0.50784423  0.75121757  0.25470828  1
  V  V71  1  0.62106865  0.87376272  0.74986800  1
  V  V72  1  0.00372079  0.87775246  0.88621698  1
  V  V73  1  0.12470265  -0.00088609  0.62200784  1
  V  V74  1  0.74474484  0.60995129  0.87243038  1
  V  V75  1  0.23098271  0.49163231  0.24858976  1
  V  V76  1  -0.00375108  0.11229880  0.10762661  1
  V  V77  1  0.49790035  0.87172439  0.87686689  1
  V  V78  1  0.37028089  0.12613192  0.75333555  1
  V  V79  1  0.11833817  0.74636762  0.87021862  1
  V  V80  1  0.62734716  0.24993127  0.37293578  1
  V  V81  1  0.63375613  0.74673031  0.37502459  1
  V  V82  1  0.49702834  0.25176144  0.74869394  1
  V  V83  1  0.25510167  0.88412818  0.13909704  1
  V  V84  1  0.50992333  0.62240240  0.12862006  1
  Zn  Zn85  1  0.63527493  0.49571187  0.12571705  1
  Zn  Zn86  1  0.00360220  0.25978184  0.74476949  1
  Zn  Zn87  1  0.62288207  0.37546545  0.75071409  1
  Zn  Zn88  1  0.75073158  0.24697073  0.49645804  1
  Zn  Zn89  1  0.75882191  0.49313031  0.75158903  1
  Zn  Zn90  1  0.50224068  0.62790166  0.62219306  1
  Zn  Zn91  1  0.25340477  0.62934119  0.37970723  1
  Zn  Zn92  1  0.16011367  0.42406183  0.10293442  1
  Zn  Zn93  1  0.49756696  0.12774755  0.12294854  1
  Zn  Zn94  1  0.50152875  0.87544776  0.37591635  1
  Zn  Zn95  1  0.62359929  -0.00106942  0.62465306  1
  Zn  Zn96  1  0.50290749  0.49682849  0.00711304  1
  Zn  Zn97  1  0.13315319  0.63094309  0.50625359  1
  Zn  Zn98  1  0.63280131  0.37350889  0.24530981  1
  Zn  Zn99  1  0.74417095  0.11915538  0.36649629  1
  Zn  Zn100  1  0.12782623  0.25486054  0.37331240  1
  Zn  Zn101  1  0.12612602  0.87927376  0.25079761  1
  Zn  Zn102  1  0.76574262  0.37966678  0.13109960  1
  Zn  Zn103  1  0.12681532  0.12701770  0.49876949  1
  Zn  Zn104  1  0.88231378  0.61493652  0.75630285  1
  Zn  Zn105  1  0.87916735  0.87765230  0.01104338  1
  Zn  Zn106  1  0.87626154  0.24582852  0.12199347  1
  Zn  Zn107  1  0.18393516  0.18888307  0.18198681  1
  Zn  Zn108  1  0.18832647  0.18884428  0.68332813  1
  Zn  Zn109  1  0.18721310  0.69412582  0.20452425  1
  Zn  Zn110  1  0.19248155  0.68994299  0.68767575  1
  Zn  Zn111  1  0.68888191  0.18864573  0.18511505  1
  Zn  Zn112  1  0.68547488  0.18828708  0.68590305  1
  Zn  Zn113  1  0.74307243  0.66134261  0.15360033  1
  Zn  Zn114  1  0.68694464  0.68636499  0.69153811  1
  Zn  Zn115  1  0.30917681  0.31588467  0.31188301  1
  Zn  Zn116  1  0.30938058  0.31437623  0.81215262  1
  Zn  Zn117  1  0.31455624  0.81073568  0.31400339  1
  Zn  Zn118  1  0.30690238  0.81397036  0.81207133  1
  Zn  Zn119  1  0.81771233  0.31304952  0.30678501  1
  Zn  Zn120  1  0.81383399  0.31185328  0.80914626  1
  Zn  Zn121  1  0.81062697  0.81276816  0.31124651  1
  Zn  Zn122  1  0.85281018  0.76870419  0.86513488  1
  Zn  Zn123  1  0.18711828  0.44197971  0.42981179  1
  Zn  Zn124  1  0.18565873  0.43488564  0.92183589  1
  Zn  Zn125  1  0.18700709  0.93717071  0.43499272  1
  Zn  Zn126  1  0.18823632  0.93355929  0.94155846  1
  Zn  Zn127  1  0.68760147  0.43413271  0.43755571  1
  Zn  Zn128  1  0.68248995  0.43624831  0.94324941  1
  Zn  Zn129  1  0.68710390  0.93490648  0.44161415  1
  Zn  Zn130  1  0.68655552  0.93890844  0.93561582  1
  Zn  Zn131  1  0.31234099  0.06290571  0.06376466  1
  Zn  Zn132  1  0.31084819  0.06512875  0.56118379  1
  Zn  Zn133  1  0.17333315  0.57663109  0.05406397  1
  Zn  Zn134  1  0.31144141  0.55961802  0.55211585  1
  Zn  Zn135  1  0.80941119  0.05987568  0.06006132  1
  Zn  Zn136  1  0.81009625  0.06053805  0.55954807  1
  Zn  Zn137  1  0.88902111  0.54017768  0.11702871  1
  Zn  Zn138  1  0.81880262  0.56032540  0.57005441  1
  Zn  Zn139  1  0.43602397  0.43757378  0.18728622  1
  Zn  Zn140  1  0.42915330  0.43760268  0.68438477  1
  Zn  Zn141  1  0.44492151  0.94063415  0.18881187  1
  Zn  Zn142  1  0.43672435  0.93794541  0.68741622  1
  Zn  Zn143  1  0.97900314  0.40038489  0.14925139  1
  Zn  Zn144  1  0.94585655  0.44061440  0.68997891  1
  Zn  Zn145  1  0.93600775  0.93878391  0.18873962  1
  Zn  Zn146  1  0.93597332  0.93764636  0.69026809  1
  Zn  Zn147  1  0.06226425  0.05750429  0.30531230  1
  Zn  Zn148  1  0.06064393  0.06137371  0.80820414  1
  Zn  Zn149  1  0.02186717  0.53395331  0.26362442  1
  Zn  Zn150  1  0.07000044  0.55897152  0.81444780  1
  Zn  Zn151  1  0.55516011  0.06493628  0.31177861  1
  Zn  Zn152  1  0.55882837  0.06220886  0.81289209  1
  Zn  Zn153  1  0.57250315  0.56348606  0.31202488  1
  Zn  Zn154  1  0.55310094  0.56294304  0.80966335  1
  Zn  Zn155  1  0.43487752  0.18834294  0.43517412  1
  Zn  Zn156  1  0.43481977  0.18903619  0.93657342  1
  Zn  Zn157  1  0.44285268  0.68475354  0.43758787  1
  Zn  Zn158  1  0.43904595  0.68689920  0.94453120  1
  Zn  Zn159  1  0.93640612  0.18700955  0.43492280  1
  Zn  Zn160  1  0.94142859  0.18750353  0.92678706  1
  Zn  Zn161  1  0.94464047  0.69118266  0.44170103  1
  Zn  Zn162  1  0.91473296  0.70470054  1.05541776  1
  Zn  Zn163  1  0.05756755  0.28915031  0.05086782  1
  Zn  Zn164  1  0.06677871  0.31474292  0.56087326  1
  Zn  Zn165  1  0.06683580  0.81437152  0.06630076  1
  Zn  Zn166  1  0.05910995  0.80921016  0.56117310  1
  Zn  Zn167  1  0.56574241  0.31589473  0.06454224  1
  Zn  Zn168  1  0.56041634  0.31262208  0.56057717  1
  Zn  Zn169  1  0.56920953  0.81190291  0.06390983  1
  Zn  Zn170  1  0.56106393  0.81280798  0.56176069  1
  O  O171  1  0.11292391  0.11373601  0.12457360  1
  O  O172  1  0.11583669  0.11821994  0.62234981  1
  O  O173  1  0.15564530  0.67752427  0.09618736  1
  O  O174  1  0.11372056  0.63623351  0.62469213  1
  O  O175  1  0.62129791  0.12099979  0.11751330  1
  O  O176  1  0.61646267  0.12403290  0.61561214  1
  O  O177  1  0.62800935  0.62524723  0.11657962  1
  O  O178  1  0.62226771  0.61706616  0.61970585  1
  O  O179  1  0.38969606  0.38181562  0.36748513  1
  O  O180  1  0.37966309  0.37906038  0.88271515  1
  O  O181  1  0.37727486  0.88258766  0.38014456  1
  O  O182  1  0.37720280  0.87807380  0.88527177  1
  O  O183  1  0.88061551  0.37298979  0.38933432  1
  O  O184  1  0.89592182  0.36605715  0.86575953  1
  O  O185  1  0.87994365  0.88165179  0.38105863  1
  O  O186  1  0.89260014  0.88390088  0.85966457  1
  O  O187  1  0.26270714  0.00677587  0.37776001  1
  O  O188  1  0.25688083  -0.00759937  0.86571039  1
  O  O189  1  0.26272952  0.50181729  0.36684980  1
  O  O190  1  0.26017489  0.51805961  0.88057208  1
  O  O191  1  0.76186323  -0.00051464  0.38227049  1
  O  O192  1  0.75367109  0.00437519  0.86483740  1
  O  O193  1  0.76135417  0.49678897  0.37691113  1
  O  O194  1  0.73747088  0.50659139  0.87042962  1
  O  O195  1  0.23334900  0.50430047  0.14353811  1
  O  O196  1  0.32700592  0.50988471  0.65162824  1
  O  O197  1  0.24254874  0.99796230  0.12550929  1
  O  O198  1  0.24443274  0.99432387  0.62959082  1
  O  O199  1  0.75975238  0.50019694  0.14663875  1
  O  O200  1  0.74038839  0.49006734  0.62352157  1
  O  O201  1  0.73326010  0.99633360  0.12197281  1
  O  O202  1  0.74780104  0.99362619  0.63280538  1
  O  O203  1  -0.01244982  0.36050372  0.26743918  1
  O  O204  1  0.01308660  0.37656463  0.75651021  1
  O  O205  1  -0.00328184  0.87223210  0.26184299  1
  O  O206  1  0.01530815  0.88076437  0.75063834  1
  O  O207  1  0.50258795  0.36433560  0.25457073  1
  O  O208  1  0.49833111  0.36727502  0.75783941  1
  O  O209  1  0.50827642  0.86384049  0.25093646  1
  O  O210  1  0.50330908  0.86969265  0.75678483  1
  O  O211  1  0.48646379  0.13920077  0.25109725  1
  O  O212  1  0.49191561  0.13072146  0.74455179  1
  O  O213  1  0.50319598  0.63577463  0.24763035  1
  O  O214  1  0.47947715  0.63078504  0.74403194  1
  O  O215  1  0.98843718  0.12711557  0.24732380  1
  O  O216  1  0.99292320  0.12292553  0.73372453  1
  O  O217  1  0.99910105  0.64589095  0.25567433  1
  O  O218  1  1.00354457  0.61948665  0.73697897  1
  O  O219  1  0.36580602  0.25391575  0.00477355  1
  O  O220  1  0.36258667  0.24383500  0.50538116  1
  O  O221  1  0.37557817  0.75822696  0.01249912  1
  O  O222  1  0.38496675  0.76215119  0.50575108  1
  O  O223  1  0.86021523  0.23827002  -0.00699644  1
  O  O224  1  0.87249054  0.25616314  0.50524075  1
  O  O225  1  0.87835871  0.77189335  -0.02584706  1
  O  O226  1  0.86972097  0.75594727  0.50777462  1
  O  O227  1  0.13783253  0.24685991  0.49559481  1
  O  O228  1  0.13873556  0.24545896  0.98477910  1
  O  O229  1  0.12004527  0.75399496  0.48242559  1
  O  O230  1  0.13513151  0.77005351  0.98160129  1
  O  O231  1  0.62240767  0.24083330  0.49052780  1
  O  O232  1  0.63047420  0.23914100  0.99441804  1
  O  O233  1  0.63066482  0.74234848  0.49710753  1
  O  O234  1  0.61406994  0.74163651  0.98555166  1
  O  O235  1  0.49142484  0.24920859  0.13177644  1
  O  O236  1  0.49329913  0.24291542  0.62757778  1
  O  O237  1  0.50363167  0.74250319  0.13530378  1
  O  O238  1  0.49133954  0.75263932  0.63320946  1
  O  O239  1  0.99661079  0.22441171  0.13065834  1
  O  O240  1  0.99462985  0.24115614  0.62276809  1
  O  O241  1  0.99478908  0.75717072  0.13281097  1
  O  O242  1  0.99113200  0.73812848  0.62333400  1
  O  O243  1  0.00243965  0.25760272  0.37205300  1
  O  O244  1  0.01345268  0.25414364  0.86751030  1
  O  O245  1  0.00550454  0.76073761  0.37103134  1
  O  O246  1  0.01744546  0.76305994  0.86785616  1
  O  O247  1  0.50549584  0.25600669  0.36889146  1
  O  O248  1  0.50132430  0.25944794  0.86997095  1
  O  O249  1  0.51235887  0.75243241  0.37072249  1
  O  O250  1  0.50181574  0.75387204  0.86734149  1
  O  O251  1  0.24909531  0.13064209  0.48845767  1
  O  O252  1  0.25919486  0.13609364  0.99279531  1
  O  O253  1  0.24485190  0.62047524  0.49282061  1
  O  O254  1  0.25819046  0.64037121  0.99165121  1
  O  O255  1  0.73431905  0.12473091  0.49834454  1
  O  O256  1  0.74063302  0.12815232  0.99095025  1
  O  O257  1  0.74022999  0.62889925  0.51060673  1
  O  O258  1  0.73252005  0.62942296  0.98243206  1
  O  O259  1  0.26103498  0.36309949  -0.00674873  1
  O  O260  1  0.24901082  0.36207480  0.49010679  1
  O  O261  1  0.26098466  0.86518513  0.01180655  1
  O  O262  1  0.26320449  0.88097422  0.50405179  1
  O  O263  1  0.74851068  0.35820671  -0.00452982  1
  O  O264  1  0.75665316  0.37150103  0.50949663  1
  O  O265  1  0.74270568  0.87984993  0.01411162  1
  O  O266  1  0.75521981  0.86821483  0.51054114  1
  O  O267  1  0.13480546  0.50460658  0.27042603  1
  O  O268  1  0.13180368  0.49136921  0.74846351  1
  O  O269  1  0.12041752  0.99402312  0.23105915  1
  O  O270  1  0.13244856  0.99508410  0.74217825  1
  O  O271  1  0.63947568  0.49439295  0.25276377  1
  O  O272  1  0.62002357  0.49829677  0.73581947  1
  O  O273  1  0.61394312  0.99340381  0.24267571  1
  O  O274  1  0.63016500  0.99512414  0.74923913  1
  O  O275  1  0.38286983  0.01208057  0.25740270  1
  O  O276  1  0.36773419  0.00571144  0.75446698  1
  O  O277  1  0.37345736  0.50744156  0.25624920  1
  O  O278  1  0.39386908  0.50068832  0.77742648  1
  O  O279  1  0.87888794  0.00694185  0.26279246  1
  O  O280  1  0.86423668  0.00514541  0.75378318  1
  O  O281  1  0.86322552  0.50417257  0.27309571  1
  O  O282  1  0.87007071  0.50400235  0.73925574  1
  O  O283  1  0.10562859  0.37423567  0.37936451  1
  O  O284  1  0.11753263  0.36462240  0.86098248  1
  O  O285  1  0.11515106  0.87356632  0.37266912  1
  O  O286  1  0.12153427  0.87524642  0.86432767  1
  O  O287  1  0.61476990  0.36523624  0.37417020  1
  O  O288  1  0.61529896  0.36740735  0.87450743  1
  O  O289  1  0.62298858  0.87099857  0.36999880  1
  O  O290  1  0.61889403  0.86674491  0.86993590  1
  O  O291  1  0.37562824  0.13550685  0.13124607  1
  O  O292  1  0.37984256  0.12890805  0.63457297  1
  O  O293  1  0.39236586  0.63326602  0.14164183  1
  O  O294  1  0.38103912  0.64215278  0.62034177  1
  O  O295  1  0.88320124  0.11706384  0.13010582  1
  O  O296  1  0.87963609  0.12879432  0.62541057  1
  O  O297  1  0.84740664  0.64222997  0.11757207  1
  O  O298  1  0.88613443  0.63548718  0.62655776  1
  O  O299  1  0.25375232  0.24604549  0.10841224  1
  O  O300  1  0.25660539  0.24332677  0.60765074  1
  O  O301  1  0.26786661  0.76507401  0.13204986  1
  O  O302  1  0.26545000  0.76056157  0.62886295  1
  O  O303  1  0.75248032  0.24441040  0.10664722  1
  O  O304  1  0.75495271  0.25656085  0.62136779  1
  O  O305  1  0.73426070  0.77206656  0.12552134  1
  O  O306  1  0.75880573  0.75384049  0.62566488  1
  O  O307  1  0.25065948  0.24302262  0.38301204  1
  O  O308  1  0.24041762  0.24924450  0.88159834  1
  O  O309  1  0.23330115  0.75161661  0.36566563  1
  O  O310  1  0.24705046  0.74183706  0.87867209  1
  O  O311  1  0.73596167  0.24786643  0.37476001  1
  O  O312  1  0.74465200  0.24327506  0.88007442  1
  O  O313  1  0.73988488  0.75751576  0.38479006  1
  O  O314  1  0.73501791  0.74044506  0.86444923  1
  O  O315  1  -0.00729893  0.12276143  0.00959534  1
  O  O316  1  0.00024471  0.11903538  0.50819108  1
  O  O317  1  -0.01799783  0.62319697  -0.00904846  1
  O  O318  1  0.00628496  0.61975895  0.50860322  1
  O  O319  1  0.50693226  0.12080272  -0.00135682  1
  O  O320  1  0.50664564  0.12016567  0.50213999  1
  O  O321  1  0.50833707  0.62390327  0.01381056  1
  O  O322  1  0.51277748  0.61288315  0.50017680  1
  O  O323  1  0.50603253  0.38761214  0.49038147  1
  O  O324  1  0.48985477  0.37036216  0.99275885  1
  O  O325  1  0.49081485  0.88417149  0.49934558  1
  O  O326  1  0.49124993  0.87881705  0.99724485  1
  O  O327  1  0.99359101  0.38170342  0.49411249  1
  O  O328  1  1.00394749  0.36404235  0.97946574  1
  O  O329  1  0.99288011  0.87955313  0.49123926  1
  O  O330  1  1.00470396  0.88040884  0.98827116  1
  O  O331  1  0.49968110  0.49225101  0.37686647  1
  O  O332  1  0.49997371  0.48715442  0.88215205  1
  O  O333  1  0.48694614  1.00049516  0.38220120  1
  O  O334  1  0.49186716  0.99146782  0.88054756  1
  O  O335  1  0.98458656  0.48842085  0.37442992  1
  O  O336  1  0.99700271  0.49528349  0.88088813  1
  O  O337  1  0.99255175  0.99396474  0.38124375  1
  O  O338  1  0.99151533  0.99326569  0.86754123  1
  O  O339  1  0.00675536  0.00731286  0.12401622  1
  O  O340  1  0.00286926  0.00536283  0.61776574  1
  O  O341  1  -0.01013290  0.51048945  0.15738952  1
  O  O342  1  -0.00270146  0.51661195  0.61306099  1
  O  O343  1  0.50985525  0.00461957  0.11634059  1
  O  O344  1  0.49942974  0.00726479  0.61747877  1
  O  O345  1  0.50539863  0.51377320  0.13181908  1
  O  O346  1  0.50633168  0.49840314  0.61447101  1
  O  O347  1  0.24759067  0.39136877  0.25329779  1
  O  O348  1  0.23624751  0.37368573  0.75260359  1
  O  O349  1  0.25666051  0.87938285  0.24131602  1
  O  O350  1  0.24473417  0.88747340  0.74208615  1
  O  O351  1  0.75058125  0.38487993  0.25365613  1
  O  O352  1  0.74508623  0.37274060  0.73711785  1
  O  O353  1  0.73757598  0.87748729  0.24412410  1
  O  O354  1  0.74098557  0.88727753  0.74590668  1
  O  O355  1  0.26112382  0.13423610  0.25574806  1
  O  O356  1  0.25658924  0.11156305  0.74278379  1
  O  O357  1  0.26082606  0.61871255  0.25586530  1
  O  O358  1  0.26841491  0.63109340  0.75542222  1
  O  O359  1  0.76428699  0.12872135  0.24860115  1
  O  O360  1  0.75151558  0.11562887  0.75268213  1
  O  O361  1  0.74074547  0.60981901  0.25882332  1
  O  O362  1  0.74698453  0.61993608  0.76258750  1
  O  O363  1  0.36615309  0.11946573  0.36756730  1
  O  O364  1  0.37995825  0.11946280  0.86016076  1
  O  O365  1  0.38146886  0.61871374  0.36299830  1
  O  O366  1  0.37132233  0.61880571  0.87974999  1
  O  O367  1  0.87112946  0.11529126  0.36955800  1
  O  O368  1  0.87132764  0.11574540  0.86463963  1
  O  O369  1  0.87480994  0.61439457  0.38911410  1
  O  O370  1  0.86002912  0.61985689  0.87654424  1
  O  O371  1  0.08649570  0.35303206  0.13799489  1
  O  O372  1  0.12226376  0.37062363  0.64107989  1
  O  O373  1  0.14002739  0.88195133  0.12829702  1
  O  O374  1  0.12929867  0.87757616  0.62862751  1
  O  O375  1  0.63757516  0.37732746  0.12614938  1
  O  O376  1  0.63246730  0.38067168  0.62334463  1
  O  O377  1  0.62809711  0.88543828  0.13353042  1
  O  O378  1  0.63021030  0.87508326  0.63232386  1
  O  O379  1  0.11061176  0.23667704  0.25641209  1
  O  O380  1  0.12665079  0.24989981  0.75728484  1
  O  O381  1  0.11132569  0.76049319  0.26068873  1
  O  O382  1  0.13844267  0.76389578  0.75807193  1
  O  O383  1  0.61564591  0.24751285  0.25605314  1
  O  O384  1  0.61573880  0.24950122  0.75671423  1
  O  O385  1  0.62088313  0.76075024  0.26240948  1
  O  O386  1  0.60926211  0.75196115  0.75534731  1
  O  O387  1  0.37716412  0.24816804  0.24094983  1
  O  O388  1  0.37542897  0.24162352  0.74355354  1
  O  O389  1  0.38782483  0.74474371  0.25028805  1
  O  O390  1  0.38452439  0.76265308  0.74115802  1
  O  O391  1  0.88619899  0.23652518  0.25192148  1
  O  O392  1  0.87762380  0.24123161  0.73962727  1
  O  O393  1  0.88793058  0.75487157  0.25535106  1
  O  O394  1  0.87362534  0.74071035  0.74900163  1
  O  O395  1  0.38808827  0.50424772  0.48068949  1
  O  O396  1  0.38211078  0.48852657  0.99280688  1
  O  O397  1  0.38002692  0.99544453  0.49301931  1
  O  O398  1  0.37831023  0.99290088  0.99613454  1
  O  O399  1  0.88206928  0.49269231  0.49409870  1
  O  O400  1  0.87677837  0.50458895  1.00087043  1
  O  O401  1  0.88079641  0.99250487  0.49554270  1
  O  O402  1  0.86546709  0.99391497  0.98156270  1
  O  O403  1  0.12993835  -0.00725449  0.01922992  1
  O  O404  1  0.11716097  0.00099842  0.50548556  1
  O  O405  1  0.13745526  0.48515473  0.00922504  1
  O  O406  1  0.11130437  0.50209148  0.49083299  1
  O  O407  1  0.61948522  0.01152244  0.00306278  1
  O  O408  1  0.61541765  0.00676830  0.50002395  1
  O  O409  1  0.62156169  0.50986083  0.00615409  1
  O  O410  1  0.62214220  0.50535667  0.50736319  1
  O  O411  1  0.37746360  0.36406619  0.11735087  1
  O  O412  1  0.38024882  0.35541393  0.62360639  1
  O  O413  1  0.37401232  0.87708980  0.11985115  1
  O  O414  1  0.37072114  0.87360006  0.61527365  1
  O  O415  1  0.87788032  0.35882500  0.12354889  1
  O  O416  1  0.87041457  0.36997148  0.61463041  1
  O  O417  1  0.85454704  0.88641503  0.12625172  1
  O  O418  1  0.87148812  0.86484776  0.62531876  1
  O  O419  1  0.13834098  0.11940031  0.37317885  1
  O  O420  1  0.12099027  0.13877740  0.86651465  1
  O  O421  1  0.12258709  0.64411684  0.37450761  1
  O  O422  1  0.13699170  0.63645391  0.86805782  1
  O  O423  1  0.62314321  0.13109691  0.38026055  1
  O  O424  1  0.62796709  0.12924299  0.88107258  1
  O  O425  1  0.62414807  0.63529679  0.38705050  1
  O  O426  1  0.62431422  0.62958554  0.87696034  1
