# generated using pymatgen
data_V85Zn86O256
_symmetry_space_group_name_H-M   'P 1'
_cell_length_a   16.96575559
_cell_length_b   16.96226107
_cell_length_c   16.97218599
_cell_angle_alpha   90.10043265
_cell_angle_beta   90.06036484
_cell_angle_gamma   90.00263074
_symmetry_Int_Tables_number   1
_chemical_formula_structural   V85Zn86O256
_chemical_formula_sum   'V85 Zn86 O256'
_cell_volume   4884.20431724
_cell_formula_units_Z   1
loop_
 _symmetry_equiv_pos_site_id
 _symmetry_equiv_pos_as_xyz
  1  'x, y, z'
loop_
 _atom_site_type_symbol
 _atom_site_label
 _atom_site_symmetry_multiplicity
 _atom_site_fract_x
 _atom_site_fract_y
 _atom_site_fract_z
 _atom_site_occupancy
  V  V0  1  0.12337631  0.25351897  0.37327097  1
  V  V1  1  0.13110759  0.25309369  0.88222409  1
  V  V2  1  0.24455551  0.87550305  0.12734612  1
  V  V3  1  0.00214865  0.75284761  0.25849698  1
  V  V4  1  0.00041389  0.50999704  0.49684891  1
  V  V5  1  0.13071707  0.11956153  0.00123109  1
  V  V6  1  0.49844041  -0.00058706  0.00113835  1
  V  V7  1  0.87831299  0.12077114  0.73985922  1
  V  V8  1  0.10493843  0.12083986  0.49783649  1
  V  V9  1  0.12403704  0.87586145  0.26919478  1
  V  V10  1  0.12477640  0.37669435  0.74933115  1
  V  V11  1  0.87146181  0.12682537  0.24302183  1
  V  V12  1  -0.00027137  0.63224694  0.62528642  1
  V  V13  1  0.62869738  -0.00362341  0.12507673  1
  V  V14  1  0.85702250  0.62484277  0.25389383  1
  V  V15  1  0.12470354  0.62225075  0.00136676  1
  V  V16  1  0.62828737  0.49982547  0.63047857  1
  V  V17  1  0.61890986  0.25369729  0.37704953  1
  V  V18  1  0.37686235  0.87496271  0.00253950  1
  V  V19  1  0.63020728  0.38110787  0.24191799  1
  V  V20  1  0.00536290  0.24607913  0.74579369  1
  V  V21  1  0.62803324  0.12506422  0.00179976  1
  V  V22  1  0.74777414  0.24906863  0.50256336  1
  V  V23  1  0.38234297  0.62087512  0.24533530  1
  V  V24  1  0.86115224  0.62399085  0.76053833  1
  V  V25  1  0.50526556  0.87501461  0.87672277  1
  V  V26  1  0.12655465  0.50198492  0.62009747  1
  V  V27  1  0.88742789  -0.00270444  0.37647612  1
  V  V28  1  0.12248620  0.37468311  0.24647662  1
  V  V29  1  0.36739097  -0.00097676  0.87074493  1
  V  V30  1  0.61972758  0.87589599  0.25913643  1
  V  V31  1  0.49622293  0.50520502  0.02297039  1
  V  V32  1  0.36647353  0.12242114  0.74693953  1
  V  V33  1  0.50115197  0.74824097  0.74754708  1
  V  V34  1  0.74009935  0.00406476  0.74192468  1
  V  V35  1  0.50040699  0.38250587  0.87724061  1
  V  V36  1  0.12472547  0.49707575  0.12262391  1
  V  V37  1  -0.00443039  0.75670473  0.75727259  1
  V  V38  1  0.24888210  -0.00130848  0.25235289  1
  V  V39  1  0.37127937  0.36142317  0.00110074  1
  V  V40  1  0.38582316  -0.00871005  0.37579818  1
  V  V41  1  0.25043473  0.74716048  0.00138463  1
  V  V42  1  0.88799634  0.87619005  0.49554213  1
  V  V43  1  0.50328184  0.49271293  0.49695294  1
  V  V44  1  0.37398219  0.12815635  0.24679940  1
  V  V45  1  0.25176639  0.37602404  0.62435161  1
  V  V46  1  0.37322624  0.85310827  0.49765009  1
  V  V47  1  0.75360678  0.37964871  0.63538433  1
  V  V48  1  0.12045267  0.75258676  0.87884223  1
  V  V49  1  0.74087774  0.88005968  0.61934842  1
  V  V50  1  0.50258048  -0.00929426  0.51325653  1
  V  V51  1  0.85915455  0.50522965  0.37257921  1
  V  V52  1  -0.00722133  0.25151801  0.24105203  1
  V  V53  1  0.88195622  0.00198207  0.88133514  1
  V  V54  1  0.24449125  0.62850788  0.37066303  1
  V  V55  1  0.24986174  0.24980117  0.49791715  1
  V  V56  1  0.49976576  0.75400081  0.25510982  1
  V  V57  1  0.49614233  0.25530383  0.25383159  1
  V  V58  1  -0.00287985  0.37920506  0.37244127  1
  V  V59  1  0.24880314  0.49784258  0.24659193  1
  V  V60  1  0.62457602  0.24785868  0.88044510  1
  V  V61  1  0.87393030  0.37888583  0.49921269  1
  V  V62  1  0.25090043  0.12355947  0.37770305  1
  V  V63  1  0.74770992  0.12181894  0.37616740  1
  V  V64  1  0.18496691  0.67811697  0.54705238  1
  V  V65  1  0.76318773  0.37183581  0.12398520  1
  V  V66  1  0.74753379  0.74621256  0.48870957  1
  V  V67  1  -0.00589815  0.11965082  0.11563473  1
  V  V68  1  0.24983610  0.35817274  0.11898791  1
  V  V69  1  -0.01060052  0.49826740  -0.00805418  1
  V  V70  1  0.37672343  0.24752900  0.62351067  1
  V  V71  1  0.49623217  0.13008380  0.12470820  1
  V  V72  1  0.88161984  0.24858160  0.62158569  1
  V  V73  1  0.37864120  0.62420653  0.74460552  1
  V  V74  1  0.50067414  0.25066130  0.75025155  1
  V  V75  1  0.87025049  0.75249849  0.62570653  1
  V  V76  1  -0.00113083  0.62353118  0.13122790  1
  V  V77  1  0.37862087  0.37175468  0.49683763  1
  V  V78  1  0.75184884  0.12651209  0.87868180  1
  V  V79  1  0.63690735  0.74792845  0.88181925  1
  V  V80  1  0.37812990  0.49256974  0.37298896  1
  V  V81  1  0.50151159  0.62875158  0.62263135  1
  V  V82  1  0.25224665  0.62323147  0.87200534  1
  V  V83  1  0.87174667  0.75448329  0.12116231  1
  V  V84  1  0.37484656  0.74436335  0.12561284  1
  Zn  Zn85  1  -0.00741527  0.37852601  0.87001054  1
  Zn  Zn86  1  0.74207415  0.87076219  0.11786068  1
  Zn  Zn87  1  0.24927915  0.12597352  0.87495370  1
  Zn  Zn88  1  0.12178684  0.01161349  0.63111855  1
  Zn  Zn89  1  0.25453867  0.87257715  0.62014524  1
  Zn  Zn90  1  0.00885017  0.88754141  0.88352720  1
  Zn  Zn91  1  0.16631030  0.90217096  0.75689406  1
  Zn  Zn92  1  0.50615294  0.11657014  0.62936868  1
  Zn  Zn93  1  0.25039252  0.50384696  0.74803866  1
  Zn  Zn94  1  0.62466982  0.11650488  0.50696946  1
  Zn  Zn95  1  0.62780681  0.74140525  0.36798265  1
  Zn  Zn96  1  0.81678094  0.47496273  0.83572090  1
  Zn  Zn97  1  0.12398438  0.75016470  0.38573165  1
  Zn  Zn98  1  0.74935331  -0.00262625  0.25147666  1
  Zn  Zn99  1  0.87012490  0.36001112  -0.00826489  1
  Zn  Zn100  1  0.37916688  0.50057465  0.87617480  1
  Zn  Zn101  1  0.61829885  0.88085656  0.74182554  1
  Zn  Zn102  1  0.62680505  0.61575429  0.01004170  1
  Zn  Zn103  1  0.87750408  0.88390316  0.00314204  1
  Zn  Zn104  1  0.11646963  -0.00607049  0.12262766  1
  Zn  Zn105  1  0.63328695  0.37647335  0.75687865  1
  Zn  Zn106  1  0.63344481  0.61572289  0.49119633  1
  Zn  Zn107  1  0.18150777  0.18412015  0.18794183  1
  Zn  Zn108  1  0.18648299  0.18470474  0.68225399  1
  Zn  Zn109  1  0.18670890  0.68832831  0.19146507  1
  Zn  Zn110  1  0.19760819  0.72869527  0.70397728  1
  Zn  Zn111  1  0.68264797  0.18882480  0.19040663  1
  Zn  Zn112  1  0.68685197  0.18818976  0.68678495  1
  Zn  Zn113  1  0.70059046  0.66257075  0.14824383  1
  Zn  Zn114  1  0.68336324  0.69161371  0.68484581  1
  Zn  Zn115  1  0.31042356  0.31205635  0.30885400  1
  Zn  Zn116  1  0.31245727  0.31378759  0.81171620  1
  Zn  Zn117  1  0.31193388  0.81113852  0.31531221  1
  Zn  Zn118  1  0.32053074  0.80734239  0.81589725  1
  Zn  Zn119  1  0.80830987  0.31138299  0.31318247  1
  Zn  Zn120  1  0.81706220  0.30209933  0.81584999  1
  Zn  Zn121  1  0.81024006  0.81630253  0.30472000  1
  Zn  Zn122  1  0.81140727  0.82140596  0.80898186  1
  Zn  Zn123  1  0.18853128  0.44084765  0.43677765  1
  Zn  Zn124  1  0.18683548  0.43725866  0.93753057  1
  Zn  Zn125  1  0.20010944  0.94752101  0.46169016  1
  Zn  Zn126  1  0.18698629  0.93728866  0.94101146  1
  Zn  Zn127  1  0.68437913  0.43041326  0.43907968  1
  Zn  Zn128  1  0.68043899  0.43231524  0.95614488  1
  Zn  Zn129  1  0.68883633  0.93560001  0.43816398  1
  Zn  Zn130  1  0.69350293  0.93511683  0.93918576  1
  Zn  Zn131  1  0.30888426  0.06204127  0.06335220  1
  Zn  Zn132  1  0.31028268  0.05584427  0.56307617  1
  Zn  Zn133  1  0.31497612  0.55547678  0.06041662  1
  Zn  Zn134  1  0.31966755  0.55994180  0.56228912  1
  Zn  Zn135  1  0.81115465  0.19490257  0.05972881  1
  Zn  Zn136  1  0.81554808  0.06091278  0.55830798  1
  Zn  Zn137  1  0.80869357  0.54819249  0.06916378  1
  Zn  Zn138  1  0.81352982  0.56570332  0.56532118  1
  Zn  Zn139  1  0.43208471  0.42774528  0.18792561  1
  Zn  Zn140  1  0.44040212  0.43919624  0.68834750  1
  Zn  Zn141  1  0.43820295  0.93714128  0.18704237  1
  Zn  Zn142  1  0.41644212  0.92473547  0.69084866  1
  Zn  Zn143  1  0.93041242  0.44109092  0.18583264  1
  Zn  Zn144  1  0.94011020  0.44117014  0.68686964  1
  Zn  Zn145  1  0.93936407  0.93815130  0.19405500  1
  Zn  Zn146  1  0.94081243  0.94021843  0.68557376  1
  Zn  Zn147  1  0.06330780  0.06561807  0.30987112  1
  Zn  Zn148  1  0.06590273  0.06521827  0.80857001  1
  Zn  Zn149  1  0.06164079  0.56288441  0.31293172  1
  Zn  Zn150  1  0.06057735  0.57010075  0.80870394  1
  Zn  Zn151  1  0.56321068  0.06570091  0.31307393  1
  Zn  Zn152  1  0.55835498  0.06327995  0.81171234  1
  Zn  Zn153  1  0.56377263  0.56235186  0.31181596  1
  Zn  Zn154  1  0.62371353  0.54699898  0.83465430  1
  Zn  Zn155  1  0.44025830  0.17875012  0.43857122  1
  Zn  Zn156  1  0.43780107  0.18528095  0.93440818  1
  Zn  Zn157  1  0.44595619  0.67380226  0.42903615  1
  Zn  Zn158  1  0.44131923  0.68625955  0.93436893  1
  Zn  Zn159  1  0.93175560  0.19213079  0.42749508  1
  Zn  Zn160  1  0.94702131  0.18348636  0.92863224  1
  Zn  Zn161  1  0.93424589  0.68978889  0.43656138  1
  Zn  Zn162  1  0.93402237  0.68458883  0.94026802  1
  Zn  Zn163  1  0.05663383  0.31063929  0.05888258  1
  Zn  Zn164  1  0.06217845  0.31564987  0.55853844  1
  Zn  Zn165  1  0.05446050  0.81463959  0.06326291  1
  Zn  Zn166  1  0.05762821  0.84357786  0.58936389  1
  Zn  Zn167  1  0.55966627  0.31194706  0.06402494  1
  Zn  Zn168  1  0.56504881  0.31110471  0.56637114  1
  Zn  Zn169  1  0.57768983  0.78419916  0.08067684  1
  Zn  Zn170  1  0.56034426  0.81274203  0.55631993  1
  O  O171  1  0.11736387  0.12278420  0.11463937  1
  O  O172  1  0.12666416  0.12772963  0.60181978  1
  O  O173  1  0.11821612  0.62006581  0.12084206  1
  O  O174  1  0.12425578  0.62314666  0.61698300  1
  O  O175  1  0.61389305  0.11802636  0.12258375  1
  O  O176  1  0.61858288  0.13408098  0.61930495  1
  O  O177  1  0.59835724  0.67487647  0.10643554  1
  O  O178  1  0.61947128  0.61603869  0.61839935  1
  O  O179  1  0.36807242  0.38551201  0.37823750  1
  O  O180  1  0.38226665  0.37680148  0.88096794  1
  O  O181  1  0.37466438  0.88640139  0.37731936  1
  O  O182  1  0.38605203  0.88095368  0.88182516  1
  O  O183  1  0.87888544  0.38369999  0.37806713  1
  O  O184  1  0.87388934  0.38180704  0.87288182  1
  O  O185  1  0.86827273  0.89055804  0.37797819  1
  O  O186  1  0.87204895  0.89530141  0.87178464  1
  O  O187  1  0.26050135  0.00815131  0.37303632  1
  O  O188  1  0.26453560  0.00034567  0.88125649  1
  O  O189  1  0.25523884  0.50479295  0.36608655  1
  O  O190  1  0.24796464  0.51377530  0.87151081  1
  O  O191  1  0.75211370  0.01225152  0.37509340  1
  O  O192  1  0.75654009  0.01275192  0.86255439  1
  O  O193  1  0.76079836  0.49580227  0.38272676  1
  O  O194  1  0.71972413  0.50150906  0.87726032  1
  O  O195  1  0.24120587  0.49368062  0.12961548  1
  O  O196  1  0.24219138  0.49624105  0.62389810  1
  O  O197  1  0.24640928  0.99104068  0.13374437  1
  O  O198  1  0.22760268  0.98165434  0.58192034  1
  O  O199  1  0.75490346  0.47215463  0.13874801  1
  O  O200  1  0.74260191  0.49027632  0.61654252  1
  O  O201  1  0.72938788  1.00447738  0.13079888  1
  O  O202  1  0.75532372  0.99198557  0.62874935  1
  O  O203  1  0.00148294  0.36986518  0.25103941  1
  O  O204  1  0.00697364  0.36690132  0.74801567  1
  O  O205  1  0.01228105  0.86549602  0.24880421  1
  O  O206  1  -0.00936570  0.85929280  0.76146109  1
  O  O207  1  0.50466338  0.35920174  0.24524598  1
  O  O208  1  0.49856819  0.36367096  0.75850453  1
  O  O209  1  0.50869857  0.87059698  0.24940821  1
  O  O210  1  0.49626947  0.86584771  0.75531766  1
  O  O211  1  0.49154498  0.13090462  0.24433199  1
  O  O212  1  0.49035719  0.13705121  0.75027864  1
  O  O213  1  0.48603149  0.63016454  0.25008664  1
  O  O214  1  0.49494291  0.63017157  0.73850504  1
  O  O215  1  0.99216033  0.13396577  0.24454346  1
  O  O216  1  0.99339249  0.13831858  0.74775635  1
  O  O217  1  1.00183115  0.63048793  0.23995171  1
  O  O218  1  0.98819358  0.63482802  0.74299313  1
  O  O219  1  0.37887508  0.26169695  -0.00463562  1
  O  O220  1  0.37194761  0.25289848  0.50259035  1
  O  O221  1  0.37039917  0.75334941  0.00681572  1
  O  O222  1  0.38905909  0.75609912  0.48717194  1
  O  O223  1  0.88011840  0.24662926  -0.00992694  1
  O  O224  1  0.87024446  0.25621010  0.50507108  1
  O  O225  1  0.87866431  0.74437301  0.02044724  1
  O  O226  1  0.86432282  0.75406673  0.50585261  1
  O  O227  1  0.13018750  0.24687473  0.49099449  1
  O  O228  1  0.11927510  0.24105650  0.99054546  1
  O  O229  1  0.12690171  0.74786534  0.50309051  1
  O  O230  1  0.12862983  0.74315187  0.99414388  1
  O  O231  1  0.63098177  0.25219142  0.49230729  1
  O  O232  1  0.61429327  0.24100256  0.98775155  1
  O  O233  1  0.63980182  0.75336121  0.49505487  1
  O  O234  1  0.62664198  0.77885804  0.97650572  1
  O  O235  1  0.50168961  0.23578542  0.13382720  1
  O  O236  1  0.49108012  0.25217102  0.63391920  1
  O  O237  1  0.47607861  0.76478635  0.13765776  1
  O  O238  1  0.50946073  0.73756218  0.63036692  1
  O  O239  1  1.00434539  0.24081123  0.13670354  1
  O  O240  1  0.98833072  0.25805680  0.62775128  1
  O  O241  1  0.99455007  0.74071586  0.13658516  1
  O  O242  1  0.98981805  0.74963427  0.63594929  1
  O  O243  1  0.00377202  0.26050374  0.36498701  1
  O  O244  1  0.01316393  0.25370131  0.86080917  1
  O  O245  1  0.00483170  0.74109543  0.36214497  1
  O  O246  1  0.00572159  0.74838361  0.87483124  1
  O  O247  1  0.50785838  0.24200432  0.36796531  1
  O  O248  1  0.50556399  0.25515308  0.86800691  1
  O  O249  1  0.49688179  0.74800756  0.35807357  1
  O  O250  1  0.50525227  0.75922809  0.86805027  1
  O  O251  1  0.25024634  0.13140650  0.48646528  1
  O  O252  1  0.23554449  0.12627506  1.00073846  1
  O  O253  1  0.24512793  0.61463905  0.48831452  1
  O  O254  1  0.24698066  0.62908733  0.99345241  1
  O  O255  1  0.74914529  0.13140420  0.49286754  1
  O  O256  1  0.74084522  0.12619810  0.98930950  1
  O  O257  1  0.75118233  0.64284854  0.50512239  1
  O  O258  1  0.73561271  0.62325837  1.04283268  1
  O  O259  1  0.25752982  0.37803687  0.00742597  1
  O  O260  1  0.25609254  0.36922374  0.50391496  1
  O  O261  1  0.25463418  0.86707167  0.00796796  1
  O  O262  1  0.26986489  0.85935514  0.48774337  1
  O  O263  1  0.75244794  0.37057691  0.01785511  1
  O  O264  1  0.75715428  0.36712066  0.50843999  1
  O  O265  1  0.76372392  0.88522455  0.00798753  1
  O  O266  1  0.75799922  0.86761862  0.50418142  1
  O  O267  1  0.12670871  0.49240179  0.24214742  1
  O  O268  1  0.12327870  0.49927397  0.73562391  1
  O  O269  1  0.13161520  0.99264807  0.25010151  1
  O  O270  1  0.13503866  1.00878621  0.74483847  1
  O  O271  1  0.61465906  0.47809585  0.25386381  1
  O  O272  1  0.61868171  0.49419108  0.73406584  1
  O  O273  1  0.61851661  0.99052618  0.24453603  1
  O  O274  1  0.63678918  1.00445003  0.74971177  1
  O  O275  1  0.37013505  0.00398112  0.26016007  1
  O  O276  1  0.38407975  0.01095623  0.75949763  1
  O  O277  1  0.37057887  0.50246123  0.25502254  1
  O  O278  1  0.37351222  0.51116677  0.75353006  1
  O  O279  1  0.87044701  0.00775904  0.25957371  1
  O  O280  1  0.86884094  0.00883466  0.74692895  1
  O  O281  1  0.87960486  0.51653003  0.25854708  1
  O  O282  1  0.87671169  0.51701257  0.74696861  1
  O  O283  1  0.11846739  0.37353476  0.36755420  1
  O  O284  1  0.12287443  0.37028515  0.86643464  1
  O  O285  1  0.13654392  0.87376400  0.36961459  1
  O  O286  1  0.12890316  0.86643605  0.86901436  1
  O  O287  1  0.63042678  0.35944636  0.36474626  1
  O  O288  1  0.61741507  0.36258905  0.87749043  1
  O  O289  1  0.62820083  0.87230507  0.36135231  1
  O  O290  1  0.61259124  0.88195033  0.86528936  1
  O  O291  1  0.37898029  0.11736936  0.13912955  1
  O  O292  1  0.37597791  0.12751366  0.63017178  1
  O  O293  1  0.36371779  0.63265703  0.13373914  1
  O  O294  1  0.38806118  0.61765568  0.63274004  1
  O  O295  1  0.87962104  0.12794590  0.13640389  1
  O  O296  1  0.87264353  0.13385042  0.63093007  1
  O  O297  1  0.88329540  0.63045041  0.13972479  1
  O  O298  1  0.87871087  0.63894607  0.62981324  1
  O  O299  1  0.24383699  0.25971148  0.12975232  1
  O  O300  1  0.25689482  0.25517451  0.61681411  1
  O  O301  1  0.25562526  0.75592913  0.12231809  1
  O  O302  1  0.25489919  0.72112999  0.60423110  1
  O  O303  1  0.74837189  0.25762308  0.13138715  1
  O  O304  1  0.76315410  0.25850838  0.62253040  1
  O  O305  1  0.77093401  0.75682749  0.14075533  1
  O  O306  1  0.75492512  0.75884527  0.61755636  1
  O  O307  1  0.24448770  0.24343242  0.37754364  1
  O  O308  1  0.23461147  0.24881942  0.86683439  1
  O  O309  1  0.24901999  0.73197712  0.36927046  1
  O  O310  1  0.24365293  0.74059480  0.88066737  1
  O  O311  1  0.74425541  0.23927232  0.38176589  1
  O  O312  1  0.73907025  0.23494044  0.86605602  1
  O  O313  1  0.75365244  0.75471261  0.38682876  1
  O  O314  1  0.73434480  0.75781448  0.86300438  1
  O  O315  1  0.01158299  0.12814873  0.00951579  1
  O  O316  1  0.00717630  0.13684518  0.49314061  1
  O  O317  1  0.00194693  0.61520059  0.01077572  1
  O  O318  1  -0.00610936  0.61642318  0.50598538  1
  O  O319  1  0.50279003  0.11949872  0.00776170  1
  O  O320  1  0.49817693  0.10508925  0.50413143  1
  O  O321  1  0.48850795  0.60458193  -0.00231744  1
  O  O322  1  0.49930975  0.60929037  0.50805517  1
  O  O323  1  0.49386783  0.38450659  0.50597520  1
  O  O324  1  0.49091385  0.38114872  0.99663820  1
  O  O325  1  0.49032485  0.88366072  0.49665033  1
  O  O326  1  0.49245629  0.88158868  0.99265798  1
  O  O327  1  0.99270433  0.38719937  0.49436999  1
  O  O328  1  0.99804695  0.38869835  0.99683687  1
  O  O329  1  0.98452238  0.85519465  0.49421790  1
  O  O330  1  0.99138126  0.87460844  0.99520630  1
  O  O331  1  0.48902973  0.50084810  0.38380121  1
  O  O332  1  0.50773023  0.48479616  0.87081252  1
  O  O333  1  0.48671253  1.00541744  0.37685345  1
  O  O334  1  0.49156415  0.99514768  0.88109936  1
  O  O335  1  0.99403512  0.49753036  0.38231370  1
  O  O336  1  1.00575008  0.50360766  0.88942821  1
  O  O337  1  0.98515433  1.00427369  0.36821840  1
  O  O338  1  0.98609204  1.00464511  0.86501804  1
  O  O339  1  0.00032310  0.01621534  0.13497495  1
  O  O340  1  0.02540368  -0.04764686  0.61588073  1
  O  O341  1  0.00433446  0.50651154  0.11843512  1
  O  O342  1  0.00699416  0.51021612  0.61733159  1
  O  O343  1  0.50284415  0.00996739  0.12035713  1
  O  O344  1  0.49201194  -0.00692680  0.61463876  1
  O  O345  1  0.48832642  0.50127048  0.12166535  1
  O  O346  1  0.50792323  0.50464195  0.61765471  1
  O  O347  1  0.24297908  0.37938671  0.24095738  1
  O  O348  1  0.24334553  0.37953305  0.74189793  1
  O  O349  1  0.24359848  0.87766727  0.24453280  1
  O  O350  1  0.27725337  0.87249565  0.73801737  1
  O  O351  1  0.73600009  0.36615260  0.24495745  1
  O  O352  1  0.75515649  0.37261755  0.74008487  1
  O  O353  1  0.73442544  0.87928065  0.24360387  1
  O  O354  1  0.74763801  0.88772437  0.73690998  1
  O  O355  1  0.25428613  0.12176819  0.25895913  1
  O  O356  1  0.26325745  0.13096407  0.74999869  1
  O  O357  1  0.25658153  0.61627375  0.25427379  1
  O  O358  1  0.25892661  0.63224887  0.75690738  1
  O  O359  1  0.75608204  0.12446825  0.25851582  1
  O  O360  1  0.75931561  0.12076985  0.75180511  1
  O  O361  1  0.75915421  0.62790731  0.24482977  1
  O  O362  1  0.76247998  0.62965005  0.74263239  1
  O  O363  1  0.36842115  0.11600768  0.36607731  1
  O  O364  1  0.37222462  0.11704638  0.86750307  1
  O  O365  1  0.36703450  0.61073785  0.36603115  1
  O  O366  1  0.36762319  0.62242072  0.86814199  1
  O  O367  1  0.86719059  0.11551975  0.36813098  1
  O  O368  1  0.86911576  0.12059137  0.85946135  1
  O  O369  1  0.87515370  0.62026263  0.36154914  1
  O  O370  1  0.87206902  0.62906698  0.86079843  1
  O  O371  1  0.12850896  0.37829914  0.12706939  1
  O  O372  1  0.13007673  0.38362387  0.62860777  1
  O  O373  1  0.13525518  0.87330090  0.12882277  1
  O  O374  1  0.14976617  0.83161244  0.65722218  1
  O  O375  1  0.62887629  0.36554946  0.13856535  1
  O  O376  1  0.63708040  0.37926177  0.62904186  1
  O  O377  1  0.62049558  0.88160501  0.13329869  1
  O  O378  1  0.63670415  0.87109679  0.62368620  1
  O  O379  1  0.11516305  0.25528742  0.25535947  1
  O  O380  1  0.11892053  0.25404540  0.74902138  1
  O  O381  1  0.11915211  0.75916548  0.25354839  1
  O  O382  1  0.10894652  0.73225034  0.77340599  1
  O  O383  1  0.61346978  0.25251902  0.25949936  1
  O  O384  1  0.61631693  0.25209094  0.76103631  1
  O  O385  1  0.61386770  0.76490083  0.24910058  1
  O  O386  1  0.61347674  0.75169715  0.75882814  1
  O  O387  1  0.38202336  0.23890416  0.25693653  1
  O  O388  1  0.38117910  0.24415693  0.74432954  1
  O  O389  1  0.37487459  0.74026056  0.24466722  1
  O  O390  1  0.39091203  0.73489781  0.75624955  1
  O  O391  1  0.88381778  0.23901917  0.26214290  1
  O  O392  1  0.88398945  0.24227136  0.74051498  1
  O  O393  1  0.88316166  0.74010708  0.24903456  1
  O  O394  1  0.87645484  0.74488313  0.74428480  1
  O  O395  1  0.38153863  0.49174463  0.49151818  1
  O  O396  1  0.38319017  0.48756812  0.99577319  1
  O  O397  1  0.38399142  0.99359453  0.48758465  1
  O  O398  1  0.37985060  0.99543237  0.99531454  1
  O  O399  1  0.88177133  0.49918128  0.49350811  1
  O  O400  1  0.88769205  0.49731630  1.00384263  1
  O  O401  1  0.87562720  0.99300853  0.48587738  1
  O  O402  1  0.87601666  1.01270754  0.97775255  1
  O  O403  1  0.12583475  0.01407505  0.00168118  1
  O  O404  1  0.11376309  0.02222876  0.47865706  1
  O  O405  1  0.11662690  0.50444460  0.00645728  1
  O  O406  1  0.11549289  0.49455054  0.51092652  1
  O  O407  1  0.61645422  0.00579505  0.00611647  1
  O  O408  1  0.60576797  -0.00490238  0.49350647  1
  O  O409  1  0.60032120  0.49679244  0.00901054  1
  O  O410  1  0.61766347  0.49487895  0.50849212  1
  O  O411  1  0.36131801  0.37373385  0.11529247  1
  O  O412  1  0.36954664  0.36981724  0.61933875  1
  O  O413  1  0.36079894  0.87120636  0.12254519  1
  O  O414  1  0.37291070  0.86778006  0.60213735  1
  O  O415  1  0.86770608  0.36672824  0.12605399  1
  O  O416  1  0.87113174  0.37196938  0.61909282  1
  O  O417  1  0.88115987  0.86105169  0.13161989  1
  O  O418  1  0.86659758  0.86558839  0.61671690  1
  O  O419  1  0.13209385  0.13525060  0.37734094  1
  O  O420  1  0.12601417  0.13204258  0.88731009  1
  O  O421  1  0.13723169  0.62414349  0.37189120  1
  O  O422  1  0.13200289  0.62893328  0.88417079  1
  O  O423  1  0.63202359  0.13323037  0.37891986  1
  O  O424  1  0.63088776  0.12807573  0.87951277  1
  O  O425  1  0.61809860  0.62910004  0.38047960  1
  O  O426  1  0.61834082  0.64421562  0.89237605  1
