# generated using pymatgen
data_V85Zn86O256
_symmetry_space_group_name_H-M   'P 1'
_cell_length_a   16.94666625
_cell_length_b   16.93555312
_cell_length_c   16.93082200
_cell_angle_alpha   89.90536794
_cell_angle_beta   89.89685223
_cell_angle_gamma   90.01519295
_symmetry_Int_Tables_number   1
_chemical_formula_structural   V85Zn86O256
_chemical_formula_sum   'V85 Zn86 O256'
_cell_volume   4859.15098706
_cell_formula_units_Z   1
loop_
 _symmetry_equiv_pos_site_id
 _symmetry_equiv_pos_as_xyz
  1  'x, y, z'
loop_
 _atom_site_type_symbol
 _atom_site_label
 _atom_site_symmetry_multiplicity
 _atom_site_fract_x
 _atom_site_fract_y
 _atom_site_fract_z
 _atom_site_occupancy
  V  V0  1  0.62249349  0.74848508  0.37271578  1
  V  V1  1  0.24378325  0.25089018  0.00211765  1
  V  V2  1  0.50204741  0.25010960  0.25198616  1
  V  V3  1  0.25449038  0.61816808  0.36333018  1
  V  V4  1  0.63792455  -0.00600700  0.12679324  1
  V  V5  1  0.24478626  0.37812547  0.62422603  1
  V  V6  1  0.37078702  -0.01090497  0.38243978  1
  V  V7  1  0.50027518  -0.00353619  0.00266040  1
  V  V8  1  0.75247730  0.37846447  0.61744352  1
  V  V9  1  0.24727079  0.12399367  0.37661835  1
  V  V10  1  0.75912515  0.75445589  0.49740596  1
  V  V11  1  0.25030983  0.50169377  0.74783648  1
  V  V12  1  0.00091627  0.25231149  0.25190313  1
  V  V13  1  0.24831009  0.25071200  0.49984831  1
  V  V14  1  0.87579194  0.25647550  0.61827935  1
  V  V15  1  0.37160475  0.12491504  0.24974937  1
  V  V16  1  0.76475321  0.50483900  0.76435351  1
  V  V17  1  -0.00056494  0.12565089  0.62411958  1
  V  V18  1  0.12173465  0.38921794  0.25085304  1
  V  V19  1  0.87680972  -0.00803191  0.87657817  1
  V  V20  1  0.50021153  0.25450068  0.75115027  1
  V  V21  1  -0.00698160  0.87275794  0.37861474  1
  V  V22  1  0.00105910  0.25252509  0.75096510  1
  V  V23  1  0.24826520  -0.00129233  0.24933535  1
  V  V24  1  0.37174763  0.25527352  0.12319483  1
  V  V25  1  0.37567712  0.25162072  0.62486311  1
  V  V26  1  0.00817224  -0.00499336  -0.00441347  1
  V  V27  1  0.74760026  -0.00168604  0.74941773  1
  V  V28  1  -0.00563991  -0.00495007  0.49927858  1
  V  V29  1  0.24643742  0.62466538  0.87685466  1
  V  V30  1  0.50442748  0.62758422  0.62451861  1
  V  V31  1  0.64565930  0.74633941  0.87348838  1
  V  V32  1  0.37489038  0.37787345  0.49565207  1
  V  V33  1  0.37794298  0.62792085  0.74951022  1
  V  V34  1  0.63359673  0.62955162  0.00255820  1
  V  V35  1  0.49075254  0.74762665  0.24751210  1
  V  V36  1  0.76196664  0.50324963  0.24310339  1
  V  V37  1  0.00811689  0.12407957  0.11955145  1
  V  V38  1  -0.02994686  0.54185309  -0.01983659  1
  V  V39  1  0.49970620  -0.00037613  0.49995767  1
  V  V40  1  0.49998087  0.86672529  0.87529757  1
  V  V41  1  0.11447249  0.87673585  0.75117132  1
  V  V42  1  0.12022867  0.52033473  0.61870246  1
  V  V43  1  -0.00402864  0.73297136  0.74844364  1
  V  V44  1  0.12328143  0.12587224  0.49924724  1
  V  V45  1  0.87144625  0.11740495  0.25305227  1
  V  V46  1  -0.01140382  0.50891443  0.50414102  1
  V  V47  1  0.74547605  0.23754534  0.49431215  1
  V  V48  1  0.87592087  0.37159137  -0.00584394  1
  V  V49  1  0.24816446  0.74262024  0.50208279  1
  V  V50  1  0.37612892  0.12407607  0.75064768  1
  V  V51  1  0.12466131  -0.00090046  0.62480756  1
  V  V52  1  0.49846338  0.12135560  0.12408618  1
  V  V53  1  0.62694948  0.00674622  0.61843358  1
  V  V54  1  -0.00432350  0.74201210  0.24801988  1
  V  V55  1  0.24425536  0.74758428  0.00171799  1
  V  V56  1  0.62477339  0.37774108  0.75569925  1
  V  V57  1  0.87071887  0.24738653  0.12646079  1
  V  V58  1  0.12157469  0.75347461  0.87687240  1
  V  V59  1  0.86375105  -0.00122833  0.37425437  1
  V  V60  1  0.62811900  0.37903491  0.25117395  1
  V  V61  1  0.62589592  0.62490365  0.49650341  1
  V  V62  1  0.49938067  0.50031788  0.49560852  1
  V  V63  1  0.00094443  0.37539015  0.88008333  1
  V  V64  1  0.74820989  0.24831810  -0.00024854  1
  V  V65  1  0.24366938  0.12414127  0.87773036  1
  V  V66  1  0.38079087  0.75602653  0.61800221  1
  V  V67  1  0.12330113  0.74345582  0.38099849  1
  V  V68  1  0.62620581  0.49960750  0.62633183  1
  V  V69  1  0.74882097  0.12416702  0.87535947  1
  V  V70  1  0.61934631  0.24968670  0.87747694  1
  V  V71  1  0.37831780  0.37545201  -0.00909085  1
  V  V72  1  0.86170454  0.74497390  0.12667675  1
  V  V73  1  0.25403183  0.87678167  0.62139545  1
  V  V74  1  0.37315863  0.87217322  0.00305120  1
  V  V75  1  0.87575949  0.12441515  0.75109265  1
  V  V76  1  0.49510467  0.61668506  0.12656873  1
  V  V77  1  0.50619096  0.49892789  -0.01088733  1
  V  V78  1  0.12329738  0.87321211  0.24938242  1
  V  V79  1  0.75924330  0.62384152  0.36924349  1
  V  V80  1  0.74557545  0.37805030  0.12326028  1
  V  V81  1  0.86241343  0.87728069  0.01256635  1
  V  V82  1  0.63224198  0.87568787  0.24565922  1
  V  V83  1  0.12683687  0.50364874  0.10231948  1
  V  V84  1  0.75514510  0.87475970  0.61788938  1
  Zn  Zn85  1  0.12921840  0.00337222  0.11971868  1
  Zn  Zn86  1  0.12246771  0.24753437  0.88146250  1
  Zn  Zn87  1  0.37568044  -0.00125922  0.87412398  1
  Zn  Zn88  1  0.88709082  0.74481620  0.62076522  1
  Zn  Zn89  1  0.62642348  0.87268201  0.74877689  1
  Zn  Zn90  1  -0.00742034  0.37412612  0.38749737  1
  Zn  Zn91  1  0.24861516  0.87316693  0.12524288  1
  Zn  Zn92  1  0.50273659  0.37500217  0.37425335  1
  Zn  Zn93  1  0.37711380  0.50563150  0.35056454  1
  Zn  Zn94  1  0.50696751  0.12921629  0.61761603  1
  Zn  Zn95  1  0.12479398  0.37742521  0.75174879  1
  Zn  Zn96  1  0.87474992  0.49490345  0.37466076  1
  Zn  Zn97  1  0.62597805  0.12294084  0.00503189  1
  Zn  Zn98  1  0.12331202  0.25415547  0.37419157  1
  Zn  Zn99  1  0.28797589  0.43132428  0.17963951  1
  Zn  Zn100  1  0.25201353  -0.00234188  0.75102097  1
  Zn  Zn101  1  0.50696383  0.75042251  0.74930461  1
  Zn  Zn102  1  0.37938284  0.49674520  0.86996432  1
  Zn  Zn103  1  0.00238028  0.62727137  0.12578181  1
  Zn  Zn104  1  0.36833069  0.74279885  0.12905704  1
  Zn  Zn105  1  0.62140402  0.23761140  0.38521683  1
  Zn  Zn106  1  0.49509101  0.87088302  0.37810523  1
  Zn  Zn107  1  0.18615575  0.19122340  0.18758196  1
  Zn  Zn108  1  0.18738790  0.18776147  0.68915067  1
  Zn  Zn109  1  0.18270861  0.68351212  0.18702203  1
  Zn  Zn110  1  0.19007356  0.69344594  0.69234971  1
  Zn  Zn111  1  0.66711995  0.15944517  0.22709460  1
  Zn  Zn112  1  0.68970539  0.18883017  0.68646907  1
  Zn  Zn113  1  0.68149341  0.68428928  0.18660300  1
  Zn  Zn114  1  0.71878690  0.67575729  0.67940151  1
  Zn  Zn115  1  0.31044863  0.31454571  0.31407828  1
  Zn  Zn116  1  0.31156010  0.31188028  0.81449955  1
  Zn  Zn117  1  0.30899789  0.80910698  0.31334046  1
  Zn  Zn118  1  0.31180464  0.81260470  0.80982686  1
  Zn  Zn119  1  0.81668548  0.31446218  0.31401841  1
  Zn  Zn120  1  0.81064754  0.31603184  0.80968077  1
  Zn  Zn121  1  0.81243308  0.81284129  0.30992975  1
  Zn  Zn122  1  0.81651538  0.81748501  0.81148082  1
  Zn  Zn123  1  0.17952513  0.44058427  0.43705396  1
  Zn  Zn124  1  0.19188061  0.43225446  0.93533197  1
  Zn  Zn125  1  0.18402582  0.93210797  0.44003880  1
  Zn  Zn126  1  0.19011985  0.93581210  0.93377353  1
  Zn  Zn127  1  0.69019356  0.43357993  0.43251135  1
  Zn  Zn128  1  0.68514445  0.43872360  0.93885314  1
  Zn  Zn129  1  0.68080395  0.93606713  0.43652708  1
  Zn  Zn130  1  0.68535658  0.93550531  0.93750567  1
  Zn  Zn131  1  0.31248151  0.06256110  0.06141542  1
  Zn  Zn132  1  0.31513757  0.06295283  0.56384365  1
  Zn  Zn133  1  0.31541481  0.56314961  0.05620090  1
  Zn  Zn134  1  0.31360087  0.56520432  0.56059851  1
  Zn  Zn135  1  0.81540383  0.06462142  0.06418328  1
  Zn  Zn136  1  0.81536240  0.06300471  0.56181123  1
  Zn  Zn137  1  0.81356259  0.56453213  0.05693364  1
  Zn  Zn138  1  0.81351140  0.56909182  0.56909788  1
  Zn  Zn139  1  0.45162398  0.43697316  0.17975080  1
  Zn  Zn140  1  0.43861058  0.43812902  0.68509917  1
  Zn  Zn141  1  0.43762071  0.93176344  0.18874643  1
  Zn  Zn142  1  0.44150702  0.93806437  0.68767294  1
  Zn  Zn143  1  0.94181926  0.44057058  0.17533438  1
  Zn  Zn144  1  0.93843033  0.44130049  0.68779751  1
  Zn  Zn145  1  0.94016905  0.93635360  0.18635118  1
  Zn  Zn146  1  0.93353215  0.93312227  0.68526948  1
  Zn  Zn147  1  0.05928379  0.06293732  0.31261242  1
  Zn  Zn148  1  0.06340626  0.06203488  0.81317666  1
  Zn  Zn149  1  0.06137090  0.56465511  0.32043889  1
  Zn  Zn150  1  0.06688990  0.56025948  0.81366873  1
  Zn  Zn151  1  0.55855696  0.05831404  0.31687502  1
  Zn  Zn152  1  0.56188260  0.06204905  0.81237106  1
  Zn  Zn153  1  0.56619756  0.55995988  0.30886620  1
  Zn  Zn154  1  0.57016584  0.56786501  0.81311290  1
  Zn  Zn155  1  0.43611325  0.18285466  0.43635773  1
  Zn  Zn156  1  0.43633971  0.18568160  0.93732914  1
  Zn  Zn157  1  0.43394809  0.68616919  0.43687276  1
  Zn  Zn158  1  0.43518673  0.68542621  0.94020106  1
  Zn  Zn159  1  0.93394832  0.18768219  0.43559589  1
  Zn  Zn160  1  0.93841093  0.18379002  0.93789974  1
  Zn  Zn161  1  0.94007376  0.68015108  0.44064970  1
  Zn  Zn162  1  0.94122086  0.70257296  0.94263545  1
  Zn  Zn163  1  0.06310349  0.31639783  0.06866699  1
  Zn  Zn164  1  0.06169113  0.31815044  0.56103048  1
  Zn  Zn165  1  0.05951887  0.81606195  0.06359953  1
  Zn  Zn166  1  0.06326322  0.81018970  0.56480953  1
  Zn  Zn167  1  0.56130497  0.31322667  0.06400692  1
  Zn  Zn168  1  0.56545891  0.31341375  0.56335249  1
  Zn  Zn169  1  0.56377873  0.80625547  0.06369562  1
  Zn  Zn170  1  0.56788336  0.81980468  0.56011960  1
  O  O171  1  0.11233457  0.12372592  0.12908690  1
  O  O172  1  0.11910193  0.11866568  0.62088446  1
  O  O173  1  0.11992144  0.60532366  0.13199574  1
  O  O174  1  0.13065653  0.61784875  0.62880753  1
  O  O175  1  0.61470170  0.11178424  0.13051314  1
  O  O176  1  0.62582486  0.11173896  0.63179110  1
  O  O177  1  0.61165507  0.63400981  0.10937468  1
  O  O178  1  0.62295637  0.61918378  0.61652729  1
  O  O179  1  0.37365869  0.37806632  0.38840901  1
  O  O180  1  0.37763458  0.37461295  0.88563411  1
  O  O181  1  0.37246509  0.88586251  0.37225625  1
  O  O182  1  0.38137131  0.87505770  0.88379423  1
  O  O183  1  0.88014121  0.38133133  0.37390377  1
  O  O184  1  0.88316404  0.36591236  0.88425477  1
  O  O185  1  0.88694645  0.88064235  0.36871795  1
  O  O186  1  0.87296952  0.88762847  0.88722654  1
  O  O187  1  0.25301989  0.00262341  0.37152966  1
  O  O188  1  0.25465823  0.00920157  0.87257646  1
  O  O189  1  0.24789057  0.51584023  0.38034151  1
  O  O190  1  0.25237773  0.50759505  0.86648143  1
  O  O191  1  0.76478815  -0.00815441  0.38058580  1
  O  O192  1  0.75578251  0.00405682  0.87024751  1
  O  O193  1  0.75048414  0.50766106  0.36544051  1
  O  O194  1  0.75593990  0.48287120  0.86258474  1
  O  O195  1  0.23408096  0.50221037  0.11079611  1
  O  O196  1  0.24312095  0.49649673  0.62756807  1
  O  O197  1  0.24752703  0.99876227  0.13438692  1
  O  O198  1  0.24503527  0.99267190  0.62575644  1
  O  O199  1  0.75429035  0.49023245  0.12928856  1
  O  O200  1  0.74237063  0.49247425  0.63219615  1
  O  O201  1  0.73680472  1.00332550  0.12127143  1
  O  O202  1  0.74719389  0.99466393  0.62747044  1
  O  O203  1  0.00724916  0.36871607  0.24585612  1
  O  O204  1  -0.00187160  0.36986626  0.76205486  1
  O  O205  1  0.00717020  0.86876928  0.25866230  1
  O  O206  1  0.01220586  0.87630967  0.74739546  1
  O  O207  1  0.51026787  0.36730653  0.24998011  1
  O  O208  1  0.50663533  0.36267006  0.74505554  1
  O  O209  1  0.50518038  0.86243494  0.25301410  1
  O  O210  1  0.50463872  0.87294404  0.76082903  1
  O  O211  1  0.48850242  0.13161846  0.24387251  1
  O  O212  1  0.49345365  0.13616121  0.74886885  1
  O  O213  1  0.50886309  0.62878041  0.23386933  1
  O  O214  1  0.49473976  0.62796492  0.74315082  1
  O  O215  1  0.99434398  0.13229868  0.24254787  1
  O  O216  1  0.99543061  0.13187057  0.74469339  1
  O  O217  1  1.00085870  0.63921451  0.25370761  1
  O  O218  1  1.00050903  0.63418503  0.75450403  1
  O  O219  1  0.37320757  0.25641303  0.00595437  1
  O  O220  1  0.36956662  0.25727515  0.50470205  1
  O  O221  1  0.36217475  0.75623235  0.00029894  1
  O  O222  1  0.36900815  0.74928878  0.51170272  1
  O  O223  1  0.87013855  0.25299040  0.00688399  1
  O  O224  1  0.86740495  0.24514501  0.51271539  1
  O  O225  1  0.88045386  0.76906934  0.01361866  1
  O  O226  1  0.86232064  0.74711244  0.49806321  1
  O  O227  1  0.13075937  0.24437007  0.50050199  1
  O  O228  1  0.14011849  0.25487096  1.00614480  1
  O  O229  1  0.13322369  0.75478365  0.49166685  1
  O  O230  1  0.13542940  0.76253656  0.99141687  1
  O  O231  1  0.63875276  0.24927537  0.50214280  1
  O  O232  1  0.62769659  0.24765830  0.99284542  1
  O  O233  1  0.62626485  0.74761903  0.48423171  1
  O  O234  1  0.62123046  0.74030370  0.98823048  1
  O  O235  1  0.48850843  0.24388174  0.12855348  1
  O  O236  1  0.49423990  0.24868057  0.63178995  1
  O  O237  1  0.49510897  0.73902228  0.13104699  1
  O  O238  1  0.49642080  0.74870757  0.62441599  1
  O  O239  1  0.99021182  0.24377243  0.12866691  1
  O  O240  1  0.99288825  0.24888408  0.62939198  1
  O  O241  1  0.99591271  0.75014596  0.13449488  1
  O  O242  1  1.00167284  0.75102408  0.64164739  1
  O  O243  1  0.00156984  0.25077988  0.36557146  1
  O  O244  1  0.00146535  0.25310683  0.86699734  1
  O  O245  1  0.00431618  0.75456269  0.37285357  1
  O  O246  1  0.01407285  0.74871809  0.86705222  1
  O  O247  1  0.49840390  0.25150811  0.36505175  1
  O  O248  1  0.51208173  0.24466581  0.86846965  1
  O  O249  1  0.50566190  0.74633865  0.36727423  1
  O  O250  1  0.49837247  0.76004220  0.87521374  1
  O  O251  1  0.24392738  0.12994169  0.49687456  1
  O  O252  1  0.26018258  0.13541643  0.98846145  1
  O  O253  1  0.25277492  0.63868009  0.49555388  1
  O  O254  1  0.25401764  0.63507601  0.98842527  1
  O  O255  1  0.75130105  0.13889076  0.50503165  1
  O  O256  1  0.74850431  0.13139007  0.99475615  1
  O  O257  1  0.74102285  0.63181198  0.48800902  1
  O  O258  1  0.73198494  0.62419109  1.00474615  1
  O  O259  1  0.26256951  0.36313195  -0.00438188  1
  O  O260  1  0.25480686  0.37297658  0.50523936  1
  O  O261  1  0.25779662  0.86910426  0.00137490  1
  O  O262  1  0.24555853  0.86546052  0.51387265  1
  O  O263  1  0.75507917  0.36779256  0.00472098  1
  O  O264  1  0.74453093  0.36974304  0.51421462  1
  O  O265  1  0.76392587  0.88161124  0.00227735  1
  O  O266  1  0.74557263  0.86705043  0.50410072  1
  O  O267  1  0.11654919  0.49071797  0.24788799  1
  O  O268  1  0.13082109  0.49808355  0.73790744  1
  O  O269  1  0.13513855  0.99323595  0.25370665  1
  O  O270  1  0.12719334  0.99415490  0.74333698  1
  O  O271  1  0.63342976  0.48428805  0.25113806  1
  O  O272  1  0.62146128  0.48863909  0.74601767  1
  O  O273  1  0.61431350  0.98220096  0.24163356  1
  O  O274  1  0.63392930  0.99849161  0.74563465  1
  O  O275  1  0.36304037  0.00150532  0.25558819  1
  O  O276  1  0.37592463  0.01060431  0.75181434  1
  O  O277  1  0.36869835  0.47655295  0.24309972  1
  O  O278  1  0.37186896  0.51171074  0.74736912  1
  O  O279  1  0.88494720  0.00977571  0.25752692  1
  O  O280  1  0.87001888  0.00191326  0.75844207  1
  O  O281  1  0.86498856  0.49856510  0.24465255  1
  O  O282  1  0.86409947  0.50366595  0.74679186  1
  O  O283  1  0.11639708  0.37532764  0.36357665  1
  O  O284  1  0.11647998  0.36933094  0.87165389  1
  O  O285  1  0.11718417  0.86598827  0.36722463  1
  O  O286  1  0.13324218  0.86567972  0.86250797  1
  O  O287  1  0.62494609  0.36376542  0.36443535  1
  O  O288  1  0.62829416  0.36488987  0.86377994  1
  O  O289  1  0.61962448  0.86606422  0.36371878  1
  O  O290  1  0.61900732  0.86089419  0.87787784  1
  O  O291  1  0.37998813  0.13029661  0.13100448  1
  O  O292  1  0.37413483  0.13365866  0.63669204  1
  O  O293  1  0.39047147  0.62505687  0.11968129  1
  O  O294  1  0.38373689  0.63293664  0.62984822  1
  O  O295  1  0.88722261  0.12896297  0.13172959  1
  O  O296  1  0.88167426  0.13201612  0.63239460  1
  O  O297  1  0.88074209  0.64229213  0.11550124  1
  O  O298  1  0.82781483  0.65178270  0.63941632  1
  O  O299  1  0.26372336  0.24192600  0.11813300  1
  O  O300  1  0.25539243  0.25894250  0.62115154  1
  O  O301  1  0.24822237  0.74915301  0.11666325  1
  O  O302  1  0.25783869  0.75565633  0.61952752  1
  O  O303  1  0.76229706  0.25431781  0.11897298  1
  O  O304  1  0.75746318  0.25719806  0.61995406  1
  O  O305  1  0.76297693  0.74620106  0.13075877  1
  O  O306  1  0.72626553  0.76581224  0.60684496  1
  O  O307  1  0.24737313  0.24275763  0.38244364  1
  O  O308  1  0.24771619  0.24311098  0.88312435  1
  O  O309  1  0.24305320  0.74457859  0.38336073  1
  O  O310  1  0.24268565  0.74451940  0.87887086  1
  O  O311  1  0.75400480  0.25319618  0.39311831  1
  O  O312  1  0.73999537  0.24531556  0.87787158  1
  O  O313  1  0.74316702  0.74422676  0.37762542  1
  O  O314  1  0.74404150  0.75306396  0.87574956  1
  O  O315  1  -0.00587239  0.11066732  0.00801274  1
  O  O316  1  0.00468034  0.11925486  0.50516370  1
  O  O317  1  0.02210649  0.62818667  -0.00084618  1
  O  O318  1  0.00234262  0.61115172  0.50634559  1
  O  O319  1  0.50093998  0.11400315  0.00494616  1
  O  O320  1  0.49465482  0.11050804  0.50182360  1
  O  O321  1  0.50408234  0.61858350  0.00694468  1
  O  O322  1  0.50490999  0.61803295  0.50368458  1
  O  O323  1  0.49268022  0.38148825  0.49971804  1
  O  O324  1  0.49512631  0.38804014  1.00625393  1
  O  O325  1  0.50257211  0.89062120  0.49577090  1
  O  O326  1  0.49344019  0.87740298  0.99611262  1
  O  O327  1  1.00992198  0.39814451  0.50221001  1
  O  O328  1  0.99269470  0.36155153  0.98769398  1
  O  O329  1  1.00496084  0.88274689  0.49173095  1
  O  O330  1  0.98937250  0.89106477  1.00451477  1
  O  O331  1  0.49669883  0.49850154  0.38171367  1
  O  O332  1  0.49818575  0.50741133  0.88485922  1
  O  O333  1  0.48719958  0.99810649  0.38067386  1
  O  O334  1  0.50274053  0.98840979  0.88668735  1
  O  O335  1  0.99580770  0.50488344  0.39183966  1
  O  O336  1  1.00507109  0.49435343  0.88964333  1
  O  O337  1  0.99556597  0.99104841  0.38189140  1
  O  O338  1  0.99211339  1.00703893  0.88732328  1
  O  O339  1  0.00315057  0.00676789  0.11446723  1
  O  O340  1  0.00157174  0.00323766  0.61716461  1
  O  O341  1  0.00179594  0.50864851  0.09881047  1
  O  O342  1  0.01348357  0.50000315  0.62161487  1
  O  O343  1  0.50098288  0.00012033  0.11485560  1
  O  O344  1  0.50856268  0.00248052  0.61821954  1
  O  O345  1  0.50625372  0.51266515  0.11298597  1
  O  O346  1  0.50724591  0.50533366  0.61665322  1
  O  O347  1  0.22641437  0.36383226  0.24937520  1
  O  O348  1  0.25261398  0.38257137  0.74137588  1
  O  O349  1  0.24159455  0.88083136  0.24992390  1
  O  O350  1  0.24171260  0.87403594  0.73743278  1
  O  O351  1  0.74628558  0.37857636  0.24138245  1
  O  O352  1  0.74143147  0.38046690  0.74063560  1
  O  O353  1  0.73112631  0.87008852  0.25185001  1
  O  O354  1  0.74885350  0.88257720  0.74187014  1
  O  O355  1  0.25147548  0.11826544  0.25555966  1
  O  O356  1  0.25896921  0.12626358  0.75726246  1
  O  O357  1  0.25012797  0.63074721  0.26467740  1
  O  O358  1  0.25982126  0.62159676  0.75349989  1
  O  O359  1  0.77465866  0.12498723  0.23634397  1
  O  O360  1  0.75756086  0.11883413  0.75422761  1
  O  O361  1  0.74005112  0.61366483  0.25606654  1
  O  O362  1  0.73163515  0.60090868  0.76453972  1
  O  O363  1  0.36496895  0.11583130  0.36777660  1
  O  O364  1  0.36885008  0.12571764  0.86344712  1
  O  O365  1  0.36029008  0.62165592  0.37740237  1
  O  O366  1  0.36606818  0.62648318  0.86459727  1
  O  O367  1  0.88041729  0.11555707  0.36136933  1
  O  O368  1  0.86885527  0.11558303  0.87032120  1
  O  O369  1  0.86189111  0.62210172  0.37513873  1
  O  O370  1  0.89120342  0.59833755  0.94350305  1
  O  O371  1  0.11641671  0.39464619  0.13370038  1
  O  O372  1  0.13858753  0.37803637  0.62770141  1
  O  O373  1  0.12476568  0.87882034  0.13935783  1
  O  O374  1  0.13185600  0.88111602  0.63114419  1
  O  O375  1  0.64051544  0.36992915  0.12786156  1
  O  O376  1  0.63157785  0.37920549  0.63524048  1
  O  O377  1  0.61950108  0.87781144  0.13605651  1
  O  O378  1  0.63312281  0.89030830  0.62776237  1
  O  O379  1  0.11098477  0.25749757  0.24638956  1
  O  O380  1  0.10985744  0.25254501  0.74674110  1
  O  O381  1  0.11779587  0.75708645  0.25718920  1
  O  O382  1  0.11623960  0.75719831  0.75579530  1
  O  O383  1  0.60862103  0.26111404  0.23655680  1
  O  O384  1  0.61906371  0.25531481  0.75545487  1
  O  O385  1  0.61549467  0.75574815  0.25574960  1
  O  O386  1  0.62757963  0.74926763  0.76657529  1
  O  O387  1  0.38181071  0.24987742  0.24287384  1
  O  O388  1  0.38312191  0.24700841  0.74651747  1
  O  O389  1  0.38625154  0.75203525  0.24971675  1
  O  O390  1  0.37636886  0.74068692  0.73933293  1
  O  O391  1  0.88362752  0.24137327  0.24396505  1
  O  O392  1  0.88410732  0.24601370  0.74265947  1
  O  O393  1  0.88215302  0.75860468  0.23541396  1
  O  O394  1  0.89627694  0.75618534  0.75857700  1
  O  O395  1  0.38733942  0.49384849  0.50371956  1
  O  O396  1  0.38406145  0.49178363  0.99531431  1
  O  O397  1  0.37922257  1.00188815  0.49102088  1
  O  O398  1  0.38257675  0.99074494  0.99803141  1
  O  O399  1  0.88484073  0.50534618  0.50800515  1
  O  O400  1  0.87980063  0.47520433  1.01527088  1
  O  O401  1  0.88779428  1.00599531  0.49184350  1
  O  O402  1  0.88096185  0.99318931  0.99675015  1
  O  O403  1  0.11221001  -0.00631588  -0.00137998  1
  O  O404  1  0.11483616  0.00484226  0.50446762  1
  O  O405  1  0.12263363  0.49672588  0.00269873  1
  O  O406  1  0.12465304  0.50420257  0.51628052  1
  O  O407  1  0.61680035  -0.00186104  0.00881515  1
  O  O408  1  0.61667210  0.00153912  0.50646859  1
  O  O409  1  0.61831183  0.51495480  -0.00804930  1
  O  O410  1  0.61554539  0.50138481  0.50221765  1
  O  O411  1  0.37381903  0.36755064  0.11385897  1
  O  O412  1  0.36559577  0.37307135  0.61519867  1
  O  O413  1  0.37258871  0.87021085  0.11333928  1
  O  O414  1  0.36786970  0.86659926  0.63209312  1
  O  O415  1  0.86865863  0.36261777  0.12107456  1
  O  O416  1  0.86629610  0.36608030  0.63213953  1
  O  O417  1  0.87403471  0.87116465  0.11812862  1
  O  O418  1  0.85994226  0.86606477  0.62695799  1
  O  O419  1  0.13062884  0.12644317  0.38096178  1
  O  O420  1  0.13905521  0.12858404  0.86996095  1
  O  O421  1  0.13492197  0.63757841  0.37348467  1
  O  O422  1  0.14004566  0.63530207  0.86557942  1
  O  O423  1  0.63271020  0.13674379  0.33531607  1
  O  O424  1  0.63144126  0.13169878  0.87684295  1
  O  O425  1  0.63064852  0.63197002  0.37721085  1
  O  O426  1  0.62039217  0.64068826  0.88636507  1
