# generated using pymatgen
data_V85Zn86O256
_symmetry_space_group_name_H-M   'P 1'
_cell_length_a   16.93537292
_cell_length_b   16.94821506
_cell_length_c   16.94875799
_cell_angle_alpha   90.00064297
_cell_angle_beta   89.98589978
_cell_angle_gamma   89.99210029
_symmetry_Int_Tables_number   1
_chemical_formula_structural   V85Zn86O256
_chemical_formula_sum   'V85 Zn86 O256'
_cell_volume   4864.70592178
_cell_formula_units_Z   1
loop_
 _symmetry_equiv_pos_site_id
 _symmetry_equiv_pos_as_xyz
  1  'x, y, z'
loop_
 _atom_site_type_symbol
 _atom_site_label
 _atom_site_symmetry_multiplicity
 _atom_site_fract_x
 _atom_site_fract_y
 _atom_site_fract_z
 _atom_site_occupancy
  V  V0  1  0.62349429  0.76578773  0.87843505  1
  V  V1  1  -0.00532787  0.74287650  0.24963511  1
  V  V2  1  0.50606734  0.76276228  0.75379162  1
  V  V3  1  0.62477502  0.62753847  0.49585025  1
  V  V4  1  0.36412223  0.50523521  0.37311201  1
  V  V5  1  0.37627416  0.37979271  -0.00001132  1
  V  V6  1  0.24737216  -0.00102011  0.75201176  1
  V  V7  1  0.61257638  0.76185166  0.36303689  1
  V  V8  1  0.37072464  0.50510592  0.87577515  1
  V  V9  1  0.24903622  0.12522625  0.87410190  1
  V  V10  1  0.75576991  0.49915182  0.75070520  1
  V  V11  1  0.74715195  0.87025898  0.63351674  1
  V  V12  1  0.62683914  0.50025585  0.62340340  1
  V  V13  1  0.50210117  0.25154355  0.75194605  1
  V  V14  1  0.88561547  0.74734144  0.62826059  1
  V  V15  1  0.50305046  0.00245752  -0.00736478  1
  V  V16  1  0.25065615  0.87604548  0.11972648  1
  V  V17  1  0.00423198  0.87502245  0.37488917  1
  V  V18  1  0.37337117  0.62801906  0.25082873  1
  V  V19  1  0.25315541  0.12218486  0.38899800  1
  V  V20  1  0.87402942  0.00138183  0.37375393  1
  V  V21  1  -0.00771543  0.86593712  0.87692476  1
  V  V22  1  0.87715733  0.50326385  0.37107341  1
  V  V23  1  0.74257746  0.61526567  0.88399871  1
  V  V24  1  0.12506130  0.61455791  0.01338836  1
  V  V25  1  0.00671227  0.24278724  0.25525000  1
  V  V26  1  0.62876901  0.12579618  0.50298862  1
  V  V27  1  0.38283830  0.75157245  0.12660314  1
  V  V28  1  0.38656727  -0.02059826  0.35099536  1
  V  V29  1  0.50003318  0.12578959  0.62552328  1
  V  V30  1  0.25356555  0.25282553  -0.00168764  1
  V  V31  1  0.87675638  0.87345937  0.50112190  1
  V  V32  1  -0.05156863  0.17641936  0.07829080  1
  V  V33  1  0.74961758  0.36474585  0.61805883  1
  V  V34  1  0.75458767  0.62856371  0.36999346  1
  V  V35  1  0.73879045  0.12688424  0.87987215  1
  V  V36  1  0.62762202  0.38002471  0.24975938  1
  V  V37  1  0.50670295  0.62928304  0.12278790  1
  V  V38  1  0.75070633  0.74903760  0.50059789  1
  V  V39  1  0.12468021  0.12662918  0.00018834  1
  V  V40  1  0.38126203  0.87417766  -0.00806794  1
  V  V41  1  0.38000829  0.24761660  0.12760208  1
  V  V42  1  0.13502616  0.24676437  0.39109454  1
  V  V43  1  0.24762928  0.50222869  0.74362425  1
  V  V44  1  0.49795558  0.50134246  0.49709741  1
  V  V45  1  0.00482645  0.00963702  0.49729969  1
  V  V46  1  -0.00893631  -0.01046805  0.00075109  1
  V  V47  1  0.12472581  0.37975961  0.24811648  1
  V  V48  1  0.37259148  0.62739800  0.75619846  1
  V  V49  1  0.24924250  0.38611498  0.12495089  1
  V  V50  1  0.87196042  0.36857506  0.49298784  1
  V  V51  1  0.87220506  0.11874254  0.74652656  1
  V  V52  1  0.11464932  0.86858769  0.75194093  1
  V  V53  1  0.11801815  0.00577032  0.12242394  1
  V  V54  1  -0.00114895  0.50181996  0.50772903  1
  V  V55  1  0.62502514  0.37324803  0.74780854  1
  V  V56  1  0.12633208  0.73817656  0.87478671  1
  V  V57  1  0.37560823  0.87588989  0.50428172  1
  V  V58  1  0.74964979  0.13292961  0.37906916  1
  V  V59  1  0.36623044  0.25169449  0.61667330  1
  V  V60  1  0.37374324  0.12768338  0.75666239  1
  V  V61  1  0.12247067  0.38044278  0.74533294  1
  V  V62  1  -0.01562288  0.38201192  0.87848309  1
  V  V63  1  0.49838053  -0.00344595  0.49609410  1
  V  V64  1  0.50108838  0.62547901  0.62775361  1
  V  V65  1  0.12295805  0.25446947  0.87235340  1
  V  V66  1  0.24593276  0.01275800  0.24483613  1
  V  V67  1  0.13253489  0.61910534  0.50369538  1
  V  V68  1  0.62493980  0.25258192  0.38154669  1
  V  V69  1  0.62394584  -0.00769612  0.63106576  1
  V  V70  1  0.61489320  -0.00145700  0.13599556  1
  V  V71  1  0.75601642  0.75295210  -0.00243265  1
  V  V72  1  0.49639956  0.37667040  0.37462804  1
  V  V73  1  0.62755774  0.50236180  0.11504684  1
  V  V74  1  0.13898346  0.74520922  0.37325025  1
  V  V75  1  0.37560625  0.74808158  0.62764822  1
  V  V76  1  0.12449681  0.00673234  0.62188512  1
  V  V77  1  0.87872530  0.62569614  0.75548976  1
  V  V78  1  0.50301859  0.37851505  0.87300595  1
  V  V79  1  0.24493344  0.87082508  0.62697305  1
  V  V80  1  0.12667675  0.87613950  0.24884287  1
  V  V81  1  0.74578089  -0.00959317  0.25560650  1
  V  V82  1  0.86503199  0.13757317  0.24334774  1
  V  V83  1  0.75317023  0.50317363  0.24409802  1
  V  V84  1  0.75190113  0.87450344  0.12198696  1
  Zn  Zn85  1  0.38307375  0.13039343  0.25037725  1
  Zn  Zn86  1  0.86942670  -0.00640054  0.87719660  1
  Zn  Zn87  1  0.67085619  0.29556414  0.93131708  1
  Zn  Zn88  1  -0.00564667  0.60618934  0.13573088  1
  Zn  Zn89  1  0.50578978  0.24553789  0.24695641  1
  Zn  Zn90  1  -0.01443133  0.49843800  0.00433401  1
  Zn  Zn91  1  0.50742299  0.50684356  -0.00461177  1
  Zn  Zn92  1  0.25233009  0.74284232  -0.00382040  1
  Zn  Zn93  1  0.23844465  0.37476587  0.61619046  1
  Zn  Zn94  1  -0.00282520  0.25097803  0.74438688  1
  Zn  Zn95  1  0.74338795  -0.00696999  0.75650174  1
  Zn  Zn96  1  0.24217330  0.50947604  0.24793394  1
  Zn  Zn97  1  0.00556918  0.62368972  0.63131740  1
  Zn  Zn98  1  0.80133567  0.30002085  0.07912996  1
  Zn  Zn99  1  0.87433699  0.24407781  0.61769140  1
  Zn  Zn100  1  0.87842962  0.75279629  0.12145156  1
  Zn  Zn101  1  0.37765175  -0.00579289  0.87182285  1
  Zn  Zn102  1  0.00036453  0.12692301  0.62303559  1
  Zn  Zn103  1  0.00218041  0.37555169  0.37435416  1
  Zn  Zn104  1  0.25429902  0.74453111  0.49514392  1
  Zn  Zn105  1  0.36678623  0.37007296  0.49418211  1
  Zn  Zn106  1  0.62466353  0.13145448  0.01127843  1
  Zn  Zn107  1  0.18803093  0.19417545  0.18470570  1
  Zn  Zn108  1  0.18575992  0.18922709  0.68786279  1
  Zn  Zn109  1  0.18999971  0.69078140  0.18479207  1
  Zn  Zn110  1  0.18696122  0.68608858  0.68918894  1
  Zn  Zn111  1  0.68251636  0.18111786  0.19532034  1
  Zn  Zn112  1  0.68801384  0.18500771  0.69141112  1
  Zn  Zn113  1  0.68774829  0.68950634  0.18809592  1
  Zn  Zn114  1  0.68846571  0.68760162  0.69169648  1
  Zn  Zn115  1  0.30827247  0.31419276  0.31213469  1
  Zn  Zn116  1  0.31263573  0.31627100  0.80933618  1
  Zn  Zn117  1  0.32638412  0.82160786  0.30438525  1
  Zn  Zn118  1  0.30782719  0.80926597  0.81283164  1
  Zn  Zn119  1  0.81563825  0.31350173  0.24546302  1
  Zn  Zn120  1  0.81053377  0.30493199  0.80391821  1
  Zn  Zn121  1  0.81109414  0.81267897  0.31508882  1
  Zn  Zn122  1  0.81216818  0.80585480  0.81260704  1
  Zn  Zn123  1  0.18692887  0.43511304  0.43813391  1
  Zn  Zn124  1  0.18799817  0.44031738  0.93194794  1
  Zn  Zn125  1  0.19297955  0.93855930  0.43684393  1
  Zn  Zn126  1  0.18353244  0.93569820  0.93644659  1
  Zn  Zn127  1  0.69028980  0.43994367  0.43420712  1
  Zn  Zn128  1  0.80411616  0.43249024  0.94942437  1
  Zn  Zn129  1  0.68736518  0.93542354  0.44323193  1
  Zn  Zn130  1  0.68677907  0.93892904  0.94169462  1
  Zn  Zn131  1  0.31503535  0.06374724  0.05901776  1
  Zn  Zn132  1  0.31480883  0.06077944  0.56765926  1
  Zn  Zn133  1  0.31244074  0.56773430  0.06005393  1
  Zn  Zn134  1  0.31299408  0.56004732  0.56306973  1
  Zn  Zn135  1  0.80270393  0.05789993  0.06010239  1
  Zn  Zn136  1  0.81111765  0.05640826  0.56303921  1
  Zn  Zn137  1  0.82161075  0.57257935  0.06885341  1
  Zn  Zn138  1  0.81396280  0.56087562  0.56304376  1
  Zn  Zn139  1  0.43953739  0.44134121  0.18838104  1
  Zn  Zn140  1  0.43450950  0.43811481  0.68514883  1
  Zn  Zn141  1  0.43513786  0.93774106  0.18558421  1
  Zn  Zn142  1  0.43625116  0.93960972  0.68659022  1
  Zn  Zn143  1  0.93828324  0.43216457  0.17813975  1
  Zn  Zn144  1  0.93490689  0.43462999  0.68615749  1
  Zn  Zn145  1  0.93298260  0.93761801  0.18979818  1
  Zn  Zn146  1  0.93682166  0.93798670  0.68690741  1
  Zn  Zn147  1  0.06343834  0.06915638  0.31271730  1
  Zn  Zn148  1  0.05868766  0.05826421  0.81368120  1
  Zn  Zn149  1  0.06499748  0.56291049  0.31997729  1
  Zn  Zn150  1  0.06032691  0.55921435  0.81425990  1
  Zn  Zn151  1  0.56141219  0.06446992  0.31170760  1
  Zn  Zn152  1  0.56007384  0.05969688  0.81273177  1
  Zn  Zn153  1  0.55998873  0.56876016  0.30832206  1
  Zn  Zn154  1  0.56468953  0.56447723  0.81140213  1
  Zn  Zn155  1  0.43882190  0.18038751  0.43137988  1
  Zn  Zn156  1  0.47314121  0.20731924  0.95806376  1
  Zn  Zn157  1  0.43720431  0.68833687  0.43601207  1
  Zn  Zn158  1  0.44362816  0.68910243  0.94027083  1
  Zn  Zn159  1  0.93710929  0.19071491  0.42942166  1
  Zn  Zn160  1  0.93343523  0.18826047  0.91431723  1
  Zn  Zn161  1  0.94240514  0.68687882  0.43730170  1
  Zn  Zn162  1  0.93699095  0.68087872  0.93872934  1
  Zn  Zn163  1  0.06543188  0.32383438  0.06017322  1
  Zn  Zn164  1  0.05604046  0.31252266  0.56210990  1
  Zn  Zn165  1  0.06561688  0.80937416  0.06034323  1
  Zn  Zn166  1  0.06611775  0.81105521  0.55788294  1
  Zn  Zn167  1  0.56316574  0.32245714  0.06644684  1
  Zn  Zn168  1  0.55760460  0.31247234  0.56141100  1
  Zn  Zn169  1  0.56700611  0.81605554  0.06189293  1
  Zn  Zn170  1  0.56117248  0.81073714  0.55983523  1
  O  O171  1  0.13029817  0.11705252  0.11531874  1
  O  O172  1  0.12345164  0.11019189  0.63128348  1
  O  O173  1  0.11904649  0.62892497  0.11603791  1
  O  O174  1  0.12204037  0.63259959  0.60940510  1
  O  O175  1  0.63148392  0.10465993  0.12603109  1
  O  O176  1  0.62062010  0.11864912  0.61896786  1
  O  O177  1  0.61665921  0.61691708  0.13336902  1
  O  O178  1  0.62199213  0.62035402  0.61766825  1
  O  O179  1  0.38185698  0.38326893  0.37272169  1
  O  O180  1  0.38323478  0.38409718  0.87708338  1
  O  O181  1  0.34428892  0.88402994  0.40320591  1
  O  O182  1  0.36716353  0.87458930  0.88816263  1
  O  O183  1  0.87589496  0.38826387  0.38422493  1
  O  O184  1  0.88149234  0.36915182  0.87006068  1
  O  O185  1  0.88416700  0.88107668  0.38023423  1
  O  O186  1  0.88790170  0.87419528  0.86616418  1
  O  O187  1  0.25689215  0.00478685  0.36166084  1
  O  O188  1  0.25007467  0.00672299  0.86946189  1
  O  O189  1  0.26206617  0.49900761  0.37199630  1
  O  O190  1  0.26493456  0.49521437  0.86275881  1
  O  O191  1  0.75335179  0.00197620  0.37286969  1
  O  O192  1  0.75036559  0.00750920  0.87424571  1
  O  O193  1  0.75594612  0.51186010  0.37046798  1
  O  O194  1  0.74754612  0.50967021  0.86734120  1
  O  O195  1  0.25531912  0.48918997  0.12552601  1
  O  O196  1  0.25800414  0.49552998  0.63984092  1
  O  O197  1  0.23993551  0.99832349  0.12649724  1
  O  O198  1  0.24256598  0.99203362  0.63163537  1
  O  O199  1  0.74387290  0.51323215  0.14056408  1
  O  O200  1  0.74340097  0.49343450  0.63131690  1
  O  O201  1  0.74179156  0.99327511  0.13508913  1
  O  O202  1  0.73995493  0.98770014  0.62471829  1
  O  O203  1  0.00982429  0.36193106  0.25396772  1
  O  O204  1  0.00407964  0.37580445  0.75954369  1
  O  O205  1  0.00648748  0.87397479  0.26207312  1
  O  O206  1  0.01009213  0.87802112  0.75584200  1
  O  O207  1  0.50946028  0.37663686  0.26223082  1
  O  O208  1  0.50269708  0.37021967  0.75235507  1
  O  O209  1  0.42758225  0.89773075  0.29096507  1
  O  O210  1  0.49352837  0.86163805  0.74655419  1
  O  O211  1  0.49727703  0.13266550  0.25365701  1
  O  O212  1  0.49303593  0.13214459  0.74698125  1
  O  O213  1  0.48618976  0.62180229  0.23590920  1
  O  O214  1  0.49135993  0.63071232  0.74440802  1
  O  O215  1  0.99297083  0.13562727  0.24880658  1
  O  O216  1  0.98485330  0.12165632  0.75075637  1
  O  O217  1  1.01009513  0.64055184  0.25295556  1
  O  O218  1  0.98414424  0.61569260  0.74903633  1
  O  O219  1  0.37644261  0.26016759  0.00836256  1
  O  O220  1  0.38299488  0.24480067  0.51469287  1
  O  O221  1  0.37368246  0.75704676  0.00673384  1
  O  O222  1  0.37335033  0.75634835  0.50767788  1
  O  O223  1  0.88840100  0.23029824  0.01675663  1
  O  O224  1  0.87780045  0.26400423  0.49643019  1
  O  O225  1  0.85990189  0.74915524  -0.00424937  1
  O  O226  1  0.87090951  0.75427352  0.50527372  1
  O  O227  1  0.12656097  0.25316948  0.48924329  1
  O  O228  1  0.13032502  0.24794202  0.98882183  1
  O  O229  1  0.12945945  0.74132867  0.49028897  1
  O  O230  1  0.12698467  0.74017599  0.99043364  1
  O  O231  1  0.61945582  0.24167612  0.49052679  1
  O  O232  1  0.58970461  0.24036355  0.99233988  1
  O  O233  1  0.62963032  0.73857678  0.49722849  1
  O  O234  1  0.63232705  0.75454079  0.98511612  1
  O  O235  1  0.48335506  0.26289639  0.12931470  1
  O  O236  1  0.49172976  0.24407832  0.63347971  1
  O  O237  1  0.49451649  0.74549743  0.12043438  1
  O  O238  1  0.49571797  0.74479200  0.63307854  1
  O  O239  1  1.00476761  0.24577066  0.13130262  1
  O  O240  1  0.99432130  0.24330949  0.62681926  1
  O  O241  1  1.00244560  0.76250456  0.14527170  1
  O  O242  1  0.98846697  0.74983158  0.62004341  1
  O  O243  1  0.02016201  0.24800217  0.37121680  1
  O  O244  1  0.00715097  0.26053637  0.86795218  1
  O  O245  1  0.01072191  0.75789206  0.36779548  1
  O  O246  1  0.01193547  0.75647727  0.88022284  1
  O  O247  1  0.50556133  0.26006529  0.37543053  1
  O  O248  1  0.48652733  0.26219129  0.85807863  1
  O  O249  1  0.51339925  0.74808723  0.37716864  1
  O  O250  1  0.51569753  0.74582266  0.86926007  1
  O  O251  1  0.25205844  0.11255201  0.48817736  1
  O  O252  1  0.24609279  0.13239774  0.99143967  1
  O  O253  1  0.23748603  0.62489737  0.50342499  1
  O  O254  1  0.23317735  0.62721743  1.00349229  1
  O  O255  1  0.73645974  0.11589515  0.49499034  1
  O  O256  1  0.74499053  0.12490340  0.98650594  1
  O  O257  1  0.74220108  0.62809130  0.49301254  1
  O  O258  1  0.74791921  0.63224726  0.98669671  1
  O  O259  1  0.25551099  0.37196578  0.00353725  1
  O  O260  1  0.25525639  0.38019665  0.50541317  1
  O  O261  1  0.25623062  0.88004225  0.01017072  1
  O  O262  1  0.24915595  0.87281476  0.51791948  1
  O  O263  1  0.74644174  0.34917252  -0.00508051  1
  O  O264  1  0.75824574  0.38295920  0.50745510  1
  O  O265  1  0.74764799  0.86786954  0.00933939  1
  O  O266  1  0.75828715  0.86838713  0.50962550  1
  O  O267  1  0.12579020  0.48447090  0.26186413  1
  O  O268  1  0.13535190  0.49378183  0.75613671  1
  O  O269  1  0.12725983  0.99735251  0.24144265  1
  O  O270  1  0.12847201  0.99010202  0.74410269  1
  O  O271  1  0.63216661  0.49618003  0.24879496  1
  O  O272  1  0.63358488  0.49372838  0.74353216  1
  O  O273  1  0.62756388  0.99557786  0.24340104  1
  O  O274  1  0.62133051  1.00094833  0.73469471  1
  O  O275  1  0.36064591  0.01502464  0.24133229  1
  O  O276  1  0.36774684  0.00856389  0.74984928  1
  O  O277  1  0.37353254  0.50821066  0.25768915  1
  O  O278  1  0.37216717  0.50836842  0.75544236  1
  O  O279  1  0.86565406  0.00920505  0.25638285  1
  O  O280  1  0.87015544  0.00823400  0.74999888  1
  O  O281  1  0.86721577  0.49797183  0.26469473  1
  O  O282  1  0.86112715  0.50566749  0.74356005  1
  O  O283  1  0.12850162  0.36049181  0.36761562  1
  O  O284  1  0.11956244  0.36883698  0.86603279  1
  O  O285  1  0.12096863  0.87095002  0.37028638  1
  O  O286  1  0.11594505  0.86778348  0.86826201  1
  O  O287  1  0.61724370  0.36852906  0.37605470  1
  O  O288  1  0.60940363  0.37295885  0.86510671  1
  O  O289  1  0.62744575  0.85992005  0.38401108  1
  O  O290  1  0.62939920  0.86447504  0.87139042  1
  O  O291  1  0.36706844  0.14543382  0.12244149  1
  O  O292  1  0.37902106  0.13297118  0.63484064  1
  O  O293  1  0.38193279  0.63462304  0.12746202  1
  O  O294  1  0.38149155  0.63039402  0.63188343  1
  O  O295  1  0.88752697  0.10900301  0.12763203  1
  O  O296  1  0.87255773  0.12211435  0.63358458  1
  O  O297  1  0.88503733  0.64060217  0.12921947  1
  O  O298  1  0.87499718  0.63304648  0.63156035  1
  O  O299  1  0.25907020  0.26156760  0.11621121  1
  O  O300  1  0.26337139  0.24969908  0.62820944  1
  O  O301  1  0.25779435  0.76219544  0.12018868  1
  O  O302  1  0.25734381  0.75672277  0.62665538  1
  O  O303  1  0.78481431  0.22319442  0.17049334  1
  O  O304  1  0.74924918  0.26176362  0.62654049  1
  O  O305  1  0.74529441  0.75752576  0.11486745  1
  O  O306  1  0.75520550  0.75367899  0.61866147  1
  O  O307  1  0.24377979  0.23890453  0.37341580  1
  O  O308  1  0.24395104  0.24717033  0.87849173  1
  O  O309  1  0.24116166  0.75939876  0.37147894  1
  O  O310  1  0.23118178  0.75672851  0.87950658  1
  O  O311  1  0.74000426  0.23507112  0.37323347  1
  O  O312  1  0.74445982  0.23177350  0.86480669  1
  O  O313  1  0.74562753  0.74382277  0.38255761  1
  O  O314  1  0.73881983  0.74442079  0.87849528  1
  O  O315  1  0.00228158  0.12317764  0.00268543  1
  O  O316  1  -0.00518201  0.11199470  0.49724679  1
  O  O317  1  0.01413270  0.62242998  -0.00108630  1
  O  O318  1  0.00990939  0.61868914  0.50265621  1
  O  O319  1  0.49723928  0.10510025  0.00372301  1
  O  O320  1  0.50934598  0.11745152  0.50506417  1
  O  O321  1  0.49786513  0.62206388  0.01560194  1
  O  O322  1  0.50739653  0.62203879  0.50649306  1
  O  O323  1  0.49463762  0.38158868  0.48944182  1
  O  O324  1  0.49371239  0.38358937  0.98896301  1
  O  O325  1  0.48758531  0.88300151  0.50634067  1
  O  O326  1  0.49144244  0.88697000  1.00490463  1
  O  O327  1  0.99208880  0.38423974  0.49597290  1
  O  O328  1  1.00020742  0.37286009  0.98172835  1
  O  O329  1  0.99804437  0.87957078  0.48850085  1
  O  O330  1  1.00417003  0.87997899  0.99105232  1
  O  O331  1  0.49532888  0.49465859  0.37889328  1
  O  O332  1  0.49196354  0.49500756  0.87217696  1
  O  O333  1  0.49225707  1.00439116  0.38766414  1
  O  O334  1  0.49801421  0.99799399  0.88776160  1
  O  O335  1  0.99107300  0.50029732  0.38380443  1
  O  O336  1  0.99846760  0.48384619  0.87634108  1
  O  O337  1  0.99859826  0.99442099  0.37914075  1
  O  O338  1  0.99872386  0.98803113  0.88470132  1
  O  O339  1  0.01216429  -0.01233880  0.11878388  1
  O  O340  1  0.00751979  -0.00091999  0.61458489  1
  O  O341  1  0.00550721  0.49398117  0.11858791  1
  O  O342  1  -0.00572998  0.50160856  0.61157315  1
  O  O343  1  0.51122199  -0.00715729  0.12175435  1
  O  O344  1  0.50413450  0.00619220  0.61737661  1
  O  O345  1  0.51050886  0.50763901  0.12377997  1
  O  O346  1  0.50555758  0.50457535  0.61799157  1
  O  O347  1  0.24280048  0.37778473  0.24067054  1
  O  O348  1  0.24081921  0.38299205  0.74646448  1
  O  O349  1  0.24715318  0.88908068  0.23686563  1
  O  O350  1  0.24132962  0.87823344  0.74251971  1
  O  O351  1  0.73377149  0.39068006  0.26930691  1
  O  O352  1  0.74514884  0.38074728  0.74200139  1
  O  O353  1  0.75212855  0.88560145  0.24844182  1
  O  O354  1  0.75325230  0.87371178  0.73712388  1
  O  O355  1  0.24553851  0.11843320  0.25361821  1
  O  O356  1  0.25517388  0.12063682  0.75463786  1
  O  O357  1  0.26515801  0.62399459  0.24042048  1
  O  O358  1  0.26375002  0.61956219  0.74668856  1
  O  O359  1  0.74701389  0.10757028  0.26602365  1
  O  O360  1  0.75550079  0.11722124  0.75577791  1
  O  O361  1  0.74649133  0.61983749  0.26366392  1
  O  O362  1  0.75553320  0.61564693  0.75560932  1
  O  O363  1  0.36724028  0.11184588  0.37133253  1
  O  O364  1  0.37093674  0.12492389  0.86211465  1
  O  O365  1  0.38043377  0.61832651  0.36423539  1
  O  O366  1  0.38170612  0.61903229  0.86734387  1
  O  O367  1  0.86424061  0.11912712  0.37141675  1
  O  O368  1  0.86208636  0.11837979  0.86352029  1
  O  O369  1  0.86510936  0.61889922  0.38303429  1
  O  O370  1  0.85703980  0.63489195  0.86454127  1
  O  O371  1  0.13710472  0.36868313  0.13506563  1
  O  O372  1  0.12100164  0.36815418  0.64119900  1
  O  O373  1  0.13422942  0.88253846  0.12723491  1
  O  O374  1  0.12820596  0.87751036  0.63324889  1
  O  O375  1  0.62324593  0.38572137  0.13972857  1
  O  O376  1  0.63015133  0.38069952  0.62537477  1
  O  O377  1  0.63513493  0.88896922  0.12479968  1
  O  O378  1  0.63385850  0.88091076  0.61644014  1
  O  O379  1  0.12135726  0.25629946  0.25567211  1
  O  O380  1  0.12443919  0.25606191  0.76070438  1
  O  O381  1  0.12118141  0.75821669  0.25650747  1
  O  O382  1  0.12726138  0.75601604  0.76155013  1
  O  O383  1  0.62557516  0.26046076  0.26283623  1
  O  O384  1  0.61243867  0.25751929  0.74148963  1
  O  O385  1  0.62781420  0.75176922  0.26408483  1
  O  O386  1  0.61693095  0.74636486  0.76092982  1
  O  O387  1  0.37165843  0.25217597  0.23657900  1
  O  O388  1  0.37911328  0.24426238  0.74030961  1
  O  O389  1  0.37299831  0.74418040  0.23456735  1
  O  O390  1  0.38074013  0.74326295  0.74924762  1
  O  O391  1  0.89751376  0.24228257  0.28000325  1
  O  O392  1  0.87507901  0.23172804  0.74459719  1
  O  O393  1  0.89374213  0.75512702  0.25858229  1
  O  O394  1  0.86935323  0.73822102  0.73903720  1
  O  O395  1  0.38372762  0.50438932  0.49012890  1
  O  O396  1  0.37583699  0.49737807  0.99043205  1
  O  O397  1  0.38470628  0.99313385  0.50287216  1
  O  O398  1  0.38542522  0.99251619  1.00053066  1
  O  O399  1  0.88117663  0.49578465  0.49285931  1
  O  O400  1  0.87095638  0.50640868  0.99476702  1
  O  O401  1  0.88376762  0.99200705  0.49453530  1
  O  O402  1  0.88820146  1.00327925  1.00041671  1
  O  O403  1  0.11464485  0.00660001  0.00455293  1
  O  O404  1  0.11706764  -0.00870887  0.50969628  1
  O  O405  1  0.12513242  0.51394658  -0.00703175  1
  O  O406  1  0.11649966  0.51298496  0.49174669  1
  O  O407  1  0.61299203  0.00003089  0.01007292  1
  O  O408  1  0.61627960  0.00518837  0.50833335  1
  O  O409  1  0.62861886  0.49533170  0.01646830  1
  O  O410  1  0.61953147  0.51125199  0.50085702  1
  O  O411  1  0.36872918  0.37183356  0.12042646  1
  O  O412  1  0.37722900  0.35818460  0.62379752  1
  O  O413  1  0.36953001  0.86967997  0.11560175  1
  O  O414  1  0.36508998  0.87077545  0.62096014  1
  O  O415  1  0.85526058  0.36716931  0.15184130  1
  O  O416  1  0.86510985  0.37337220  0.61487041  1
  O  O417  1  0.85871019  0.87095928  0.13221290  1
  O  O418  1  0.86950034  0.86681656  0.62093655  1
  O  O419  1  0.13661214  0.13709898  0.37305680  1
  O  O420  1  0.12659149  0.13314265  0.87905242  1
  O  O421  1  0.12469904  0.63525962  0.38800577  1
  O  O422  1  0.12180394  0.63626368  0.87531671  1
  O  O423  1  0.62819457  0.13065506  0.38511126  1
  O  O424  1  0.63618783  0.11886107  0.87476984  1
  O  O425  1  0.63098185  0.63250932  0.38152391  1
  O  O426  1  0.64043247  0.63021182  0.86932882  1
