# generated using pymatgen
data_V85Zn86O256
_symmetry_space_group_name_H-M   'P 1'
_cell_length_a   16.91129057
_cell_length_b   16.91999439
_cell_length_c   16.91481498
_cell_angle_alpha   90.02126749
_cell_angle_beta   90.04863482
_cell_angle_gamma   89.96072724
_symmetry_Int_Tables_number   1
_chemical_formula_structural   V85Zn86O256
_chemical_formula_sum   'V85 Zn86 O256'
_cell_volume   4839.98404164
_cell_formula_units_Z   1
loop_
 _symmetry_equiv_pos_site_id
 _symmetry_equiv_pos_as_xyz
  1  'x, y, z'
loop_
 _atom_site_type_symbol
 _atom_site_label
 _atom_site_symmetry_multiplicity
 _atom_site_fract_x
 _atom_site_fract_y
 _atom_site_fract_z
 _atom_site_occupancy
  V  V0  1  0.86594697  0.49901033  0.86781636  1
  V  V1  1  0.24420021  0.37652714  0.61497251  1
  V  V2  1  0.37040416  0.62543763  0.25575156  1
  V  V3  1  0.50074518  0.37252750  0.37034323  1
  V  V4  1  0.50275659  0.12906387  0.13141834  1
  V  V5  1  0.38029030  0.37392967  0.50096605  1
  V  V6  1  0.50546140  0.74779239  0.25768789  1
  V  V7  1  -0.00064663  0.38055373  0.38255117  1
  V  V8  1  0.00633164  -0.00304505  0.00036114  1
  V  V9  1  0.75157474  0.38078574  0.12712634  1
  V  V10  1  0.50028943  0.50236918  0.00112295  1
  V  V11  1  0.63386872  0.12571516  0.49715696  1
  V  V12  1  0.37633555  0.50184110  0.38226522  1
  V  V13  1  0.87217800  0.50221319  0.38402367  1
  V  V14  1  0.74586362  0.75088617  -0.00865764  1
  V  V15  1  0.87353965  0.24889635  0.12531240  1
  V  V16  1  0.74971782  0.87246935  0.62455070  1
  V  V17  1  0.50205460  0.37543383  0.87270481  1
  V  V18  1  0.12286578  0.36472331  0.74567554  1
  V  V19  1  0.12919831  0.87146497  0.75073148  1
  V  V20  1  0.00181618  0.12455082  0.63450061  1
  V  V21  1  0.63192897  0.50185529  0.62633324  1
  V  V22  1  0.12500881  0.61859843  0.00333166  1
  V  V23  1  0.36979147  0.86555302  0.51813246  1
  V  V24  1  0.36976935  0.63111519  0.74163936  1
  V  V25  1  0.23982759  0.50033286  0.74283780  1
  V  V26  1  0.12859246  0.00509631  0.12704654  1
  V  V27  1  0.00320806  0.74748892  0.25205543  1
  V  V28  1  0.24830306  0.74775661  -0.00303978  1
  V  V29  1  0.62802653  0.87100028  0.25824202  1
  V  V30  1  0.86679454  0.62628934  0.74454487  1
  V  V31  1  0.24581136  0.23656902  -0.00397720  1
  V  V32  1  0.87085359  0.12593372  0.25588389  1
  V  V33  1  0.37839032  0.25178692  0.13408245  1
  V  V34  1  0.24679599  0.37921727  0.12263848  1
  V  V35  1  0.25663274  0.00348754  0.76693306  1
  V  V36  1  0.49683080  0.00177761  -0.00095256  1
  V  V37  1  0.49896704  0.12856082  0.62689808  1
  V  V38  1  0.00256066  0.12394316  0.12708529  1
  V  V39  1  0.62346727  -0.00046050  0.62577706  1
  V  V40  1  0.75799570  0.24610954  -0.00520921  1
  V  V41  1  0.37190294  0.50214391  0.87080249  1
  V  V42  1  0.00588963  0.87223710  0.37686459  1
  V  V43  1  0.62450419  0.37837094  0.24852613  1
  V  V44  1  0.00960935  0.61394155  0.62390141  1
  V  V45  1  0.62958840  0.24847272  0.87185962  1
  V  V46  1  0.36936354  0.24822576  0.62279400  1
  V  V47  1  0.00085783  0.24918362  0.25127693  1
  V  V48  1  0.49492632  0.61944846  0.61779844  1
  V  V49  1  0.12861635  0.12845470  0.50166280  1
  V  V50  1  0.12707636  0.87256612  0.25431026  1
  V  V51  1  0.87443508  0.87290602  0.49962807  1
  V  V52  1  0.86995091  0.61550896  0.24774791  1
  V  V53  1  0.62792496  0.86994745  0.75529875  1
  V  V54  1  0.87372784  0.87487615  0.00009012  1
  V  V55  1  0.12930178  0.25045707  0.37874182  1
  V  V56  1  0.00143449  0.49771593  0.00236454  1
  V  V57  1  0.24617962  0.50349311  0.25239354  1
  V  V58  1  0.50535966  0.86592332  0.87850979  1
  V  V59  1  0.62331342  0.62905309  -0.00776931  1
  V  V60  1  0.87361067  0.00431694  0.37681401  1
  V  V61  1  0.87559734  0.74708152  0.12332690  1
  V  V62  1  0.74840230  0.00378986  0.25397355  1
  V  V63  1  0.48913496  0.87861984  0.37515194  1
  V  V64  1  0.00095091  0.36972594  0.86970356  1
  V  V65  1  0.37310380  0.37685618  0.00042577  1
  V  V66  1  0.49603767  0.75221196  0.74227394  1
  V  V67  1  0.26047754  0.00060498  0.25681337  1
  V  V68  1  0.49077013  0.00189929  0.49670005  1
  V  V69  1  0.11942512  0.61191737  0.48481179  1
  V  V70  1  0.37434500  0.87635024  -0.00708460  1
  V  V71  1  0.25158212  0.87515383  0.12714788  1
  V  V72  1  0.50101061  0.62451210  0.12598855  1
  V  V73  1  0.87742813  0.25187376  0.62953141  1
  V  V74  1  0.37490496  0.74931393  0.12662112  1
  V  V75  1  0.13566887  -0.00764795  0.62293778  1
  V  V76  1  0.74364599  0.62789506  0.36972561  1
  V  V77  1  0.62946291  0.24803090  0.37030947  1
  V  V78  1  0.61923301  0.62699760  0.49344706  1
  V  V79  1  0.12253356  0.37888651  0.24480708  1
  V  V80  1  0.87176310  0.00692560  0.87690504  1
  V  V81  1  0.74725765  0.00702426  0.75448056  1
  V  V82  1  0.63125666  0.12396825  -0.00211913  1
  V  V83  1  0.23381396  0.74765896  0.49952105  1
  V  V84  1  0.25918708  0.12562030  0.37941695  1
  Zn  Zn85  1  0.87836316  0.74903825  0.62362040  1
  Zn  Zn86  1  0.74242038  0.62541194  0.86606498  1
  Zn  Zn87  1  0.87406933  0.37654763  0.50207764  1
  Zn  Zn88  1  0.12107734  0.74782542  0.87442951  1
  Zn  Zn89  1  0.75331334  0.25349612  0.49704833  1
  Zn  Zn90  1  0.74738828  0.87482850  0.12733585  1
  Zn  Zn91  1  0.49867332  0.25370689  0.74791667  1
  Zn  Zn92  1  0.00201030  -0.00100281  0.50177087  1
  Zn  Zn93  1  0.63209769  0.38842235  0.75461712  1
  Zn  Zn94  1  0.24580954  0.62541151  0.87047692  1
  Zn  Zn95  1  0.63245567  0.50410376  0.12747367  1
  Zn  Zn96  1  0.00174350  0.74795295  0.74838545  1
  Zn  Zn97  1  0.38279578  0.12593750  0.25754709  1
  Zn  Zn98  1  0.75225550  0.37790973  0.62584233  1
  Zn  Zn99  1  0.13595727  0.23587311  0.86880833  1
  Zn  Zn100  1  0.00322472  0.61791188  0.12583966  1
  Zn  Zn101  1  0.87492274  0.12759734  0.75510767  1
  Zn  Zn102  1  0.00027347  0.87168523  0.87197112  1
  Zn  Zn103  1  0.62664185  -0.00048069  0.12717606  1
  Zn  Zn104  1  0.35937702  0.13506313  0.77541245  1
  Zn  Zn105  1  0.87571013  0.37428514  -0.00335111  1
  Zn  Zn106  1  0.74152372  0.75371055  0.49182109  1
  Zn  Zn107  1  0.19170589  0.18895323  0.18952342  1
  Zn  Zn108  1  0.19189861  0.18523934  0.68470539  1
  Zn  Zn109  1  0.18508062  0.68572637  0.18578341  1
  Zn  Zn110  1  0.18948315  0.69202919  0.67600768  1
  Zn  Zn111  1  0.68742941  0.19123861  0.18906249  1
  Zn  Zn112  1  0.68904029  0.19148005  0.68616776  1
  Zn  Zn113  1  0.68867830  0.68836678  0.18347073  1
  Zn  Zn114  1  0.68465616  0.68958775  0.68280697  1
  Zn  Zn115  1  0.31001230  0.31361791  0.31375256  1
  Zn  Zn116  1  0.31125752  0.31458624  0.80973027  1
  Zn  Zn117  1  0.31135896  0.80931791  0.32013641  1
  Zn  Zn118  1  0.31033081  0.81551079  0.80950319  1
  Zn  Zn119  1  0.80957865  0.31556356  0.31314660  1
  Zn  Zn120  1  0.81004919  0.31451862  0.80620970  1
  Zn  Zn121  1  0.81541529  0.81025086  0.31332819  1
  Zn  Zn122  1  0.81652641  0.81255051  0.81250590  1
  Zn  Zn123  1  0.18995487  0.43778828  0.43384010  1
  Zn  Zn124  1  0.18447388  0.43463798  0.93282117  1
  Zn  Zn125  1  0.19333631  0.93662445  0.43925551  1
  Zn  Zn126  1  0.18593225  0.93608969  0.93751500  1
  Zn  Zn127  1  0.68910806  0.44298292  0.44229327  1
  Zn  Zn128  1  0.68820990  0.43662279  0.94246441  1
  Zn  Zn129  1  0.68393067  0.93966196  0.43578163  1
  Zn  Zn130  1  0.68584727  0.93855190  0.93673809  1
  Zn  Zn131  1  0.31735770  0.06209720  0.06520036  1
  Zn  Zn132  1  0.31308805  0.06161873  0.56280972  1
  Zn  Zn133  1  0.31138969  0.56206421  0.06534180  1
  Zn  Zn134  1  0.30211991  0.56769673  0.56076473  1
  Zn  Zn135  1  0.81328547  0.06228547  0.06675538  1
  Zn  Zn136  1  0.81376214  0.06119554  0.56548875  1
  Zn  Zn137  1  0.81432097  0.56320939  0.05549312  1
  Zn  Zn138  1  0.80995122  0.56813996  0.55871753  1
  Zn  Zn139  1  0.43871241  0.43806314  0.19098326  1
  Zn  Zn140  1  0.43755903  0.44042893  0.68682619  1
  Zn  Zn141  1  0.44031912  0.93716182  0.18453941  1
  Zn  Zn142  1  0.43783671  0.94302585  0.69108595  1
  Zn  Zn143  1  0.93635240  0.43626232  0.18762136  1
  Zn  Zn144  1  0.93898413  0.43960728  0.68755280  1
  Zn  Zn145  1  0.93648498  0.93543291  0.18911687  1
  Zn  Zn146  1  0.94109226  0.93994584  0.68780024  1
  Zn  Zn147  1  0.06562716  0.05969729  0.31452973  1
  Zn  Zn148  1  0.07044678  0.05810782  0.81260573  1
  Zn  Zn149  1  0.05914548  0.56051514  0.31106279  1
  Zn  Zn150  1  0.05840468  0.56249271  0.81492722  1
  Zn  Zn151  1  0.56371982  0.06137217  0.31548064  1
  Zn  Zn152  1  0.52084550  0.08150017  0.83640992  1
  Zn  Zn153  1  0.56146488  0.55663537  0.31319719  1
  Zn  Zn154  1  0.55864440  0.56609577  0.80892517  1
  Zn  Zn155  1  0.44214952  0.19361785  0.44171732  1
  Zn  Zn156  1  0.43621260  0.19358406  0.94602873  1
  Zn  Zn157  1  0.43492948  0.68992011  0.43635387  1
  Zn  Zn158  1  0.43507331  0.68832284  0.93241999  1
  Zn  Zn159  1  0.94208751  0.18841425  0.44390518  1
  Zn  Zn160  1  0.97896619  0.16531108  0.91881511  1
  Zn  Zn161  1  0.93942300  0.68707469  0.43827638  1
  Zn  Zn162  1  0.93906188  0.68522671  0.93206365  1
  Zn  Zn163  1  0.06310421  0.31256707  0.05964913  1
  Zn  Zn164  1  0.06058918  0.31038454  0.56362307  1
  Zn  Zn165  1  0.06390047  0.81175639  0.06507647  1
  Zn  Zn166  1  0.05971876  0.80887750  0.56650653  1
  Zn  Zn167  1  0.56505427  0.31170141  0.06085159  1
  Zn  Zn168  1  0.56106888  0.31534609  0.55787522  1
  Zn  Zn169  1  0.56458716  0.81186378  0.06985264  1
  Zn  Zn170  1  0.55979485  0.80999882  0.56150954  1
  O  O171  1  0.11947432  0.11354958  0.13354534  1
  O  O172  1  0.12157736  0.11859809  0.61886723  1
  O  O173  1  0.12195208  0.62633222  0.10991218  1
  O  O174  1  0.11357704  0.62368609  0.61795419  1
  O  O175  1  0.61953927  0.12709713  0.11649788  1
  O  O176  1  0.61902504  0.12196011  0.61615442  1
  O  O177  1  0.61793660  0.62364198  0.11588470  1
  O  O178  1  0.61559976  0.61913728  0.61857028  1
  O  O179  1  0.37955933  0.37839814  0.38044863  1
  O  O180  1  0.38193663  0.38235084  0.87809048  1
  O  O181  1  0.38643132  0.87662289  0.38128814  1
  O  O182  1  0.38267510  0.86966828  0.88807038  1
  O  O183  1  0.88201348  0.38377917  0.37311726  1
  O  O184  1  0.87824444  0.38721422  0.87186237  1
  O  O185  1  0.88140007  0.88475638  0.38001159  1
  O  O186  1  0.87606597  0.88226975  0.88809155  1
  O  O187  1  0.24659892  0.01144034  0.36778620  1
  O  O188  1  0.24802074  0.00153298  0.86654969  1
  O  O189  1  0.25998360  0.49295704  0.35944481  1
  O  O190  1  0.26075928  0.49856920  0.86725457  1
  O  O191  1  0.75916649  -0.00371009  0.36447172  1
  O  O192  1  0.75834846  -0.00561594  0.86653633  1
  O  O193  1  0.75933495  0.51283746  0.37448244  1
  O  O194  1  0.76280058  0.50281475  0.88102957  1
  O  O195  1  0.25614244  0.48682555  0.13543338  1
  O  O196  1  0.25379104  0.49001593  0.63263284  1
  O  O197  1  0.24449720  0.99589195  0.13143781  1
  O  O198  1  0.23746750  1.00420210  0.63086063  1
  O  O199  1  0.75262077  0.48500839  0.11507939  1
  O  O200  1  0.73492678  0.50497350  0.62213132  1
  O  O201  1  0.75105328  0.99644782  0.14033033  1
  O  O202  1  0.74528414  0.98933048  0.63144269  1
  O  O203  1  0.00714184  0.37004909  0.25495176  1
  O  O204  1  0.01416323  0.38344374  0.75470592  1
  O  O205  1  0.00470599  0.86799889  0.25642638  1
  O  O206  1  0.01542092  0.87649562  0.74946698  1
  O  O207  1  0.50767094  0.37388906  0.25747545  1
  O  O208  1  0.50380123  0.37672417  0.76233962  1
  O  O209  1  0.50372080  0.86927485  0.25681611  1
  O  O210  1  0.50470320  0.87119258  0.75779801  1
  O  O211  1  0.50042916  0.11769681  0.23636866  1
  O  O212  1  0.50561704  0.12700670  0.73130655  1
  O  O213  1  0.49469831  0.63112623  0.24695584  1
  O  O214  1  0.48982624  0.63449700  0.74370583  1
  O  O215  1  0.99472036  0.12677980  0.24343415  1
  O  O216  1  0.99890504  0.11689691  0.73683833  1
  O  O217  1  0.99221804  0.63211543  0.24618156  1
  O  O218  1  0.99337612  0.62299194  0.73859111  1
  O  O219  1  0.36545362  0.25870946  0.01036775  1
  O  O220  1  0.37558721  0.26226036  0.50817758  1
  O  O221  1  0.36840561  0.75396191  0.00595118  1
  O  O222  1  0.38265205  0.76522977  0.50437903  1
  O  O223  1  0.86432025  0.24712414  0.00515317  1
  O  O224  1  0.87379764  0.25039688  0.51034979  1
  O  O225  1  0.87138651  0.75544249  0.00499370  1
  O  O226  1  0.87136511  0.76408170  0.49819540  1
  O  O227  1  0.12302179  0.24164668  0.49093936  1
  O  O228  1  0.14380686  0.25408968  1.00182005  1
  O  O229  1  0.12977800  0.74939452  0.49674691  1
  O  O230  1  0.13372444  0.74449233  1.00055623  1
  O  O231  1  0.62613323  0.24175690  0.49356172  1
  O  O232  1  0.63542617  0.24412594  0.99254783  1
  O  O233  1  0.62425050  0.73497260  0.50360182  1
  O  O234  1  0.63398119  0.74290616  1.00713583  1
  O  O235  1  0.49102868  0.24159146  0.11641273  1
  O  O236  1  0.49101608  0.24583443  0.62366737  1
  O  O237  1  0.49309403  0.74467851  0.13655623  1
  O  O238  1  0.50123898  0.74088733  0.63671858  1
  O  O239  1  0.99630039  0.24158655  0.12878896  1
  O  O240  1  0.98939191  0.23845386  0.62045766  1
  O  O241  1  0.98879537  0.74863113  0.13039335  1
  O  O242  1  0.99645383  0.73842073  0.62910643  1
  O  O243  1  0.00998291  0.25452288  0.36882090  1
  O  O244  1  -0.01477989  0.27042442  0.87482377  1
  O  O245  1  -0.00917607  0.76217571  0.36440853  1
  O  O246  1  0.00246795  0.75389472  0.86867885  1
  O  O247  1  0.51052865  0.26421175  0.37996871  1
  O  O248  1  0.50914640  0.26296223  0.87903066  1
  O  O249  1  0.49625297  0.75836365  0.36314192  1
  O  O250  1  0.49758037  0.75935069  0.86443282  1
  O  O251  1  0.23908962  0.11989922  0.49312984  1
  O  O252  1  0.25428026  0.13800337  1.00617696  1
  O  O253  1  0.22887790  0.63235792  0.50075291  1
  O  O254  1  0.24502611  0.63121752  0.99982242  1
  O  O255  1  0.73618405  0.11991412  0.50140314  1
  O  O256  1  0.74186348  0.13107720  1.00578852  1
  O  O257  1  0.74008162  0.62994736  0.48929326  1
  O  O258  1  0.74027914  0.63300102  0.99821802  1
  O  O259  1  0.25523519  0.37570984  0.00800229  1
  O  O260  1  0.25881821  0.38036608  0.50896713  1
  O  O261  1  0.25691656  0.86875265  0.00525196  1
  O  O262  1  0.26307747  0.86791453  0.49932904  1
  O  O263  1  0.75274426  0.36405132  0.00752813  1
  O  O264  1  0.75396161  0.37433564  0.50740370  1
  O  O265  1  0.75577770  0.86907809  0.00358564  1
  O  O266  1  0.75442208  0.87604165  0.50553694  1
  O  O267  1  0.13232155  0.49130628  0.25283723  1
  O  O268  1  0.13751072  0.49348612  0.75849290  1
  O  O269  1  0.13548564  0.99351619  0.24433807  1
  O  O270  1  0.13444605  0.99450218  0.74131807  1
  O  O271  1  0.62187641  0.48529479  0.24457583  1
  O  O272  1  0.61966305  0.50649826  0.73277420  1
  O  O273  1  0.63382666  0.99401645  0.25134846  1
  O  O274  1  0.63239027  0.98578037  0.74327815  1
  O  O275  1  0.36376131  0.00175907  0.24437291  1
  O  O276  1  0.35882541  0.00228802  0.74821292  1
  O  O277  1  0.36812812  0.50733024  0.25662695  1
  O  O278  1  0.36663613  0.50678990  0.75546372  1
  O  O279  1  0.86984530  0.00409578  0.25785894  1
  O  O280  1  0.86637841  -0.00285070  0.76011479  1
  O  O281  1  0.87775135  0.51226175  0.25355613  1
  O  O282  1  0.87763842  0.50753462  0.76122381  1
  O  O283  1  0.11988086  0.36882159  0.36672255  1
  O  O284  1  0.11810065  0.36684122  0.86558372  1
  O  O285  1  0.11538536  0.88103560  0.37001297  1
  O  O286  1  0.12320544  0.87178607  0.86591820  1
  O  O287  1  0.61875379  0.37411780  0.36919951  1
  O  O288  1  0.61845456  0.36969270  0.87648940  1
  O  O289  1  0.61363035  0.87815837  0.36458932  1
  O  O290  1  0.61908833  0.87255396  0.86723967  1
  O  O291  1  0.38394474  0.13449544  0.12769598  1
  O  O292  1  0.38108097  0.13512596  0.62121237  1
  O  O293  1  0.38036379  0.62901207  0.13547393  1
  O  O294  1  0.37876416  0.61922033  0.63398689  1
  O  O295  1  0.88224012  0.12975463  0.13564930  1
  O  O296  1  0.88539875  0.12929249  0.62504297  1
  O  O297  1  0.87600888  0.63092858  0.13007136  1
  O  O298  1  0.88075635  0.62617265  0.62982753  1
  O  O299  1  0.25644255  0.26007525  0.11878316  1
  O  O300  1  0.26173241  0.25944629  0.62738691  1
  O  O301  1  0.25468543  0.75513626  0.11660043  1
  O  O302  1  0.25568311  0.74652006  0.60125696  1
  O  O303  1  0.75613183  0.25655717  0.11815494  1
  O  O304  1  0.76537758  0.24533233  0.61898664  1
  O  O305  1  0.76275521  0.75185510  0.11621881  1
  O  O306  1  0.75250720  0.76377920  0.62138533  1
  O  O307  1  0.23657345  0.24306936  0.36906364  1
  O  O308  1  0.25443332  0.25122480  0.89028248  1
  O  O309  1  0.26439126  0.74667978  0.40011728  1
  O  O310  1  0.25125814  0.74899578  0.88834992  1
  O  O311  1  0.73525351  0.25471694  0.37781793  1
  O  O312  1  0.74332442  0.25236263  0.88317247  1
  O  O313  1  0.75427541  0.73464045  0.37366380  1
  O  O314  1  0.75515072  0.74765070  0.88805996  1
  O  O315  1  -0.00964673  0.10897001  0.02100144  1
  O  O316  1  0.01490434  0.11964331  0.50567834  1
  O  O317  1  0.00680093  0.61609006  -0.00027583  1
  O  O318  1  0.01035151  0.63076705  0.50973291  1
  O  O319  1  0.50722993  0.11638944  0.01164835  1
  O  O320  1  0.50481297  0.11846382  0.50806722  1
  O  O321  1  0.50413862  0.62437053  0.00412353  1
  O  O322  1  0.50301693  0.62958299  0.50736222  1
  O  O323  1  0.48682452  0.37865381  0.49150937  1
  O  O324  1  0.49479151  0.38156393  0.99113267  1
  O  O325  1  0.49368830  0.88166412  0.49478146  1
  O  O326  1  0.49511449  0.87529697  0.99737912  1
  O  O327  1  0.99939079  0.37129100  0.48533324  1
  O  O328  1  0.99873598  0.38088948  0.99175452  1
  O  O329  1  0.99285652  0.87624641  0.49312498  1
  O  O330  1  0.99209729  0.88336926  1.00457418  1
  O  O331  1  0.48740964  0.48693357  0.36922980  1
  O  O332  1  0.48942356  0.49704408  0.87842505  1
  O  O333  1  0.50135450  0.99319079  0.38517190  1
  O  O334  1  0.50819479  0.98078689  0.89331398  1
  O  O335  1  0.98784662  0.48993156  0.36703227  1
  O  O336  1  0.99098912  0.49145420  0.88182225  1
  O  O337  1  0.99358062  0.98914203  0.37540016  1
  O  O338  1  0.99327207  0.99311042  0.88743445  1
  O  O339  1  0.00888932  0.00346170  0.12536989  1
  O  O340  1  0.01267877  0.00732261  0.62230591  1
  O  O341  1  -0.00765679  0.49787991  0.10768934  1
  O  O342  1  -0.00432355  0.51508847  0.62168360  1
  O  O343  1  0.50386335  0.00546419  0.11524428  1
  O  O344  1  0.50511515  0.00728665  0.61872323  1
  O  O345  1  0.49738805  0.50842389  0.11788914  1
  O  O346  1  0.50411016  0.51506046  0.62726427  1
  O  O347  1  0.24188970  0.38032432  0.24297522  1
  O  O348  1  0.24392516  0.38212710  0.73973485  1
  O  O349  1  0.24791440  0.87954014  0.24924400  1
  O  O350  1  0.24083904  0.88830936  0.75333684  1
  O  O351  1  0.74120866  0.37069038  0.23772565  1
  O  O352  1  0.74173987  0.37050959  0.73864491  1
  O  O353  1  0.74329062  0.87956812  0.25236898  1
  O  O354  1  0.74452567  0.87759792  0.74397887  1
  O  O355  1  0.25270971  0.11721545  0.25962976  1
  O  O356  1  0.24762670  0.11104561  0.75273314  1
  O  O357  1  0.25789235  0.61680729  0.24377379  1
  O  O358  1  0.25366164  0.61887326  0.74692677  1
  O  O359  1  0.75892520  0.11802081  0.24817212  1
  O  O360  1  0.75040415  0.10957461  0.74481338  1
  O  O361  1  0.75864002  0.62928994  0.25381330  1
  O  O362  1  0.76075313  0.63065692  0.74831381  1
  O  O363  1  0.36350681  0.13574899  0.37699537  1
  O  O364  1  0.41520544  0.11601795  0.87053938  1
  O  O365  1  0.38092512  0.61704188  0.36363385  1
  O  O366  1  0.37143841  0.61759210  0.86308912  1
  O  O367  1  0.88444775  0.11176314  0.37304196  1
  O  O368  1  0.88369470  0.11067412  0.87525792  1
  O  O369  1  0.87085310  0.61914954  0.36722923  1
  O  O370  1  0.87316822  0.61451883  0.86495618  1
  O  O371  1  0.13162481  0.37027273  0.13619185  1
  O  O372  1  0.13352866  0.37024303  0.62958141  1
  O  O373  1  0.13235895  0.88320643  0.13309325  1
  O  O374  1  0.12277994  0.88771220  0.62924924  1
  O  O375  1  0.63280216  0.37437769  0.13040070  1
  O  O376  1  0.61679055  0.39460613  0.62154004  1
  O  O377  1  0.62580132  0.87821620  0.14167922  1
  O  O378  1  0.63103105  0.87928555  0.62898761  1
  O  O379  1  0.12004164  0.25705848  0.25550788  1
  O  O380  1  0.13366201  0.25991744  0.75144521  1
  O  O381  1  0.11140691  0.75446269  0.24353168  1
  O  O382  1  0.13034375  0.75919013  0.74974609  1
  O  O383  1  0.62608929  0.26103487  0.25848149  1
  O  O384  1  0.62176254  0.24628621  0.76409872  1
  O  O385  1  0.61575160  0.75646229  0.24554731  1
  O  O386  1  0.61603545  0.76212873  0.74465151  1
  O  O387  1  0.37040612  0.24947930  0.23778749  1
  O  O388  1  0.37787439  0.24820897  0.74149593  1
  O  O389  1  0.37935027  0.74229018  0.24740598  1
  O  O390  1  0.37989635  0.74187744  0.75313797  1
  O  O391  1  0.88126006  0.24464913  0.24823322  1
  O  O392  1  0.87319193  0.24396945  0.73517391  1
  O  O393  1  0.88351161  0.74418085  0.24118337  1
  O  O394  1  0.87781727  0.74064941  0.74746155  1
  O  O395  1  0.36502489  0.49788694  0.48642489  1
  O  O396  1  0.37853598  0.49728147  0.99127890  1
  O  O397  1  0.38500220  0.98991730  0.50530536  1
  O  O398  1  0.38433777  0.98807511  1.00780953  1
  O  O399  1  0.87478349  0.50135721  0.48766149  1
  O  O400  1  0.88262318  0.49962378  0.98541611  1
  O  O401  1  0.87560761  0.99074585  0.49299820  1
  O  O402  1  0.87907023  0.99200644  0.99777991  1
  O  O403  1  0.11595685  -0.00732195  0.01218681  1
  O  O404  1  0.12732515  0.00361779  0.51098163  1
  O  O405  1  0.11606848  0.50584646  -0.00645806  1
  O  O406  1  0.12439488  0.51183637  0.49066434  1
  O  O407  1  0.62134971  0.00793045  0.00453422  1
  O  O408  1  0.61469698  0.00610856  0.50490910  1
  O  O409  1  0.61723344  0.50854189  0.00341183  1
  O  O410  1  0.62344073  0.51543357  0.51097981  1
  O  O411  1  0.36907525  0.37020020  0.12169241  1
  O  O412  1  0.37149658  0.37105033  0.61772470  1
  O  O413  1  0.37043411  0.86800842  0.11750903  1
  O  O414  1  0.38008263  0.87606039  0.61627511  1
  O  O415  1  0.86939525  0.36571426  0.12355575  1
  O  O416  1  0.88120679  0.36268560  0.62369862  1
  O  O417  1  0.87382881  0.86804620  0.11525306  1
  O  O418  1  0.86847043  0.87778438  0.61633530  1
  O  O419  1  0.13117310  0.13157909  0.38159788  1
  O  O420  1  0.08663287  0.13685553  0.88778602  1
  O  O421  1  0.11339714  0.62764956  0.38583846  1
  O  O422  1  0.12777078  0.62697186  0.88615610  1
  O  O423  1  0.61633968  0.13649064  0.38380906  1
  O  O424  1  0.61456229  0.13336142  0.88951535  1
  O  O425  1  0.63046576  0.61865608  0.38009731  1
  O  O426  1  0.62323124  0.62204684  0.88688772  1
