# generated using pymatgen
data_V85Zn86O256
_symmetry_space_group_name_H-M   'P 1'
_cell_length_a   16.96958190
_cell_length_b   16.94775905
_cell_length_c   16.96159969
_cell_angle_alpha   90.02328624
_cell_angle_beta   90.09675246
_cell_angle_gamma   90.01360258
_symmetry_Int_Tables_number   1
_chemical_formula_structural   V85Zn86O256
_chemical_formula_sum   'V85 Zn86 O256'
_cell_volume   4878.08726150
_cell_formula_units_Z   1
loop_
 _symmetry_equiv_pos_site_id
 _symmetry_equiv_pos_as_xyz
  1  'x, y, z'
loop_
 _atom_site_type_symbol
 _atom_site_label
 _atom_site_symmetry_multiplicity
 _atom_site_fract_x
 _atom_site_fract_y
 _atom_site_fract_z
 _atom_site_occupancy
  V  V0  1  -0.00142517  0.74305227  0.24885213  1
  V  V1  1  0.37362126  -0.00137975  0.37528081  1
  V  V2  1  0.55809146  0.30632111  0.70315843  1
  V  V3  1  0.76237073  0.26007084  0.50580091  1
  V  V4  1  0.25127906  0.62587818  0.88064626  1
  V  V5  1  0.76551858  0.50646491  0.25143539  1
  V  V6  1  0.49908096  0.75057220  0.74916673  1
  V  V7  1  0.00165817  0.25924624  0.24489123  1
  V  V8  1  0.37675346  0.00185227  0.88434924  1
  V  V9  1  0.24410149  0.49993876  0.25839201  1
  V  V10  1  0.62490181  0.38144593  0.24727655  1
  V  V11  1  0.50270216  0.49818532  0.50788425  1
  V  V12  1  0.49360044  0.61920194  0.12441252  1
  V  V13  1  -0.00080135  0.37003355  0.87747310  1
  V  V14  1  0.00392383  0.87420881  0.37481835  1
  V  V15  1  0.62475382  -0.00099482  0.62375241  1
  V  V16  1  0.25384124  0.36674000  0.61509830  1
  V  V17  1  0.00011759  0.12635978  0.62630682  1
  V  V18  1  0.49973254  0.88023545  0.88223500  1
  V  V19  1  0.24663818  0.12816876  0.38273508  1
  V  V20  1  0.87730042  0.75256131  0.62437704  1
  V  V21  1  0.87835344  0.12462379  0.74587316  1
  V  V22  1  0.74811360  0.62636279  0.87684135  1
  V  V23  1  0.88639507  -0.00060428  0.87825395  1
  V  V24  1  0.87396677  0.36779074  0.00434792  1
  V  V25  1  0.04341507  0.68978193  0.69319827  1
  V  V26  1  0.25076629  0.12554172  0.87564727  1
  V  V27  1  -0.01600705  0.38000392  0.38635469  1
  V  V28  1  0.62766818  0.12057670  0.49688591  1
  V  V29  1  0.24721206  -0.00000897  0.24561959  1
  V  V30  1  0.62077311  0.11836962  0.00022211  1
  V  V31  1  0.12286039  0.49458753  0.12954787  1
  V  V32  1  0.49516488  0.75074694  0.24793214  1
  V  V33  1  0.63687149  0.87072338  0.24685585  1
  V  V34  1  -0.00063874  -0.00268823  0.49912376  1
  V  V35  1  0.87258995  0.63446785  0.75261636  1
  V  V36  1  0.37431556  0.38673485  0.00318823  1
  V  V37  1  0.36937094  0.62859675  0.25009746  1
  V  V38  1  0.88219213  0.88035108  0.00931866  1
  V  V39  1  0.49539599  0.12634749  0.62885489  1
  V  V40  1  0.12800261  0.00187140  0.62458987  1
  V  V41  1  0.25297020  0.87866084  0.61926816  1
  V  V42  1  0.50743870  0.37479313  0.88785513  1
  V  V43  1  0.12970267  0.37540606  0.74565579  1
  V  V44  1  0.75434145  0.87789636  0.62210894  1
  V  V45  1  0.62859885  0.24726933  0.36955310  1
  V  V46  1  0.25026452  0.73250111  0.49727130  1
  V  V47  1  0.12640041  0.62667155  0.00585095  1
  V  V48  1  0.87250714  0.74060213  0.12596911  1
  V  V49  1  0.61974377  0.61907442  0.00220322  1
  V  V50  1  -0.00096595  0.12220959  0.12100669  1
  V  V51  1  0.37397071  0.12459810  0.24617141  1
  V  V52  1  0.24729971  0.37361992  0.13358470  1
  V  V53  1  0.74918229  0.75201873  0.50040062  1
  V  V54  1  0.11995902  0.87291635  0.74922526  1
  V  V55  1  0.75300783  0.12207647  0.37216202  1
  V  V56  1  0.74800325  0.75736048  0.00632790  1
  V  V57  1  0.37176619  0.85917574  0.00325173  1
  V  V58  1  0.37861498  0.13679755  0.75122960  1
  V  V59  1  0.25014056  0.86034333  0.12168472  1
  V  V60  1  0.62584810  0.62110104  0.50521119  1
  V  V61  1  0.11973774  0.74681390  0.88007808  1
  V  V62  1  0.75179979  -0.00038968  0.75090638  1
  V  V63  1  0.62434028  0.87574762  0.75221860  1
  V  V64  1  0.49476744  -0.00170152  0.49891624  1
  V  V65  1  0.12277332  -0.00265042  0.11392334  1
  V  V66  1  0.62529587  0.75156321  0.87766956  1
  V  V67  1  0.87337237  0.50020658  0.87641477  1
  V  V68  1  0.75014766  0.12637260  0.87765291  1
  V  V69  1  -0.05489635  0.30029092  0.69449285  1
  V  V70  1  0.37684885  0.62283569  0.75033360  1
  V  V71  1  0.75218187  0.36853454  0.12634174  1
  V  V72  1  0.87785745  0.12654107  0.24537158  1
  V  V73  1  0.37272993  0.50400196  0.37769461  1
  V  V74  1  0.49763493  0.37656883  0.37164907  1
  V  V75  1  0.24972397  0.25050481  0.00230623  1
  V  V76  1  -0.00415238  0.52217425  0.50227479  1
  V  V77  1  0.12308889  0.25097210  0.87289041  1
  V  V78  1  0.73938753  0.49162819  0.73957894  1
  V  V79  1  0.50089875  0.24765029  0.24464111  1
  V  V80  1  0.12737747  0.26117172  0.37533671  1
  V  V81  1  0.49949075  0.11216002  0.12038774  1
  V  V82  1  0.87596090  -0.00762232  0.37661077  1
  V  V83  1  0.25318667  -0.00146339  0.75006042  1
  V  V84  1  0.12749142  0.73429277  0.37820187  1
  Zn  Zn85  1  0.63116533  -0.01123196  0.11947928  1
  Zn  Zn86  1  0.75692986  -0.01128433  0.24381322  1
  Zn  Zn87  1  0.62126676  0.49773585  0.12185821  1
  Zn  Zn88  1  0.61966744  0.74913521  0.37801067  1
  Zn  Zn89  1  0.12661727  0.12893868  0.50060891  1
  Zn  Zn90  1  0.37587496  0.36134188  0.50109686  1
  Zn  Zn91  1  0.11939074  0.12185845  -0.00321013  1
  Zn  Zn92  1  0.12596775  0.51313859  0.61699831  1
  Zn  Zn93  1  0.25024466  0.49841924  0.74806013  1
  Zn  Zn94  1  0.50430619  0.61867764  0.62916159  1
  Zn  Zn95  1  0.49739291  0.87291772  0.37292095  1
  Zn  Zn96  1  0.37930897  0.50189702  0.87864018  1
  Zn  Zn97  1  0.00067879  0.87203483  0.87541564  1
  Zn  Zn98  1  -0.00418090  0.61883749  0.13046023  1
  Zn  Zn99  1  0.37598267  0.24943550  0.12368522  1
  Zn  Zn100  1  0.75647558  0.61473815  0.37690482  1
  Zn  Zn101  1  0.62157688  0.24875053  0.87479381  1
  Zn  Zn102  1  0.37443155  0.87267144  0.49939787  1
  Zn  Zn103  1  0.37812832  0.74882302  0.62056368  1
  Zn  Zn104  1  0.74983118  0.24622678  0.00633757  1
  Zn  Zn105  1  -0.00091605  0.49972776  0.00368868  1
  Zn  Zn106  1  0.12735538  0.87241439  0.24921131  1
  Zn  Zn107  1  0.18230847  0.18613173  0.18987097  1
  Zn  Zn108  1  0.18551203  0.18923021  0.69217778  1
  Zn  Zn109  1  0.18442305  0.68235542  0.19369162  1
  Zn  Zn110  1  0.20734793  0.69250353  0.69027410  1
  Zn  Zn111  1  0.68739431  0.18313506  0.18540878  1
  Zn  Zn112  1  0.69284140  0.18332860  0.68320236  1
  Zn  Zn113  1  0.68358802  0.68823342  0.18605514  1
  Zn  Zn114  1  0.68699258  0.68477093  0.68684928  1
  Zn  Zn115  1  0.31370985  0.31124240  0.31366233  1
  Zn  Zn116  1  0.31370047  0.31677489  0.81635012  1
  Zn  Zn117  1  0.30925393  0.81213783  0.31255436  1
  Zn  Zn118  1  0.30980657  0.80948515  0.81489640  1
  Zn  Zn119  1  0.81289104  0.30908005  0.31035876  1
  Zn  Zn120  1  0.80517392  0.31472741  0.81573937  1
  Zn  Zn121  1  0.82291899  0.78820290  0.32383725  1
  Zn  Zn122  1  0.81337200  0.81451848  0.81539638  1
  Zn  Zn123  1  0.18147568  0.44170967  0.44072499  1
  Zn  Zn124  1  0.18883749  0.44118783  0.94016315  1
  Zn  Zn125  1  0.18594993  0.93969149  0.43794490  1
  Zn  Zn126  1  0.19072855  0.93347128  0.93719708  1
  Zn  Zn127  1  0.68908367  0.43797047  0.43457658  1
  Zn  Zn128  1  0.69049812  0.43880574  0.93652439  1
  Zn  Zn129  1  0.68636110  0.93144656  0.43103512  1
  Zn  Zn130  1  0.69317320  0.94031367  0.94046004  1
  Zn  Zn131  1  0.31048161  0.06019899  0.06148824  1
  Zn  Zn132  1  0.31570110  0.19030307  0.56193655  1
  Zn  Zn133  1  0.30694391  0.56570660  0.06848375  1
  Zn  Zn134  1  0.31591168  0.55387935  0.56804678  1
  Zn  Zn135  1  0.80910115  0.05807620  0.06596300  1
  Zn  Zn136  1  0.81552495  0.06444204  0.55906464  1
  Zn  Zn137  1  0.80651814  0.55937540  0.06370824  1
  Zn  Zn138  1  0.81639646  0.56715477  0.56232977  1
  Zn  Zn139  1  0.43415657  0.44060093  0.18749588  1
  Zn  Zn140  1  0.43176342  0.43735700  0.68873628  1
  Zn  Zn141  1  0.43528079  0.93345191  0.18535618  1
  Zn  Zn142  1  0.43452377  0.94038970  0.68981482  1
  Zn  Zn143  1  0.93733929  0.43395319  0.18822471  1
  Zn  Zn144  1  0.92098384  0.47262436  0.66956951  1
  Zn  Zn145  1  0.94076299  0.93487278  0.19057782  1
  Zn  Zn146  1  0.93910490  0.93831967  0.68782172  1
  Zn  Zn147  1  0.06467742  0.06413719  0.30865026  1
  Zn  Zn148  1  0.06389091  0.06312242  0.80990913  1
  Zn  Zn149  1  0.05798018  0.55763476  0.31506362  1
  Zn  Zn150  1  0.06565273  0.55373377  0.81896469  1
  Zn  Zn151  1  0.56422910  0.05572774  0.30725679  1
  Zn  Zn152  1  0.56199436  0.06211010  0.81315257  1
  Zn  Zn153  1  0.56402221  0.56678993  0.31835926  1
  Zn  Zn154  1  0.56191306  0.55781939  0.81637176  1
  Zn  Zn155  1  0.44240183  0.18260280  0.43070072  1
  Zn  Zn156  1  0.43825914  0.19390655  0.93904380  1
  Zn  Zn157  1  0.43711772  0.68464743  0.43595322  1
  Zn  Zn158  1  0.43961240  0.68770877  0.93676365  1
  Zn  Zn159  1  0.93975257  0.18792646  0.43425514  1
  Zn  Zn160  1  0.93591082  0.18821687  0.93742712  1
  Zn  Zn161  1  0.92984912  0.68832396  0.43458909  1
  Zn  Zn162  1  0.94083628  0.68788943  0.94182540  1
  Zn  Zn163  1  0.06312116  0.31234853  0.06267743  1
  Zn  Zn164  1  0.07000389  0.31746538  0.55414838  1
  Zn  Zn165  1  0.06185461  0.80991755  0.06275826  1
  Zn  Zn166  1  0.06778347  0.81555382  0.55477128  1
  Zn  Zn167  1  0.56500329  0.30550950  0.06127747  1
  Zn  Zn168  1  0.56821631  0.30990803  0.54347095  1
  Zn  Zn169  1  0.55634971  0.80731034  0.06737389  1
  Zn  Zn170  1  0.56338250  0.81328882  0.56380723  1
  O  O171  1  0.11774525  0.11592089  0.12232430  1
  O  O172  1  0.11766307  0.12081878  0.62557281  1
  O  O173  1  0.12451975  0.61451765  0.12055844  1
  O  O174  1  0.11731609  0.63357399  0.64440383  1
  O  O175  1  0.61560315  0.12248146  0.11816546  1
  O  O176  1  0.61559359  0.11673232  0.62036425  1
  O  O177  1  0.61497018  0.62369801  0.11766019  1
  O  O178  1  0.62194507  0.62704768  0.61195755  1
  O  O179  1  0.38646498  0.38091049  0.37194387  1
  O  O180  1  0.38107349  0.37809365  0.88743147  1
  O  O181  1  0.37294433  0.88846687  0.37501995  1
  O  O182  1  0.37854430  0.87901008  0.88412243  1
  O  O183  1  0.88657444  0.37264889  0.37160224  1
  O  O184  1  0.88077036  0.38159110  0.87909467  1
  O  O185  1  0.89197128  0.88011018  0.37037588  1
  O  O186  1  0.87853880  0.88352251  0.88192397  1
  O  O187  1  0.25407485  0.00753221  0.36757967  1
  O  O188  1  0.25639351  0.00587258  0.87069270  1
  O  O189  1  0.25744202  0.48868301  0.36675160  1
  O  O190  1  0.25056619  0.51258828  0.87193233  1
  O  O191  1  0.75996653  0.00235287  0.37003183  1
  O  O192  1  0.76064372  0.00954960  0.87029233  1
  O  O193  1  0.74970140  0.49830999  0.35702619  1
  O  O194  1  0.75766235  0.50786781  0.87012344  1
  O  O195  1  0.24293036  0.49191541  0.13625962  1
  O  O196  1  0.24279821  0.48756970  0.62789715  1
  O  O197  1  0.24286607  0.99361765  0.13056141  1
  O  O198  1  0.24273122  0.99112766  0.63400013  1
  O  O199  1  0.74463363  0.48878983  0.13550594  1
  O  O200  1  0.76192482  0.50372147  0.64137553  1
  O  O201  1  0.74445459  0.99958022  0.13288947  1
  O  O202  1  0.74782760  0.99603974  0.63057171  1
  O  O203  1  -0.00293469  0.36250714  0.25739627  1
  O  O204  1  0.00486965  0.36459239  0.75469258  1
  O  O205  1  0.00669047  0.86387804  0.25714931  1
  O  O206  1  0.01602318  0.88166712  0.75297537  1
  O  O207  1  0.50501441  0.36899979  0.25223016  1
  O  O208  1  0.49598229  0.36934138  0.75860583  1
  O  O209  1  0.49806717  0.86380369  0.25033671  1
  O  O210  1  0.50343146  0.87002769  0.75844136  1
  O  O211  1  0.49579642  0.12852167  0.24271446  1
  O  O212  1  0.49176481  0.11779208  0.74080639  1
  O  O213  1  0.49172672  0.62895625  0.24635755  1
  O  O214  1  0.49547381  0.63314410  0.75275140  1
  O  O215  1  0.99514120  0.13232788  0.24230879  1
  O  O216  1  0.99438725  0.12195201  0.73693225  1
  O  O217  1  1.00182506  0.63841197  0.25266619  1
  O  O218  1  0.99217484  0.62352268  0.75767185  1
  O  O219  1  0.36103123  0.25823740  0.00220206  1
  O  O220  1  0.37952434  0.24857610  0.49233820  1
  O  O221  1  0.37109693  0.76066138  -0.00489488  1
  O  O222  1  0.36282651  0.75201596  0.49687748  1
  O  O223  1  0.86975331  0.26388328  -0.00608262  1
  O  O224  1  0.86104040  0.24476997  0.49297268  1
  O  O225  1  0.86929701  0.75960740  0.00620656  1
  O  O226  1  0.86614957  0.74984613  0.51823102  1
  O  O227  1  0.12071272  0.24471295  0.48016240  1
  O  O228  1  0.13480013  0.25167557  0.99067690  1
  O  O229  1  0.13666861  0.75144653  0.48826031  1
  O  O230  1  0.12401765  0.74083901  0.99285338  1
  O  O231  1  0.63235829  0.23681501  0.48642766  1
  O  O232  1  0.63035880  0.23469401  0.99679859  1
  O  O233  1  0.63071938  0.74256387  0.50376777  1
  O  O234  1  0.63213127  0.74695239  0.99770274  1
  O  O235  1  0.49830860  0.24074694  0.13247326  1
  O  O236  1  0.50989321  0.24387771  0.63217196  1
  O  O237  1  0.49880618  0.73659748  0.13993112  1
  O  O238  1  0.49866783  0.75243665  0.64006019  1
  O  O239  1  1.00792474  0.24443875  0.13915136  1
  O  O240  1  1.00256083  0.24575264  0.62578769  1
  O  O241  1  0.99553992  0.74545737  0.13304979  1
  O  O242  1  0.99488084  0.75643219  0.62477014  1
  O  O243  1  0.00727677  0.25765641  0.36719184  1
  O  O244  1  0.00742913  0.26082330  0.88077577  1
  O  O245  1  0.01210295  0.75715381  0.37361292  1
  O  O246  1  0.01406104  0.74997955  0.87552044  1
  O  O247  1  0.50814889  0.25469680  0.36330480  1
  O  O248  1  0.50052637  0.26717975  0.87582890  1
  O  O249  1  0.49922096  0.74972202  0.36366857  1
  O  O250  1  0.50380249  0.76077333  0.86648742  1
  O  O251  1  0.25059206  0.12505997  0.48514432  1
  O  O252  1  0.24765937  0.13423550  0.99437873  1
  O  O253  1  0.25309549  0.63424163  0.50677106  1
  O  O254  1  0.23799172  0.62145880  0.99472067  1
  O  O255  1  0.74659151  0.12377452  0.48535630  1
  O  O256  1  0.74636875  0.12548418  0.99230785  1
  O  O257  1  0.74445940  0.63496932  0.50047323  1
  O  O258  1  0.74226118  0.63536501  0.99557093  1
  O  O259  1  0.25513615  0.37004369  0.00963597  1
  O  O260  1  0.24965630  0.37536125  0.51235331  1
  O  O261  1  0.26223151  0.87544169  0.00652642  1
  O  O262  1  0.25033260  0.87543836  0.51062986  1
  O  O263  1  0.75598985  0.37420983  0.00830363  1
  O  O264  1  0.74444211  0.35901471  0.49417934  1
  O  O265  1  0.76240815  0.86349684  -0.00670231  1
  O  O266  1  0.74335317  0.87607048  0.51883612  1
  O  O267  1  0.13385060  0.50414197  0.24473349  1
  O  O268  1  0.12322799  0.48388832  0.74806609  1
  O  O269  1  0.13682789  0.99887384  0.24209368  1
  O  O270  1  0.13309524  0.99215760  0.74688970  1
  O  O271  1  0.62232118  0.48680091  0.25127195  1
  O  O272  1  0.64097348  0.51090923  0.74966097  1
  O  O273  1  0.62726569  0.98110056  0.24854431  1
  O  O274  1  0.63138762  0.99516478  0.74450465  1
  O  O275  1  0.36436301  0.00306225  0.25330698  1
  O  O276  1  0.36925180  0.00522101  0.76234027  1
  O  O277  1  0.36582004  0.50542681  0.25785950  1
  O  O278  1  0.37501213  0.51263813  0.75458964  1
  O  O279  1  0.87837987  0.00484497  0.26140388  1
  O  O280  1  0.87220054  0.00680137  0.75843011  1
  O  O281  1  0.86429174  0.50257118  0.24536898  1
  O  O282  1  0.86875378  0.51396578  0.76197000  1
  O  O283  1  0.11927014  0.36294696  0.37487583  1
  O  O284  1  0.11784346  0.37152344  0.87079183  1
  O  O285  1  0.11530128  0.87350614  0.37342574  1
  O  O286  1  0.12761360  0.86492103  0.86736181  1
  O  O287  1  0.61422516  0.36978816  0.36645486  1
  O  O288  1  0.61243596  0.37166601  0.88561438  1
  O  O289  1  0.61528960  0.87335827  0.36075724  1
  O  O290  1  0.61738708  0.87282108  0.87424101  1
  O  O291  1  0.38117364  0.12490841  0.12825616  1
  O  O292  1  0.38785097  0.12718665  0.63365928  1
  O  O293  1  0.38013914  0.61984680  0.13725753  1
  O  O294  1  0.37968186  0.62807962  0.63576877  1
  O  O295  1  0.88242110  0.11805596  0.13781132  1
  O  O296  1  0.88146494  0.11980318  0.63759035  1
  O  O297  1  0.87805483  0.63566195  0.11464951  1
  O  O298  1  0.87523834  0.63829924  0.63954584  1
  O  O299  1  0.24659682  0.25663414  0.12010469  1
  O  O300  1  0.24701383  0.25875115  0.62527879  1
  O  O301  1  0.24242930  0.76183078  0.13257745  1
  O  O302  1  0.25302515  0.75906291  0.61048964  1
  O  O303  1  0.74771249  0.26352403  0.12786905  1
  O  O304  1  0.74788259  0.24074278  0.60425293  1
  O  O305  1  0.75733823  0.74618623  0.11606429  1
  O  O306  1  0.75574254  0.75900330  0.62178245  1
  O  O307  1  0.23521062  0.24323442  0.36283636  1
  O  O308  1  0.24336830  0.24669840  0.88343618  1
  O  O309  1  0.23782362  0.75420583  0.38554190  1
  O  O310  1  0.23672949  0.73508080  0.86747638  1
  O  O311  1  0.74578113  0.23979546  0.37714610  1
  O  O312  1  0.74859199  0.23513357  0.87513067  1
  O  O313  1  0.73733420  0.78109927  0.40191245  1
  O  O314  1  0.74411387  0.74575985  0.88263084  1
  O  O315  1  -0.00131233  0.13340029  0.01663437  1
  O  O316  1  -0.00169199  0.11713344  0.51058809  1
  O  O317  1  0.01310306  0.61994572  0.00247141  1
  O  O318  1  0.00148800  0.62164458  0.49006376  1
  O  O319  1  0.50634886  0.12909545  0.00845219  1
  O  O320  1  0.50753544  0.11499347  0.50523876  1
  O  O321  1  0.50758491  0.63338498  0.01024174  1
  O  O322  1  0.50653778  0.61598217  0.50118441  1
  O  O323  1  0.49939172  0.38068830  0.48710096  1
  O  O324  1  0.49095497  0.37138040  0.99540886  1
  O  O325  1  0.49753573  0.88470785  0.49886579  1
  O  O326  1  0.48667032  0.86842236  0.99377896  1
  O  O327  1  0.99462164  0.37155061  0.48714351  1
  O  O328  1  0.99235160  0.37662050  0.99413990  1
  O  O329  1  1.00412764  0.88970346  0.49354529  1
  O  O330  1  0.98544993  0.87060782  0.99594391  1
  O  O331  1  0.49227536  0.49196322  0.37861227  1
  O  O332  1  0.49743803  0.48123388  0.87274605  1
  O  O333  1  0.49031651  1.00130026  0.38047810  1
  O  O334  1  0.49254542  0.98683931  0.87131251  1
  O  O335  1  1.00136225  0.48670620  0.38371334  1
  O  O336  1  0.99180774  0.48587989  0.87702120  1
  O  O337  1  0.99770345  0.99572046  0.37986264  1
  O  O338  1  0.98936491  1.00140700  0.87415975  1
  O  O339  1  0.01162259  0.00821173  0.13254655  1
  O  O340  1  0.00501001  0.00608778  0.61762537  1
  O  O341  1  0.00884350  0.49961830  0.12664357  1
  O  O342  1  0.00683455  0.50795528  0.60987061  1
  O  O343  1  0.50235754  0.00991325  0.12878561  1
  O  O344  1  0.50218754  0.00676797  0.61748049  1
  O  O345  1  0.50230446  0.51341711  0.12983552  1
  O  O346  1  0.49370051  0.49696930  0.61104862  1
  O  O347  1  0.25509015  0.38054762  0.23898063  1
  O  O348  1  0.24398054  0.37548393  0.74372910  1
  O  O349  1  0.24989225  0.88314218  0.24080451  1
  O  O350  1  0.24119357  0.87478099  0.74206573  1
  O  O351  1  0.74392369  0.38125945  0.24534554  1
  O  O352  1  0.74971563  0.39229208  0.75655722  1
  O  O353  1  0.73748897  0.86425575  0.25667736  1
  O  O354  1  0.74406976  0.88095647  0.74545210  1
  O  O355  1  0.25450258  0.11738555  0.25378371  1
  O  O356  1  0.25687493  0.11937533  0.75711759  1
  O  O357  1  0.25863602  0.61311123  0.24871119  1
  O  O358  1  0.26118513  0.62135011  0.75892176  1
  O  O359  1  0.75932140  0.12669186  0.25953302  1
  O  O360  1  0.75910040  0.11883490  0.75535763  1
  O  O361  1  0.74107717  0.60670857  0.24513841  1
  O  O362  1  0.75752024  0.62458135  0.75916492  1
  O  O363  1  0.36795691  0.11442844  0.36550793  1
  O  O364  1  0.37331479  0.11799129  0.87263631  1
  O  O365  1  0.37774396  0.60956231  0.36815194  1
  O  O366  1  0.36846007  0.62413028  0.87207553  1
  O  O367  1  0.87162500  0.11647583  0.36524833  1
  O  O368  1  0.87174835  0.11939587  0.86752911  1
  O  O369  1  0.84766868  0.67879753  0.36285472  1
  O  O370  1  0.87117072  0.61991627  0.87372787  1
  O  O371  1  0.13312030  0.38526478  0.12106183  1
  O  O372  1  0.13602960  0.36987116  0.63233259  1
  O  O373  1  0.13170649  0.88100082  0.12440415  1
  O  O374  1  0.13220114  0.87928467  0.63125444  1
  O  O375  1  0.62974955  0.37637284  0.13082410  1
  O  O376  1  0.60875049  0.36286271  0.63973823  1
  O  O377  1  0.61755263  0.87073731  0.14127522  1
  O  O378  1  0.63110855  0.88126424  0.63418597  1
  O  O379  1  0.10989363  0.24366087  0.26146916  1
  O  O380  1  0.12886944  0.26007940  0.76517531  1
  O  O381  1  0.12119369  0.75117734  0.26377345  1
  O  O382  1  0.11845664  0.75273620  0.75098269  1
  O  O383  1  0.62081398  0.25918342  0.25153502  1
  O  O384  1  0.62616745  0.24720170  0.75429314  1
  O  O385  1  0.61587124  0.75632956  0.25304310  1
  O  O386  1  0.61860423  0.75521504  0.75681163  1
  O  O387  1  0.38280699  0.24193443  0.24815258  1
  O  O388  1  0.37132025  0.23562442  0.75886297  1
  O  O389  1  0.37737482  0.73615505  0.25830117  1
  O  O390  1  0.38233260  0.74096680  0.75197998  1
  O  O391  1  0.89039071  0.23956826  0.25515107  1
  O  O392  1  0.87905153  0.24422933  0.75333419  1
  O  O393  1  0.88609336  0.76340494  0.23131110  1
  O  O394  1  0.87349922  0.74233260  0.74673507  1
  O  O395  1  0.38241835  0.49433300  0.49184975  1
  O  O396  1  0.36772827  0.48957593  1.00266971  1
  O  O397  1  0.38641824  0.99954201  0.48933965  1
  O  O398  1  0.37071504  0.99275374  0.98715539  1
  O  O399  1  0.89318978  0.50705622  0.50384642  1
  O  O400  1  0.87309559  0.49291508  0.98891172  1
  O  O401  1  0.88362088  1.00444332  0.48533234  1
  O  O402  1  0.87053204  0.98695455  0.99366494  1
  O  O403  1  0.12934258  0.00082933  0.00975109  1
  O  O404  1  0.11743331  0.00679607  0.50626717  1
  O  O405  1  0.12383110  0.50604729  0.01116740  1
  O  O406  1  0.10593303  0.49643444  0.50180590  1
  O  O407  1  0.62761164  0.01178369  0.00026126  1
  O  O408  1  0.61816823  0.00216815  0.50317875  1
  O  O409  1  0.63129096  0.51599948  0.00032708  1
  O  O410  1  0.61530214  0.50668862  0.49295970  1
  O  O411  1  0.36675824  0.37247344  0.11946643  1
  O  O412  1  0.35796190  0.37572998  0.62402068  1
  O  O413  1  0.36741181  0.87801626  0.10988607  1
  O  O414  1  0.36539244  0.87282372  0.62483352  1
  O  O415  1  0.86668837  0.38002514  0.11504532  1
  O  O416  1  0.88946476  0.36369174  0.64392746  1
  O  O417  1  0.88044904  0.87033857  0.11193495  1
  O  O418  1  0.86581056  0.86688465  0.63673819  1
  O  O419  1  0.13316057  0.13152581  0.37407885  1
  O  O420  1  0.12869146  0.13367658  0.87623970  1
  O  O421  1  0.12550676  0.63632394  0.37298841  1
  O  O422  1  0.13039171  0.62774757  0.88268706  1
  O  O423  1  0.63489339  0.12419479  0.37383251  1
  O  O424  1  0.63291710  0.12282831  0.88069641  1
  O  O425  1  0.63276781  0.62998362  0.38769038  1
  O  O426  1  0.62537893  0.63356860  0.88370177  1
