# generated using pymatgen
data_V85Zn86O256
_symmetry_space_group_name_H-M   'P 1'
_cell_length_a   16.96953907
_cell_length_b   16.95471326
_cell_length_c   16.94470324
_cell_angle_alpha   90.10082529
_cell_angle_beta   90.01852737
_cell_angle_gamma   89.95630923
_symmetry_Int_Tables_number   1
_chemical_formula_structural   V85Zn86O256
_chemical_formula_sum   'V85 Zn86 O256'
_cell_volume   4875.21352033
_cell_formula_units_Z   1
loop_
 _symmetry_equiv_pos_site_id
 _symmetry_equiv_pos_as_xyz
  1  'x, y, z'
loop_
 _atom_site_type_symbol
 _atom_site_label
 _atom_site_symmetry_multiplicity
 _atom_site_fract_x
 _atom_site_fract_y
 _atom_site_fract_z
 _atom_site_occupancy
  V  V0  1  0.62756225  0.86970902  0.74325382  1
  V  V1  1  0.74741605  0.00135691  0.25191985  1
  V  V2  1  0.62474915  0.12126046  -0.00014860  1
  V  V3  1  0.25023060  0.51087537  0.24991257  1
  V  V4  1  0.37311029  -0.00070660  0.87519276  1
  V  V5  1  0.75265660  0.37318696  0.62151702  1
  V  V6  1  0.63048183  0.00073993  0.62836844  1
  V  V7  1  0.62645450  0.12300141  0.49335949  1
  V  V8  1  0.75271917  0.50197361  0.75198121  1
  V  V9  1  -0.00098262  0.25047753  0.25417418  1
  V  V10  1  0.24701566  0.13568538  0.88036725  1
  V  V11  1  0.12699499  0.13595226  -0.00016604  1
  V  V12  1  0.62457541  0.49919292  0.12482776  1
  V  V13  1  0.49973993  0.86384942  0.86708988  1
  V  V14  1  0.37463188  0.74630190  0.63278558  1
  V  V15  1  0.00070826  0.12507875  0.63843799  1
  V  V16  1  0.74873180  0.37366861  0.12547310  1
  V  V17  1  0.38245779  0.37677275  0.49524028  1
  V  V18  1  0.76699412  0.11858723  0.86598204  1
  V  V19  1  0.62016512  0.87076915  0.25933892  1
  V  V20  1  0.25468841  0.62609423  0.86981290  1
  V  V21  1  0.01241350  0.36554014  0.86007510  1
  V  V22  1  0.13080538  0.87411158  0.74782763  1
  V  V23  1  0.37811419  0.87383449  0.00040881  1
  V  V24  1  0.36871150  0.37132286  0.00132133  1
  V  V25  1  0.49927128  0.12560388  0.62251216  1
  V  V26  1  0.37993967  0.50537528  0.37070168  1
  V  V27  1  0.49667027  0.62622718  0.63854153  1
  V  V28  1  0.00364430  0.51420749  0.50227207  1
  V  V29  1  0.62855350  0.25248080  0.37659025  1
  V  V30  1  0.37500038  0.74452132  0.13258234  1
  V  V31  1  0.62081656  0.62541409  0.50320907  1
  V  V32  1  0.86101154  0.74758354  0.09835627  1
  V  V33  1  0.37593613  0.12380479  0.25047625  1
  V  V34  1  0.62477401  0.50198306  0.62512078  1
  V  V35  1  0.25051295  0.12332387  0.37495626  1
  V  V36  1  0.24932359  0.87724026  0.12737440  1
  V  V37  1  0.37667140  -0.00932154  0.37491843  1
  V  V38  1  0.88363610  0.24892659  0.63671418  1
  V  V39  1  0.87058632  0.63864513  0.25074732  1
  V  V40  1  0.75661568  0.23834546  0.49823001  1
  V  V41  1  0.87566240  0.74692178  0.62493597  1
  V  V42  1  0.37570812  0.12349097  0.74977444  1
  V  V43  1  0.25252506  0.74772098  -0.00084260  1
  V  V44  1  0.19331095  0.32805101  0.68119784  1
  V  V45  1  0.12430963  0.25077446  0.37480854  1
  V  V46  1  0.49737643  0.62512921  0.13093874  1
  V  V47  1  0.50017997  0.49942533  -0.00108592  1
  V  V48  1  0.87080225  0.00571574  0.37391166  1
  V  V49  1  0.61903859  0.37748526  0.25616834  1
  V  V50  1  0.25033071  0.50394400  0.74157158  1
  V  V51  1  0.62668127  0.37295399  0.74891323  1
  V  V52  1  -0.00202816  0.63262795  0.12902583  1
  V  V53  1  0.37464811  0.86775118  0.50469158  1
  V  V54  1  0.12625912  0.37835939  0.25255946  1
  V  V55  1  0.12433915  0.12457866  0.49743924  1
  V  V56  1  0.87573194  0.25215806  0.12751973  1
  V  V57  1  0.49895726  0.25123763  0.25416486  1
  V  V58  1  0.88448086  0.62070745  0.74606095  1
  V  V59  1  0.75098029  0.24827164  -0.00012748  1
  V  V60  1  0.12349526  0.75198308  0.87880036  1
  V  V61  1  0.50025492  -0.00759323  0.49667305  1
  V  V62  1  0.62837875  0.24633357  0.87286597  1
  V  V63  1  0.37697310  0.50350422  0.86757268  1
  V  V64  1  0.63540858  0.62934056  -0.00568745  1
  V  V65  1  -0.00192772  0.86379981  0.36030764  1
  V  V66  1  0.37413240  0.25596044  0.62333635  1
  V  V67  1  0.00117888  0.12307987  0.12647578  1
  V  V68  1  0.50190249  0.24993954  0.74787332  1
  V  V69  1  0.24889177  0.25977392  0.49671210  1
  V  V70  1  0.13250285  -0.00762010  0.62077842  1
  V  V71  1  0.12307068  0.50180479  0.12431472  1
  V  V72  1  0.12141004  0.51906039  0.62424970  1
  V  V73  1  0.23796435  0.75154633  0.50198608  1
  V  V74  1  0.87536344  0.50178224  0.37620456  1
  V  V75  1  0.00051197  0.49694217  -0.00203585  1
  V  V76  1  0.87133351  0.87394998  0.50372622  1
  V  V77  1  0.74508969  0.87257353  0.11022144  1
  V  V78  1  0.74982246  0.50137562  0.25236992  1
  V  V79  1  0.00141461  -0.00249797  0.49632175  1
  V  V80  1  0.74607531  0.75177498  0.50802845  1
  V  V81  1  0.23600358  0.62922805  0.38045172  1
  V  V82  1  -0.01329282  0.87493341  0.88507678  1
  V  V83  1  0.87494544  0.50083414  0.87464298  1
  V  V84  1  0.00407326  0.74552822  0.74301339  1
  Zn  Zn85  1  0.76948853  0.99123219  0.75384957  1
  Zn  Zn86  1  0.25366975  -0.00633596  0.74647297  1
  Zn  Zn87  1  0.11991951  0.86795028  0.25175714  1
  Zn  Zn88  1  0.87691916  0.37328877  -0.00371879  1
  Zn  Zn89  1  0.24712661  0.37291564  0.12083200  1
  Zn  Zn90  1  0.37250644  0.24803505  0.12224118  1
  Zn  Zn91  1  0.63326476  0.74988155  0.87942892  1
  Zn  Zn92  1  0.50084690  0.12337611  0.12486696  1
  Zn  Zn93  1  0.62213511  -0.00155701  0.12648768  1
  Zn  Zn94  1  0.86531261  0.12922373  0.25651782  1
  Zn  Zn95  1  0.50189696  0.37356100  0.87541884  1
  Zn  Zn96  1  0.12492563  0.62389357  -0.00203790  1
  Zn  Zn97  1  0.24820295  -0.00335895  0.25178732  1
  Zn  Zn98  1  0.61403005  0.75302586  0.38418834  1
  Zn  Zn99  1  0.49401831  0.74991330  0.26022461  1
  Zn  Zn100  1  -0.00590584  0.00119682  -0.00660742  1
  Zn  Zn101  1  0.13086888  0.00482929  0.12507245  1
  Zn  Zn102  1  0.50132923  0.49744997  0.49731043  1
  Zn  Zn103  1  0.50081312  0.00044887  0.00003167  1
  Zn  Zn104  1  0.87865958  0.37674091  0.49896675  1
  Zn  Zn105  1  0.74680878  0.62971106  0.37712522  1
  Zn  Zn106  1  0.00058051  0.37951088  0.37888034  1
  Zn  Zn107  1  0.19217995  0.19099101  0.18485391  1
  Zn  Zn108  1  0.18605302  0.16429617  0.69097162  1
  Zn  Zn109  1  0.18389620  0.69192458  0.19190207  1
  Zn  Zn110  1  0.19288969  0.68965025  0.68774115  1
  Zn  Zn111  1  0.68614769  0.18585494  0.18792238  1
  Zn  Zn112  1  0.69221488  0.18359812  0.68480356  1
  Zn  Zn113  1  0.68473406  0.68824678  0.18576545  1
  Zn  Zn114  1  0.70648209  0.70355107  0.71725820  1
  Zn  Zn115  1  0.31129139  0.31765326  0.31019246  1
  Zn  Zn116  1  0.31902621  0.31336100  0.81710184  1
  Zn  Zn117  1  0.31202425  0.80998754  0.31473496  1
  Zn  Zn118  1  0.31147510  0.81352938  0.81274861  1
  Zn  Zn119  1  0.80934840  0.31565970  0.31510864  1
  Zn  Zn120  1  0.81702000  0.31496308  0.81392373  1
  Zn  Zn121  1  0.80520939  0.81852038  0.31770689  1
  Zn  Zn122  1  0.80899409  0.80701590  0.81841952  1
  Zn  Zn123  1  0.18702218  0.44187154  0.44029421  1
  Zn  Zn124  1  0.18764664  0.43841414  0.93325755  1
  Zn  Zn125  1  0.18518458  0.92943106  0.43152714  1
  Zn  Zn126  1  0.18407288  0.94223973  0.94408217  1
  Zn  Zn127  1  0.68969392  0.43768161  0.43891102  1
  Zn  Zn128  1  0.68882182  0.43659794  0.93735956  1
  Zn  Zn129  1  0.69114170  0.93739290  0.43938261  1
  Zn  Zn130  1  0.68689324  0.94063372  0.92866741  1
  Zn  Zn131  1  0.31419033  0.06301678  0.06187053  1
  Zn  Zn132  1  0.31322205  0.06444130  0.55871994  1
  Zn  Zn133  1  0.31269104  0.56124515  0.05926557  1
  Zn  Zn134  1  0.31261541  0.56559718  0.55879680  1
  Zn  Zn135  1  0.81359967  0.06125985  0.05945848  1
  Zn  Zn136  1  0.83609913  0.04227504  0.59824129  1
  Zn  Zn137  1  0.81251070  0.55916655  0.06272368  1
  Zn  Zn138  1  0.81301484  0.56593072  0.56386490  1
  Zn  Zn139  1  0.43739281  0.43882918  0.18917811  1
  Zn  Zn140  1  0.43693917  0.43689358  0.68435689  1
  Zn  Zn141  1  0.44007935  0.93871756  0.18446662  1
  Zn  Zn142  1  0.43939612  0.93564877  0.68434580  1
  Zn  Zn143  1  0.93737189  0.43960466  0.18986323  1
  Zn  Zn144  1  0.94395822  0.43535013  0.68418879  1
  Zn  Zn145  1  0.91874779  0.94762406  0.16058529  1
  Zn  Zn146  1  0.94593937  0.93060654  0.69047671  1
  Zn  Zn147  1  0.06364545  0.05558051  0.30721686  1
  Zn  Zn148  1  0.06508726  0.05551864  0.81692362  1
  Zn  Zn149  1  0.05723326  0.56818963  0.31124101  1
  Zn  Zn150  1  0.06640156  0.55867424  0.81144441  1
  Zn  Zn151  1  0.56240496  0.06042710  0.31387193  1
  Zn  Zn152  1  0.56145925  0.05911827  0.81351450  1
  Zn  Zn153  1  0.56269989  0.56812258  0.31587061  1
  Zn  Zn154  1  0.56435413  0.56081320  0.81309962  1
  Zn  Zn155  1  0.43980440  0.18701441  0.43364922  1
  Zn  Zn156  1  0.44006608  0.18775088  0.93533073  1
  Zn  Zn157  1  0.43546744  0.68408201  0.43801635  1
  Zn  Zn158  1  0.44078748  0.68510103  0.93936648  1
  Zn  Zn159  1  0.93835565  0.18547057  0.44081593  1
  Zn  Zn160  1  0.94157913  0.19086756  0.94022614  1
  Zn  Zn161  1  0.93600649  0.68807132  0.43544271  1
  Zn  Zn162  1  0.93913163  0.68227479  0.93348230  1
  Zn  Zn163  1  0.06294520  0.31376222  0.06155410  1
  Zn  Zn164  1  0.05576458  0.31689763  0.55793205  1
  Zn  Zn165  1  0.07083435  0.80048731  0.08548636  1
  Zn  Zn166  1  0.05763952  0.81319653  0.56082223  1
  Zn  Zn167  1  0.55901648  0.31020459  0.06506727  1
  Zn  Zn168  1  0.56262984  0.31325136  0.56051934  1
  Zn  Zn169  1  0.56206351  0.81032159  0.06282938  1
  Zn  Zn170  1  0.55782710  0.81116123  0.56875106  1
  O  O171  1  0.11976657  0.12853691  0.11931590  1
  O  O172  1  0.11774020  0.11635952  0.61495435  1
  O  O173  1  0.11357490  0.61500970  0.12487805  1
  O  O174  1  0.12449724  0.61738862  0.62700302  1
  O  O175  1  0.62527813  0.12395609  0.11290935  1
  O  O176  1  0.61838917  0.12215815  0.61460664  1
  O  O177  1  0.61856601  0.61773463  0.11537791  1
  O  O178  1  0.61394967  0.61822509  0.62196762  1
  O  O179  1  0.36590899  0.39160626  0.38249888  1
  O  O180  1  0.37970612  0.38324524  0.88535987  1
  O  O181  1  0.37124137  0.88535112  0.38352091  1
  O  O182  1  0.38108013  0.87915719  0.87940515  1
  O  O183  1  0.87515940  0.39063063  0.37397874  1
  O  O184  1  0.88493458  0.38633491  0.87497832  1
  O  O185  1  0.88076435  0.88529093  0.38327896  1
  O  O186  1  0.88735026  0.86747133  0.87148551  1
  O  O187  1  0.25909249  0.00534118  0.37750954  1
  O  O188  1  0.26317568  0.00197399  0.87484337  1
  O  O189  1  0.25175608  0.51199573  0.36972760  1
  O  O190  1  0.25534486  0.50671602  0.86427082  1
  O  O191  1  0.75933014  -0.00558931  0.36695947  1
  O  O192  1  0.75366999  0.01339619  0.87060248  1
  O  O193  1  0.75730418  0.50325093  0.37034596  1
  O  O194  1  0.76029983  0.48989730  0.86291227  1
  O  O195  1  0.24080290  0.50180397  0.13246988  1
  O  O196  1  0.24316604  0.50786222  0.63373158  1
  O  O197  1  0.25685823  0.99059688  0.12937782  1
  O  O198  1  0.23642353  1.00724582  0.62323954  1
  O  O199  1  0.74452164  0.49278045  0.13184736  1
  O  O200  1  0.74729843  0.48905129  0.62803879  1
  O  O201  1  0.74578925  0.98481582  0.13145295  1
  O  O202  1  0.73048324  1.00371278  0.61891364  1
  O  O203  1  0.01002304  0.36850586  0.25165374  1
  O  O204  1  0.00225125  0.37609193  0.76059994  1
  O  O205  1  -0.01123339  0.88317771  0.26151372  1
  O  O206  1  0.01128337  0.86430858  0.75958121  1
  O  O207  1  0.51129694  0.36903189  0.24773237  1
  O  O208  1  0.50920147  0.36861181  0.74972950  1
  O  O209  1  0.51735220  0.87262339  0.24217318  1
  O  O210  1  0.50937753  0.88389537  0.75929924  1
  O  O211  1  0.49307164  0.13202683  0.25189661  1
  O  O212  1  0.49451493  0.12980455  0.74413232  1
  O  O213  1  0.50665509  0.62596645  0.23433115  1
  O  O214  1  0.50182680  0.62032938  0.73748515  1
  O  O215  1  1.00155485  0.14152408  0.24906203  1
  O  O216  1  1.01136188  0.12057590  0.73738790  1
  O  O217  1  0.98574902  0.62071343  0.23696966  1
  O  O218  1  0.99246382  0.62989303  0.75435263  1
  O  O219  1  0.38523520  0.26823418  -0.00054165  1
  O  O220  1  0.36800302  0.25580186  0.50056216  1
  O  O221  1  0.37199893  0.75600203  0.00589629  1
  O  O222  1  0.36796864  0.75482058  0.50610342  1
  O  O223  1  0.86951869  0.25280788  0.01145034  1
  O  O224  1  0.86761264  0.25497078  0.50115969  1
  O  O225  1  0.86108854  0.73958167  0.00007572  1
  O  O226  1  0.86939440  0.75349856  0.50675942  1
  O  O227  1  0.13094834  0.24793575  0.49433044  1
  O  O228  1  0.12237412  0.23709497  1.00254276  1
  O  O229  1  0.13918771  0.75611450  0.50426045  1
  O  O230  1  0.13270772  0.74612208  0.99336788  1
  O  O231  1  0.63003209  0.24393281  0.49375201  1
  O  O232  1  0.62953180  0.24309202  0.99190831  1
  O  O233  1  0.63108285  0.74481550  0.50708051  1
  O  O234  1  0.62272266  0.73401108  0.99880513  1
  O  O235  1  0.49592141  0.24700176  0.14023391  1
  O  O236  1  0.49549228  0.24452988  0.62830318  1
  O  O237  1  0.49146261  0.74115463  0.12470312  1
  O  O238  1  0.48987419  0.73402577  0.62104095  1
  O  O239  1  0.99381806  0.24720886  0.13411393  1
  O  O240  1  0.99097307  0.24407021  0.62077982  1
  O  O241  1  0.97550913  0.73656931  0.10824547  1
  O  O242  1  0.99791185  0.74974119  0.63756446  1
  O  O243  1  0.00490252  0.25432799  0.37012508  1
  O  O244  1  -0.00401923  0.26761555  0.87887734  1
  O  O245  1  -0.01161739  0.76463694  0.37034775  1
  O  O246  1  0.00740700  0.75307626  0.86644313  1
  O  O247  1  0.51436858  0.24698313  0.36544676  1
  O  O248  1  0.51081400  0.25076354  0.86600000  1
  O  O249  1  0.50072681  0.74406689  0.37245221  1
  O  O250  1  0.50202242  0.76076708  0.87655057  1
  O  O251  1  0.24564876  0.13802971  0.49453866  1
  O  O252  1  0.24570869  0.12226280  0.98829579  1
  O  O253  1  0.24796269  0.63443993  0.48811580  1
  O  O254  1  0.24771056  0.62724248  0.98717703  1
  O  O255  1  0.74067903  0.13671833  0.50706479  1
  O  O256  1  0.74507397  0.12851268  0.99146331  1
  O  O257  1  0.73726066  0.63266159  0.50490739  1
  O  O258  1  0.73315477  0.61467665  1.00174414  1
  O  O259  1  0.26567673  0.38367841  -0.00088930  1
  O  O260  1  0.25706833  0.36417021  0.49545104  1
  O  O261  1  0.26455828  0.86919730  -0.00018619  1
  O  O262  1  0.25773329  0.85922840  0.49248699  1
  O  O263  1  0.75241993  0.36784784  0.00794928  1
  O  O264  1  0.75018543  0.36561870  0.51144011  1
  O  O265  1  0.73994101  0.87797110  0.01100555  1
  O  O266  1  0.76315013  0.86956833  0.50147373  1
  O  O267  1  0.12751539  0.49668817  0.24433503  1
  O  O268  1  0.13451763  0.50193442  0.73553324  1
  O  O269  1  0.13172830  0.98939029  0.24545416  1
  O  O270  1  0.12676344  0.99060766  0.73993295  1
  O  O271  1  0.62805910  0.49352547  0.24792648  1
  O  O272  1  0.63547011  0.49361616  0.74665141  1
  O  O273  1  0.62917881  0.98941960  0.25078682  1
  O  O274  1  0.62454125  0.99573573  0.74055996  1
  O  O275  1  0.37678814  0.00548528  0.25991897  1
  O  O276  1  0.37454947  0.00522535  0.75479742  1
  O  O277  1  0.36434292  0.49544026  0.26108027  1
  O  O278  1  0.36773074  0.49284633  0.76012541  1
  O  O279  1  0.86474396  0.00023433  0.25741766  1
  O  O280  1  0.86864230  0.00697517  0.70454252  1
  O  O281  1  0.86825780  0.50776620  0.25585049  1
  O  O282  1  0.87408652  0.50295123  0.75238160  1
  O  O283  1  0.12433818  0.37195163  0.36796686  1
  O  O284  1  0.11153931  0.37905470  0.87684891  1
  O  O285  1  0.10468983  0.87416061  0.37093398  1
  O  O286  1  0.12413246  0.86305033  0.87014912  1
  O  O287  1  0.62904350  0.36715119  0.36737239  1
  O  O288  1  0.62725185  0.36156240  0.86917801  1
  O  O289  1  0.62877771  0.87402266  0.36301949  1
  O  O290  1  0.61668997  0.87290092  0.86406573  1
  O  O291  1  0.37599916  0.12548490  0.13990993  1
  O  O292  1  0.37842375  0.13363517  0.62852185  1
  O  O293  1  0.38334429  0.63292035  0.11746520  1
  O  O294  1  0.38835776  0.62893581  0.62020629  1
  O  O295  1  0.88188201  0.14023075  0.13267133  1
  O  O296  1  0.88864540  0.14316912  0.61320829  1
  O  O297  1  0.87288104  0.63474614  0.12924733  1
  O  O298  1  0.87894050  0.63509039  0.63103199  1
  O  O299  1  0.26131909  0.26217905  0.13694634  1
  O  O300  1  0.25025982  0.25583909  0.62057168  1
  O  O301  1  0.25940194  0.75354033  0.11631355  1
  O  O302  1  0.25853302  0.73984145  0.60864651  1
  O  O303  1  0.75726228  0.25403227  0.12316852  1
  O  O304  1  0.76122262  0.25379985  0.61861887  1
  O  O305  1  0.75425507  0.75545621  0.12090519  1
  O  O306  1  0.76084673  0.74693532  0.61832878  1
  O  O307  1  0.24472389  0.24565001  0.38043772  1
  O  O308  1  0.25746197  0.23383056  0.87269217  1
  O  O309  1  0.25494977  0.73674268  0.38408446  1
  O  O310  1  0.24537055  0.74321982  0.87870964  1
  O  O311  1  0.73938664  0.25214561  0.38325185  1
  O  O312  1  0.74630796  0.24292321  0.87843999  1
  O  O313  1  0.74747056  0.75001018  0.39481893  1
  O  O314  1  0.73215973  0.73030553  0.82909390  1
  O  O315  1  0.00586169  0.12559533  0.01045042  1
  O  O316  1  0.00856060  0.11572521  0.50315197  1
  O  O317  1  0.00096948  0.61272625  0.00589641  1
  O  O318  1  -0.00237957  0.61431978  0.49594906  1
  O  O319  1  0.51077227  0.12626507  0.00064024  1
  O  O320  1  0.50675524  0.11960568  0.50412531  1
  O  O321  1  0.50489911  0.61244129  0.00847919  1
  O  O322  1  0.51088028  0.62085047  0.50786107  1
  O  O323  1  0.48761115  0.37569117  0.49877890  1
  O  O324  1  0.49603436  0.38652343  0.99945062  1
  O  O325  1  0.49156948  0.88339393  0.50279968  1
  O  O326  1  0.49037120  0.87386384  0.99291021  1
  O  O327  1  0.99640534  0.39108576  0.49660987  1
  O  O328  1  0.99790367  0.38799687  1.00030071  1
  O  O329  1  0.98988685  0.88018018  0.49206672  1
  O  O330  1  1.00499079  0.86586100  0.98409390  1
  O  O331  1  0.48352291  0.50615118  0.37458948  1
  O  O332  1  0.49301778  0.49768859  0.88094164  1
  O  O333  1  0.49117715  1.00500723  0.38817734  1
  O  O334  1  0.48727446  0.99369416  0.87772241  1
  O  O335  1  0.99225473  0.50202383  0.38041805  1
  O  O336  1  0.99604961  0.49413150  0.88190498  1
  O  O337  1  0.99381441  0.99612188  0.38503549  1
  O  O338  1  1.00076365  0.98073552  0.87555425  1
  O  O339  1  0.00885136  0.02246457  0.14729294  1
  O  O340  1  0.01058786  0.00544043  0.61143903  1
  O  O341  1  0.00330578  0.50758166  0.11889608  1
  O  O342  1  0.01406092  0.50066324  0.61966707  1
  O  O343  1  0.50478293  0.00414821  0.11849852  1
  O  O344  1  0.50471186  0.00789228  0.61358001  1
  O  O345  1  0.50456926  0.50498925  0.11871371  1
  O  O346  1  0.50438365  0.50862722  0.62256165  1
  O  O347  1  0.23740852  0.39027219  0.25222362  1
  O  O348  1  0.25264334  0.38248384  0.74819242  1
  O  O349  1  0.24862560  0.87163455  0.23956929  1
  O  O350  1  0.23567758  0.87527101  0.75201251  1
  O  O351  1  0.73850801  0.38022930  0.24518864  1
  O  O352  1  0.74831134  0.37993918  0.73851517  1
  O  O353  1  0.73902308  0.88179040  0.24360132  1
  O  O354  1  0.73207025  0.87993565  0.75372291  1
  O  O355  1  0.25921707  0.12376443  0.25944035  1
  O  O356  1  0.25800189  0.11661163  0.76315451  1
  O  O357  1  0.24477472  0.61803015  0.25784031  1
  O  O358  1  0.24969131  0.61806397  0.76096384  1
  O  O359  1  0.74739919  0.10740066  0.24453262  1
  O  O360  1  0.74996158  0.12495824  0.76427339  1
  O  O361  1  0.75311942  0.61741087  0.25058303  1
  O  O362  1  0.76605614  0.60495568  0.73584991  1
  O  O363  1  0.37119474  0.11575135  0.36850757  1
  O  O364  1  0.36860282  0.11771490  0.87277443  1
  O  O365  1  0.36185546  0.60914228  0.38038739  1
  O  O366  1  0.36834447  0.61531231  0.87945419  1
  O  O367  1  0.87934023  0.11045502  0.37522499  1
  O  O368  1  0.86486507  0.12894767  0.87923505  1
  O  O369  1  0.87066569  0.61719763  0.36704088  1
  O  O370  1  0.87992550  0.60915544  0.86401177  1
  O  O371  1  0.12369191  0.38751454  0.13217110  1
  O  O372  1  0.13037163  0.38190597  0.62293918  1
  O  O373  1  0.14730624  0.88588242  0.10235383  1
  O  O374  1  0.11754810  0.88275579  0.63286832  1
  O  O375  1  0.62831308  0.37972855  0.13250683  1
  O  O376  1  0.63340778  0.37896550  0.62897058  1
  O  O377  1  0.63490346  0.87189715  0.13177663  1
  O  O378  1  0.61464967  0.88770922  0.63475250  1
  O  O379  1  0.11910756  0.25997239  0.25575736  1
  O  O380  1  0.14103805  0.26288794  0.73364403  1
  O  O381  1  0.10526365  0.76835277  0.19711596  1
  O  O382  1  0.12098115  0.75364707  0.75547154  1
  O  O383  1  0.62176810  0.25603048  0.25769707  1
  O  O384  1  0.62366162  0.25207378  0.75458669  1
  O  O385  1  0.62688075  0.76213818  0.25342475  1
  O  O386  1  0.61210271  0.77019755  0.73284155  1
  O  O387  1  0.38514579  0.24297658  0.25943419  1
  O  O388  1  0.38124026  0.24570882  0.74372073  1
  O  O389  1  0.37575379  0.75348299  0.23605578  1
  O  O390  1  0.36585629  0.75541406  0.73208285  1
  O  O391  1  0.88183306  0.25154229  0.24860252  1
  O  O392  1  0.87263821  0.25095959  0.73482202  1
  O  O393  1  0.86136896  0.73893939  0.25042848  1
  O  O394  1  0.88440480  0.74072891  0.74364067  1
  O  O395  1  0.37391903  0.49267008  0.49028885  1
  O  O396  1  0.38233614  0.49349568  0.99045574  1
  O  O397  1  0.38088874  0.99226208  0.49611402  1
  O  O398  1  0.37688764  0.99079369  0.99253782  1
  O  O399  1  0.87998556  0.50197217  0.49249412  1
  O  O400  1  0.88159913  0.49861834  0.99163817  1
  O  O401  1  0.88214012  0.99172148  0.49903346  1
  O  O402  1  0.89598304  0.98981541  1.04928502  1
  O  O403  1  0.11659504  0.01496315  0.00342243  1
  O  O404  1  0.11972034  -0.00004908  0.50217200  1
  O  O405  1  0.11932600  0.50170148  0.00813599  1
  O  O406  1  0.12093640  0.50030471  0.51489974  1
  O  O407  1  0.62420863  0.01279218  -0.00483619  1
  O  O408  1  0.61768165  0.00549748  0.50189487  1
  O  O409  1  0.61723954  0.50245407  0.00416729  1
  O  O410  1  0.62442534  0.50605792  0.50713373  1
  O  O411  1  0.37609236  0.38113940  0.10944358  1
  O  O412  1  0.37594014  0.36742178  0.61285382  1
  O  O413  1  0.36959735  0.86822210  0.11694173  1
  O  O414  1  0.37860238  0.86674449  0.61251419  1
  O  O415  1  0.87035772  0.36533422  0.12771646  1
  O  O416  1  0.87076819  0.36468951  0.62263875  1
  O  O417  1  0.85750136  0.85260792  0.12705616  1
  O  O418  1  0.88677694  0.85733375  0.61550571  1
  O  O419  1  0.13036349  0.12955215  0.37866793  1
  O  O420  1  0.14010602  0.12044193  0.87964993  1
  O  O421  1  0.13675461  0.62572659  0.37097624  1
  O  O422  1  0.13197464  0.63645457  0.87374122  1
  O  O423  1  0.62319798  0.13066168  0.38759679  1
  O  O424  1  0.63098200  0.13416938  0.87912218  1
  O  O425  1  0.62823029  0.62670998  0.38872970  1
  O  O426  1  0.61724339  0.62224132  0.89175391  1
