# generated using pymatgen
data_V85Zn86O256
_symmetry_space_group_name_H-M   'P 1'
_cell_length_a   16.95159792
_cell_length_b   16.95144555
_cell_length_c   16.94780383
_cell_angle_alpha   90.00117295
_cell_angle_beta   90.04534335
_cell_angle_gamma   89.96358923
_symmetry_Int_Tables_number   1
_chemical_formula_structural   V85Zn86O256
_chemical_formula_sum   'V85 Zn86 O256'
_cell_volume   4870.01822252
_cell_formula_units_Z   1
loop_
 _symmetry_equiv_pos_site_id
 _symmetry_equiv_pos_as_xyz
  1  'x, y, z'
loop_
 _atom_site_type_symbol
 _atom_site_label
 _atom_site_symmetry_multiplicity
 _atom_site_fract_x
 _atom_site_fract_y
 _atom_site_fract_z
 _atom_site_occupancy
  V  V0  1  0.12628163  0.62053066  -0.00506969  1
  V  V1  1  0.50077133  0.75161768  0.24576664  1
  V  V2  1  0.00744483  0.12306767  0.63625177  1
  V  V3  1  0.37573500  0.24353602  0.63117615  1
  V  V4  1  0.62555567  -0.00142290  0.12333318  1
  V  V5  1  0.37741190  0.25105603  0.12574674  1
  V  V6  1  0.87627593  0.74754247  0.12989721  1
  V  V7  1  0.12726290  -0.00770617  0.63817614  1
  V  V8  1  0.50136178  0.12512180  0.12681788  1
  V  V9  1  0.24954157  0.25209537  0.00223194  1
  V  V10  1  0.88503557  0.88933513  0.48646374  1
  V  V11  1  0.49969921  0.87579019  0.37726451  1
  V  V12  1  0.35406935  0.65202095  0.27921282  1
  V  V13  1  0.09192394  0.10332284  0.47663638  1
  V  V14  1  0.62341784  0.62420868  0.49996222  1
  V  V15  1  0.87535334  -0.00536416  0.87432296  1
  V  V16  1  -0.00328844  0.12361668  0.12271512  1
  V  V17  1  0.75193215  0.61704991  0.87190757  1
  V  V18  1  0.47970055  0.37936865  0.88059548  1
  V  V19  1  0.88069128  0.38823815  -0.01047812  1
  V  V20  1  0.11810732  0.86995888  0.26776646  1
  V  V21  1  0.87355032  0.12568293  0.75272169  1
  V  V22  1  0.12119769  0.12502029  -0.00172488  1
  V  V23  1  0.74605535  0.87256789  0.62757149  1
  V  V24  1  0.37643578  0.88429734  -0.00846332  1
  V  V25  1  0.24627997  0.75218280  -0.00725212  1
  V  V26  1  0.12476456  0.25395002  0.37972461  1
  V  V27  1  0.12335141  -0.00423022  0.12537434  1
  V  V28  1  0.25112708  0.00168653  0.25167117  1
  V  V29  1  0.61348553  0.61711795  0.00142806  1
  V  V30  1  0.12411340  0.49892889  0.12132122  1
  V  V31  1  0.49714046  0.49512606  0.49916798  1
  V  V32  1  -0.01856370  0.37282977  0.37959903  1
  V  V33  1  0.74802508  0.74815734  -0.00278373  1
  V  V34  1  0.11484183  0.38297012  0.76054102  1
  V  V35  1  0.50195919  0.88300614  0.86405291  1
  V  V36  1  0.37653975  0.75055596  0.11999430  1
  V  V37  1  0.00234297  0.62784408  0.61987880  1
  V  V38  1  0.49767452  0.63278192  0.62533119  1
  V  V39  1  0.24655700  0.24677406  0.50392021  1
  V  V40  1  0.62338921  0.49740488  0.62988426  1
  V  V41  1  0.12424054  0.37409472  0.25328952  1
  V  V42  1  0.62664064  0.87370696  0.24803126  1
  V  V43  1  0.37633958  0.37115152  0.50240293  1
  V  V44  1  0.37023255  0.86400372  0.50786618  1
  V  V45  1  0.37009243  0.62006859  0.74071825  1
  V  V46  1  0.24877997  0.86415908  0.63043931  1
  V  V47  1  -0.00163702  -0.00652244  -0.00184249  1
  V  V48  1  0.62486553  0.25632635  0.87596779  1
  V  V49  1  0.87232365  0.12090652  0.25353371  1
  V  V50  1  -0.00159859  0.24859043  0.25095282  1
  V  V51  1  0.75393030  -0.00434182  0.25553491  1
  V  V52  1  0.75300935  0.24974288  0.49451888  1
  V  V53  1  0.74968981  0.12453384  0.87853913  1
  V  V54  1  0.24988468  0.37618044  0.63795728  1
  V  V55  1  0.49973008  0.00070311  0.50576312  1
  V  V56  1  0.75347668  0.74925037  0.49860741  1
  V  V57  1  0.75017053  0.25297128  0.00336643  1
  V  V58  1  0.37650531  0.49043598  0.37248705  1
  V  V59  1  0.62642797  0.74757769  0.37448552  1
  V  V60  1  0.61904137  0.39301765  0.25158765  1
  V  V61  1  0.87151118  0.25224013  0.12772651  1
  V  V62  1  0.62354119  0.75132197  0.86445074  1
  V  V63  1  0.74677480  0.39142866  0.13335048  1
  V  V64  1  0.25500726  0.37467435  0.12812763  1
  V  V65  1  0.74357045  -0.00700786  0.75227750  1
  V  V66  1  0.13723899  0.63354654  0.48278891  1
  V  V67  1  0.25459137  0.12776857  0.37941494  1
  V  V68  1  0.87851629  0.86462068  -0.00265819  1
  V  V69  1  0.62614480  0.12418341  0.50378407  1
  V  V70  1  0.12994549  0.49845206  0.61872523  1
  V  V71  1  0.25513240  0.11976876  0.87584553  1
  V  V72  1  0.25649937  0.61595386  0.86748332  1
  V  V73  1  0.87674686  0.62266857  0.74595448  1
  V  V74  1  0.24826784  0.50324018  0.25837165  1
  V  V75  1  0.12564978  0.75353022  0.85196119  1
  V  V76  1  -0.01015994  0.49546069  0.49561629  1
  V  V77  1  0.87741662  0.25086950  0.62000813  1
  V  V78  1  0.37706721  0.00190068  0.37846068  1
  V  V79  1  0.24802388  0.87524072  0.12361462  1
  V  V80  1  0.00207692  0.86490691  0.85904632  1
  V  V81  1  0.75294597  0.37393214  0.62372585  1
  V  V82  1  0.88734239  0.75351697  0.62219793  1
  V  V83  1  0.61731266  0.25191178  0.37237258  1
  V  V84  1  0.00115317  0.62412930  0.12527420  1
  Zn  Zn85  1  0.62307695  -0.00428118  0.63150364  1
  Zn  Zn86  1  0.38279057  0.12050462  0.76314140  1
  Zn  Zn87  1  0.87128088  0.60697905  0.25800643  1
  Zn  Zn88  1  0.49810069  0.00221654  -0.00281100  1
  Zn  Zn89  1  0.49789341  0.75333220  0.74486225  1
  Zn  Zn90  1  0.50195964  0.12444308  0.63263848  1
  Zn  Zn91  1  0.74836984  0.60519952  0.36234858  1
  Zn  Zn92  1  0.46650880  0.49232180  0.00048189  1
  Zn  Zn93  1  0.50033916  0.25497929  0.25256491  1
  Zn  Zn94  1  0.75045010  0.11914109  0.37819787  1
  Zn  Zn95  1  0.50035684  0.25024231  0.75338516  1
  Zn  Zn96  1  0.75460582  0.49674584  0.75066038  1
  Zn  Zn97  1  0.05073468  0.45202754  -0.06241125  1
  Zn  Zn98  1  0.11823670  0.25764559  0.87904715  1
  Zn  Zn99  1  0.62495198  0.12603820  0.00232615  1
  Zn  Zn100  1  0.75104291  0.87325411  0.12361725  1
  Zn  Zn101  1  0.37876284  0.12545647  0.25163366  1
  Zn  Zn102  1  0.62324814  0.37495971  0.75302501  1
  Zn  Zn103  1  0.00119597  0.74626998  0.26230519  1
  Zn  Zn104  1  -0.00654550  0.26117710  0.76095437  1
  Zn  Zn105  1  0.25459719  -0.00778722  0.75752610  1
  Zn  Zn106  1  0.50084155  0.61722962  0.13451007  1
  Zn  Zn107  1  0.18603612  0.18538987  0.18844470  1
  Zn  Zn108  1  0.18324209  0.19255300  0.69305780  1
  Zn  Zn109  1  0.18626627  0.68961635  0.18708341  1
  Zn  Zn110  1  0.18835508  0.68482672  0.67760982  1
  Zn  Zn111  1  0.68762664  0.18824316  0.18988691  1
  Zn  Zn112  1  0.68801582  0.18732442  0.68909771  1
  Zn  Zn113  1  0.68939770  0.68059367  0.18295522  1
  Zn  Zn114  1  0.68897423  0.68616537  0.68528922  1
  Zn  Zn115  1  0.31495017  0.31283422  0.31279746  1
  Zn  Zn116  1  0.30606557  0.30614607  0.81329864  1
  Zn  Zn117  1  0.31198013  0.82229120  0.31351817  1
  Zn  Zn118  1  0.32025616  0.80695697  0.80586235  1
  Zn  Zn119  1  0.81126575  0.44336426  0.31753562  1
  Zn  Zn120  1  0.80975274  0.31341826  0.81162954  1
  Zn  Zn121  1  0.81445420  0.80668285  0.31506463  1
  Zn  Zn122  1  0.81564481  0.80416468  0.80896625  1
  Zn  Zn123  1  0.18864317  0.43786624  0.44253244  1
  Zn  Zn124  1  0.25418077  0.45820636  0.95893315  1
  Zn  Zn125  1  0.19206584  0.94131998  0.44474153  1
  Zn  Zn126  1  0.18361523  0.93532896  0.93487302  1
  Zn  Zn127  1  0.67792883  0.42853542  0.44387539  1
  Zn  Zn128  1  0.69002390  0.43817500  0.94180057  1
  Zn  Zn129  1  0.68943418  0.93473216  0.43966949  1
  Zn  Zn130  1  0.68535874  0.93394651  0.93698511  1
  Zn  Zn131  1  0.31233426  0.06526678  0.06343454  1
  Zn  Zn132  1  0.30904975  0.05998377  0.56591309  1
  Zn  Zn133  1  0.31732256  0.56997828  0.07395154  1
  Zn  Zn134  1  0.31113573  0.56221730  0.56189817  1
  Zn  Zn135  1  0.81095409  0.05922735  0.06389706  1
  Zn  Zn136  1  0.81272029  0.06203054  0.56743828  1
  Zn  Zn137  1  0.81270996  0.56644508  0.06224548  1
  Zn  Zn138  1  0.80999946  0.56257636  0.55507919  1
  Zn  Zn139  1  0.43877331  0.44154512  0.18536655  1
  Zn  Zn140  1  0.43792249  0.43737565  0.69352967  1
  Zn  Zn141  1  0.43705443  0.93694459  0.18460169  1
  Zn  Zn142  1  0.42993536  0.94402986  0.69046438  1
  Zn  Zn143  1  0.94315716  0.43345595  0.18000154  1
  Zn  Zn144  1  0.93660255  0.44127272  0.68073305  1
  Zn  Zn145  1  0.93713694  0.93433341  0.18737151  1
  Zn  Zn146  1  0.93536857  0.93855304  0.67910401  1
  Zn  Zn147  1  0.06342346  0.06217788  0.30801806  1
  Zn  Zn148  1  0.06342087  0.05970287  0.81483748  1
  Zn  Zn149  1  0.05520150  0.56079125  0.31328747  1
  Zn  Zn150  1  0.07093960  0.56905009  0.79812951  1
  Zn  Zn151  1  0.56569284  0.06403223  0.31317596  1
  Zn  Zn152  1  0.56437331  0.06716656  0.81509972  1
  Zn  Zn153  1  0.55170734  0.56595844  0.31836354  1
  Zn  Zn154  1  0.55692221  0.55977794  0.81511583  1
  Zn  Zn155  1  0.43934420  0.18772605  0.44241420  1
  Zn  Zn156  1  0.43920787  0.19368240  0.94455981  1
  Zn  Zn157  1  0.43201669  0.68633236  0.43698101  1
  Zn  Zn158  1  0.43529885  0.69193684  0.92922931  1
  Zn  Zn159  1  0.93905594  0.17294212  0.43591519  1
  Zn  Zn160  1  0.93663027  0.19235593  0.93682834  1
  Zn  Zn161  1  0.93511156  0.68150577  0.43342196  1
  Zn  Zn162  1  0.96199108  0.64395047  0.91514670  1
  Zn  Zn163  1  0.06105464  0.31300625  0.06316666  1
  Zn  Zn164  1  0.05956520  0.30992289  0.56495196  1
  Zn  Zn165  1  0.06154666  0.80756708  0.06238010  1
  Zn  Zn166  1  0.05832186  0.81072654  0.44657182  1
  Zn  Zn167  1  0.56340569  0.31947528  0.06344826  1
  Zn  Zn168  1  0.56195832  0.31070522  0.56594260  1
  Zn  Zn169  1  0.56283172  0.81102270  0.05641683  1
  Zn  Zn170  1  0.56424566  0.81477622  0.56219486  1
  O  O171  1  0.11957301  0.11713921  0.11680418  1
  O  O172  1  0.11941669  0.11681214  0.63120593  1
  O  O173  1  0.12429481  0.61673361  0.11958320  1
  O  O174  1  0.11861602  0.61603953  0.61793567  1
  O  O175  1  0.61888220  0.11724187  0.12472601  1
  O  O176  1  0.62553720  0.12176539  0.61437255  1
  O  O177  1  0.61757259  0.63545824  0.10547550  1
  O  O178  1  0.61836421  0.61683104  0.61911919  1
  O  O179  1  0.37358779  0.38018845  0.38677362  1
  O  O180  1  0.38039972  0.36921293  0.87556738  1
  O  O181  1  0.37952221  0.88337594  0.38805275  1
  O  O182  1  0.38945929  0.86894824  0.88051741  1
  O  O183  1  0.88373099  0.36295992  0.37270665  1
  O  O184  1  0.86799101  0.37322019  0.89128081  1
  O  O185  1  0.86934511  0.87536206  0.38749174  1
  O  O186  1  0.88217510  0.87125491  0.88106177  1
  O  O187  1  0.25576273  0.00695531  0.37025554  1
  O  O188  1  0.24415532  0.01592148  0.87960752  1
  O  O189  1  0.25768669  0.49040607  0.36494520  1
  O  O190  1  0.23880191  0.51883346  0.86328957  1
  O  O191  1  0.74061360  0.00026114  0.35915652  1
  O  O192  1  0.75654733  0.00115786  0.87149814  1
  O  O193  1  0.74698689  0.49536618  0.39130637  1
  O  O194  1  0.74676701  0.51371864  0.87292783  1
  O  O195  1  0.24265761  0.49175287  0.13748442  1
  O  O196  1  0.24208780  0.48758339  0.61869685  1
  O  O197  1  0.24536406  0.99570851  0.13376177  1
  O  O198  1  0.23877159  0.99690702  0.62906036  1
  O  O199  1  0.74953587  0.48896544  0.12048386  1
  O  O200  1  0.74096777  0.49106659  0.62066757  1
  O  O201  1  0.74208108  0.99543385  0.13338286  1
  O  O202  1  0.75024223  0.99077106  0.63579467  1
  O  O203  1  0.00706345  0.36561180  0.25811671  1
  O  O204  1  0.01137757  0.38204101  0.74717574  1
  O  O205  1  0.01717303  0.87854431  0.24974945  1
  O  O206  1  -0.01066318  0.87555169  0.76094679  1
  O  O207  1  0.51562214  0.37251738  0.24133210  1
  O  O208  1  0.50200559  0.37172967  0.76615770  1
  O  O209  1  0.50507425  0.86750448  0.25391763  1
  O  O210  1  0.49649820  0.87471675  0.76035965  1
  O  O211  1  0.50046748  0.12666879  0.23856098  1
  O  O212  1  0.49907683  0.13103983  0.75001067  1
  O  O213  1  0.48412481  0.64141584  0.25538602  1
  O  O214  1  0.49366472  0.62440190  0.74048710  1
  O  O215  1  0.99256856  0.12752577  0.24059437  1
  O  O216  1  0.99178298  0.12472641  0.74868517  1
  O  O217  1  0.99987898  0.62616420  0.23678298  1
  O  O218  1  0.99378939  0.62393206  0.72808003  1
  O  O219  1  0.36331045  0.24642719  0.01660011  1
  O  O220  1  0.36947127  0.25586498  0.50739724  1
  O  O221  1  0.36539623  0.75581664  0.00266673  1
  O  O222  1  0.38192935  0.76622519  0.50122425  1
  O  O223  1  0.86642878  0.25574870  0.00990029  1
  O  O224  1  0.86709918  0.23792628  0.51200420  1
  O  O225  1  0.86889822  0.75712373  0.00696186  1
  O  O226  1  0.86606139  0.75637286  0.50677885  1
  O  O227  1  0.12457571  0.23809005  0.49238783  1
  O  O228  1  0.13005735  0.23961740  1.00534126  1
  O  O229  1  0.12600738  0.73292095  0.49687073  1
  O  O230  1  0.13846971  0.74451317  0.99909375  1
  O  O231  1  0.62877138  0.24196915  0.49760469  1
  O  O232  1  0.63829404  0.25150409  0.99883988  1
  O  O233  1  0.62913681  0.74701462  0.49142971  1
  O  O234  1  0.63272448  0.74401145  0.98882756  1
  O  O235  1  0.49259686  0.24439915  0.12419497  1
  O  O236  1  0.48911888  0.24872368  0.62931581  1
  O  O237  1  0.49338707  0.74823221  0.12944348  1
  O  O238  1  0.50764347  0.73634977  0.62383453  1
  O  O239  1  0.99200761  0.24428339  0.12848668  1
  O  O240  1  0.99102675  0.24706755  0.63853809  1
  O  O241  1  0.99401736  0.74334208  0.13147779  1
  O  O242  1  0.98804771  0.74197986  0.61337437  1
  O  O243  1  0.00714039  0.25321007  0.37259878  1
  O  O244  1  0.00524368  0.24996338  0.87333241  1
  O  O245  1  -0.00049187  0.74992241  0.37379866  1
  O  O246  1  0.01926711  0.74971767  0.87553184  1
  O  O247  1  0.51256264  0.24640041  0.37608430  1
  O  O248  1  0.50819209  0.26004474  0.87876713  1
  O  O249  1  0.50738974  0.75585123  0.36914966  1
  O  O250  1  0.50880041  0.76086091  0.87263023  1
  O  O251  1  0.24936392  0.13102279  0.49191297  1
  O  O252  1  0.24104099  0.13219835  0.99760368  1
  O  O253  1  0.23625523  0.61874697  0.49956586  1
  O  O254  1  0.24712727  0.63478639  0.98552910  1
  O  O255  1  0.74286531  0.12929418  0.50113465  1
  O  O256  1  0.75157252  0.13369348  0.99582869  1
  O  O257  1  0.74003438  0.63900386  0.50314376  1
  O  O258  1  0.74518575  0.63400623  0.99201512  1
  O  O259  1  0.24021318  0.35923338  0.01358659  1
  O  O260  1  0.25869009  0.36713068  0.51000033  1
  O  O261  1  0.25614119  0.86942324  0.00047342  1
  O  O262  1  0.26398841  0.87956669  0.50850442  1
  O  O263  1  0.75632967  0.36982382  0.01147469  1
  O  O264  1  0.74331570  0.36152759  0.51508533  1
  O  O265  1  0.75733523  0.86282376  -0.00248155  1
  O  O266  1  0.75420985  0.86484852  0.50681750  1
  O  O267  1  0.13077989  0.49361079  0.24560587  1
  O  O268  1  0.12412877  0.49057537  0.73272344  1
  O  O269  1  0.13076830  0.99155509  0.24760497  1
  O  O270  1  0.13212752  0.99878332  0.74257948  1
  O  O271  1  0.61513632  0.49209228  0.25551109  1
  O  O272  1  0.62571405  0.50080077  0.73825702  1
  O  O273  1  0.63006251  0.99493807  0.24009013  1
  O  O274  1  0.64021905  1.00433579  0.75225074  1
  O  O275  1  0.36663423  -0.00190436  0.25685024  1
  O  O276  1  0.36546911  0.01070200  0.74958652  1
  O  O277  1  0.36617525  0.50049288  0.25979984  1
  O  O278  1  0.37970682  0.51910216  0.74973042  1
  O  O279  1  0.86627782  0.00691793  0.24195302  1
  O  O280  1  0.86778409  0.00859204  0.75495885  1
  O  O281  1  0.88238957  0.49336822  0.24864474  1
  O  O282  1  0.87181022  0.51693417  0.73827397  1
  O  O283  1  0.12347323  0.36392882  0.37388108  1
  O  O284  1  0.12336695  0.38713711  0.86292185  1
  O  O285  1  0.12733878  0.87922318  0.37200112  1
  O  O286  1  0.11803152  0.86111157  0.87539760  1
  O  O287  1  0.62714909  0.36616333  0.35888600  1
  O  O288  1  0.63057649  0.36428219  0.87608410  1
  O  O289  1  0.61777311  0.86799871  0.36952204  1
  O  O290  1  0.61180404  0.86606985  0.87889273  1
  O  O291  1  0.38250113  0.13127554  0.12884591  1
  O  O292  1  0.37421159  0.13810725  0.62076289  1
  O  O293  1  0.36948520  0.64470271  0.14191928  1
  O  O294  1  0.38158981  0.62208838  0.63128427  1
  O  O295  1  0.87806760  0.13096714  0.12895041  1
  O  O296  1  0.88092444  0.12874494  0.63714103  1
  O  O297  1  0.88546184  0.63223804  0.12182944  1
  O  O298  1  0.88119237  0.63342593  0.62207738  1
  O  O299  1  0.25439020  0.25460023  0.12376689  1
  O  O300  1  0.25385988  0.25576773  0.62193363  1
  O  O301  1  0.25559802  0.75749213  0.11590637  1
  O  O302  1  0.24554285  0.76602451  0.62166423  1
  O  O303  1  0.75594702  0.25546883  0.12046505  1
  O  O304  1  0.75666031  0.25368351  0.61911269  1
  O  O305  1  0.75753757  0.75111471  0.11282469  1
  O  O306  1  0.75542324  0.75550570  0.61694260  1
  O  O307  1  0.24434352  0.24776136  0.38164051  1
  O  O308  1  0.23940337  0.24352046  0.88791377  1
  O  O309  1  0.31144785  0.71643222  0.35029304  1
  O  O310  1  0.24172105  0.75097238  0.87717762  1
  O  O311  1  0.73743992  0.24598286  0.39194462  1
  O  O312  1  0.74592725  0.24589859  0.88509155  1
  O  O313  1  0.73524043  0.75486353  0.38257681  1
  O  O314  1  0.74223754  0.74417574  0.87947318  1
  O  O315  1  0.00407536  0.11706241  0.00426197  1
  O  O316  1  0.00113178  0.14261608  0.53001891  1
  O  O317  1  0.01437398  0.63554851  0.01732982  1
  O  O318  1  0.00689008  0.61173884  0.50435782  1
  O  O319  1  0.50204310  0.12224240  0.01245253  1
  O  O320  1  0.50745846  0.11546460  0.50402675  1
  O  O321  1  0.50899265  0.62570091  -0.00891331  1
  O  O322  1  0.50262642  0.61687397  0.50677579  1
  O  O323  1  0.48452765  0.38015087  0.51084409  1
  O  O324  1  0.50030524  0.37459897  0.98573051  1
  O  O325  1  0.49145762  0.88305107  0.49947820  1
  O  O326  1  0.49096993  0.87658023  0.99136890  1
  O  O327  1  1.00407932  0.38436862  0.49316073  1
  O  O328  1  0.98802360  0.37812358  1.00214257  1
  O  O329  1  0.98469430  0.88037382  0.50057662  1
  O  O330  1  0.99356704  0.87427402  0.99186300  1
  O  O331  1  0.49629406  0.49355858  0.39196914  1
  O  O332  1  0.49945516  0.48333527  0.88101110  1
  O  O333  1  0.49720221  0.99485731  0.38282040  1
  O  O334  1  0.50913237  0.98682697  0.87910842  1
  O  O335  1  1.00316771  0.48731061  0.38742342  1
  O  O336  1  1.00980594  0.54131970  0.88631212  1
  O  O337  1  1.01481894  1.06852134  0.40869616  1
  O  O338  1  0.99515908  0.98803612  0.88003542  1
  O  O339  1  0.00367330  0.00314414  0.11758022  1
  O  O340  1  0.01561759  0.00764278  0.63281111  1
  O  O341  1  0.01725257  0.50463588  0.12381031  1
  O  O342  1  0.00811488  0.50410560  0.61201996  1
  O  O343  1  0.50750073  0.00657995  0.12404434  1
  O  O344  1  0.50355080  -0.00027056  0.61690674  1
  O  O345  1  0.48503930  0.50908917  0.11199037  1
  O  O346  1  0.50475708  0.50498950  0.61782223  1
  O  O347  1  0.24302439  0.37922776  0.24553487  1
  O  O348  1  0.24054887  0.37273855  0.74156858  1
  O  O349  1  0.24027190  0.88570715  0.24909544  1
  O  O350  1  0.25683924  0.87349948  0.73514785  1
  O  O351  1  0.73879725  0.38059196  0.23894562  1
  O  O352  1  0.74747445  0.37756984  0.73824875  1
  O  O353  1  0.74434234  0.87875017  0.24676320  1
  O  O354  1  0.75975174  0.88207103  0.74212576  1
  O  O355  1  0.25041436  0.11359083  0.25596091  1
  O  O356  1  0.24363543  0.13110366  0.77254068  1
  O  O357  1  0.25263242  0.61388861  0.24592815  1
  O  O358  1  0.25971450  0.63116912  0.75467814  1
  O  O359  1  0.75721575  0.11495943  0.24775897  1
  O  O360  1  0.75709181  0.11782800  0.75759081  1
  O  O361  1  0.75687969  0.62965865  0.25028452  1
  O  O362  1  0.75622197  0.62278444  0.75514197  1
  O  O363  1  0.37147493  0.12066981  0.37336930  1
  O  O364  1  0.35785841  0.13315741  0.88418258  1
  O  O365  1  0.38843561  0.59909592  0.37541864  1
  O  O366  1  0.36148040  0.62806597  0.86643056  1
  O  O367  1  0.86769403  0.13125244  0.35680808  1
  O  O368  1  0.86939600  0.11785245  0.87056223  1
  O  O369  1  0.86116282  0.62921240  0.37166210  1
  O  O370  1  0.86368931  0.63886313  0.85840350  1
  O  O371  1  0.13230338  0.37987109  0.13190226  1
  O  O372  1  0.13166025  0.37982305  0.62848375  1
  O  O373  1  0.13150727  0.88049139  0.12786985  1
  O  O374  1  0.13903150  0.89091420  0.61904586  1
  O  O375  1  0.63793144  0.37250500  0.13670644  1
  O  O376  1  0.63003323  0.38135432  0.62903041  1
  O  O377  1  0.62472596  0.88059038  0.12989422  1
  O  O378  1  0.64058745  0.87598051  0.62239438  1
  O  O379  1  0.11901582  0.25244245  0.25776910  1
  O  O380  1  0.12257375  0.27173143  0.75310696  1
  O  O381  1  0.12827711  0.76830366  0.24885392  1
  O  O382  1  0.12727654  0.74993684  0.75403473  1
  O  O383  1  0.62428820  0.25174187  0.26058167  1
  O  O384  1  0.62607751  0.25181876  0.76218738  1
  O  O385  1  0.61760400  0.75246928  0.25440366  1
  O  O386  1  0.62309142  0.74494189  0.76100665  1
  O  O387  1  0.37758175  0.24774108  0.24031780  1
  O  O388  1  0.37324125  0.24291059  0.74373191  1
  O  O389  1  0.38529852  0.76358630  0.23524864  1
  O  O390  1  0.38403711  0.73000823  0.75239203  1
  O  O391  1  0.88085094  0.24002787  0.23519035  1
  O  O392  1  0.87099171  0.23825155  0.74448267  1
  O  O393  1  0.87768084  0.75703002  0.23424197  1
  O  O394  1  0.86985888  0.73890075  0.73067350  1
  O  O395  1  0.37835288  0.48987138  0.49694266  1
  O  O396  1  0.35147073  0.49942480  0.99789120  1
  O  O397  1  0.38442265  0.99652657  0.49741648  1
  O  O398  1  0.37403782  0.98711603  1.00479364  1
  O  O399  1  0.89122261  0.49839451  0.50653530  1
  O  O400  1  0.87186713  0.48687343  1.00186073  1
  O  O401  1  0.86706572  0.98801323  0.50144723  1
  O  O402  1  0.87728576  0.98594246  0.99419458  1
  O  O403  1  0.11814627  0.00414607  0.00561796  1
  O  O404  1  0.12976147  0.01292584  0.51207096  1
  O  O405  1  0.13943829  0.50280554  0.00721524  1
  O  O406  1  0.11776341  0.50241493  0.50725187  1
  O  O407  1  0.62701117  0.00010625  0.01358464  1
  O  O408  1  0.61693740  0.00556529  0.50083974  1
  O  O409  1  0.62728696  0.51823262  -0.00331603  1
  O  O410  1  0.61367646  0.50108196  0.51163299  1
  O  O411  1  0.36089966  0.36717963  0.13338414  1
  O  O412  1  0.36718277  0.36609281  0.62444493  1
  O  O413  1  0.36915037  0.86757269  0.11543116  1
  O  O414  1  0.36368453  0.87983529  0.61497419  1
  O  O415  1  0.86460780  0.36752009  0.11881098  1
  O  O416  1  0.86729112  0.36228899  0.62969216  1
  O  O417  1  0.87593447  0.86712626  0.11397799  1
  O  O418  1  0.86719582  0.86719125  0.61691175  1
  O  O419  1  0.13890243  0.13750642  0.37318969  1
  O  O420  1  0.12922272  0.12366295  0.88972290  1
  O  O421  1  0.12484422  0.61701683  0.38394917  1
  O  O422  1  0.13979585  0.64103827  0.87177327  1
  O  O423  1  0.62725902  0.13057691  0.38700708  1
  O  O424  1  0.63185032  0.13748966  0.88215339  1
  O  O425  1  0.62356902  0.63283134  0.38180023  1
  O  O426  1  0.63063648  0.63204342  0.88126559  1
