# generated using pymatgen
data_V85Zn86O256
_symmetry_space_group_name_H-M   'P 1'
_cell_length_a   16.95750890
_cell_length_b   16.94602059
_cell_length_c   16.94195694
_cell_angle_alpha   89.94029087
_cell_angle_beta   89.92836969
_cell_angle_gamma   90.03455019
_symmetry_Int_Tables_number   1
_chemical_formula_structural   V85Zn86O256
_chemical_formula_sum   'V85 Zn86 O256'
_cell_volume   4868.47229065
_cell_formula_units_Z   1
loop_
 _symmetry_equiv_pos_site_id
 _symmetry_equiv_pos_as_xyz
  1  'x, y, z'
loop_
 _atom_site_type_symbol
 _atom_site_label
 _atom_site_symmetry_multiplicity
 _atom_site_fract_x
 _atom_site_fract_y
 _atom_site_fract_z
 _atom_site_occupancy
  V  V0  1  0.87520241  0.88805605  0.50230548  1
  V  V1  1  0.75603042  0.50392950  0.74836038  1
  V  V2  1  0.12481992  0.37430863  0.24640917  1
  V  V3  1  0.87822708  0.01408808  0.37467065  1
  V  V4  1  0.25099170  0.62401219  0.37589586  1
  V  V5  1  0.25695941  0.37753803  0.12114880  1
  V  V6  1  0.62850452  0.12020910  0.49933777  1
  V  V7  1  -0.01009184  0.12400076  0.62465042  1
  V  V8  1  0.62757033  0.37406450  0.24929160  1
  V  V9  1  0.50103906  0.12655937  0.62508198  1
  V  V10  1  0.24957663  0.87182461  0.11620970  1
  V  V11  1  0.11545163  0.75379959  0.86204120  1
  V  V12  1  0.75657601  0.74672868  0.50255750  1
  V  V13  1  0.25691243  0.25575134  0.50146363  1
  V  V14  1  0.75802497  0.87368520  0.12320640  1
  V  V15  1  0.49583762  0.49142741  -0.00148698  1
  V  V16  1  -0.00121378  0.50010456  0.50125204  1
  V  V17  1  -0.00081567  0.11910720  0.13059258  1
  V  V18  1  0.75538979  0.63282906  0.86933349  1
  V  V19  1  0.62710547  0.50107042  0.62471693  1
  V  V20  1  0.12460594  0.62458224  0.50043938  1
  V  V21  1  0.63075951  0.62359688  0.49147915  1
  V  V22  1  0.87114417  0.49986862  0.37302306  1
  V  V23  1  -0.00621796  0.37166766  0.87957992  1
  V  V24  1  0.57803134  0.67733177  -0.05259961  1
  V  V25  1  0.49612241  0.49803018  0.50320787  1
  V  V26  1  0.37641605  0.62563608  0.25297134  1
  V  V27  1  0.87695724  0.75033975  0.63921945  1
  V  V28  1  0.50575688  0.62676683  0.12693958  1
  V  V29  1  0.37670801  0.12419022  0.74909861  1
  V  V30  1  0.00070030  0.87957507  0.38545428  1
  V  V31  1  0.25457466  0.12032900  0.87507079  1
  V  V32  1  0.62870411  0.50056598  0.11832532  1
  V  V33  1  0.12363883  0.49776283  0.62590999  1
  V  V34  1  0.50230067  -0.00081576  0.50616759  1
  V  V35  1  0.75401218  0.24535263  -0.00231085  1
  V  V36  1  0.12380303  0.63389523  0.00414521  1
  V  V37  1  0.24959234  -0.00321017  0.75237071  1
  V  V38  1  0.12266225  0.74941046  0.37491580  1
  V  V39  1  0.37404810  -0.00185840  0.37262563  1
  V  V40  1  -0.01395741  0.24599055  0.74597028  1
  V  V41  1  0.12443637  0.12157266  0.00428575  1
  V  V42  1  0.37782890  0.62638442  0.75120277  1
  V  V43  1  0.50207253  0.63220324  0.62807446  1
  V  V44  1  0.87721348  0.87320169  -0.00455386  1
  V  V45  1  0.37446792  0.87449223  0.50036998  1
  V  V46  1  0.37067502  0.75180482  0.12031192  1
  V  V47  1  0.24543785  -0.00206433  0.24528613  1
  V  V48  1  0.24552406  0.62839961  0.87879188  1
  V  V49  1  0.12174405  0.87457716  0.24446477  1
  V  V50  1  0.25041054  0.74986695  0.49999273  1
  V  V51  1  0.63040581  0.24433490  0.37401477  1
  V  V52  1  -0.00068699  0.37423693  0.37446525  1
  V  V53  1  0.12150142  -0.00068274  0.62795328  1
  V  V54  1  0.75366783  0.24022435  0.49873635  1
  V  V55  1  0.62573733  0.00283575  0.11888087  1
  V  V56  1  0.81363868  0.66894174  0.31838615  1
  V  V57  1  0.24973777  0.49589035  0.75233599  1
  V  V58  1  0.48272530  -0.00318205  -0.00689071  1
  V  V59  1  -0.01408374  0.63212384  0.13011325  1
  V  V60  1  0.87800503  0.24568238  0.12655794  1
  V  V61  1  0.37566927  0.12624135  0.24625980  1
  V  V62  1  0.75517240  0.74558293  0.00142957  1
  V  V63  1  0.62173161  0.25038251  0.87369121  1
  V  V64  1  0.24389262  0.87450030  0.62567280  1
  V  V65  1  0.37555697  0.49385081  0.37666481  1
  V  V66  1  0.87519432  0.50215673  0.87548542  1
  V  V67  1  0.86796064  0.00809929  0.86230270  1
  V  V68  1  0.12384183  0.24779412  0.87282825  1
  V  V69  1  0.75087253  0.36970150  0.62627356  1
  V  V70  1  0.75694345  0.01306227  0.25295524  1
  V  V71  1  -0.00324906  0.49639903  0.00452528  1
  V  V72  1  0.74097281  0.88815361  0.63111201  1
  V  V73  1  0.60934535  0.87561159  0.76220146  1
  V  V74  1  0.12574907  0.12089849  0.50319891  1
  V  V75  1  0.12464534  0.24807753  0.37558796  1
  V  V76  1  0.76042888  0.37508377  0.11869714  1
  V  V77  1  0.62682672  0.87819472  0.25058856  1
  V  V78  1  0.25941394  0.25431594  -0.00226028  1
  V  V79  1  0.75180212  0.50160260  0.25204648  1
  V  V80  1  0.50345823  0.87382793  0.37605294  1
  V  V81  1  0.87407978  0.37038063  0.50484451  1
  V  V82  1  0.00180110  -0.00263357  -0.00106095  1
  V  V83  1  -0.00495629  0.62720262  0.63960737  1
  V  V84  1  0.50022865  0.37192280  0.37814071  1
  Zn  Zn85  1  0.36665224  0.49450687  0.88339862  1
  Zn  Zn86  1  0.12480219  0.50257758  0.12483070  1
  Zn  Zn87  1  0.48498710  0.87887898  0.87526238  1
  Zn  Zn88  1  0.12380649  0.37144709  0.74809045  1
  Zn  Zn89  1  0.49691915  0.25684304  0.74956606  1
  Zn  Zn90  1  0.38068850  0.26150587  0.62126463  1
  Zn  Zn91  1  -0.00624201  0.24418288  0.25209827  1
  Zn  Zn92  1  0.62094625  0.37745067  0.75381869  1
  Zn  Zn93  1  0.74947300  0.12544357  0.85484652  1
  Zn  Zn94  1  0.25784673  0.37996594  0.62020091  1
  Zn  Zn95  1  0.50083669  0.24832664  0.24716680  1
  Zn  Zn96  1  0.37864744  0.75272690  0.62807736  1
  Zn  Zn97  1  0.38147277  0.25520156  0.12259047  1
  Zn  Zn98  1  0.50155068  0.75257761  0.25117011  1
  Zn  Zn99  1  -0.01285586  0.74827014  0.25019294  1
  Zn  Zn100  1  0.50145177  0.12744278  0.12269158  1
  Zn  Zn101  1  0.24935250  0.12298585  0.37424597  1
  Zn  Zn102  1  0.62550357  0.12021947  -0.00711072  1
  Zn  Zn103  1  0.63193534  0.74746653  0.37152695  1
  Zn  Zn104  1  0.24944792  0.49941742  0.24775322  1
  Zn  Zn105  1  0.48677036  0.36830690  0.87748312  1
  Zn  Zn106  1  -0.00225499  0.87466465  0.85893040  1
  Zn  Zn107  1  0.18891759  0.18870034  0.18532781  1
  Zn  Zn108  1  0.18749379  0.18721580  0.68761418  1
  Zn  Zn109  1  0.18597054  0.68700629  0.18898590  1
  Zn  Zn110  1  0.19146560  0.68113658  0.68680520  1
  Zn  Zn111  1  0.68834671  0.18797941  0.18486203  1
  Zn  Zn112  1  0.67831428  0.19203384  0.68495012  1
  Zn  Zn113  1  0.68556154  0.69325305  0.18163693  1
  Zn  Zn114  1  0.68695439  0.69317130  0.68819367  1
  Zn  Zn115  1  0.31078558  0.31165053  0.31118540  1
  Zn  Zn116  1  0.31608019  0.31371869  0.81228520  1
  Zn  Zn117  1  0.31197747  0.81231528  0.30911895  1
  Zn  Zn118  1  0.30424614  0.81220401  0.80798955  1
  Zn  Zn119  1  0.81255084  0.31096048  0.31100564  1
  Zn  Zn120  1  0.80990392  0.31389976  0.81442848  1
  Zn  Zn121  1  0.81223230  0.83264667  0.31439764  1
  Zn  Zn122  1  0.80877617  0.81901830  0.81156913  1
  Zn  Zn123  1  0.18696229  0.43632921  0.43548701  1
  Zn  Zn124  1  0.18099055  0.43767769  0.93878465  1
  Zn  Zn125  1  0.18535943  0.93813978  0.43772587  1
  Zn  Zn126  1  0.18551727  0.93572959  0.93530325  1
  Zn  Zn127  1  0.68835643  0.43526526  0.43748896  1
  Zn  Zn128  1  0.68822702  0.43451909  0.93830728  1
  Zn  Zn129  1  0.69280739  0.94033618  0.43940363  1
  Zn  Zn130  1  0.68633197  0.93405383  0.93179744  1
  Zn  Zn131  1  0.30894765  0.06205724  0.06606734  1
  Zn  Zn132  1  0.31262460  0.06415211  0.56313213  1
  Zn  Zn133  1  0.31170456  0.56707649  0.06361958  1
  Zn  Zn134  1  0.31494356  0.56037234  0.56443073  1
  Zn  Zn135  1  0.81572888  0.06195623  0.06036441  1
  Zn  Zn136  1  0.80783514  0.06551101  0.67782637  1
  Zn  Zn137  1  0.81378456  0.56231553  0.05811111  1
  Zn  Zn138  1  0.81525675  0.56325479  0.56297377  1
  Zn  Zn139  1  0.43944308  0.43783892  0.18950076  1
  Zn  Zn140  1  0.43414075  0.43597162  0.69113347  1
  Zn  Zn141  1  0.43765899  0.93899411  0.18324393  1
  Zn  Zn142  1  0.43530085  0.93834890  0.68922553  1
  Zn  Zn143  1  0.93844267  0.43836396  0.18938100  1
  Zn  Zn144  1  0.93696095  0.43431693  0.69003919  1
  Zn  Zn145  1  0.93929670  0.93747741  0.18765793  1
  Zn  Zn146  1  0.93556361  0.93918264  0.68402905  1
  Zn  Zn147  1  0.06391301  0.05966678  0.31336101  1
  Zn  Zn148  1  0.05993781  0.05964021  0.81085238  1
  Zn  Zn149  1  0.05966440  0.56134218  0.31013439  1
  Zn  Zn150  1  0.06356280  0.56045069  0.81517860  1
  Zn  Zn151  1  0.56267477  0.06140617  0.31251825  1
  Zn  Zn152  1  0.56888673  0.05766757  0.80975663  1
  Zn  Zn153  1  0.56396393  0.55983869  0.31082385  1
  Zn  Zn154  1  0.56320873  0.55769264  0.80923541  1
  Zn  Zn155  1  0.43836079  0.18415199  0.43221995  1
  Zn  Zn156  1  0.44009503  0.17913508  0.93707964  1
  Zn  Zn157  1  0.44000937  0.68761943  0.44009420  1
  Zn  Zn158  1  0.39965501  0.72770083  0.91354814  1
  Zn  Zn159  1  0.94049943  0.18749790  0.44423719  1
  Zn  Zn160  1  0.93464261  0.18596560  0.94221120  1
  Zn  Zn161  1  0.94582774  0.69485601  0.45132087  1
  Zn  Zn162  1  0.93856510  0.68631681  0.93697204  1
  Zn  Zn163  1  0.06470597  0.31007888  0.06142318  1
  Zn  Zn164  1  0.06427566  0.31040240  0.56315378  1
  Zn  Zn165  1  0.06045073  0.80994946  0.06142274  1
  Zn  Zn166  1  0.06172113  0.81184947  0.68242653  1
  Zn  Zn167  1  0.56832051  0.30973136  0.06244250  1
  Zn  Zn168  1  0.56436962  0.31213905  0.56221802  1
  Zn  Zn169  1  0.55940049  0.82075411  0.06543050  1
  Zn  Zn170  1  0.56920843  0.80995284  0.56187827  1
  O  O171  1  0.12066705  0.13002281  0.10963238  1
  O  O172  1  0.12168163  0.11873150  0.61913196  1
  O  O173  1  0.11969082  0.62418849  0.11788257  1
  O  O174  1  0.11807407  0.61457563  0.62113053  1
  O  O175  1  0.62473460  0.11165085  0.12641242  1
  O  O176  1  0.60990717  0.12809337  0.61275430  1
  O  O177  1  0.61343361  0.61727221  0.13364824  1
  O  O178  1  0.62049585  0.62043714  0.61657668  1
  O  O179  1  0.38278130  0.38629920  0.36896091  1
  O  O180  1  0.37308681  0.38110983  0.87918862  1
  O  O181  1  0.38329887  0.87854580  0.37891365  1
  O  O182  1  0.38120085  0.83493220  0.88277450  1
  O  O183  1  0.87990054  0.38084119  0.38274663  1
  O  O184  1  0.88609293  0.38468590  0.87168067  1
  O  O185  1  0.88370750  0.88427430  0.38245544  1
  O  O186  1  0.87605305  0.88708984  0.87944093  1
  O  O187  1  0.25584853  -0.00158550  0.36458307  1
  O  O188  1  0.24180683  0.00687520  0.86393331  1
  O  O189  1  0.26020961  0.50443966  0.37561492  1
  O  O190  1  0.24327033  0.50907757  0.86855367  1
  O  O191  1  0.76007477  -0.00509080  0.36049959  1
  O  O192  1  0.76509892  0.00293968  0.88010047  1
  O  O193  1  0.75841861  0.49775031  0.36889568  1
  O  O194  1  0.75695799  0.50607546  0.87068665  1
  O  O195  1  0.24585044  0.49306467  0.12528932  1
  O  O196  1  0.24026400  0.50168820  0.63198953  1
  O  O197  1  0.25420076  0.98902263  0.13797064  1
  O  O198  1  0.24362416  0.99398620  0.62970757  1
  O  O199  1  0.74630201  0.49493979  0.12698101  1
  O  O200  1  0.74843823  0.49435078  0.63116906  1
  O  O201  1  0.74682550  0.99517256  0.13342340  1
  O  O202  1  0.75744243  0.98506674  0.61406125  1
  O  O203  1  0.00724263  0.37055617  0.25621009  1
  O  O204  1  0.00225976  0.36165199  0.75559873  1
  O  O205  1  0.00640093  0.86924523  0.25554692  1
  O  O206  1  0.00713140  0.88355930  0.74678666  1
  O  O207  1  0.50862270  0.37620552  0.26159440  1
  O  O208  1  0.50327991  0.37671486  0.75802092  1
  O  O209  1  0.50949855  0.87855875  0.25789126  1
  O  O210  1  0.50230669  0.87483855  0.75515609  1
  O  O211  1  0.49006383  0.12356596  0.24809575  1
  O  O212  1  0.49272871  0.12147297  0.74114278  1
  O  O213  1  0.49450985  0.62660682  0.24430706  1
  O  O214  1  0.49198771  0.61681677  0.74045842  1
  O  O215  1  1.01255502  0.12595853  0.23399367  1
  O  O216  1  1.00293981  0.13630458  0.73913663  1
  O  O217  1  1.00322921  0.62640426  0.23491772  1
  O  O218  1  0.99940803  0.61606339  0.73827554  1
  O  O219  1  0.36133586  0.24119101  0.00036603  1
  O  O220  1  0.35875885  0.24174720  0.49549237  1
  O  O221  1  0.37030131  0.73182725  0.02402187  1
  O  O222  1  0.36775695  0.75603072  0.50147970  1
  O  O223  1  0.86804743  0.24994232  0.01211742  1
  O  O224  1  0.86674057  0.25993237  0.49445272  1
  O  O225  1  0.86981050  0.76384975  -0.00754310  1
  O  O226  1  0.86681777  0.75966132  0.50455165  1
  O  O227  1  0.13283935  0.24415657  0.49292593  1
  O  O228  1  0.12946352  0.24095719  0.98822003  1
  O  O229  1  0.13356290  0.74177168  0.48522934  1
  O  O230  1  0.11835035  0.73726736  0.98959432  1
  O  O231  1  0.63067601  0.24256219  0.49187823  1
  O  O232  1  0.63407896  0.24476390  0.99282562  1
  O  O233  1  0.64048218  0.74317716  0.49533943  1
  O  O234  1  0.63105917  0.74696060  1.00428961  1
  O  O235  1  0.49881876  0.24768657  0.12792845  1
  O  O236  1  0.49847902  0.24166692  0.62495604  1
  O  O237  1  0.49244072  0.74398254  0.12839010  1
  O  O238  1  0.49912848  0.73576759  0.61565306  1
  O  O239  1  0.99340220  0.24178103  0.12373560  1
  O  O240  1  1.00612717  0.24211687  0.63873748  1
  O  O241  1  0.99774276  0.73696638  0.12817462  1
  O  O242  1  0.99122726  0.73958356  0.62446391  1
  O  O243  1  0.01067778  0.25372129  0.37454021  1
  O  O244  1  0.00236298  0.25259330  0.86857937  1
  O  O245  1  0.00829642  0.75622968  0.37327648  1
  O  O246  1  0.01148844  0.74927838  0.87276249  1
  O  O247  1  0.50753436  0.25816347  0.37409629  1
  O  O248  1  0.50821743  0.24901302  0.87644323  1
  O  O249  1  0.50330517  0.76341421  0.37579426  1
  O  O250  1  0.51545100  0.72793801  0.88991217  1
  O  O251  1  0.24058354  0.13326766  0.49775372  1
  O  O252  1  0.24262137  0.12770056  0.99319053  1
  O  O253  1  0.24544085  0.62821948  0.49545172  1
  O  O254  1  0.23718765  0.61787885  0.99105752  1
  O  O255  1  0.74004016  0.13849347  0.50623492  1
  O  O256  1  0.74908355  0.13758400  1.00277561  1
  O  O257  1  0.74287306  0.63266251  0.50446811  1
  O  O258  1  0.75527397  0.63854309  0.99380368  1
  O  O259  1  0.24029136  0.36549786  0.00814753  1
  O  O260  1  0.24487371  0.35925574  0.49822947  1
  O  O261  1  0.24115921  0.87981101  0.01715612  1
  O  O262  1  0.25435618  0.87037229  0.50488223  1
  O  O263  1  0.74672975  0.36328792  0.00975327  1
  O  O264  1  0.75718425  0.36930506  0.50599248  1
  O  O265  1  0.75597604  0.86652292  0.00327956  1
  O  O266  1  0.75762969  0.86635618  0.50341090  1
  O  O267  1  0.12628268  0.48573228  0.25097187  1
  O  O268  1  0.13036052  0.49780817  0.74206348  1
  O  O269  1  0.13358988  0.98707949  0.25468400  1
  O  O270  1  0.13560359  1.00935279  0.73629674  1
  O  O271  1  0.63083040  0.49456934  0.24039210  1
  O  O272  1  0.63828122  0.49828032  0.74353146  1
  O  O273  1  0.63522447  0.99327274  0.24648903  1
  O  O274  1  0.62243443  0.97791901  0.74804248  1
  O  O275  1  0.36868414  0.00400760  0.25424761  1
  O  O276  1  0.36207279  0.01301059  0.74281602  1
  O  O277  1  0.37621738  0.51044187  0.25852986  1
  O  O278  1  0.36466694  0.51012055  0.75451453  1
  O  O279  1  0.86346484  -0.00448072  0.25640189  1
  O  O280  1  0.87311091  0.00365104  0.75842818  1
  O  O281  1  0.87154783  0.49807022  0.26480536  1
  O  O282  1  0.86360121  0.49655644  0.75695879  1
  O  O283  1  0.11956798  0.36736474  0.36881478  1
  O  O284  1  0.11207211  0.36565007  0.87344174  1
  O  O285  1  0.11833860  0.86843520  0.36992230  1
  O  O286  1  0.12398482  0.85554129  0.87822135  1
  O  O287  1  0.61929453  0.36675820  0.37028323  1
  O  O288  1  0.62462330  0.36141967  0.87693730  1
  O  O289  1  0.62095483  0.87544172  0.36841034  1
  O  O290  1  0.61645694  0.87075579  0.86662299  1
  O  O291  1  0.37399210  0.12632180  0.13732321  1
  O  O292  1  0.38520043  0.12849404  0.62885167  1
  O  O293  1  0.38414612  0.62854915  0.13634898  1
  O  O294  1  0.38548164  0.62339690  0.63130210  1
  O  O295  1  0.88712950  0.13198170  0.12099757  1
  O  O296  1  0.89211177  0.12189770  0.61554242  1
  O  O297  1  0.88734740  0.62168085  0.12419536  1
  O  O298  1  0.88439620  0.63655061  0.61825273  1
  O  O299  1  0.25064192  0.25798497  0.11415422  1
  O  O300  1  0.24787699  0.25113644  0.61014503  1
  O  O301  1  0.26260911  0.75608621  0.13607624  1
  O  O302  1  0.24704380  0.75739448  0.61728241  1
  O  O303  1  0.75631170  0.25683888  0.11964021  1
  O  O304  1  0.74304117  0.26475972  0.61478080  1
  O  O305  1  0.74826170  0.76092903  0.11471402  1
  O  O306  1  0.75921959  0.75658093  0.61645546  1
  O  O307  1  0.23984262  0.24860607  0.38311746  1
  O  O308  1  0.24095474  0.24224983  0.87910311  1
  O  O309  1  0.24538535  0.74378781  0.37904167  1
  O  O310  1  0.23296536  0.73458922  0.86775002  1
  O  O311  1  0.74057824  0.25668077  0.38435660  1
  O  O312  1  0.74620074  0.24837936  0.88307534  1
  O  O313  1  0.75605031  0.74334559  0.37817462  1
  O  O314  1  0.75515722  0.73962171  0.88003840  1
  O  O315  1  0.00695687  0.11773268  0.00590842  1
  O  O316  1  0.01451243  0.13604680  0.51587586  1
  O  O317  1  0.00359066  0.61978694  0.01146176  1
  O  O318  1  0.00853927  0.61720070  0.50833674  1
  O  O319  1  0.50386753  0.11037666  0.00392919  1
  O  O320  1  0.50510105  0.11776571  0.50325282  1
  O  O321  1  0.51557308  0.61799132  0.00901111  1
  O  O322  1  0.50867341  0.61716644  0.50578153  1
  O  O323  1  0.50784663  0.38409122  0.48707600  1
  O  O324  1  0.50350152  0.38947544  1.00389016  1
  O  O325  1  0.49818256  0.88067140  0.49542471  1
  O  O326  1  0.50279271  0.89216673  0.99883151  1
  O  O327  1  0.99261329  0.37811973  0.49634777  1
  O  O328  1  1.00515080  0.38277381  0.99190550  1
  O  O329  1  0.99066449  0.87241273  0.48701402  1
  O  O330  1  0.99306166  0.88105879  0.99777876  1
  O  O331  1  0.49506055  0.49373424  0.38171811  1
  O  O332  1  0.50496080  0.50173518  0.89328403  1
  O  O333  1  0.49615429  0.98984980  0.38330674  1
  O  O334  1  0.49955006  1.00089717  0.88922335  1
  O  O335  1  0.99341113  0.49447014  0.38167128  1
  O  O336  1  0.99343837  0.49210472  0.87997851  1
  O  O337  1  0.99124272  0.99100075  0.36833744  1
  O  O338  1  0.98825193  0.99995348  0.88052915  1
  O  O339  1  -0.00495076  0.00694724  0.11378450  1
  O  O340  1  0.00828973  0.01574282  0.62803685  1
  O  O341  1  0.00133643  0.50696242  0.11905366  1
  O  O342  1  0.00419208  0.50340571  0.62025104  1
  O  O343  1  0.50968792  -0.00057799  0.11547732  1
  O  O344  1  0.49360471  0.00522267  0.61045426  1
  O  O345  1  0.50670355  0.50668081  0.11828112  1
  O  O346  1  0.50643952  0.50733540  0.61679676  1
  O  O347  1  0.24180295  0.37607310  0.24232867  1
  O  O348  1  0.24518507  0.38650837  0.74919952  1
  O  O349  1  0.24180676  0.88005197  0.24534821  1
  O  O350  1  0.25145542  0.88525747  0.73952777  1
  O  O351  1  0.74573408  0.38275692  0.24238964  1
  O  O352  1  0.74967216  0.38242621  0.74088286  1
  O  O353  1  0.74361056  0.88329076  0.23989184  1
  O  O354  1  0.74677854  0.87775821  0.73460569  1
  O  O355  1  0.25364237  0.11567530  0.25036381  1
  O  O356  1  0.25489396  0.11916978  0.75598758  1
  O  O357  1  0.25849428  0.62147661  0.25754754  1
  O  O358  1  0.25319430  0.61204798  0.75572956  1
  O  O359  1  0.74911371  0.11125055  0.24801748  1
  O  O360  1  0.75088476  0.13245230  0.74208127  1
  O  O361  1  0.74770046  0.62055891  0.25054481  1
  O  O362  1  0.74532870  0.61848535  0.75846068  1
  O  O363  1  0.37228067  0.11637557  0.36399700  1
  O  O364  1  0.36105357  0.12690606  0.86700641  1
  O  O365  1  0.37425393  0.61654849  0.37065792  1
  O  O366  1  0.36211017  0.62437955  0.86952248  1
  O  O367  1  0.88496370  0.11380516  0.37819399  1
  O  O368  1  0.87309579  0.11077073  0.87961030  1
  O  O369  1  0.87958137  0.61777129  0.38372036  1
  O  O370  1  0.86885587  0.61266829  0.87699859  1
  O  O371  1  0.13227478  0.37484440  0.13273650  1
  O  O372  1  0.12613381  0.38756368  0.62492573  1
  O  O373  1  0.13139284  0.86251508  0.13777582  1
  O  O374  1  0.13595282  0.88391932  0.62113024  1
  O  O375  1  0.63562965  0.38194933  0.13075035  1
  O  O376  1  0.63422625  0.38492290  0.62258591  1
  O  O377  1  0.63422937  0.88494499  0.13194161  1
  O  O378  1  0.63969328  0.87984531  0.61623272  1
  O  O379  1  0.12588189  0.25834294  0.25853950  1
  O  O380  1  0.12020632  0.24849606  0.76217894  1
  O  O381  1  0.12600122  0.75561265  0.26314953  1
  O  O382  1  0.12366339  0.74390792  0.75739802  1
  O  O383  1  0.62689810  0.25495193  0.25774315  1
  O  O384  1  0.61881308  0.25649276  0.75934944  1
  O  O385  1  0.62455273  0.76478887  0.25170262  1
  O  O386  1  0.62813379  0.77685789  0.73471513  1
  O  O387  1  0.37588262  0.23970687  0.25015523  1
  O  O388  1  0.37366885  0.23604979  0.74569212  1
  O  O389  1  0.37924448  0.73786671  0.24752201  1
  O  O390  1  0.36340719  0.73056376  0.74321225  1
  O  O391  1  0.87570380  0.25341703  0.23458791  1
  O  O392  1  0.88803540  0.25203079  0.75271765  1
  O  O393  1  0.86821165  0.74135094  0.26479004  1
  O  O394  1  0.87043439  0.75412284  0.73845495  1
  O  O395  1  0.38855749  0.50561543  0.49161743  1
  O  O396  1  0.39391592  0.51067188  1.00304374  1
  O  O397  1  0.38144414  0.99525249  0.49266534  1
  O  O398  1  0.38405091  1.00163770  1.00347797  1
  O  O399  1  0.87735142  0.49179009  0.49063664  1
  O  O400  1  0.88747140  0.50168867  0.99155123  1
  O  O401  1  0.87050454  0.98852807  0.48912347  1
  O  O402  1  0.88267115  0.99076729  0.99307643  1
  O  O403  1  0.11077088  0.00692415  -0.00879051  1
  O  O404  1  0.13111356  0.01037185  0.51136570  1
  O  O405  1  0.10996306  0.51111545  -0.00143791  1
  O  O406  1  0.12062521  0.50392549  0.50601390  1
  O  O407  1  0.62998130  0.00040426  0.00880076  1
  O  O408  1  0.61769508  0.01257331  0.49026418  1
  O  O409  1  0.62079164  0.49742970  0.01359410  1
  O  O410  1  0.61911985  0.50657338  0.50306110  1
  O  O411  1  0.36125819  0.37501039  0.13189615  1
  O  O412  1  0.37130459  0.37521145  0.62211404  1
  O  O413  1  0.36847328  0.85946353  0.13261498  1
  O  O414  1  0.36374137  0.87405250  0.61823112  1
  O  O415  1  0.86471581  0.37184580  0.12776080  1
  O  O416  1  0.86767255  0.38094555  0.61276652  1
  O  O417  1  0.86390975  0.88086644  0.11596192  1
  O  O418  1  0.86896553  0.86928109  0.61687686  1
  O  O419  1  0.12488577  0.13139526  0.38322754  1
  O  O420  1  0.13125211  0.12957252  0.88189348  1
  O  O421  1  0.12930682  0.62993352  0.37739412  1
  O  O422  1  0.12533964  0.63186601  0.88139260  1
  O  O423  1  0.61903594  0.13655977  0.38212162  1
  O  O424  1  0.62974963  0.13523730  0.87327455  1
  O  O425  1  0.61966929  0.62664010  0.38720094  1
  O  O426  1  0.63530111  0.62118738  0.88076385  1
