# generated using pymatgen
data_V85Zn86O256
_symmetry_space_group_name_H-M   'P 1'
_cell_length_a   16.97612495
_cell_length_b   16.95539069
_cell_length_c   16.98012056
_cell_angle_alpha   90.05927396
_cell_angle_beta   89.90220135
_cell_angle_gamma   89.88446107
_symmetry_Int_Tables_number   1
_chemical_formula_structural   V85Zn86O256
_chemical_formula_sum   'V85 Zn86 O256'
_cell_volume   4887.48440100
_cell_formula_units_Z   1
loop_
 _symmetry_equiv_pos_site_id
 _symmetry_equiv_pos_as_xyz
  1  'x, y, z'
loop_
 _atom_site_type_symbol
 _atom_site_label
 _atom_site_symmetry_multiplicity
 _atom_site_fract_x
 _atom_site_fract_y
 _atom_site_fract_z
 _atom_site_occupancy
  V  V0  1  0.61781889  0.62927509  -0.00070803  1
  V  V1  1  0.74727186  0.37740050  0.12583685  1
  V  V2  1  0.88669676  0.62896117  0.74764457  1
  V  V3  1  0.74270161  0.12677050  0.36800399  1
  V  V4  1  0.37339016  0.62830609  0.74853076  1
  V  V5  1  0.74805939  -0.00856226  0.23624812  1
  V  V6  1  0.12561447  0.62617039  0.00220319  1
  V  V7  1  0.25703692  0.12454375  0.36840434  1
  V  V8  1  0.37769449  0.24572323  0.62218251  1
  V  V9  1  0.27055218  0.00093266  0.25116064  1
  V  V10  1  -0.00360156  0.50611139  0.50911362  1
  V  V11  1  0.12471821  0.37397893  0.75124730  1
  V  V12  1  0.37427464  0.75544777  0.62450701  1
  V  V13  1  0.62345261  0.37181613  0.24991902  1
  V  V14  1  0.51356882  0.75634856  0.75292142  1
  V  V15  1  0.24670694  0.87642009  0.12373790  1
  V  V16  1  0.13687293  0.11864485  0.00707868  1
  V  V17  1  0.38204007  0.74176580  0.12509095  1
  V  V18  1  0.24827033  0.50218359  0.74890999  1
  V  V19  1  0.87258716  0.49992268  0.87802571  1
  V  V20  1  0.87330850  0.50722471  0.37187715  1
  V  V21  1  0.12798069  0.50028434  0.12747121  1
  V  V22  1  0.00066731  0.37271186  0.87672123  1
  V  V23  1  -0.00926258  0.87834965  0.87945181  1
  V  V24  1  0.50043076  0.12080710  0.14093816  1
  V  V25  1  0.87226130  0.00321238  0.37072312  1
  V  V26  1  0.76052881  0.11522249  0.87541759  1
  V  V27  1  0.49021578  0.50085386  0.49605893  1
  V  V28  1  0.00133159  0.87688733  0.37284804  1
  V  V29  1  0.00217164  0.25100858  0.25208801  1
  V  V30  1  0.61006229  0.50017606  0.12485477  1
  V  V31  1  0.74448328  0.63443018  0.87773787  1
  V  V32  1  0.00543131  0.00450867  0.49429556  1
  V  V33  1  -0.00756635  0.62378414  0.13099745  1
  V  V34  1  0.49769800  0.74813027  0.25885866  1
  V  V35  1  0.74708384  0.75697131  0.50120580  1
  V  V36  1  0.75032145  0.24748443  -0.00086355  1
  V  V37  1  0.62493414  0.62557758  0.49553356  1
  V  V38  1  0.11907976  0.62939498  0.50707425  1
  V  V39  1  0.13297702  0.24703277  0.88224228  1
  V  V40  1  0.87403496  0.37626665  0.50025832  1
  V  V41  1  0.49246037  0.37672175  0.37483635  1
  V  V42  1  0.25232127  0.49921125  0.25961135  1
  V  V43  1  0.00327934  0.12145412  0.12553890  1
  V  V44  1  0.36757942  0.36199916  -0.00450834  1
  V  V45  1  0.61788299  0.24862747  0.37029029  1
  V  V46  1  0.66998707  0.08543270  0.55064805  1
  V  V47  1  0.87049742  0.87785631  0.50403630  1
  V  V48  1  0.87977453  0.10602164  0.75552149  1
  V  V49  1  0.38415212  0.12267708  0.74702443  1
  V  V50  1  0.62596012  0.37309602  0.74959889  1
  V  V51  1  0.24301035  0.25026773  0.49139147  1
  V  V52  1  -0.00830444  -0.00121197  0.00123979  1
  V  V53  1  0.25041986  0.74947143  0.00295928  1
  V  V54  1  0.74934146  0.37305431  0.62496499  1
  V  V55  1  0.74519085  0.25358235  0.50051147  1
  V  V56  1  0.87457152  0.37534720  0.00063004  1
  V  V57  1  0.49251226  0.02029529  0.49788183  1
  V  V58  1  0.38381582  0.87821986  0.48291822  1
  V  V59  1  -0.00721877  0.74633498  0.25045713  1
  V  V60  1  0.87576973  0.25076803  0.12569213  1
  V  V61  1  0.74981255  0.50852844  0.24619782  1
  V  V62  1  0.50275242  0.62576914  0.62386777  1
  V  V63  1  0.25430323  0.00281636  0.75171798  1
  V  V64  1  0.87413454  0.12775286  0.24632414  1
  V  V65  1  0.61663435  0.11673547  -0.00368302  1
  V  V66  1  0.00463287  0.12483714  0.62605885  1
  V  V67  1  0.24682453  0.75376161  0.49816299  1
  V  V68  1  0.61814548  0.87600090  0.24923736  1
  V  V69  1  0.49984866  0.37618747  0.87460394  1
  V  V70  1  0.74817514  0.50294912  0.75091738  1
  V  V71  1  0.62644454  0.25047898  0.87454985  1
  V  V72  1  0.25057448  0.36361229  0.11958584  1
  V  V73  1  0.12693929  0.88247684  0.24878389  1
  V  V74  1  0.12552328  0.37101263  0.25430080  1
  V  V75  1  0.37464286  0.50301305  0.87533193  1
  V  V76  1  0.38782809  0.87732835  -0.00234733  1
  V  V77  1  0.00131173  0.37167336  0.37708036  1
  V  V78  1  0.12213404  0.75311341  0.87558644  1
  V  V79  1  0.24889293  0.37543838  0.62311769  1
  V  V80  1  0.37912154  0.61658119  0.25262126  1
  V  V81  1  0.12661868  0.00231637  0.62366308  1
  V  V82  1  0.00101058  0.49931306  0.00128998  1
  V  V83  1  0.12504321  0.87401426  0.75316418  1
  V  V84  1  -0.00057071  0.24704525  0.75156313  1
  Zn  Zn85  1  0.24875187  0.62724742  0.87489703  1
  Zn  Zn86  1  0.24975510  0.62143573  0.37853551  1
  Zn  Zn87  1  0.62478355  -0.01481241  0.10827524  1
  Zn  Zn88  1  0.37764181  0.00233597  0.88127680  1
  Zn  Zn89  1  0.62173364  0.49688935  0.62335764  1
  Zn  Zn90  1  0.11887424  0.50747065  0.63019517  1
  Zn  Zn91  1  0.75181549  0.62722769  0.37299196  1
  Zn  Zn92  1  0.51815543  0.87611665  0.87051392  1
  Zn  Zn93  1  0.50149930  0.24816049  0.74384928  1
  Zn  Zn94  1  0.25515337  0.12642637  0.88033394  1
  Zn  Zn95  1  0.25143319  0.87933331  0.62191698  1
  Zn  Zn96  1  0.37016546  0.37941269  0.49710869  1
  Zn  Zn97  1  0.62254948  0.75363499  0.37688303  1
  Zn  Zn98  1  0.12311288  0.74816556  0.37372745  1
  Zn  Zn99  1  0.38033093  0.23778261  0.13418593  1
  Zn  Zn100  1  0.87275052  0.24553527  0.62551726  1
  Zn  Zn101  1  0.87954487  0.74191140  0.62811708  1
  Zn  Zn102  1  0.12429540  0.13042780  0.48635184  1
  Zn  Zn103  1  0.86737287  0.77452245  0.12455891  1
  Zn  Zn104  1  0.49273447  0.50136272  0.00636565  1
  Zn  Zn105  1  0.66403608  -0.06682650  0.72997143  1
  Zn  Zn106  1  0.75005643  0.77119506  0.00660184  1
  Zn  Zn107  1  0.18926623  0.18559936  0.19057611  1
  Zn  Zn108  1  0.19126685  0.18687215  0.68775518  1
  Zn  Zn109  1  0.18582879  0.68954956  0.19085493  1
  Zn  Zn110  1  0.18619278  0.69095305  0.68588730  1
  Zn  Zn111  1  0.68346561  0.18450470  0.18333254  1
  Zn  Zn112  1  0.66670794  0.14486400  0.71252444  1
  Zn  Zn113  1  0.67898707  0.68674322  0.18496902  1
  Zn  Zn114  1  0.69621083  0.78973490  0.68362583  1
  Zn  Zn115  1  0.31352502  0.30661802  0.30891075  1
  Zn  Zn116  1  0.31277575  0.31132989  0.80827677  1
  Zn  Zn117  1  0.31028226  0.80742404  0.31096654  1
  Zn  Zn118  1  0.30968001  0.81319936  0.81318252  1
  Zn  Zn119  1  0.81153148  0.31694576  0.31348566  1
  Zn  Zn120  1  0.81393776  0.30979409  0.81062883  1
  Zn  Zn121  1  0.80942971  0.81351982  0.31462906  1
  Zn  Zn122  1  0.80944988  0.81573819  0.81792453  1
  Zn  Zn123  1  0.18098988  0.43893891  0.44024159  1
  Zn  Zn124  1  0.18888553  0.43768830  0.93691333  1
  Zn  Zn125  1  0.19221777  0.93906113  0.43379448  1
  Zn  Zn126  1  0.19091979  0.94048330  0.93933856  1
  Zn  Zn127  1  0.68308368  0.44065942  0.43597129  1
  Zn  Zn128  1  0.68597273  0.44129769  0.94185033  1
  Zn  Zn129  1  0.68080050  0.93722350  0.43141191  1
  Zn  Zn130  1  0.68541066  0.93141678  0.91706051  1
  Zn  Zn131  1  0.31735091  0.05768076  0.07073063  1
  Zn  Zn132  1  0.31337867  0.06336870  0.55858521  1
  Zn  Zn133  1  0.31155716  0.55973344  0.06560922  1
  Zn  Zn134  1  0.31003912  0.56645446  0.56327080  1
  Zn  Zn135  1  0.81309787  -0.05660288  0.05477816  1
  Zn  Zn136  1  0.83877558  0.03777449  0.58296423  1
  Zn  Zn137  1  0.80946486  0.63044186  0.06620515  1
  Zn  Zn138  1  0.80825335  0.56612085  0.56616583  1
  Zn  Zn139  1  0.42414265  0.40977977  0.19821704  1
  Zn  Zn140  1  0.43607407  0.43682280  0.68703652  1
  Zn  Zn141  1  0.44478321  0.93551444  0.17698030  1
  Zn  Zn142  1  0.44416865  0.93961095  0.67807635  1
  Zn  Zn143  1  0.93581928  0.44109853  0.18835755  1
  Zn  Zn144  1  0.93398741  0.43529853  0.68928288  1
  Zn  Zn145  1  0.94459636  0.94262430  0.18980109  1
  Zn  Zn146  1  0.94000169  0.91337982  0.68375453  1
  Zn  Zn147  1  0.07098833  0.06490461  0.31058955  1
  Zn  Zn148  1  0.06596147  0.05952785  0.81835826  1
  Zn  Zn149  1  0.06333833  0.56255857  0.31909106  1
  Zn  Zn150  1  0.06354599  0.56222879  0.81645800  1
  Zn  Zn151  1  0.55845675  0.05255437  0.31843772  1
  Zn  Zn152  1  0.55439410  0.04568340  0.81588488  1
  Zn  Zn153  1  0.55924681  0.56115518  0.31194582  1
  Zn  Zn154  1  0.56198490  0.56541275  0.81077827  1
  Zn  Zn155  1  0.42919444  0.19270216  0.43145008  1
  Zn  Zn156  1  0.43789110  0.18751714  0.93323118  1
  Zn  Zn157  1  0.43178232  0.68596182  0.43505837  1
  Zn  Zn158  1  0.44006699  0.69018528  0.93423652  1
  Zn  Zn159  1  0.93440351  0.18828833  0.43741929  1
  Zn  Zn160  1  0.94136982  0.18504127  0.94082807  1
  Zn  Zn161  1  0.93631804  0.69021263  0.43787319  1
  Zn  Zn162  1  0.93773319  0.68998508  0.93756346  1
  Zn  Zn163  1  0.06573541  0.30916823  0.06324981  1
  Zn  Zn164  1  0.06334685  0.31405502  0.56452698  1
  Zn  Zn165  1  0.05916099  0.81275708  0.06566549  1
  Zn  Zn166  1  0.05664090  0.81563283  0.56687564  1
  Zn  Zn167  1  0.55769412  0.30883711  0.06163040  1
  Zn  Zn168  1  0.56315468  0.30851123  0.55971772  1
  Zn  Zn169  1  0.56457046  0.80686532  0.06949268  1
  Zn  Zn170  1  0.56207068  0.82215258  0.56775414  1
  O  O171  1  0.11906792  0.13376486  0.11335737  1
  O  O172  1  0.12228552  0.11444517  0.62575063  1
  O  O173  1  0.11956966  0.61647857  0.12203227  1
  O  O174  1  0.12453775  0.62588518  0.61382107  1
  O  O175  1  0.62050500  0.12469204  0.10761662  1
  O  O176  1  0.61926571  0.15194472  0.60570276  1
  O  O177  1  0.62391378  0.61165359  0.11040032  1
  O  O178  1  0.60766475  0.62303267  0.61118907  1
  O  O179  1  0.38984282  0.37013260  0.37827565  1
  O  O180  1  0.37877386  0.38069058  0.87758361  1
  O  O181  1  0.37030386  0.87036116  0.38571215  1
  O  O182  1  0.37022564  0.86745107  0.89456540  1
  O  O183  1  0.88075477  0.38442943  0.38225775  1
  O  O184  1  0.88205699  0.37890516  0.87949129  1
  O  O185  1  0.88106544  0.88691292  0.37853358  1
  O  O186  1  0.89282066  0.86688130  0.87998873  1
  O  O187  1  0.25037246  0.00500547  0.35825511  1
  O  O188  1  0.25798282  0.00168835  0.86650045  1
  O  O189  1  0.24426733  0.49770363  0.36284082  1
  O  O190  1  0.25609757  0.50170326  0.86569382  1
  O  O191  1  0.75573745  0.01043431  0.36791647  1
  O  O192  1  0.75952164  0.01792047  0.87783988  1
  O  O193  1  0.75694612  0.49986856  0.36697160  1
  O  O194  1  0.75881738  0.49580882  0.86879825  1
  O  O195  1  0.23755954  0.49409598  0.13148262  1
  O  O196  1  0.24797889  0.49369070  0.63235682  1
  O  O197  1  0.25410458  0.98816509  0.13888496  1
  O  O198  1  0.24181986  1.00028296  0.62996359  1
  O  O199  1  0.73786039  0.48922485  0.13398073  1
  O  O200  1  0.74740648  0.49227253  0.63436790  1
  O  O201  1  0.74573268  1.00554982  0.13527940  1
  O  O202  1  0.73017014  1.03655717  0.61394960  1
  O  O203  1  0.00607486  0.37301202  0.25716138  1
  O  O204  1  0.00590631  0.36719486  0.75508634  1
  O  O205  1  0.00763176  0.87214855  0.25880166  1
  O  O206  1  0.01282672  0.88720972  0.77296940  1
  O  O207  1  0.51819228  0.38539911  0.26211807  1
  O  O208  1  0.50504967  0.37330841  0.75944665  1
  O  O209  1  0.50932649  0.86653864  0.24617914  1
  O  O210  1  0.49242940  0.85735339  0.74304733  1
  O  O211  1  0.51169867  0.12289843  0.23947477  1
  O  O212  1  0.48605065  0.12928441  0.75080797  1
  O  O213  1  0.49018427  0.63060983  0.25052727  1
  O  O214  1  0.49237025  0.63139336  0.74130046  1
  O  O215  1  0.99856075  0.13013253  0.24313509  1
  O  O216  1  0.99834440  0.13015278  0.75036426  1
  O  O217  1  1.01001232  0.63489784  0.24455775  1
  O  O218  1  0.98554899  0.61864655  0.75614634  1
  O  O219  1  0.37657684  0.26028394  0.00255568  1
  O  O220  1  0.36121666  0.25572493  0.50716424  1
  O  O221  1  0.36929056  0.75062535  0.00789677  1
  O  O222  1  0.36487184  0.75479464  0.50448668  1
  O  O223  1  0.86971663  0.25560143  0.00508687  1
  O  O224  1  0.86236666  0.25740979  0.49767834  1
  O  O225  1  0.86434883  0.72444560  0.01331791  1
  O  O226  1  0.87045394  0.76423751  0.49887710  1
  O  O227  1  0.13911980  0.24957103  0.50681082  1
  O  O228  1  0.11951139  0.23544517  0.99195636  1
  O  O229  1  0.12749546  0.74835414  0.50369051  1
  O  O230  1  0.13043528  0.74549489  0.99638565  1
  O  O231  1  0.63839814  0.25962466  0.48588312  1
  O  O232  1  0.63214949  0.24813943  0.99003789  1
  O  O233  1  0.63058155  0.74409685  0.49799672  1
  O  O234  1  0.62722411  0.73188161  1.00616817  1
  O  O235  1  0.50251901  0.22710872  0.11712083  1
  O  O236  1  0.48112091  0.26189139  0.62463570  1
  O  O237  1  0.48587904  0.74955251  0.13509620  1
  O  O238  1  0.49035064  0.74219501  0.63079574  1
  O  O239  1  0.99630829  0.24380828  0.13153228  1
  O  O240  1  1.00155409  0.24272061  0.63391221  1
  O  O241  1  0.99786913  0.73895981  0.13230502  1
  O  O242  1  0.96783439  0.80987680  0.63283058  1
  O  O243  1  -0.00727099  0.26393841  0.36959249  1
  O  O244  1  0.00972438  0.25332440  0.87011899  1
  O  O245  1  0.00014980  0.76041863  0.36934992  1
  O  O246  1  0.01357830  0.76374084  0.88663046  1
  O  O247  1  0.51226977  0.25774874  0.38156289  1
  O  O248  1  0.50876545  0.25969188  0.87259272  1
  O  O249  1  0.49774166  0.74657530  0.36188363  1
  O  O250  1  0.49715984  0.75335174  0.85687842  1
  O  O251  1  0.24971862  0.13283465  0.48851376  1
  O  O252  1  0.24032374  0.11842050  1.00420140  1
  O  O253  1  0.24132019  0.63445362  0.49962759  1
  O  O254  1  0.24207602  0.63080526  1.00063953  1
  O  O255  1  0.74383745  0.13526555  0.48844658  1
  O  O256  1  0.74603095  0.14133484  0.98924478  1
  O  O257  1  0.73899671  0.62741875  0.49645065  1
  O  O258  1  0.73284705  0.60679928  0.98612117  1
  O  O259  1  0.25405940  0.37417168  0.00556256  1
  O  O260  1  0.24829056  0.37179812  0.50679647  1
  O  O261  1  0.25285893  0.86780392  0.00966035  1
  O  O262  1  0.25816501  0.86970635  0.50099570  1
  O  O263  1  0.75420488  0.36702506  0.00562288  1
  O  O264  1  0.75357370  0.37233948  0.50326948  1
  O  O265  1  0.74048292  0.88196386  -0.00205915  1
  O  O266  1  0.75723246  0.86827521  0.48647002  1
  O  O267  1  0.12792296  0.49119966  0.24424423  1
  O  O268  1  0.13026831  0.49418495  0.75040094  1
  O  O269  1  0.12750259  0.98497637  0.24803245  1
  O  O270  1  0.13299428  0.99427486  0.74576446  1
  O  O271  1  0.63115605  0.49450434  0.24359296  1
  O  O272  1  0.63281846  0.49331502  0.74788861  1
  O  O273  1  0.63169777  0.98818601  0.24978615  1
  O  O274  1  0.63117449  1.04066572  0.74022957  1
  O  O275  1  0.36804257  -0.00917094  0.24791301  1
  O  O276  1  0.36916565  0.00623707  0.74244560  1
  O  O277  1  0.36265852  0.50409098  0.24246864  1
  O  O278  1  0.36893970  0.50554635  0.75796109  1
  O  O279  1  0.86847715  0.00627097  0.25705405  1
  O  O280  1  0.88747927  0.00783122  0.74482133  1
  O  O281  1  0.86280447  0.49063265  0.26067901  1
  O  O282  1  0.86978287  0.50094733  0.76135867  1
  O  O283  1  0.11335973  0.38028821  0.36607552  1
  O  O284  1  0.11931540  0.36747011  0.87186004  1
  O  O285  1  0.11669024  0.87472840  0.36895343  1
  O  O286  1  0.12373627  0.87036109  0.87134264  1
  O  O287  1  0.62097360  0.36759619  0.36772277  1
  O  O288  1  0.61758215  0.37087504  0.87153104  1
  O  O289  1  0.62725414  0.86978819  0.35635301  1
  O  O290  1  0.62584120  0.89126837  0.83623785  1
  O  O291  1  0.39384573  0.12236878  0.12373196  1
  O  O292  1  0.36492324  0.13595412  0.63298281  1
  O  O293  1  0.36719976  0.63174008  0.13662273  1
  O  O294  1  0.38211466  0.63548281  0.62664287  1
  O  O295  1  0.88840595  0.13560605  0.13314499  1
  O  O296  1  0.88732744  0.12674368  0.63731468  1
  O  O297  1  0.89556624  0.59807691  0.13208598  1
  O  O298  1  0.87558469  0.62063882  0.64259630  1
  O  O299  1  0.25368173  0.26103172  0.12883538  1
  O  O300  1  0.25510143  0.25848587  0.61953559  1
  O  O301  1  0.25883261  0.75667994  0.12351879  1
  O  O302  1  0.25622139  0.75275253  0.61431310  1
  O  O303  1  0.75442520  0.25557004  0.11733082  1
  O  O304  1  0.75357417  0.25923296  0.61250678  1
  O  O305  1  0.76044526  0.72548971  0.11968027  1
  O  O306  1  0.76237743  0.73990962  0.60419447  1
  O  O307  1  0.25147213  0.24626790  0.38112512  1
  O  O308  1  0.23581665  0.24935869  0.86886883  1
  O  O309  1  0.24439596  0.74897069  0.38770257  1
  O  O310  1  0.23798181  0.74942315  0.88296011  1
  O  O311  1  0.74466389  0.24382667  0.37789078  1
  O  O312  1  0.74343643  0.25401082  0.88321181  1
  O  O313  1  0.74952781  0.74406333  0.38496667  1
  O  O314  1  0.75268179  0.73582707  0.88260356  1
  O  O315  1  0.00952128  0.11727596  0.00676008  1
  O  O316  1  0.00395458  0.12248617  0.50358822  1
  O  O317  1  0.00801498  0.61686780  0.00836279  1
  O  O318  1  0.00400215  0.61767135  0.49864028  1
  O  O319  1  0.51667145  0.12605412  -0.00926911  1
  O  O320  1  0.48477489  0.12031984  0.49996957  1
  O  O321  1  0.51256100  0.61960955  -0.00844702  1
  O  O322  1  0.50077703  0.61988663  0.50385142  1
  O  O323  1  0.49994492  0.38436513  0.49319213  1
  O  O324  1  0.49019216  0.37726643  0.98798324  1
  O  O325  1  0.48259276  0.86183365  0.49527198  1
  O  O326  1  0.48980918  0.86216949  0.99864639  1
  O  O327  1  0.99572064  0.37965855  0.49348169  1
  O  O328  1  0.99608620  0.37953642  0.99713545  1
  O  O329  1  0.99356941  0.88486394  0.48459446  1
  O  O330  1  1.01089326  0.89055682  0.99429367  1
  O  O331  1  0.50488099  0.49018488  0.38529641  1
  O  O332  1  0.48978078  0.49210936  0.87183276  1
  O  O333  1  0.50393602  0.99580560  0.39720328  1
  O  O334  1  0.48822283  0.98709652  0.87666538  1
  O  O335  1  0.99220990  0.49083143  0.38307166  1
  O  O336  1  0.99446386  0.49215453  0.88129162  1
  O  O337  1  0.99390904  0.99651911  0.37182795  1
  O  O338  1  1.00457559  0.99101774  0.89028961  1
  O  O339  1  0.00445939  0.01450675  0.11757961  1
  O  O340  1  0.00938585  0.00545963  0.61689625  1
  O  O341  1  0.01400650  0.49924980  0.12265756  1
  O  O342  1  -0.00094852  0.49131137  0.61185310  1
  O  O343  1  0.50979712  0.01338369  0.12251185  1
  O  O344  1  0.50220129  -0.01057590  0.59618616  1
  O  O345  1  0.50920645  0.48628826  0.12835202  1
  O  O346  1  0.49865415  0.50786195  0.61940558  1
  O  O347  1  0.23958333  0.38257030  0.24299117  1
  O  O348  1  0.24356168  0.38115256  0.74359744  1
  O  O349  1  0.24618675  0.88138217  0.24569814  1
  O  O350  1  0.24409442  0.88676526  0.74819107  1
  O  O351  1  0.73969444  0.38160366  0.24636515  1
  O  O352  1  0.74674721  0.38146337  0.74516251  1
  O  O353  1  0.74180748  0.88342197  0.25190527  1
  O  O354  1  0.76152393  0.86802255  0.73575549  1
  O  O355  1  0.24935582  0.10825593  0.24915734  1
  O  O356  1  0.25431002  0.11332687  0.75242801  1
  O  O357  1  0.25197154  0.61431264  0.25197543  1
  O  O358  1  0.25459961  0.61894476  0.74945519  1
  O  O359  1  0.75465777  0.11964082  0.25287911  1
  O  O360  1  0.76814121  0.13797366  0.76887667  1
  O  O361  1  0.74192273  0.61113370  0.25342437  1
  O  O362  1  0.75772917  0.60771889  0.76287657  1
  O  O363  1  0.35887366  0.13282544  0.36609903  1
  O  O364  1  0.37092810  0.12558149  0.86456803  1
  O  O365  1  0.36774250  0.62699268  0.35845180  1
  O  O366  1  0.37221597  0.61837010  0.86833941  1
  O  O367  1  0.86470396  0.12276767  0.36625598  1
  O  O368  1  0.86825786  0.13167414  0.87130085  1
  O  O369  1  0.87577912  0.61069292  0.37859122  1
  O  O370  1  0.86786933  0.61438839  0.87019507  1
  O  O371  1  0.13156541  0.38084439  0.12971579  1
  O  O372  1  0.13477893  0.37762821  0.63281463  1
  O  O373  1  0.13862891  0.86707339  0.13275993  1
  O  O374  1  0.12667553  0.88711896  0.63513687  1
  O  O375  1  0.62769698  0.37578909  0.13149139  1
  O  O376  1  0.63143390  0.37345567  0.63249196  1
  O  O377  1  0.62523963  0.87291288  0.13978223  1
  O  O378  1  0.63247012  0.87062416  0.63454005  1
  O  O379  1  0.11903090  0.26386821  0.24438833  1
  O  O380  1  0.11619827  0.25199781  0.75687074  1
  O  O381  1  0.11567181  0.76142916  0.25248527  1
  O  O382  1  0.13059556  0.76504779  0.75815257  1
  O  O383  1  0.63310033  0.25921864  0.25864983  1
  O  O384  1  0.62475078  0.25058395  0.76300228  1
  O  O385  1  0.61453338  0.75514403  0.25045157  1
  O  O386  1  0.61046329  0.73734643  0.74465631  1
  O  O387  1  0.38567797  0.30149555  0.22656163  1
  O  O388  1  0.37313843  0.24147800  0.74027133  1
  O  O389  1  0.37895451  0.74238154  0.24328191  1
  O  O390  1  0.37190747  0.74417989  0.74039545  1
  O  O391  1  0.88078634  0.24852741  0.24559542  1
  O  O392  1  0.89131939  0.24713497  0.75050415  1
  O  O393  1  0.88968447  0.75846381  0.24916830  1
  O  O394  1  0.87202144  0.72966862  0.75552539  1
  O  O395  1  0.38562150  0.49983678  0.50416641  1
  O  O396  1  0.37275425  0.49865858  0.98472640  1
  O  O397  1  0.38037007  0.98710693  0.50006383  1
  O  O398  1  0.37202890  0.97945000  1.00396389  1
  O  O399  1  0.87900837  0.49565606  0.49559144  1
  O  O400  1  0.88134145  0.49271674  0.98758847  1
  O  O401  1  0.88482983  1.00627583  0.48019151  1
  O  O402  1  0.89393368  1.01093592  1.00167523  1
  O  O403  1  0.11985215  0.01527580  -0.00120223  1
  O  O404  1  0.12189631  0.00107332  0.50703541  1
  O  O405  1  0.12170176  0.50484969  0.00738373  1
  O  O406  1  0.11363816  0.50973179  0.50371255  1
  O  O407  1  0.63361493  0.01602330  -0.00634399  1
  O  O408  1  0.61827645  0.01413422  0.49464800  1
  O  O409  1  0.61605435  0.50115358  0.00988166  1
  O  O410  1  0.61463628  0.50811994  0.50288405  1
  O  O411  1  0.35937855  0.39340869  0.10245962  1
  O  O412  1  0.36016754  0.37066813  0.62597312  1
  O  O413  1  0.36911434  0.86458376  0.11448473  1
  O  O414  1  0.37232821  0.86287045  0.61721267  1
  O  O415  1  0.86893602  0.37132467  0.11974966  1
  O  O416  1  0.86731177  0.37166123  0.61815984  1
  O  O417  1  0.88372393  0.88456442  0.11970001  1
  O  O418  1  0.85924765  0.91926004  0.59701462  1
  O  O419  1  0.14226822  0.12502314  0.37211605  1
  O  O420  1  0.12926936  0.13036758  0.88845852  1
  O  O421  1  0.12665523  0.62814880  0.39051371  1
  O  O422  1  0.12439444  0.63510512  0.88232267  1
  O  O423  1  0.63565480  0.13360298  0.36487143  1
  O  O424  1  0.63922384  0.13499280  0.88373481  1
  O  O425  1  0.62235283  0.62674202  0.38677081  1
  O  O426  1  0.63261049  0.61563589  0.88595296  1
