# generated using pymatgen
data_V85Zn86O256
_symmetry_space_group_name_H-M   'P 1'
_cell_length_a   16.94555314
_cell_length_b   16.95847839
_cell_length_c   16.95653178
_cell_angle_alpha   89.98071964
_cell_angle_beta   89.99808309
_cell_angle_gamma   89.94013312
_symmetry_Int_Tables_number   1
_chemical_formula_structural   V85Zn86O256
_chemical_formula_sum   'V85 Zn86 O256'
_cell_volume   4872.80910751
_cell_formula_units_Z   1
loop_
 _symmetry_equiv_pos_site_id
 _symmetry_equiv_pos_as_xyz
  1  'x, y, z'
loop_
 _atom_site_type_symbol
 _atom_site_label
 _atom_site_symmetry_multiplicity
 _atom_site_fract_x
 _atom_site_fract_y
 _atom_site_fract_z
 _atom_site_occupancy
  V  V0  1  0.24775289  0.36289787  0.12086373  1
  V  V1  1  0.12417513  0.87406091  0.25102600  1
  V  V2  1  -0.00996019  0.88125738  0.37416483  1
  V  V3  1  0.25135325  0.50536069  0.25047469  1
  V  V4  1  0.00076310  0.37284843  0.87479831  1
  V  V5  1  -0.00051013  0.62431605  0.12714730  1
  V  V6  1  0.12687295  0.50072608  0.12941073  1
  V  V7  1  0.37217115  0.12291026  0.74959158  1
  V  V8  1  0.87350628  0.37214476  0.50281301  1
  V  V9  1  0.51071194  0.74507247  0.25841796  1
  V  V10  1  0.00171091  -0.00104535  0.00095528  1
  V  V11  1  0.25082368  -0.00010265  0.25454661  1
  V  V12  1  -0.00806158  0.24583333  0.25037833  1
  V  V13  1  0.62232575  0.37511068  0.75179805  1
  V  V14  1  0.37627957  -0.01000593  0.38205751  1
  V  V15  1  0.12325423  0.74690718  0.38084254  1
  V  V16  1  0.87381909  0.49905520  0.87933504  1
  V  V17  1  0.62674710  0.64189710  0.49821788  1
  V  V18  1  0.11744698  0.12311536  0.50579731  1
  V  V19  1  0.24685070  0.37825971  0.62754456  1
  V  V20  1  0.24680450  0.24996002  0.50173301  1
  V  V21  1  0.50962697  0.35755561  0.37698689  1
  V  V22  1  0.25119963  0.12494402  0.88274827  1
  V  V23  1  0.87401839  0.87549733  -0.00359340  1
  V  V24  1  0.74880640  0.87600836  0.61741713  1
  V  V25  1  0.74321737  0.63965006  0.37562409  1
  V  V26  1  -0.00961574  0.00122966  0.50581781  1
  V  V27  1  0.75600776  0.12824982  0.86781417  1
  V  V28  1  0.12679460  0.62386387  0.00248462  1
  V  V29  1  0.88697064  0.23995579  0.63905493  1
  V  V30  1  0.63061817  0.11604390  0.00544936  1
  V  V31  1  0.12555567  -0.00069942  0.12586104  1
  V  V32  1  0.37859169  0.50212189  0.37349901  1
  V  V33  1  0.12385078  0.75140864  0.87715725  1
  V  V34  1  0.37553091  0.62837309  0.74741560  1
  V  V35  1  0.51239017  0.87480661  0.87788546  1
  V  V36  1  0.86343633  0.49803229  0.37429931  1
  V  V37  1  -0.00196626  0.75045728  0.24965603  1
  V  V38  1  0.49593791  0.00102266  0.51093891  1
  V  V39  1  0.25043180  0.87313090  0.12536601  1
  V  V40  1  0.37880536  0.23869089  0.11585264  1
  V  V41  1  0.50132450  0.50225808  0.50012362  1
  V  V42  1  0.13151531  0.13703241  0.00904874  1
  V  V43  1  0.75360689  0.26242804  -0.00002252  1
  V  V44  1  -0.00541660  0.37541919  0.37575756  1
  V  V45  1  0.25228301  0.62451146  0.38493860  1
  V  V46  1  0.75053724  0.50083240  0.75148903  1
  V  V47  1  0.37810392  0.87499240  -0.00097511  1
  V  V48  1  0.10658420  0.21755383  0.83631584  1
  V  V49  1  -0.00310607  0.74251526  0.74333058  1
  V  V50  1  0.38188322  0.74835630  0.13494532  1
  V  V51  1  0.86783441  0.62551981  0.24747492  1
  V  V52  1  0.12123379  0.25108838  0.37639440  1
  V  V53  1  0.87941285  0.00388841  0.86361450  1
  V  V54  1  0.49681512  0.37606911  0.87917528  1
  V  V55  1  0.25173249  0.62399579  0.87878604  1
  V  V56  1  0.37378179  0.76540037  0.62212299  1
  V  V57  1  0.13369517  0.86720847  0.73663135  1
  V  V58  1  0.87050753  0.75073962  0.12126267  1
  V  V59  1  0.62647005  0.01159058  0.62737245  1
  V  V60  1  0.37554719  0.24522938  0.62697732  1
  V  V61  1  0.74366772  0.63038430  0.87407801  1
  V  V62  1  0.62507209  0.50175543  0.62377570  1
  V  V63  1  0.75004413  0.37190965  0.62555672  1
  V  V64  1  0.37660891  0.49790501  0.87371712  1
  V  V65  1  0.24838156  0.12517278  0.37774858  1
  V  V66  1  0.61425505  0.61966732  0.00968332  1
  V  V67  1  -0.00291262  0.49582747  0.00216117  1
  V  V68  1  0.51078887  0.75121107  0.75442822  1
  V  V69  1  0.12484207  0.37746971  0.25246757  1
  V  V70  1  0.38239650  0.13296342  0.25611254  1
  V  V71  1  0.49956065  0.62806063  0.62380159  1
  V  V72  1  0.73838648  0.75221356  -0.00330865  1
  V  V73  1  0.77630673  0.00697069  0.25244681  1
  V  V74  1  0.11786131  0.51443045  0.61661635  1
  V  V75  1  0.74040933  0.49133437  0.23468516  1
  V  V76  1  0.37448991  0.37618164  0.50222751  1
  V  V77  1  0.87131365  0.74335637  0.61367283  1
  V  V78  1  0.75881215  0.12921401  0.37580779  1
  V  V79  1  0.62012782  0.89692479  0.24956298  1
  V  V80  1  -0.01064174  0.12322585  0.12754209  1
  V  V81  1  0.87478099  0.26782263  0.11881585  1
  V  V82  1  0.25191088  0.76500205  0.50344877  1
  V  V83  1  0.11983498  0.38224783  0.74980061  1
  V  V84  1  0.50068585  0.24408114  0.75046411  1
  Zn  Zn85  1  0.25283003  0.74575916  0.00557780  1
  Zn  Zn86  1  0.24788739  0.50613581  0.74543754  1
  Zn  Zn87  1  0.52841508  0.46990190  0.05262200  1
  Zn  Zn88  1  0.62369243  0.24967427  0.88074421  1
  Zn  Zn89  1  0.62043700  0.13316279  0.49188749  1
  Zn  Zn90  1  0.63106789  0.87728873  0.75138868  1
  Zn  Zn91  1  0.50770372  0.87221901  0.38357190  1
  Zn  Zn92  1  0.37728951  -0.00104697  0.87500266  1
  Zn  Zn93  1  0.42663398  0.58211516  0.20006825  1
  Zn  Zn94  1  0.86487290  0.87498461  0.49271304  1
  Zn  Zn95  1  0.12789522  -0.00574209  0.62125481  1
  Zn  Zn96  1  0.36536113  0.36531910  -0.00769930  1
  Zn  Zn97  1  -0.00674347  0.51478438  0.50906536  1
  Zn  Zn98  1  0.50652167  -0.00074843  0.00634171  1
  Zn  Zn99  1  0.74168623  0.88841119  0.12149115  1
  Zn  Zn100  1  0.61827002  0.37266268  0.23853423  1
  Zn  Zn101  1  0.87689180  0.62368486  0.74559024  1
  Zn  Zn102  1  0.00081279  0.87149219  0.87277605  1
  Zn  Zn103  1  0.25233834  -0.00625880  0.74622325  1
  Zn  Zn104  1  0.74240137  0.25281047  0.49075356  1
  Zn  Zn105  1  0.75447871  0.00267471  0.74648186  1
  Zn  Zn106  1  0.52255150  0.11422328  0.14556960  1
  Zn  Zn107  1  0.18474072  0.18650823  0.19344309  1
  Zn  Zn108  1  0.18394686  0.18167880  0.68899207  1
  Zn  Zn109  1  0.18987698  0.68570977  0.19340225  1
  Zn  Zn110  1  0.19072045  0.69004044  0.68596809  1
  Zn  Zn111  1  0.69869577  0.18611192  0.19361921  1
  Zn  Zn112  1  0.69058173  0.19194694  0.68583648  1
  Zn  Zn113  1  0.68488911  0.68786744  0.18493961  1
  Zn  Zn114  1  0.69162241  0.68844115  0.68368464  1
  Zn  Zn115  1  0.31515947  0.31518724  0.31205540  1
  Zn  Zn116  1  0.30089277  0.30617010  0.81227031  1
  Zn  Zn117  1  0.31363798  0.81109018  0.31331908  1
  Zn  Zn118  1  0.31608961  0.80836943  0.81602729  1
  Zn  Zn119  1  0.80796560  0.31042087  0.30639949  1
  Zn  Zn120  1  0.81685294  0.31368234  0.81328798  1
  Zn  Zn121  1  0.80580715  0.81898067  0.30619069  1
  Zn  Zn122  1  0.81156376  0.81358950  0.80796889  1
  Zn  Zn123  1  0.18561688  0.43926804  0.44018869  1
  Zn  Zn124  1  0.18708091  0.43894166  0.93801016  1
  Zn  Zn125  1  0.18120771  0.93802771  0.43720974  1
  Zn  Zn126  1  0.19163283  0.93911172  0.93775802  1
  Zn  Zn127  1  0.68391123  0.43744056  0.43710008  1
  Zn  Zn128  1  0.68389408  0.43952648  0.93772981  1
  Zn  Zn129  1  0.68513064  0.94561459  0.43336450  1
  Zn  Zn130  1  0.69322987  0.94057121  0.93235190  1
  Zn  Zn131  1  0.31912194  0.05705954  0.06527708  1
  Zn  Zn132  1  0.30838612  0.05680687  0.56724101  1
  Zn  Zn133  1  0.32755165  0.55090283  0.06673977  1
  Zn  Zn134  1  0.31122319  0.56530526  0.56270127  1
  Zn  Zn135  1  0.81027300  0.06378741  0.06038105  1
  Zn  Zn136  1  0.81147139  0.06579497  0.56219330  1
  Zn  Zn137  1  0.80965063  0.56436943  0.05827583  1
  Zn  Zn138  1  0.80826388  0.56271450  0.55861469  1
  Zn  Zn139  1  0.44934588  0.41184116  0.17832074  1
  Zn  Zn140  1  0.43696484  0.43756846  0.69028069  1
  Zn  Zn141  1  0.44005060  0.94101703  0.19037159  1
  Zn  Zn142  1  0.44304040  0.93922013  0.69158373  1
  Zn  Zn143  1  0.93576222  0.43944849  0.19279496  1
  Zn  Zn144  1  0.93807272  0.43856074  0.68952005  1
  Zn  Zn145  1  0.93598382  0.93369541  0.18255144  1
  Zn  Zn146  1  0.94161367  0.92633522  0.68304225  1
  Zn  Zn147  1  0.05776197  0.06273948  0.31540322  1
  Zn  Zn148  1  0.06803551  0.04926959  0.81596838  1
  Zn  Zn149  1  0.04673700  0.57532247  0.34111026  1
  Zn  Zn150  1  0.06288561  0.56253193  0.81185840  1
  Zn  Zn151  1  0.56319469  0.06575735  0.32593091  1
  Zn  Zn152  1  0.56570359  0.06247297  0.81792317  1
  Zn  Zn153  1  0.56786199  0.55913209  0.31638620  1
  Zn  Zn154  1  0.56364830  0.56442985  0.81560807  1
  Zn  Zn155  1  0.43482530  0.18080042  0.44566334  1
  Zn  Zn156  1  0.44184106  0.18607438  0.93904128  1
  Zn  Zn157  1  0.43505005  0.68900167  0.43711610  1
  Zn  Zn158  1  0.43685699  0.69272955  0.93729764  1
  Zn  Zn159  1  0.92851842  0.18590554  0.44170663  1
  Zn  Zn160  1  0.93978649  0.18644252  0.94039150  1
  Zn  Zn161  1  0.93400639  0.68708820  0.43539878  1
  Zn  Zn162  1  0.93549248  0.68467843  0.93538878  1
  Zn  Zn163  1  0.06094441  0.31506556  0.06412688  1
  Zn  Zn164  1  0.06013976  0.31828494  0.56324208  1
  Zn  Zn165  1  0.06149245  0.81133530  0.06119456  1
  Zn  Zn166  1  0.05647387  0.80685716  0.55760718  1
  Zn  Zn167  1  0.58432267  0.28732257  0.09906991  1
  Zn  Zn168  1  0.56011482  0.31055317  0.56286425  1
  Zn  Zn169  1  0.56258196  0.81327553  0.07013484  1
  Zn  Zn170  1  0.56025443  0.82157925  0.56707867  1
  O  O171  1  0.11930733  0.11743822  0.12468155  1
  O  O172  1  0.12503992  0.12807142  0.60699542  1
  O  O173  1  0.11975466  0.62034754  0.12353808  1
  O  O174  1  0.12973182  0.61253715  0.62725440  1
  O  O175  1  0.63358330  0.12448502  0.10954529  1
  O  O176  1  0.63297106  0.11342463  0.62616235  1
  O  O177  1  0.62429245  0.62616108  0.10915652  1
  O  O178  1  0.62130567  0.62034289  0.61780080  1
  O  O179  1  0.37448987  0.38511834  0.38633934  1
  O  O180  1  0.37512658  0.37992048  0.86674345  1
  O  O181  1  0.37375813  0.88863043  0.37317648  1
  O  O182  1  0.38307589  0.87257889  0.88473401  1
  O  O183  1  0.87416402  0.37824146  0.38128351  1
  O  O184  1  0.89126678  0.38271750  0.87235567  1
  O  O185  1  0.88617660  0.86596973  0.37513108  1
  O  O186  1  0.87549752  0.88090406  0.88445202  1
  O  O187  1  0.25371458  0.00771772  0.37555115  1
  O  O188  1  0.25277060  0.00970651  0.86831200  1
  O  O189  1  0.25412747  0.50616061  0.37243418  1
  O  O190  1  0.25094157  0.51206222  0.86783283  1
  O  O191  1  0.75156573  0.00693685  0.35921353  1
  O  O192  1  0.76263725  0.00900431  0.87003230  1
  O  O193  1  0.75571354  0.50114421  0.36764001  1
  O  O194  1  0.75728825  0.50399745  0.87183146  1
  O  O195  1  0.24821949  0.49283122  0.13542408  1
  O  O196  1  0.24073852  0.49439764  0.62370165  1
  O  O197  1  0.24768623  0.98782318  0.13282687  1
  O  O198  1  0.24018415  1.00176642  0.63326720  1
  O  O199  1  0.75208140  0.50493888  0.13677494  1
  O  O200  1  0.74692297  0.49161653  0.63085929  1
  O  O201  1  0.76172491  1.00293256  0.14372234  1
  O  O202  1  0.74484529  0.99543223  0.62736350  1
  O  O203  1  0.00363521  0.36316609  0.25377618  1
  O  O204  1  0.00886390  0.38092901  0.76021259  1
  O  O205  1  0.00411277  0.86980030  0.25480883  1
  O  O206  1  0.01150518  0.85912099  0.75266168  1
  O  O207  1  0.49011303  0.37330480  0.27798926  1
  O  O208  1  0.50237376  0.36542853  0.75580731  1
  O  O209  1  0.50979994  0.86934477  0.25248536  1
  O  O210  1  0.50261489  0.86740156  0.76048134  1
  O  O211  1  0.48568652  0.12257480  0.25825471  1
  O  O212  1  0.49247375  0.13843714  0.75965162  1
  O  O213  1  0.50445410  0.63738299  0.25799178  1
  O  O214  1  0.49469970  0.63267879  0.74623733  1
  O  O215  1  1.00603838  0.13798210  0.24328938  1
  O  O216  1  1.07359289  0.14874510  0.76301116  1
  O  O217  1  0.98884309  0.63154388  0.24864037  1
  O  O218  1  0.99867781  0.63803174  0.75460113  1
  O  O219  1  0.36812063  0.24262218  0.01136268  1
  O  O220  1  0.36741108  0.25371966  0.51024958  1
  O  O221  1  0.37509725  0.75945865  0.01307066  1
  O  O222  1  0.36264042  0.74852165  0.50740626  1
  O  O223  1  0.86917118  0.25022623  0.00824080  1
  O  O224  1  0.86922687  0.26383401  0.50639074  1
  O  O225  1  0.86895471  0.75661897  0.00289310  1
  O  O226  1  0.87814788  0.75184143  0.51008841  1
  O  O227  1  0.12632638  0.24671435  0.49418837  1
  O  O228  1  0.12518242  0.23672523  1.01062703  1
  O  O229  1  0.13668330  0.75261953  0.49167330  1
  O  O230  1  0.12693806  0.74202975  0.99418884  1
  O  O231  1  0.63276583  0.24403509  0.51710499  1
  O  O232  1  0.64158301  0.24333133  1.00369728  1
  O  O233  1  0.61780967  0.74047255  0.50676433  1
  O  O234  1  0.63517435  0.74553521  1.00422638  1
  O  O235  1  0.47981365  0.22673627  0.11850041  1
  O  O236  1  0.48289015  0.25940237  0.63569098  1
  O  O237  1  0.48877352  0.75225428  0.13927836  1
  O  O238  1  0.49160383  0.74589194  0.63114590  1
  O  O239  1  0.99234542  0.24512915  0.12993275  1
  O  O240  1  0.98509978  0.25626274  0.61963461  1
  O  O241  1  0.99248222  0.74414733  0.12974337  1
  O  O242  1  0.98503542  0.75104475  0.62949138  1
  O  O243  1  -0.00370822  0.25831740  0.36874008  1
  O  O244  1  0.01502212  0.25735364  0.88257566  1
  O  O245  1  0.00796401  0.75842205  0.36893355  1
  O  O246  1  0.00869676  0.74901220  0.87006421  1
  O  O247  1  0.49491382  0.25992545  0.38818200  1
  O  O248  1  0.50055284  0.25860575  0.86731050  1
  O  O249  1  0.49064272  0.75613366  0.36154494  1
  O  O250  1  0.49556860  0.75910360  0.86405441  1
  O  O251  1  0.24191232  0.12960407  0.49120506  1
  O  O252  1  0.24322415  0.11589841  0.99484945  1
  O  O253  1  0.25024972  0.63062445  0.48785293  1
  O  O254  1  0.24618576  0.62294907  0.99431275  1
  O  O255  1  0.75077228  0.12595861  0.48660168  1
  O  O256  1  0.74579232  0.13179037  0.99068017  1
  O  O257  1  0.74155498  0.62251836  0.48471794  1
  O  O258  1  0.74147616  0.63315408  0.99301062  1
  O  O259  1  0.24892533  0.37966754  0.01405049  1
  O  O260  1  0.25229906  0.37055268  0.51049281  1
  O  O261  1  0.25679585  0.87059458  0.00955571  1
  O  O262  1  0.24879454  0.86334771  0.49509643  1
  O  O263  1  0.74710651  0.36168097  -0.00470183  1
  O  O264  1  0.75539286  0.37720109  0.50898559  1
  O  O265  1  0.75558369  0.86916400  0.00082460  1
  O  O266  1  0.74848204  0.88340105  0.51091909  1
  O  O267  1  0.13059824  0.49466650  0.24706540  1
  O  O268  1  0.12632250  0.49639625  0.73922468  1
  O  O269  1  0.12996748  0.99429741  0.24621264  1
  O  O270  1  0.12266843  0.97412818  0.74962284  1
  O  O271  1  0.63682192  0.49507244  0.25179397  1
  O  O272  1  0.62986633  0.49544873  0.74410048  1
  O  O273  1  0.61494862  0.99647677  0.24466179  1
  O  O274  1  0.62607265  0.99954204  0.74175430  1
  O  O275  1  0.36639057  0.00864394  0.26207411  1
  O  O276  1  0.37863149  0.01352952  0.75244539  1
  O  O277  1  0.36699629  0.49677951  0.26180168  1
  O  O278  1  0.37209550  0.51404659  0.75299555  1
  O  O279  1  0.87472691  -0.00316402  0.25519049  1
  O  O280  1  0.88404594  -0.00645824  0.76125389  1
  O  O281  1  0.86163974  0.50596534  0.25438681  1
  O  O282  1  0.87008457  0.50274180  0.76108666  1
  O  O283  1  0.11364589  0.37176536  0.37342750  1
  O  O284  1  0.11499128  0.38375245  0.86556793  1
  O  O285  1  0.11816311  0.86505908  0.36898144  1
  O  O286  1  0.12732544  0.85953647  0.87496137  1
  O  O287  1  0.61229009  0.37277779  0.37449823  1
  O  O288  1  0.61485375  0.37369805  0.86872884  1
  O  O289  1  0.62462911  0.88101663  0.35651304  1
  O  O290  1  0.61651156  0.87645879  0.87443611  1
  O  O291  1  0.35330031  0.13531955  0.14106429  1
  O  O292  1  0.36848337  0.13629584  0.63457253  1
  O  O293  1  0.35998822  0.64755361  0.12710026  1
  O  O294  1  0.38015577  0.63119042  0.63211457  1
  O  O295  1  0.88847341  0.13231618  0.11788522  1
  O  O296  1  0.87164748  0.14138775  0.62408416  1
  O  O297  1  0.87964562  0.63060716  0.12791242  1
  O  O298  1  0.86690142  0.63772720  0.62460000  1
  O  O299  1  0.24896045  0.25965082  0.13266175  1
  O  O300  1  0.25574652  0.25813160  0.62160793  1
  O  O301  1  0.25546836  0.76177480  0.13048246  1
  O  O302  1  0.25687495  0.74612729  0.61021854  1
  O  O303  1  0.76899365  0.24624841  0.11256758  1
  O  O304  1  0.76119107  0.26563055  0.62975193  1
  O  O305  1  0.75750396  0.75057710  0.11556169  1
  O  O306  1  0.76293236  0.75832643  0.62674377  1
  O  O307  1  0.24434102  0.24507347  0.38201498  1
  O  O308  1  0.22337354  0.23184283  0.86547641  1
  O  O309  1  0.24818842  0.74472156  0.38392935  1
  O  O310  1  0.24522039  0.73773212  0.87989443  1
  O  O311  1  0.75338291  0.23702979  0.37185644  1
  O  O312  1  0.75426800  0.24627572  0.88620801  1
  O  O313  1  0.75240358  0.73755533  0.36873118  1
  O  O314  1  0.75634898  0.74191683  0.88364119  1
  O  O315  1  0.01052441  0.11901192  0.01045073  1
  O  O316  1  0.00363773  0.11003766  0.49073900  1
  O  O317  1  0.00523424  0.61477603  0.00514957  1
  O  O318  1  0.00813748  0.60701454  0.44815133  1
  O  O319  1  0.52455920  0.12509164  -0.00911244  1
  O  O320  1  0.50303959  0.10785646  0.49787477  1
  O  O321  1  0.51569212  0.63218038  -0.00707933  1
  O  O322  1  0.50587842  0.62173578  0.50404219  1
  O  O323  1  0.49396824  0.38231048  0.49398985  1
  O  O324  1  0.48754266  0.37591253  0.98187860  1
  O  O325  1  0.50189577  0.89269767  0.49890484  1
  O  O326  1  0.49563562  0.87311222  0.99551242  1
  O  O327  1  0.99039566  0.38177476  0.48980539  1
  O  O328  1  1.00787484  0.38944394  0.99364654  1
  O  O329  1  0.99936324  0.88479030  0.49012140  1
  O  O330  1  0.99141715  0.87947725  0.99844352  1
  O  O331  1  0.49270068  0.49774354  0.38329392  1
  O  O332  1  0.48855092  0.49000933  0.86192789  1
  O  O333  1  0.49010636  0.99700947  0.38605847  1
  O  O334  1  0.49790204  0.98960632  0.88186137  1
  O  O335  1  0.97933962  0.48074943  0.35546902  1
  O  O336  1  0.99400812  0.49709257  0.88290278  1
  O  O337  1  1.00552932  0.98875891  0.38496282  1
  O  O338  1  0.99589296  0.99453724  0.88334701  1
  O  O339  1  0.00430878  0.00710042  0.12244630  1
  O  O340  1  0.00704228  -0.00828317  0.60945487  1
  O  O341  1  0.00330456  0.50470040  0.12072743  1
  O  O342  1  0.01165414  0.50175863  0.62445346  1
  O  O343  1  0.47830819  0.01465687  0.11656609  1
  O  O344  1  0.50807668  -0.00105765  0.61832689  1
  O  O345  1  0.43884282  0.50931648  0.11393470  1
  O  O346  1  0.50361774  0.50744936  0.62067479  1
  O  O347  1  0.24385503  0.38495876  0.24725627  1
  O  O348  1  0.24655211  0.38197666  0.73828221  1
  O  O349  1  0.24465516  0.87984503  0.24558339  1
  O  O350  1  0.23637128  0.86697976  0.75541377  1
  O  O351  1  0.74796094  0.38833653  0.24665375  1
  O  O352  1  0.74408309  0.38168506  0.74632230  1
  O  O353  1  0.74075634  0.89308038  0.24816076  1
  O  O354  1  0.74995079  0.87952293  0.73758959  1
  O  O355  1  0.24957168  0.12000072  0.26557619  1
  O  O356  1  0.25814743  0.12303816  0.75889342  1
  O  O357  1  0.24982906  0.61137350  0.25926660  1
  O  O358  1  0.25958161  0.62854135  0.75779693  1
  O  O359  1  0.75576879  0.11362126  0.25746750  1
  O  O360  1  0.75002920  0.12813352  0.76441339  1
  O  O361  1  0.74822159  0.61789738  0.25854321  1
  O  O362  1  0.74998314  0.61827556  0.75695838  1
  O  O363  1  0.36443573  0.12121170  0.37179626  1
  O  O364  1  0.36608789  0.12691198  0.87076234  1
  O  O365  1  0.36801827  0.61163500  0.37919683  1
  O  O366  1  0.36959236  0.62135374  0.86857913  1
  O  O367  1  0.86109982  0.12334252  0.37564699  1
  O  O368  1  0.87175193  0.11488968  0.88119559  1
  O  O369  1  0.85866975  0.61655154  0.36822934  1
  O  O370  1  0.86350864  0.61636362  0.87378453  1
  O  O371  1  0.13074606  0.38071773  0.13213667  1
  O  O372  1  0.13031787  0.38583023  0.62901412  1
  O  O373  1  0.13178405  0.87803881  0.12969677  1
  O  O374  1  0.12434244  0.86379222  0.63546449  1
  O  O375  1  0.55992864  0.39327727  0.13226978  1
  O  O376  1  0.63178505  0.38225235  0.63211890  1
  O  O377  1  0.62804467  0.87149870  0.14324033  1
  O  O378  1  0.63345288  0.88535848  0.62878213  1
  O  O379  1  0.11591572  0.25744940  0.25820218  1
  O  O380  1  0.13603011  0.27621653  0.74409494  1
  O  O381  1  0.11915012  0.75668530  0.25534086  1
  O  O382  1  0.12083512  0.75315066  0.75633374  1
  O  O383  1  0.62322374  0.26390169  0.20664512  1
  O  O384  1  0.61550651  0.25672408  0.75008032  1
  O  O385  1  0.61180572  0.75306960  0.24857870  1
  O  O386  1  0.61326529  0.75056882  0.74323316  1
  O  O387  1  0.36702358  0.24002106  0.24277065  1
  O  O388  1  0.37661460  0.24132518  0.74600430  1
  O  O389  1  0.38485661  0.75615985  0.24109764  1
  O  O390  1  0.38101967  0.74103237  0.74365004  1
  O  O391  1  0.88148677  0.25501792  0.23290308  1
  O  O392  1  0.87903856  0.25495043  0.73872855  1
  O  O393  1  0.87557552  0.74661498  0.24054730  1
  O  O394  1  0.88251138  0.74795338  0.74048770  1
  O  O395  1  0.38086421  0.49569118  0.49668948  1
  O  O396  1  0.36517965  0.49428297  0.97534867  1
  O  O397  1  0.38455086  1.00674209  0.49598493  1
  O  O398  1  0.37272105  0.98348286  0.99656625  1
  O  O399  1  0.87385229  0.49132266  0.49090866  1
  O  O400  1  0.88194149  0.50454488  0.98856357  1
  O  O401  1  0.88775398  0.99690276  0.50386418  1
  O  O402  1  0.88084514  0.99184387  0.99419841  1
  O  O403  1  0.12005099  0.00120734  0.01004137  1
  O  O404  1  0.11514495  0.00825592  0.49889259  1
  O  O405  1  0.11835107  0.50644596  0.00880422  1
  O  O406  1  0.12099896  0.49749050  0.51391325  1
  O  O407  1  0.63155615  0.01207993  -0.00107941  1
  O  O408  1  0.61453885  0.00444936  0.50975567  1
  O  O409  1  0.62036898  0.51240651  -0.00109619  1
  O  O410  1  0.61808897  0.50665706  0.50635295  1
  O  O411  1  0.36605846  0.35062469  0.12314860  1
  O  O412  1  0.36534241  0.37151495  0.62207068  1
  O  O413  1  0.36829548  0.86645480  0.12221736  1
  O  O414  1  0.37711024  0.86389583  0.63368998  1
  O  O415  1  0.88366006  0.36609626  0.11957328  1
  O  O416  1  0.86789341  0.37724400  0.61816275  1
  O  O417  1  0.87210546  0.86851054  0.11137228  1
  O  O418  1  0.86765509  0.86377578  0.61969514  1
  O  O419  1  0.12938668  0.13227187  0.38187224  1
  O  O420  1  0.13057499  0.11884030  0.89495662  1
  O  O421  1  0.13921625  0.64242620  0.36235979  1
  O  O422  1  0.13220356  0.63268021  0.87945672  1
  O  O423  1  0.64426854  0.12054256  0.37693368  1
  O  O424  1  0.63882547  0.12967313  0.88342997  1
  O  O425  1  0.63595886  0.62385283  0.38328161  1
  O  O426  1  0.63844285  0.62094350  0.88276148  1
