# generated using pymatgen
data_V85Zn86O256
_symmetry_space_group_name_H-M   'P 1'
_cell_length_a   16.90347454
_cell_length_b   16.90022981
_cell_length_c   16.90139602
_cell_angle_alpha   90.04474360
_cell_angle_beta   90.02624065
_cell_angle_gamma   90.00132815
_symmetry_Int_Tables_number   1
_chemical_formula_structural   V85Zn86O256
_chemical_formula_sum   'V85 Zn86 O256'
_cell_volume   4828.26383890
_cell_formula_units_Z   1
loop_
 _symmetry_equiv_pos_site_id
 _symmetry_equiv_pos_as_xyz
  1  'x, y, z'
loop_
 _atom_site_type_symbol
 _atom_site_label
 _atom_site_symmetry_multiplicity
 _atom_site_fract_x
 _atom_site_fract_y
 _atom_site_fract_z
 _atom_site_occupancy
  V  V0  1  0.64139931  0.87477237  0.74774258  1
  V  V1  1  0.24341643  0.74889992  -0.00696025  1
  V  V2  1  0.87420918  0.87547360  0.50838267  1
  V  V3  1  0.37905182  0.12404094  0.74732783  1
  V  V4  1  0.87248604  0.49806383  0.37094368  1
  V  V5  1  0.75319418  0.12025083  0.86108411  1
  V  V6  1  0.62936903  0.25044467  0.87513445  1
  V  V7  1  0.12358884  0.50201591  0.12100189  1
  V  V8  1  0.50495134  0.62552622  0.11896052  1
  V  V9  1  0.86741001  0.24129547  0.61732068  1
  V  V10  1  0.13518552  0.49510496  0.62672573  1
  V  V11  1  0.37603100  0.87081236  0.50699041  1
  V  V12  1  0.50166751  0.00436608  0.50902278  1
  V  V13  1  0.62337438  0.13241590  0.50738763  1
  V  V14  1  0.37519824  0.37528068  0.50586880  1
  V  V15  1  -0.00273338  0.62279881  0.62506288  1
  V  V16  1  0.62573491  -0.00339576  0.13036350  1
  V  V17  1  -0.00305546  0.63062801  0.12180006  1
  V  V18  1  0.50260560  -0.00440157  -0.00343853  1
  V  V19  1  0.49925948  0.37174358  0.36335201  1
  V  V20  1  0.13576535  0.37380109  0.74602471  1
  V  V21  1  0.87186949  0.00124123  0.86817171  1
  V  V22  1  0.64128139  0.37521481  0.24302204  1
  V  V23  1  0.75082926  0.12798690  0.38046002  1
  V  V24  1  0.50085445  0.50051723  0.49919194  1
  V  V25  1  0.63722179  0.49975670  0.12520035  1
  V  V26  1  0.24740578  0.12655421  0.37842708  1
  V  V27  1  0.38031226  0.13364649  0.24954744  1
  V  V28  1  -0.00081236  0.49452664  0.49926573  1
  V  V29  1  0.62739018  0.75560781  0.36999684  1
  V  V30  1  0.75100434  0.86458463  0.12703006  1
  V  V31  1  0.24132873  0.61984061  0.86841921  1
  V  V32  1  0.24808600  0.62653429  0.37354427  1
  V  V33  1  0.50438414  0.24617163  0.74498498  1
  V  V34  1  0.49483712  0.63436668  0.62364532  1
  V  V35  1  0.86926907  0.86696817  0.00559933  1
  V  V36  1  0.24675721  0.00142777  0.24626608  1
  V  V37  1  0.24676455  0.25482432  0.50523077  1
  V  V38  1  0.25128127  0.25061042  0.00090278  1
  V  V39  1  0.75380306  0.38073604  0.62398983  1
  V  V40  1  0.37481190  0.49916322  0.37392490  1
  V  V41  1  0.87293040  0.25502122  0.12563917  1
  V  V42  1  0.62850267  0.50273517  0.63340488  1
  V  V43  1  0.63968502  -0.00262914  0.62745546  1
  V  V44  1  0.87958309  -0.00827534  0.37444126  1
  V  V45  1  0.37286782  0.62330182  0.74809447  1
  V  V46  1  0.12068678  0.87806752  0.25077372  1
  V  V47  1  0.38169868  -0.00797297  0.87263656  1
  V  V48  1  0.62464071  0.25075250  0.37229527  1
  V  V49  1  0.87225275  0.49921538  0.86734079  1
  V  V50  1  0.50616495  0.50394267  -0.00282901  1
  V  V51  1  0.25002554  0.74991823  0.50569878  1
  V  V52  1  0.00301567  -0.00524675  0.49806762  1
  V  V53  1  0.74794552  -0.00435880  0.25117210  1
  V  V54  1  0.50321575  0.87734222  0.37058093  1
  V  V55  1  0.74921924  0.61983713  0.37091564  1
  V  V56  1  0.88116031  0.12905011  0.25204272  1
  V  V57  1  0.87170546  0.62524377  0.24326188  1
  V  V58  1  0.62511219  0.62536927  0.49838741  1
  V  V59  1  0.37659481  0.24838480  0.62546532  1
  V  V60  1  0.37528392  0.00015806  0.37730316  1
  V  V61  1  0.11882402  0.75220625  0.37563768  1
  V  V62  1  -0.01164225  0.24619781  0.75126561  1
  V  V63  1  0.74025031  0.62068936  0.87865193  1
  V  V64  1  0.25096615  -0.00076583  0.75072732  1
  V  V65  1  0.11851101  0.36854388  0.25031033  1
  V  V66  1  -0.00645526  0.75429506  0.25067946  1
  V  V67  1  0.12608041  0.11669259  0.00427234  1
  V  V68  1  0.12552907  -0.00059171  0.62721007  1
  V  V69  1  0.37682883  0.37546742  -0.00086068  1
  V  V70  1  0.00175628  0.87057158  0.88040564  1
  V  V71  1  0.12240370  0.24847988  0.87593941  1
  V  V72  1  0.63069937  0.12286749  0.00030813  1
  V  V73  1  0.24771964  0.87815888  0.12260089  1
  V  V74  1  -0.00160039  0.74706398  0.75361314  1
  V  V75  1  0.37522886  0.62544330  0.24801889  1
  V  V76  1  0.24869287  0.50079194  0.24720017  1
  V  V77  1  0.62694891  0.75486993  0.88595012  1
  V  V78  1  0.50275123  0.37518256  0.87358418  1
  V  V79  1  0.00509320  0.12356045  0.13001215  1
  V  V80  1  0.49659281  0.75986514  0.75312642  1
  V  V81  1  0.37395145  0.75075640  0.12319544  1
  V  V82  1  0.50035569  0.75372172  0.24995633  1
  V  V83  1  0.12554239  0.86948733  0.75551969  1
  V  V84  1  0.74989478  0.75427430  0.50619536  1
  Zn  Zn85  1  0.11887913  0.62884292  -0.00726117  1
  Zn  Zn86  1  0.87048230  0.75175196  0.62862179  1
  Zn  Zn87  1  -0.00019019  -0.00152876  0.00490795  1
  Zn  Zn88  1  0.38232034  0.25485596  0.12844764  1
  Zn  Zn89  1  0.37240771  0.49928462  0.86890678  1
  Zn  Zn90  1  0.11885704  0.24796938  0.37505746  1
  Zn  Zn91  1  -0.00712655  0.36384937  0.37101773  1
  Zn  Zn92  1  0.37789847  0.87259406  -0.00456972  1
  Zn  Zn93  1  0.86815595  0.36913627  0.49532481  1
  Zn  Zn94  1  0.24940388  0.37639310  0.12336453  1
  Zn  Zn95  1  -0.00415184  0.49898786  -0.00151914  1
  Zn  Zn96  1  0.12394032  0.62308707  0.49986280  1
  Zn  Zn97  1  0.12166860  0.12730077  0.50453792  1
  Zn  Zn98  1  0.25316446  0.12391381  0.87623930  1
  Zn  Zn99  1  0.50554008  0.12980750  0.12899088  1
  Zn  Zn100  1  0.74904353  0.25505112  0.00632615  1
  Zn  Zn101  1  0.86906286  0.38130199  0.00511352  1
  Zn  Zn102  1  0.62931648  0.37985600  0.75065210  1
  Zn  Zn103  1  -0.00575079  0.11894641  0.63205340  1
  Zn  Zn104  1  0.25385368  0.86982471  0.62897972  1
  Zn  Zn105  1  -0.00364572  0.37501458  0.87838495  1
  Zn  Zn106  1  0.86378058  0.62147665  0.74532303  1
  Zn  Zn107  1  0.19247081  0.18857339  0.18390244  1
  Zn  Zn108  1  0.18943718  0.18727685  0.68857159  1
  Zn  Zn109  1  0.18423517  0.68992803  0.18456272  1
  Zn  Zn110  1  0.18245528  0.68502941  0.68785660  1
  Zn  Zn111  1  0.68945325  0.18577060  0.19200719  1
  Zn  Zn112  1  0.68921993  0.18758328  0.68515176  1
  Zn  Zn113  1  0.68487910  0.68488812  0.18871284  1
  Zn  Zn114  1  0.68499205  0.68701502  0.69176627  1
  Zn  Zn115  1  0.30544485  0.31456744  0.31580677  1
  Zn  Zn116  1  0.31324684  0.31055480  0.81582725  1
  Zn  Zn117  1  0.31176471  0.81383005  0.31524420  1
  Zn  Zn118  1  0.31294186  0.80757014  0.81227000  1
  Zn  Zn119  1  0.81195442  0.30854593  0.31220880  1
  Zn  Zn120  1  0.80743431  0.31650020  0.80958647  1
  Zn  Zn121  1  0.81231980  0.81327791  0.31495155  1
  Zn  Zn122  1  0.81341968  0.80807315  0.81858017  1
  Zn  Zn123  1  0.18684599  0.43653324  0.43759357  1
  Zn  Zn124  1  0.18551586  0.43733174  0.93497472  1
  Zn  Zn125  1  0.18718621  0.93550736  0.43609727  1
  Zn  Zn126  1  0.19078789  0.93715078  0.93463150  1
  Zn  Zn127  1  0.68844586  0.43555656  0.44052060  1
  Zn  Zn128  1  0.69296354  0.43632187  0.94160866  1
  Zn  Zn129  1  0.68829051  0.93893054  0.43995399  1
  Zn  Zn130  1  0.68987633  0.93365409  0.93621238  1
  Zn  Zn131  1  0.31385693  0.06231638  0.06228629  1
  Zn  Zn132  1  0.31251094  0.06347628  0.56567585  1
  Zn  Zn133  1  0.31370617  0.56317721  0.05665380  1
  Zn  Zn134  1  0.31336270  0.56550263  0.56235671  1
  Zn  Zn135  1  0.81525071  0.05924866  0.06068615  1
  Zn  Zn136  1  0.81262153  0.06375349  0.56099337  1
  Zn  Zn137  1  0.81223010  0.56999148  0.05262921  1
  Zn  Zn138  1  0.81255646  0.56263061  0.55891164  1
  Zn  Zn139  1  0.43939587  0.43906197  0.18293546  1
  Zn  Zn140  1  0.44078627  0.43977607  0.68689918  1
  Zn  Zn141  1  0.43501591  0.94238750  0.18604843  1
  Zn  Zn142  1  0.44208275  0.93817734  0.68562018  1
  Zn  Zn143  1  0.93775176  0.44174692  0.18789036  1
  Zn  Zn144  1  0.93993886  0.43201551  0.68971173  1
  Zn  Zn145  1  0.93739602  0.94143268  0.18489864  1
  Zn  Zn146  1  0.93789560  0.93510142  0.68917839  1
  Zn  Zn147  1  0.06312654  0.06234281  0.31435400  1
  Zn  Zn148  1  0.05946793  0.06084376  0.81606091  1
  Zn  Zn149  1  0.05967904  0.56142254  0.31107062  1
  Zn  Zn150  1  0.05944636  0.55769651  0.80960859  1
  Zn  Zn151  1  0.56404124  0.06122643  0.31609317  1
  Zn  Zn152  1  0.56537345  0.06066951  0.81066152  1
  Zn  Zn153  1  0.56376592  0.56050534  0.30774591  1
  Zn  Zn154  1  0.56001870  0.56957321  0.81307271  1
  Zn  Zn155  1  0.44009950  0.18892039  0.43608520  1
  Zn  Zn156  1  0.44220192  0.18377813  0.93751667  1
  Zn  Zn157  1  0.43612800  0.68932125  0.43676155  1
  Zn  Zn158  1  0.43515938  0.68881089  0.93307310  1
  Zn  Zn159  1  0.94295708  0.18211186  0.43927182  1
  Zn  Zn160  1  0.93729853  0.18519519  0.94154087  1
  Zn  Zn161  1  0.93694499  0.68573095  0.43750352  1
  Zn  Zn162  1  0.93084381  0.68510545  0.93492560  1
  Zn  Zn163  1  0.05474128  0.31142729  0.06348033  1
  Zn  Zn164  1  0.05727664  0.31190362  0.56542664  1
  Zn  Zn165  1  0.06237982  0.81283655  0.06555053  1
  Zn  Zn166  1  0.06134656  0.81368967  0.56537208  1
  Zn  Zn167  1  0.56235614  0.31017517  0.06518765  1
  Zn  Zn168  1  0.56289544  0.31515782  0.56115845  1
  Zn  Zn169  1  0.56345220  0.81778573  0.06622215  1
  Zn  Zn170  1  0.56512294  0.81495541  0.56314251  1
  O  O171  1  0.11881610  0.13210043  0.11696172  1
  O  O172  1  0.12680496  0.11004807  0.62627501  1
  O  O173  1  0.11582867  0.61817504  0.12421095  1
  O  O174  1  0.11317973  0.61496046  0.62459575  1
  O  O175  1  0.62906390  0.11468446  0.11869067  1
  O  O176  1  0.62867550  0.11799928  0.61508574  1
  O  O177  1  0.61146674  0.61792800  0.13157562  1
  O  O178  1  0.61862802  0.62040862  0.61800461  1
  O  O179  1  0.38152225  0.37730344  0.38248605  1
  O  O180  1  0.38168102  0.37746535  0.88254268  1
  O  O181  1  0.38139062  0.88107231  0.38437744  1
  O  O182  1  0.37237718  0.88767433  0.87428119  1
  O  O183  1  0.87320053  0.38287577  0.37459441  1
  O  O184  1  0.87134877  0.38893378  0.87176546  1
  O  O185  1  0.87289871  0.88724241  0.38341117  1
  O  O186  1  0.87859513  0.88152931  0.88522734  1
  O  O187  1  0.25595063  0.00708263  0.37102944  1
  O  O188  1  0.26036805  0.00315983  0.86789817  1
  O  O189  1  0.25558423  0.50584425  0.36898311  1
  O  O190  1  0.25228071  0.51537395  0.87872746  1
  O  O191  1  0.75581317  0.00509015  0.36926206  1
  O  O192  1  0.76266273  0.00460228  0.87827349  1
  O  O193  1  0.75586823  0.51081600  0.37951119  1
  O  O194  1  0.75393035  0.51157099  0.87420568  1
  O  O195  1  0.24216004  0.50211377  0.12886174  1
  O  O196  1  0.23449868  0.50468685  0.61887540  1
  O  O197  1  0.25454615  0.99132540  0.13381436  1
  O  O198  1  0.24426553  0.99510210  0.63204016  1
  O  O199  1  0.73566188  0.51433255  0.11961452  1
  O  O200  1  0.74027526  0.49680484  0.62023055  1
  O  O201  1  0.74518017  0.99568701  0.13411110  1
  O  O202  1  0.73934788  0.99879688  0.62006644  1
  O  O203  1  0.01537877  0.38080016  0.25056738  1
  O  O204  1  0.00864162  0.35898064  0.75377757  1
  O  O205  1  0.00817607  0.86829494  0.24248839  1
  O  O206  1  0.00615128  0.86795037  0.75862037  1
  O  O207  1  0.50042466  0.37870575  0.26117167  1
  O  O208  1  0.50051336  0.36399242  0.75632994  1
  O  O209  1  0.49233333  0.87289009  0.26295268  1
  O  O210  1  0.50267685  0.86260881  0.74641311  1
  O  O211  1  0.48254038  0.11885585  0.25592767  1
  O  O212  1  0.49572141  0.13792890  0.75319843  1
  O  O213  1  0.49337109  0.63167373  0.24333755  1
  O  O214  1  0.49397431  0.63489724  0.74122575  1
  O  O215  1  0.99224857  0.12036051  0.24558214  1
  O  O216  1  1.00720468  0.14128289  0.74984776  1
  O  O217  1  0.99166134  0.63323227  0.24496224  1
  O  O218  1  0.99975898  0.63290136  0.74323534  1
  O  O219  1  0.36809804  0.25664325  -0.00550166  1
  O  O220  1  0.37251562  0.25531291  0.50673892  1
  O  O221  1  0.36624408  0.75217461  0.00535435  1
  O  O222  1  0.36394345  0.75944473  0.49221831  1
  O  O223  1  0.87296486  0.24594631  0.01610637  1
  O  O224  1  0.87884179  0.24880208  0.51462771  1
  O  O225  1  0.87717045  0.76774502  -0.00382578  1
  O  O226  1  0.86799602  0.75826802  0.49789514  1
  O  O227  1  0.13423690  0.24838161  0.50569343  1
  O  O228  1  0.13113725  0.24658767  0.99314260  1
  O  O229  1  0.12923929  0.75101113  0.49123331  1
  O  O230  1  0.13913447  0.74827482  1.00655967  1
  O  O231  1  0.62000358  0.23982022  0.49310439  1
  O  O232  1  0.62638681  0.24062314  0.99151883  1
  O  O233  1  0.63010984  0.74595932  0.49006821  1
  O  O234  1  0.61738580  0.75871152  0.98453547  1
  O  O235  1  0.49434692  0.24184950  0.12059967  1
  O  O236  1  0.48909555  0.25483758  0.63184192  1
  O  O237  1  0.49627247  0.74564481  0.12940617  1
  O  O238  1  0.50615884  0.73989383  0.63027043  1
  O  O239  1  0.98717200  0.23557740  0.12514293  1
  O  O240  1  0.98773149  0.24674645  0.63505447  1
  O  O241  1  1.00426707  0.73921298  0.13562717  1
  O  O242  1  0.99857679  0.74047828  0.63158443  1
  O  O243  1  0.00580756  0.25112367  0.38014147  1
  O  O244  1  0.00404321  0.24941703  0.86748850  1
  O  O245  1  0.01151667  0.74541668  0.36873523  1
  O  O246  1  -0.00426203  0.76090850  0.86895022  1
  O  O247  1  0.51282391  0.25818198  0.37697683  1
  O  O248  1  0.51197259  0.25311538  0.86898766  1
  O  O249  1  0.50675888  0.75773241  0.37167560  1
  O  O250  1  0.51303888  0.74293695  0.86414379  1
  O  O251  1  0.25232867  0.13492039  0.49407084  1
  O  O252  1  0.24498259  0.13292113  0.99984877  1
  O  O253  1  0.24813609  0.63301247  0.49159300  1
  O  O254  1  0.24827999  0.63173004  0.98756484  1
  O  O255  1  0.74044024  0.11915734  0.48728518  1
  O  O256  1  0.73979411  0.12430319  0.99311549  1
  O  O257  1  0.74646181  0.63309814  0.48823074  1
  O  O258  1  0.75340843  0.63491906  0.97881579  1
  O  O259  1  0.25831109  0.36929611  -0.00194837  1
  O  O260  1  0.26000217  0.36338821  0.49361679  1
  O  O261  1  0.25172629  0.86926504  0.00668432  1
  O  O262  1  0.25844390  0.86778379  0.49967848  1
  O  O263  1  0.75545245  0.36839061  0.00223295  1
  O  O264  1  0.75050317  0.37506668  0.51452298  1
  O  O265  1  0.76106850  0.87811697  0.01014111  1
  O  O266  1  0.75920274  0.86570953  0.49401993  1
  O  O267  1  0.12962262  0.49558395  0.23974703  1
  O  O268  1  0.11923904  0.48240644  0.74326701  1
  O  O269  1  0.13769771  0.99292131  0.25611513  1
  O  O270  1  0.12854635  0.99129720  0.74653661  1
  O  O271  1  0.62057846  0.48555545  0.24117412  1
  O  O272  1  0.61606243  0.50165826  0.73639172  1
  O  O273  1  0.63488328  1.00557168  0.24358129  1
  O  O274  1  0.61955410  0.98425069  0.74293215  1
  O  O275  1  0.36401949  0.00731707  0.25776438  1
  O  O276  1  0.37510446  0.00584468  0.75311854  1
  O  O277  1  0.36908941  0.50469100  0.25322809  1
  O  O278  1  0.38133955  0.51593313  0.74942521  1
  O  O279  1  0.87040579  0.00749953  0.25824422  1
  O  O280  1  0.87904432  -0.00712641  0.76837273  1
  O  O281  1  0.87957776  0.51065078  0.26159821  1
  O  O282  1  0.87934211  0.50205410  0.76120292  1
  O  O283  1  0.12555192  0.37740525  0.35912498  1
  O  O284  1  0.12270038  0.36445629  0.86687434  1
  O  O285  1  0.12998062  0.86666722  0.36061341  1
  O  O286  1  0.11563440  0.87966038  0.86746564  1
  O  O287  1  0.62031371  0.37091802  0.36599851  1
  O  O288  1  0.62199964  0.36636158  0.87219229  1
  O  O289  1  0.61589540  0.86791720  0.38023202  1
  O  O290  1  0.62841731  0.86593356  0.86290770  1
  O  O291  1  0.37336271  0.12326638  0.14248842  1
  O  O292  1  0.37634366  0.13131934  0.63767768  1
  O  O293  1  0.38365871  0.62992778  0.12873841  1
  O  O294  1  0.38428713  0.62445073  0.63004697  1
  O  O295  1  0.88140668  0.12719029  0.13507192  1
  O  O296  1  0.87288806  0.13665182  0.62683578  1
  O  O297  1  0.87959696  0.62147658  0.13576454  1
  O  O298  1  0.88500162  0.62577210  0.62588933  1
  O  O299  1  0.25727317  0.25390403  0.11175076  1
  O  O300  1  0.26500188  0.24630159  0.61877051  1
  O  O301  1  0.25662691  0.75584838  0.11969367  1
  O  O302  1  0.24177282  0.74965631  0.60998458  1
  O  O303  1  0.76801306  0.23892431  0.12696332  1
  O  O304  1  0.76337017  0.25545725  0.62784373  1
  O  O305  1  0.74263928  0.76508671  0.13349300  1
  O  O306  1  0.74937827  0.74185498  0.60981467  1
  O  O307  1  0.24484499  0.24264631  0.38501916  1
  O  O308  1  0.24214026  0.24674889  0.88445718  1
  O  O309  1  0.23943832  0.74666250  0.38084880  1
  O  O310  1  0.25308738  0.73794619  0.88302188  1
  O  O311  1  0.73800737  0.24131543  0.37280576  1
  O  O312  1  0.74070085  0.24195802  0.87306528  1
  O  O313  1  0.74241305  0.74479737  0.38084194  1
  O  O314  1  0.73355015  0.74532886  0.87398887  1
  O  O315  1  0.01040265  0.12356314  0.00791786  1
  O  O316  1  0.00203871  0.10864530  0.50886391  1
  O  O317  1  0.00016914  0.62661412  0.00784335  1
  O  O318  1  0.00102273  0.61441742  0.50667269  1
  O  O319  1  0.51444741  0.11436699  -0.00051823  1
  O  O320  1  0.50990031  0.11523916  0.49251165  1
  O  O321  1  0.49369237  0.61749134  0.00779490  1
  O  O322  1  0.50322090  0.62286464  0.50514495  1
  O  O323  1  0.49353958  0.38047039  0.48920132  1
  O  O324  1  0.49481061  0.38060514  0.99287889  1
  O  O325  1  0.49427828  0.87944535  0.49178156  1
  O  O326  1  0.49614606  0.89060258  1.00693213  1
  O  O327  1  0.99505232  0.38592363  0.49952989  1
  O  O328  1  0.98990516  0.37797224  0.99732876  1
  O  O329  1  0.99269857  0.88526642  0.50242870  1
  O  O330  1  0.99409629  0.87598732  0.99672741  1
  O  O331  1  0.49392175  0.49488429  0.37936972  1
  O  O332  1  0.50102929  0.49519696  0.88106352  1
  O  O333  1  0.49739482  0.99277562  0.38418935  1
  O  O334  1  0.49399802  1.00361250  0.88265986  1
  O  O335  1  0.99205253  0.49834489  0.38255325  1
  O  O336  1  0.98693024  0.49923799  0.87621365  1
  O  O337  1  0.99162423  1.00353011  0.38428244  1
  O  O338  1  0.99124721  0.98902733  0.87889798  1
  O  O339  1  -0.00109910  0.01567129  0.12291875  1
  O  O340  1  0.00793618  -0.00090138  0.62166266  1
  O  O341  1  0.00566694  0.51310373  0.12469996  1
  O  O342  1  0.00389126  0.50413531  0.61848612  1
  O  O343  1  0.50876666  0.00611715  0.12116727  1
  O  O344  1  0.50949057  -0.00300458  0.61250380  1
  O  O345  1  0.50571678  0.50869204  0.11731737  1
  O  O346  1  0.50695083  0.50979137  0.61667627  1
  O  O347  1  0.24307846  0.38546646  0.24658062  1
  O  O348  1  0.23535260  0.36829377  0.75303350  1
  O  O349  1  0.24586945  0.88218534  0.24423640  1
  O  O350  1  0.24242691  0.87760910  0.75018488  1
  O  O351  1  0.73943579  0.37736624  0.25090364  1
  O  O352  1  0.74436372  0.37249770  0.73206615  1
  O  O353  1  0.75848313  0.88798845  0.24482083  1
  O  O354  1  0.74004028  0.86890360  0.74844565  1
  O  O355  1  0.25497295  0.11904344  0.25723786  1
  O  O356  1  0.25987808  0.11799519  0.75222030  1
  O  O357  1  0.25418402  0.62051105  0.25298990  1
  O  O358  1  0.25564992  0.63251290  0.76017456  1
  O  O359  1  0.75699428  0.11486062  0.26154445  1
  O  O360  1  0.74496519  0.12258230  0.76172938  1
  O  O361  1  0.75852613  0.63216353  0.26045686  1
  O  O362  1  0.75066076  0.63390725  0.76646085  1
  O  O363  1  0.36581314  0.12252546  0.36841098  1
  O  O364  1  0.37667931  0.11794756  0.86280588  1
  O  O365  1  0.36944095  0.62011097  0.36811695  1
  O  O366  1  0.36533567  0.62247090  0.86562926  1
  O  O367  1  0.86778953  0.11680274  0.37224249  1
  O  O368  1  0.86910202  0.11082471  0.88090250  1
  O  O369  1  0.86747034  0.61986750  0.36742615  1
  O  O370  1  0.86559645  0.61600201  0.86924887  1
  O  O371  1  0.12488520  0.38259879  0.13296774  1
  O  O372  1  0.12204210  0.37847590  0.63763568  1
  O  O373  1  0.13794586  0.87001755  0.13711289  1
  O  O374  1  0.12662313  0.88411202  0.63495416  1
  O  O375  1  0.62240872  0.38154001  0.13682685  1
  O  O376  1  0.62932880  0.38661130  0.62369494  1
  O  O377  1  0.63390668  0.88879612  0.12378205  1
  O  O378  1  0.62414391  0.88108605  0.63707582  1
  O  O379  1  0.13486015  0.26623432  0.24870398  1
  O  O380  1  0.12002766  0.25610539  0.75540944  1
  O  O381  1  0.11636221  0.75651171  0.25613271  1
  O  O382  1  0.11463487  0.76148278  0.74534307  1
  O  O383  1  0.62776550  0.26328653  0.25608132  1
  O  O384  1  0.61831781  0.25041078  0.75496073  1
  O  O385  1  0.61733027  0.74785832  0.26297901  1
  O  O386  1  0.61768174  0.76192906  0.75292769  1
  O  O387  1  0.36612430  0.23666328  0.25217748  1
  O  O388  1  0.38055942  0.24434293  0.74480729  1
  O  O389  1  0.37977236  0.74588818  0.24513781  1
  O  O390  1  0.38517246  0.73964504  0.75349061  1
  O  O391  1  0.87170232  0.23612593  0.24445003  1
  O  O392  1  0.88486617  0.25283651  0.74477778  1
  O  O393  1  0.88716794  0.74390463  0.25903208  1
  O  O394  1  0.88656966  0.75078038  0.74776256  1
  O  O395  1  0.37843843  0.49287149  0.49453251  1
  O  O396  1  0.38623845  0.49208353  0.99714435  1
  O  O397  1  0.38251606  0.99599214  0.49626685  1
  O  O398  1  0.38368888  1.00318391  0.99004801  1
  O  O399  1  0.88125218  0.49980244  0.48749654  1
  O  O400  1  0.87538217  0.50215101  0.98476292  1
  O  O401  1  0.88082622  0.99383665  0.49501759  1
  O  O402  1  0.87852449  0.98911441  0.99176715  1
  O  O403  1  0.12686575  0.01377726  -0.00513193  1
  O  O404  1  0.11971685  -0.00348231  0.50828657  1
  O  O405  1  0.12299196  0.50162971  0.01121612  1
  O  O406  1  0.11684332  0.49858939  0.50666131  1
  O  O407  1  0.62156568  0.00351157  0.00543978  1
  O  O408  1  0.61954547  0.00647154  0.50677739  1
  O  O409  1  0.61234157  0.49414185  0.00826116  1
  O  O410  1  0.61843968  0.50824632  0.50384240  1
  O  O411  1  0.37361288  0.37596491  0.11108626  1
  O  O412  1  0.38053659  0.37063715  0.61222486  1
  O  O413  1  0.36404820  0.86995116  0.12474788  1
  O  O414  1  0.37487100  0.87788543  0.61138767  1
  O  O415  1  0.88057379  0.35802113  0.13353724  1
  O  O416  1  0.86934809  0.36595911  0.62293301  1
  O  O417  1  0.86788019  0.87955678  0.11423250  1
  O  O418  1  0.87642067  0.87292702  0.61303012  1
  O  O419  1  0.13781769  0.12386531  0.37995789  1
  O  O420  1  0.12597645  0.13563818  0.88203433  1
  O  O421  1  0.13072493  0.63249855  0.37445327  1
  O  O422  1  0.13652744  0.62147711  0.87188948  1
  O  O423  1  0.63067772  0.13283153  0.37969193  1
  O  O424  1  0.63243673  0.12896805  0.88051126  1
  O  O425  1  0.63081554  0.63049680  0.37733707  1
  O  O426  1  0.63200723  0.63652937  0.87277044  1
