# generated using pymatgen
data_V85Zn86O256
_symmetry_space_group_name_H-M   'P 1'
_cell_length_a   16.96401688
_cell_length_b   16.95928801
_cell_length_c   16.97123638
_cell_angle_alpha   89.96800990
_cell_angle_beta   90.01808496
_cell_angle_gamma   90.01215592
_symmetry_Int_Tables_number   1
_chemical_formula_structural   V85Zn86O256
_chemical_formula_sum   'V85 Zn86 O256'
_cell_volume   4882.58367872
_cell_formula_units_Z   1
loop_
 _symmetry_equiv_pos_site_id
 _symmetry_equiv_pos_as_xyz
  1  'x, y, z'
loop_
 _atom_site_type_symbol
 _atom_site_label
 _atom_site_symmetry_multiplicity
 _atom_site_fract_x
 _atom_site_fract_y
 _atom_site_fract_z
 _atom_site_occupancy
  V  V0  1  0.49857472  0.74870686  0.73114708  1
  V  V1  1  0.13755313  0.24554969  0.87720092  1
  V  V2  1  0.76512615  0.25444223  0.50767864  1
  V  V3  1  0.24798548  0.62354070  0.37449446  1
  V  V4  1  0.11795914  0.10879141  0.49787926  1
  V  V5  1  0.75113371  0.37583884  0.12745357  1
  V  V6  1  0.62244278  0.61960146  -0.00335929  1
  V  V7  1  0.25041821  0.49847396  0.25032931  1
  V  V8  1  0.87658858  0.37644801  0.00222751  1
  V  V9  1  0.62630409  0.37425744  0.74728567  1
  V  V10  1  0.87482478  0.62324365  0.25282763  1
  V  V11  1  0.87031155  0.75252890  0.12443478  1
  V  V12  1  0.25050469  0.37186768  0.12146220  1
  V  V13  1  0.62012159  0.49977093  0.12485893  1
  V  V14  1  0.76262827  0.12350907  0.37181877  1
  V  V15  1  -0.00131952  0.62461092  0.12358729  1
  V  V16  1  0.86597115  0.00464766  0.87439259  1
  V  V17  1  0.76229661  -0.00104683  0.24533955  1
  V  V18  1  0.26030233  0.37294621  0.61509465  1
  V  V19  1  0.37935309  0.62418983  0.73333049  1
  V  V20  1  0.61986620  0.62256998  0.50326204  1
  V  V21  1  0.12785766  0.62695079  -0.00046036  1
  V  V22  1  0.61457900  -0.00661275  0.61587044  1
  V  V23  1  0.62367999  0.11972115  0.49988065  1
  V  V24  1  0.14096926  0.12763132  -0.00313023  1
  V  V25  1  0.49771978  0.62441085  0.12155789  1
  V  V26  1  0.37663347  0.49948890  0.37774998  1
  V  V27  1  0.12837446  0.87909949  0.75209942  1
  V  V28  1  -0.00491828  0.49805648  0.50117373  1
  V  V29  1  -0.01093040  0.75262585  0.74966410  1
  V  V30  1  0.38177002  0.87047887  0.49976481  1
  V  V31  1  -0.00153090  0.37359013  0.37855783  1
  V  V32  1  0.00065805  0.37077991  0.87416291  1
  V  V33  1  0.61295070  0.75705310  0.87246037  1
  V  V34  1  0.37150304  0.25045577  0.12618891  1
  V  V35  1  0.74634093  -0.00465456  0.74324630  1
  V  V36  1  -0.00177159  0.75715234  0.25162116  1
  V  V37  1  0.25675211  0.62553739  0.87679987  1
  V  V38  1  0.24661812  0.11734110  0.37361168  1
  V  V39  1  0.13047892  0.37360834  0.74974412  1
  V  V40  1  0.62955583  0.50042812  0.62943108  1
  V  V41  1  0.75518696  0.74980165  0.50788735  1
  V  V42  1  0.62415359  0.25282944  0.87906906  1
  V  V43  1  0.87482423  0.49813981  0.37705511  1
  V  V44  1  0.87558184  0.24432956  0.12661946  1
  V  V45  1  0.00126904  0.50076003  -0.00026867  1
  V  V46  1  0.37471057  0.12224614  0.25228581  1
  V  V47  1  0.38408663  -0.00339350  0.37722002  1
  V  V48  1  0.13307570  0.87337711  0.23949127  1
  V  V49  1  0.12296513  0.49872569  0.62772232  1
  V  V50  1  0.62138996  0.12807765  0.00690452  1
  V  V51  1  0.38296451  0.38751579  0.00455055  1
  V  V52  1  -0.00893820  0.12221799  0.62328431  1
  V  V53  1  0.49821079  0.37344545  0.38286766  1
  V  V54  1  0.50205703  0.75055726  0.25044466  1
  V  V55  1  -0.00213180  0.24541020  0.24995456  1
  V  V56  1  0.50511689  0.39111631  0.88560776  1
  V  V57  1  0.25351945  0.86936781  0.62858979  1
  V  V58  1  -0.00085441  0.00294434  -0.00217375  1
  V  V59  1  0.76386664  0.37457349  0.62723693  1
  V  V60  1  0.39827324  0.88732256  -0.01263990  1
  V  V61  1  0.12679594  0.37269170  0.25025758  1
  V  V62  1  0.12540427  0.49984959  0.12549854  1
  V  V63  1  0.62627971  0.74722243  0.37543901  1
  V  V64  1  0.25069646  0.76662854  0.00247677  1
  V  V65  1  0.86944458  0.50270463  0.86867734  1
  V  V66  1  0.74718438  0.75048129  -0.00002716  1
  V  V67  1  0.62666001  0.37639932  0.25236598  1
  V  V68  1  0.26771549  0.01606684  0.75444674  1
  V  V69  1  0.88580437  -0.01270355  0.37978753  1
  V  V70  1  0.49664915  0.49901219  0.51150274  1
  V  V71  1  0.74249195  0.12558496  0.87144084  1
  V  V72  1  0.86133450  0.87847469  0.00417067  1
  V  V73  1  0.12614047  0.75131915  0.87517959  1
  V  V74  1  0.50056249  0.24735852  0.25364959  1
  V  V75  1  0.62251234  -0.00060251  0.12844829  1
  V  V76  1  0.37304605  0.76221886  0.12526849  1
  V  V77  1  -0.00214580  0.87836184  0.87566786  1
  V  V78  1  0.25530914  0.74601847  0.50583876  1
  V  V79  1  0.12397088  0.75761488  0.37743641  1
  V  V80  1  -0.00758623  0.62798904  0.62749141  1
  V  V81  1  0.63139790  0.24843936  0.37718505  1
  V  V82  1  0.00234309  0.12391474  0.12252145  1
  V  V83  1  0.63208805  0.87439985  0.24656844  1
  V  V84  1  0.12510605  0.24620507  0.38218738  1
  Zn  Zn85  1  0.12290248  -0.00183005  0.62443626  1
  Zn  Zn86  1  0.29185482  0.22707236  0.52612580  1
  Zn  Zn87  1  -0.00541656  0.24986138  0.74248493  1
  Zn  Zn88  1  0.86465600  0.62757113  0.74500469  1
  Zn  Zn89  1  0.90361843  0.88353674  0.51559493  1
  Zn  Zn90  1  0.50620063  0.87757602  0.37975754  1
  Zn  Zn91  1  0.13151533  -0.00603157  0.11550008  1
  Zn  Zn92  1  0.25299167  0.50005870  0.75263161  1
  Zn  Zn93  1  0.75278886  0.25039087  0.00142181  1
  Zn  Zn94  1  0.47578687  0.25917004  0.76884339  1
  Zn  Zn95  1  0.25615769  -0.00853186  0.24235352  1
  Zn  Zn96  1  0.37927126  0.50388169  0.87954824  1
  Zn  Zn97  1  0.86271533  0.13618552  0.73675576  1
  Zn  Zn98  1  0.12527746  0.62449163  0.50378108  1
  Zn  Zn99  1  0.74397077  0.62324606  0.86761559  1
  Zn  Zn100  1  0.37451571  0.62786182  0.24717450  1
  Zn  Zn101  1  0.75939924  0.86935800  0.62823354  1
  Zn  Zn102  1  0.49777316  0.12075847  0.12674490  1
  Zn  Zn103  1  0.57002912  0.92012917  0.78451288  1
  Zn  Zn104  1  0.74918294  0.50157793  0.25240317  1
  Zn  Zn105  1  0.42279833  0.18273056  0.65647652  1
  Zn  Zn106  1  0.75128286  0.62248040  0.37824324  1
  Zn  Zn107  1  0.18760075  0.18386987  0.18844379  1
  Zn  Zn108  1  0.17884020  0.19101787  0.68227825  1
  Zn  Zn109  1  0.18940089  0.68915136  0.18617592  1
  Zn  Zn110  1  0.18537251  0.68674664  0.69135067  1
  Zn  Zn111  1  0.69255999  0.18477875  0.19203357  1
  Zn  Zn112  1  0.59460984  0.17580885  0.69022264  1
  Zn  Zn113  1  0.68975947  0.68639822  0.18554743  1
  Zn  Zn114  1  0.68485266  0.68416728  0.68999949  1
  Zn  Zn115  1  0.32915286  0.29401043  0.34739663  1
  Zn  Zn116  1  0.31655976  0.19215711  0.81085240  1
  Zn  Zn117  1  0.31307438  0.81010225  0.31477255  1
  Zn  Zn118  1  0.32033595  0.81063462  0.81330200  1
  Zn  Zn119  1  0.81561661  0.31364271  0.31242487  1
  Zn  Zn120  1  0.81034509  0.31227056  0.80894107  1
  Zn  Zn121  1  0.81055026  0.81181647  0.31697094  1
  Zn  Zn122  1  0.80566588  0.81538020  0.81946460  1
  Zn  Zn123  1  0.18165373  0.43806114  0.43876438  1
  Zn  Zn124  1  0.19180503  0.43578524  0.93799463  1
  Zn  Zn125  1  0.19261334  0.93256624  0.43372517  1
  Zn  Zn126  1  0.19087102  0.94489666  0.93167154  1
  Zn  Zn127  1  0.68999799  0.43667578  0.44155158  1
  Zn  Zn128  1  0.68978605  0.43792945  0.94180744  1
  Zn  Zn129  1  0.69578596  0.93330157  0.43496917  1
  Zn  Zn130  1  0.62065404  0.96389554  0.92311569  1
  Zn  Zn131  1  0.31399478  0.05586870  0.06416419  1
  Zn  Zn132  1  0.30673323  0.05105346  0.55979990  1
  Zn  Zn133  1  0.31080061  0.56776665  0.06429882  1
  Zn  Zn134  1  0.30905467  0.55430003  0.56040721  1
  Zn  Zn135  1  0.80733997  0.06482078  0.06124296  1
  Zn  Zn136  1  0.81148466  0.06177143  0.55623433  1
  Zn  Zn137  1  0.80889863  0.56329204  0.06073558  1
  Zn  Zn138  1  0.81050681  0.56299408  0.56197328  1
  Zn  Zn139  1  0.43803834  0.43833839  0.19409880  1
  Zn  Zn140  1  0.43596497  0.43147662  0.69509149  1
  Zn  Zn141  1  0.44195555  0.93518440  0.19054750  1
  Zn  Zn142  1  0.43144692  0.93742705  0.67925153  1
  Zn  Zn143  1  0.93892218  0.43531801  0.19011815  1
  Zn  Zn144  1  0.94141482  0.43700224  0.69090610  1
  Zn  Zn145  1  0.94106891  0.93653900  0.18540677  1
  Zn  Zn146  1  0.93465545  0.94375921  0.68755941  1
  Zn  Zn147  1  0.06029171  0.05925799  0.30633669  1
  Zn  Zn148  1  0.06013072  0.06412350  0.80874545  1
  Zn  Zn149  1  0.06104662  0.56615222  0.31329855  1
  Zn  Zn150  1  0.06079224  0.56370125  0.81261994  1
  Zn  Zn151  1  0.56684052  0.06239061  0.31528640  1
  Zn  Zn152  1  0.46300069  0.06950008  0.82596328  1
  Zn  Zn153  1  0.56138011  0.56315420  0.31255246  1
  Zn  Zn154  1  0.56397765  0.56533079  0.80720203  1
  Zn  Zn155  1  0.42879780  0.17482884  0.46173794  1
  Zn  Zn156  1  0.43930704  0.19643542  0.94880286  1
  Zn  Zn157  1  0.43872554  0.68413300  0.43896175  1
  Zn  Zn158  1  0.43628119  0.69241738  0.94128571  1
  Zn  Zn159  1  0.93926999  0.18091725  0.43840836  1
  Zn  Zn160  1  0.93666782  0.18907242  0.93504707  1
  Zn  Zn161  1  0.95827448  0.71829317  0.45778088  1
  Zn  Zn162  1  0.93724427  0.68897013  0.93612601  1
  Zn  Zn163  1  0.06508372  0.30968654  0.05915646  1
  Zn  Zn164  1  0.05863767  0.31004336  0.56176229  1
  Zn  Zn165  1  0.05618163  0.81242400  0.06031315  1
  Zn  Zn166  1  0.06770465  0.81157643  0.56676754  1
  Zn  Zn167  1  0.56115350  0.31166675  0.06551322  1
  Zn  Zn168  1  0.56670621  0.31187073  0.56054495  1
  Zn  Zn169  1  0.56541269  0.81273054  0.06503374  1
  Zn  Zn170  1  0.56881389  0.81335710  0.56398294  1
  O  O171  1  0.11686950  0.12997126  0.11276841  1
  O  O172  1  0.12133428  0.11970832  0.61129108  1
  O  O173  1  0.11986637  0.62038662  0.11970329  1
  O  O174  1  0.11724535  0.61199332  0.63037270  1
  O  O175  1  0.62699839  0.11964216  0.12346211  1
  O  O176  1  0.63593647  0.10643933  0.61097639  1
  O  O177  1  0.61949112  0.61885106  0.11878670  1
  O  O178  1  0.62681536  0.60813022  0.61874437  1
  O  O179  1  0.38726811  0.39306597  0.36148538  1
  O  O180  1  0.39091548  0.38279637  0.89258024  1
  O  O181  1  0.37709754  0.87921002  0.38068395  1
  O  O182  1  0.37709037  0.87204265  0.88979461  1
  O  O183  1  0.88377237  0.38979951  0.36660917  1
  O  O184  1  0.88237508  0.38513546  0.88121139  1
  O  O185  1  0.87516845  0.88533667  0.37572405  1
  O  O186  1  0.87576569  0.88842718  0.88302754  1
  O  O187  1  0.25751103  0.00287895  0.36645237  1
  O  O188  1  0.25157543  -0.00261342  0.85096740  1
  O  O189  1  0.25526124  0.50422600  0.37200062  1
  O  O190  1  0.25141087  0.51172044  0.87420476  1
  O  O191  1  0.75927225  0.00526643  0.36496949  1
  O  O192  1  0.74855522  0.00656829  0.86714314  1
  O  O193  1  0.75997721  0.50089422  0.37486187  1
  O  O194  1  0.76689750  0.49994507  0.88185240  1
  O  O195  1  0.24346719  0.49670521  0.13122245  1
  O  O196  1  0.23860613  0.49277963  0.62874314  1
  O  O197  1  0.24144880  1.00580096  0.13213017  1
  O  O198  1  0.24729619  0.99044150  0.63911022  1
  O  O199  1  0.73847565  0.49554967  0.12745336  1
  O  O200  1  0.74177226  0.48406107  0.61350163  1
  O  O201  1  0.74607569  1.00531772  0.14127506  1
  O  O202  1  0.75503127  1.00230108  0.63778959  1
  O  O203  1  0.00823886  0.36714436  0.25625404  1
  O  O204  1  0.01050022  0.37409594  0.75904781  1
  O  O205  1  0.00801240  0.86085156  0.24723743  1
  O  O206  1  0.00764226  0.87108445  0.75656112  1
  O  O207  1  0.50810887  0.36947374  0.26083482  1
  O  O208  1  0.50872923  0.37584438  0.76552251  1
  O  O209  1  0.51199701  0.86638650  0.25516773  1
  O  O210  1  0.49022250  0.85506698  0.73736258  1
  O  O211  1  0.49539645  0.13338240  0.25354145  1
  O  O212  1  0.49809298  0.14121831  0.74297480  1
  O  O213  1  0.50091573  0.63215718  0.23859493  1
  O  O214  1  0.48631101  0.63178106  0.75131123  1
  O  O215  1  1.00616602  0.13194509  0.23309659  1
  O  O216  1  0.99896675  0.12636468  0.73491789  1
  O  O217  1  0.99037978  0.62895243  0.24133021  1
  O  O218  1  0.99608332  0.63512223  0.74686453  1
  O  O219  1  0.38317323  0.26607409  0.02292914  1
  O  O220  1  0.36760048  0.26747290  0.45316844  1
  O  O221  1  0.36881975  0.76196167  0.00702236  1
  O  O222  1  0.36212656  0.75283475  0.49103609  1
  O  O223  1  0.87589454  0.25935579  0.00851565  1
  O  O224  1  0.86290431  0.25075515  0.49097123  1
  O  O225  1  0.86667707  0.75602522  0.00120024  1
  O  O226  1  0.85157162  0.72756177  0.49685100  1
  O  O227  1  0.11778212  0.24034577  0.48516173  1
  O  O228  1  0.12413720  0.24327112  0.98671903  1
  O  O229  1  0.13901920  0.74516105  0.49101533  1
  O  O230  1  0.13146472  0.74736269  0.99581870  1
  O  O231  1  0.63735808  0.24497855  0.48736390  1
  O  O232  1  0.63105160  0.24748569  0.99900400  1
  O  O233  1  0.62874661  0.74102782  0.49250932  1
  O  O234  1  0.62871041  0.74420260  0.99199698  1
  O  O235  1  0.49537666  0.25201929  0.14280070  1
  O  O236  1  0.51916107  0.24688440  0.63389975  1
  O  O237  1  0.49540055  0.74365543  0.13117582  1
  O  O238  1  0.50896732  0.74100532  0.63340847  1
  O  O239  1  0.99527081  0.24514722  0.12970437  1
  O  O240  1  1.00839336  0.23113989  0.62548859  1
  O  O241  1  0.99289886  0.74225899  0.13196399  1
  O  O242  1  1.01004027  0.73869091  0.64010353  1
  O  O243  1  0.00345716  0.25047309  0.36629891  1
  O  O244  1  0.00704160  0.26473313  0.88081857  1
  O  O245  1  0.01637693  0.72845216  0.35801693  1
  O  O246  1  0.00637705  0.75818804  0.87109949  1
  O  O247  1  0.51190075  0.25780758  0.36681143  1
  O  O248  1  0.51393373  0.26641802  0.88395574  1
  O  O249  1  0.51222828  0.74671573  0.36887232  1
  O  O250  1  0.51094353  0.74735372  0.87255656  1
  O  O251  1  0.23626208  0.12368389  0.48465246  1
  O  O252  1  0.23968530  0.12225725  1.00149885  1
  O  O253  1  0.24825815  0.62808945  0.49306661  1
  O  O254  1  0.24474534  0.63443154  0.99376583  1
  O  O255  1  0.74737569  0.13753826  0.49196845  1
  O  O256  1  0.74176202  0.12940266  0.99142207  1
  O  O257  1  0.73442272  0.62779237  0.49953210  1
  O  O258  1  0.73924715  0.63176423  0.99533825  1
  O  O259  1  0.25880978  0.37999920  0.01590085  1
  O  O260  1  0.24442575  0.38318242  0.51539411  1
  O  O261  1  0.24823337  0.86749419  -0.00357952  1
  O  O262  1  0.25523375  0.86376982  0.50641381  1
  O  O263  1  0.75917016  0.37406139  0.01016657  1
  O  O264  1  0.74771199  0.36237921  0.50833939  1
  O  O265  1  0.76053031  0.86715969  -0.00116344  1
  O  O266  1  0.75446109  0.85467826  0.49634718  1
  O  O267  1  0.12853755  0.49439934  0.24526630  1
  O  O268  1  0.12422282  0.49368941  0.74449428  1
  O  O269  1  0.12165575  0.97824622  0.25145887  1
  O  O270  1  0.12904752  0.98647861  0.75196805  1
  O  O271  1  0.62726583  0.49519824  0.24387678  1
  O  O272  1  0.62163531  0.48854434  0.74136546  1
  O  O273  1  0.63666524  0.99247282  0.24871493  1
  O  O274  1  0.63752050  0.99841664  0.72868190  1
  O  O275  1  0.37635354  0.00437906  0.25673576  1
  O  O276  1  0.37037932  0.00831761  0.74540944  1
  O  O277  1  0.36764561  0.50698535  0.25628431  1
  O  O278  1  0.37517347  0.51337925  0.75559451  1
  O  O279  1  0.86630488  -0.00702938  0.25496701  1
  O  O280  1  0.86375657  0.00941153  0.75987727  1
  O  O281  1  0.87560145  0.50783717  0.25462538  1
  O  O282  1  0.88242603  0.50107127  0.76716603  1
  O  O283  1  0.11996363  0.36504397  0.37018980  1
  O  O284  1  0.12104565  0.36823824  0.87069483  1
  O  O285  1  0.12954360  0.86081366  0.36446934  1
  O  O286  1  0.12019599  0.87113725  0.86962527  1
  O  O287  1  0.62198607  0.36789904  0.37138736  1
  O  O288  1  0.62471388  0.37357758  0.87200284  1
  O  O289  1  0.62588588  0.86619057  0.36708755  1
  O  O290  1  0.62993075  0.85901843  0.87022112  1
  O  O291  1  0.37702513  0.13444360  0.13266078  1
  O  O292  1  0.37101410  0.14326385  0.56652604  1
  O  O293  1  0.38412606  0.63556115  0.12417806  1
  O  O294  1  0.36996756  0.62020099  0.63559248  1
  O  O295  1  0.88194694  0.13810847  0.11840921  1
  O  O296  1  0.88648654  0.12224243  0.62033602  1
  O  O297  1  0.87893728  0.63059993  0.12963522  1
  O  O298  1  0.88828206  0.61695479  0.62856971  1
  O  O299  1  0.25976678  0.26029842  0.13618432  1
  O  O300  1  0.23750085  0.26763111  0.61818825  1
  O  O301  1  0.26173696  0.74466067  0.11465206  1
  O  O302  1  0.24337498  0.75456145  0.61622392  1
  O  O303  1  0.76087478  0.25539106  0.12864335  1
  O  O304  1  0.75284217  0.26245761  0.61115145  1
  O  O305  1  0.75393780  0.74502472  0.10926063  1
  O  O306  1  0.73835670  0.75036338  0.61140142  1
  O  O307  1  0.23223224  0.23502514  0.36271013  1
  O  O308  1  0.23526829  0.25259146  0.87309468  1
  O  O309  1  0.24380506  0.73986633  0.37927016  1
  O  O310  1  0.24679766  0.74341000  0.88304003  1
  O  O311  1  0.74805520  0.24414109  0.37679809  1
  O  O312  1  0.73994809  0.24556823  0.87846299  1
  O  O313  1  0.73838713  0.74433822  0.38095306  1
  O  O314  1  0.73925825  0.74728500  0.88569646  1
  O  O315  1  0.00285751  0.12110502  0.00811507  1
  O  O316  1  0.00713073  0.12337161  0.50886904  1
  O  O317  1  0.00771821  0.62201460  0.00442390  1
  O  O318  1  0.00499824  0.62248708  0.51174225  1
  O  O319  1  0.51714227  0.13402563  0.00980964  1
  O  O320  1  0.52537183  0.12428531  0.48382240  1
  O  O321  1  0.50801147  0.63171124  0.01356540  1
  O  O322  1  0.51063874  0.61421856  0.49654432  1
  O  O323  1  0.50867410  0.38236953  0.48728157  1
  O  O324  1  0.49627098  0.37920827  0.99939089  1
  O  O325  1  0.48565617  0.86161037  0.49903812  1
  O  O326  1  0.49874042  0.87566774  0.99776587  1
  O  O327  1  1.00406929  0.38548729  0.49153022  1
  O  O328  1  0.99648683  0.38129434  0.99494914  1
  O  O329  1  0.99462098  0.82565406  0.48539655  1
  O  O330  1  0.99175962  0.88264432  0.99259406  1
  O  O331  1  0.49419675  0.49471365  0.38159253  1
  O  O332  1  0.50510146  0.49411689  0.87809178  1
  O  O333  1  0.48864219  0.99717470  0.37174513  1
  O  O334  1  0.52949329  0.98972648  0.86298636  1
  O  O335  1  0.99659848  0.49662515  0.38253292  1
  O  O336  1  0.99620099  0.49033930  0.88170287  1
  O  O337  1  0.98333011  1.00261891  0.36746704  1
  O  O338  1  0.98756615  0.99785602  0.87770739  1
  O  O339  1  0.00568807  0.00837602  0.11855941  1
  O  O340  1  0.00614494  0.01455281  0.62865450  1
  O  O341  1  0.00591378  0.50400552  0.11988565  1
  O  O342  1  0.00393854  0.50503031  0.61933426  1
  O  O343  1  0.51802913  0.00378759  0.13689715  1
  O  O344  1  0.51538387  -0.00758259  0.62101553  1
  O  O345  1  0.51189842  0.50816716  0.13252827  1
  O  O346  1  0.50707024  0.48762809  0.61452966  1
  O  O347  1  0.24283663  0.38413859  0.24035365  1
  O  O348  1  0.23323157  0.37997136  0.73671435  1
  O  O349  1  0.23609640  0.86841687  0.24900139  1
  O  O350  1  0.24694703  0.87210011  0.74344602  1
  O  O351  1  0.74375829  0.37688499  0.24466228  1
  O  O352  1  0.74395872  0.37223731  0.73458991  1
  O  O353  1  0.74491795  0.88681230  0.25471348  1
  O  O354  1  0.75287356  0.89150130  0.75160543  1
  O  O355  1  0.25541930  0.12170966  0.26038818  1
  O  O356  1  0.24646373  0.11784480  0.74434266  1
  O  O357  1  0.25004899  0.61807528  0.25757535  1
  O  O358  1  0.26304038  0.62767647  0.75871314  1
  O  O359  1  0.75102235  0.11015182  0.25855355  1
  O  O360  1  0.74734390  0.11489658  0.76487904  1
  O  O361  1  0.76384854  0.62459110  0.25061264  1
  O  O362  1  0.75314245  0.62707298  0.75533778  1
  O  O363  1  0.36531162  0.11293641  0.37352116  1
  O  O364  1  0.38415238  0.13282206  0.87847928  1
  O  O365  1  0.36515289  0.61666632  0.37261737  1
  O  O366  1  0.36603881  0.62462801  0.87886781  1
  O  O367  1  0.86673646  0.11455281  0.37659719  1
  O  O368  1  0.86390925  0.11285100  0.88599597  1
  O  O369  1  0.87639726  0.61188621  0.36422339  1
  O  O370  1  0.87797887  0.60931239  0.87861133  1
  O  O371  1  0.13207070  0.37806888  0.12781944  1
  O  O372  1  0.11911518  0.38557043  0.63164228  1
  O  O373  1  0.12013167  0.87159083  0.13645077  1
  O  O374  1  0.13540615  0.87628803  0.63284932  1
  O  O375  1  0.62878833  0.38278843  0.13112559  1
  O  O376  1  0.63339420  0.38168198  0.63236334  1
  O  O377  1  0.62544634  0.88135587  0.13845972  1
  O  O378  1  0.63759921  0.88923864  0.61477772  1
  O  O379  1  0.11335644  0.25328270  0.25410078  1
  O  O380  1  0.11921568  0.25631270  0.76177987  1
  O  O381  1  0.11972380  0.75675138  0.25244246  1
  O  O382  1  0.11974884  0.76078631  0.75789576  1
  O  O383  1  0.62212621  0.25314243  0.25991336  1
  O  O384  1  0.62736376  0.26405982  0.76465869  1
  O  O385  1  0.62573370  0.75552782  0.25522694  1
  O  O386  1  0.60813788  0.74182792  0.76032866  1
  O  O387  1  0.38443316  0.24404226  0.25029163  1
  O  O388  1  0.36852480  0.25266482  0.73258006  1
  O  O389  1  0.38096110  0.74970549  0.24247224  1
  O  O390  1  0.38727389  0.73567311  0.75187936  1
  O  O391  1  0.88966329  0.25464722  0.24235993  1
  O  O392  1  0.88409564  0.24194334  0.76833614  1
  O  O393  1  0.88108417  0.74409295  0.24845897  1
  O  O394  1  0.88677914  0.75210625  0.76243229  1
  O  O395  1  0.38495529  0.50363267  0.49053963  1
  O  O396  1  0.37392344  0.49126776  1.00693662  1
  O  O397  1  0.36661753  0.98211395  0.48813410  1
  O  O398  1  0.37934129  0.98465128  1.00494397  1
  O  O399  1  0.88709988  0.50653416  0.49153556  1
  O  O400  1  0.88254749  0.49516087  0.99593893  1
  O  O401  1  0.87217509  0.99462194  0.48458714  1
  O  O402  1  0.87647261  0.99391485  0.99728381  1
  O  O403  1  0.11721255  0.00967749  -0.00556218  1
  O  O404  1  0.12846526  0.00558522  0.49660079  1
  O  O405  1  0.12096522  0.50565445  0.00547964  1
  O  O406  1  0.11284572  0.50345435  0.50796660  1
  O  O407  1  0.63882001  0.01296129  0.01922467  1
  O  O408  1  0.63967274  0.00591676  0.50638195  1
  O  O409  1  0.62844255  0.51180268  0.00865259  1
  O  O410  1  0.61735375  0.50487362  0.50512924  1
  O  O411  1  0.36874595  0.37189183  0.12775485  1
  O  O412  1  0.35871251  0.38363435  0.62508486  1
  O  O413  1  0.38482211  0.86499298  0.11727659  1
  O  O414  1  0.36106432  0.87424198  0.61482796  1
  O  O415  1  0.87311180  0.36648941  0.12212413  1
  O  O416  1  0.86287944  0.38118861  0.62929358  1
  O  O417  1  0.88220181  0.86555590  0.11519184  1
  O  O418  1  0.87342145  0.87725708  0.62330093  1
  O  O419  1  0.12641161  0.12541574  0.37683945  1
  O  O420  1  0.11700947  0.13895792  0.88078310  1
  O  O421  1  0.13793052  0.62901275  0.37472009  1
  O  O422  1  0.13358349  0.63182891  0.87893444  1
  O  O423  1  0.64120754  0.13087037  0.37635268  1
  O  O424  1  0.63080287  0.13793130  0.88818522  1
  O  O425  1  0.62711602  0.63015339  0.38168580  1
  O  O426  1  0.62248199  0.63251641  0.88369628  1
