# generated using pymatgen
data_V85Zn86O256
_symmetry_space_group_name_H-M   'P 1'
_cell_length_a   16.97548541
_cell_length_b   16.97239345
_cell_length_c   17.00024806
_cell_angle_alpha   89.95464894
_cell_angle_beta   90.02848232
_cell_angle_gamma   90.00606841
_symmetry_Int_Tables_number   1
_chemical_formula_structural   V85Zn86O256
_chemical_formula_sum   'V85 Zn86 O256'
_cell_volume   4898.01779973
_cell_formula_units_Z   1
loop_
 _symmetry_equiv_pos_site_id
 _symmetry_equiv_pos_as_xyz
  1  'x, y, z'
loop_
 _atom_site_type_symbol
 _atom_site_label
 _atom_site_symmetry_multiplicity
 _atom_site_fract_x
 _atom_site_fract_y
 _atom_site_fract_z
 _atom_site_occupancy
  V  V0  1  0.62553326  0.37330704  0.75551830  1
  V  V1  1  -0.00722868  0.87940466  0.86970684  1
  V  V2  1  -0.00426908  0.24759140  0.24219306  1
  V  V3  1  0.24944429  -0.00125728  0.75307656  1
  V  V4  1  0.87349369  0.37288878  0.50042973  1
  V  V5  1  0.12497071  0.62277967  0.49705079  1
  V  V6  1  0.75019597  -0.00392247  0.74491299  1
  V  V7  1  0.12467316  0.37066016  0.24925344  1
  V  V8  1  0.74523500  0.62287239  0.37577183  1
  V  V9  1  0.74381584  0.24179781  0.49669640  1
  V  V10  1  0.25883092  0.12577377  0.37250477  1
  V  V11  1  0.49546023  0.63051497  0.62582422  1
  V  V12  1  0.26335761  0.25226843  0.00194398  1
  V  V13  1  0.48725541  0.37078671  0.88298361  1
  V  V14  1  0.61573947  0.00217878  0.12502562  1
  V  V15  1  0.73779341  0.74697430  0.50302352  1
  V  V16  1  0.86919225  0.87012737  0.50264428  1
  V  V17  1  0.50545536  0.63084826  0.12964198  1
  V  V18  1  -0.00237013  0.62886576  0.62308098  1
  V  V19  1  0.62877651  0.87761866  0.73780420  1
  V  V20  1  0.86979440  0.12612270  0.24521188  1
  V  V21  1  0.12006994  0.49251217  0.11853086  1
  V  V22  1  0.62844358  0.62079288  -0.00809748  1
  V  V23  1  0.87308910  0.24589986  0.62667945  1
  V  V24  1  0.26175450  0.37358762  0.12184332  1
  V  V25  1  0.04762055  0.66748988  0.07314762  1
  V  V26  1  0.12338918  0.25453210  0.87634793  1
  V  V27  1  0.75117025  0.74990577  -0.00070228  1
  V  V28  1  0.61645353  0.74169956  0.37040398  1
  V  V29  1  0.12539071  0.49621256  0.63956758  1
  V  V30  1  0.59821274  0.35495070  0.23146151  1
  V  V31  1  0.74911596  0.37601918  0.62664020  1
  V  V32  1  0.87898822  0.62180315  0.24702213  1
  V  V33  1  -0.00276954  0.00127423  0.49831754  1
  V  V34  1  0.12509774  0.12627791  0.50007364  1
  V  V35  1  0.49884237  0.10330854  0.62105254  1
  V  V36  1  0.24867140  0.49967864  0.24775442  1
  V  V37  1  0.63479313  0.49780546  0.12359480  1
  V  V38  1  0.75731121  0.35193052  0.12744600  1
  V  V39  1  0.38181549  0.63247442  0.24925774  1
  V  V40  1  0.12330573  0.25019753  0.37700284  1
  V  V41  1  0.37606636  0.50202800  0.37767577  1
  V  V42  1  0.00305397  0.25352491  0.75100902  1
  V  V43  1  0.50024859  0.36844283  0.37991247  1
  V  V44  1  0.49677507  0.00597056  -0.00161501  1
  V  V45  1  0.87473324  0.61607762  0.74836479  1
  V  V46  1  0.37773077  0.88104429  0.50077571  1
  V  V47  1  0.12602480  0.87589233  0.25182841  1
  V  V48  1  -0.00578302  0.75055904  0.75334547  1
  V  V49  1  0.61261002  0.86850094  0.24854833  1
  V  V50  1  0.25623562  0.25374779  0.50573535  1
  V  V51  1  0.87290915  0.49936557  0.37500383  1
  V  V52  1  0.87013205  0.74752370  0.12423201  1
  V  V53  1  0.00080725  0.00455447  -0.00680402  1
  V  V54  1  0.86959976  0.88374878  -0.00425733  1
  V  V55  1  0.49991803  0.74535286  0.75253468  1
  V  V56  1  -0.00408236  0.38483188  0.87292417  1
  V  V57  1  0.87406685  0.11989380  0.75894209  1
  V  V58  1  0.74504248  0.00070153  0.25325842  1
  V  V59  1  0.12378901  0.75128881  0.37327505  1
  V  V60  1  0.24974205  0.62678627  0.36787957  1
  V  V61  1  0.62581634  0.50496333  0.62337810  1
  V  V62  1  -0.01312040  0.49101068  0.00905054  1
  V  V63  1  -0.00129926  0.37337977  0.37472602  1
  V  V64  1  0.74778223  0.87542293  0.12590056  1
  V  V65  1  0.25882150  0.00201059  0.24961924  1
  V  V66  1  0.76316687  0.61661100  0.87746846  1
  V  V67  1  0.50555590  0.50788987  0.50054893  1
  V  V68  1  0.63144176  0.12866366  -0.00031964  1
  V  V69  1  0.50184227  0.87447727  0.87731544  1
  V  V70  1  0.86970661  0.00536145  0.37526173  1
  V  V71  1  0.00095708  0.49896340  0.49856838  1
  V  V72  1  0.37856528  0.75456117  0.12309032  1
  V  V73  1  0.48796551  0.49520029  0.00149577  1
  V  V74  1  0.86671888  0.35583225  -0.00426949  1
  V  V75  1  0.25378692  0.87174740  0.12055291  1
  V  V76  1  0.50063553  0.87893275  0.37774958  1
  V  V77  1  0.12290519  0.00114834  0.62371106  1
  V  V78  1  0.25229937  0.74925027  0.49827452  1
  V  V79  1  0.12505446  0.12605604  0.00606727  1
  V  V80  1  0.24702987  0.87507565  0.62259531  1
  V  V81  1  0.12071476  0.87159855  0.74837318  1
  V  V82  1  -0.00238613  0.87585212  0.37294828  1
  V  V83  1  0.24903373  0.37557033  0.63926171  1
  V  V84  1  0.49321695  0.25113557  0.73771509  1
  Zn  Zn85  1  0.36820258  0.74257796  0.63267894  1
  Zn  Zn86  1  0.74993166  0.49809926  0.75512322  1
  Zn  Zn87  1  0.62353263  0.10490080  0.50166437  1
  Zn  Zn88  1  0.74726804  0.49195859  0.25212784  1
  Zn  Zn89  1  0.12430578  0.00226781  0.12596041  1
  Zn  Zn90  1  0.62921999  0.24902312  0.87724627  1
  Zn  Zn91  1  -0.00563366  0.12468540  0.12172543  1
  Zn  Zn92  1  0.17860263  0.69679252  0.93507001  1
  Zn  Zn93  1  0.24946880  0.12456950  0.87406391  1
  Zn  Zn94  1  0.63144155  0.75169280  0.87336296  1
  Zn  Zn95  1  -0.00090336  0.74873467  0.24987092  1
  Zn  Zn96  1  0.75096750  0.12269518  0.87564296  1
  Zn  Zn97  1  -0.00111889  0.12595423  0.62631126  1
  Zn  Zn98  1  0.37369464  0.37670704  0.50681223  1
  Zn  Zn99  1  0.37167071  0.12926973  0.74850456  1
  Zn  Zn100  1  0.37791191  0.87285814  0.00180111  1
  Zn  Zn101  1  0.86627977  0.75172946  0.62352481  1
  Zn  Zn102  1  0.37305380  -0.00235699  0.87313951  1
  Zn  Zn103  1  0.33758071  0.58012287  0.78493582  1
  Zn  Zn104  1  0.46590933  0.22041243  0.22539576  1
  Zn  Zn105  1  0.62376258  0.24318915  0.37588459  1
  Zn  Zn106  1  0.38205833  0.00409583  0.37691282  1
  Zn  Zn107  1  0.29682149  0.18439121  0.18523236  1
  Zn  Zn108  1  0.18543030  0.18898403  0.68856093  1
  Zn  Zn109  1  0.23006355  0.64982162  0.12625296  1
  Zn  Zn110  1  0.18417977  0.68986706  0.68724324  1
  Zn  Zn111  1  0.67832474  0.17970418  0.19049867  1
  Zn  Zn112  1  0.68235160  0.18395802  0.68691697  1
  Zn  Zn113  1  0.68984594  0.68398784  0.19062755  1
  Zn  Zn114  1  0.68266473  0.68595422  0.68962033  1
  Zn  Zn115  1  0.31168673  0.31695077  0.31967933  1
  Zn  Zn116  1  0.31213763  0.31317797  0.81526604  1
  Zn  Zn117  1  0.31614587  0.81392549  0.30800429  1
  Zn  Zn118  1  0.32752243  0.75790077  0.84048856  1
  Zn  Zn119  1  0.81089299  0.30955524  0.31277775  1
  Zn  Zn120  1  0.80913989  0.30583385  0.81515562  1
  Zn  Zn121  1  0.80850069  0.81253458  0.31306557  1
  Zn  Zn122  1  0.81180940  0.80820580  0.81231415  1
  Zn  Zn123  1  0.18812464  0.43773652  0.43922738  1
  Zn  Zn124  1  0.18707982  0.43314286  0.93780105  1
  Zn  Zn125  1  0.18902732  0.94014605  0.43612672  1
  Zn  Zn126  1  0.20851050  0.89001162  0.91054970  1
  Zn  Zn127  1  0.68414779  0.43166510  0.43696210  1
  Zn  Zn128  1  0.68847938  0.43475172  0.93818128  1
  Zn  Zn129  1  0.68860184  0.93150531  0.43356498  1
  Zn  Zn130  1  0.68642391  0.94346046  0.92971233  1
  Zn  Zn131  1  0.30736691  0.05628254  0.05527042  1
  Zn  Zn132  1  0.31494925  0.06500561  0.56716699  1
  Zn  Zn133  1  0.30413621  0.57350174  -0.04520504  1
  Zn  Zn134  1  0.31069258  0.56149375  0.56655017  1
  Zn  Zn135  1  0.80819860  0.06141307  0.06678799  1
  Zn  Zn136  1  0.80714567  0.05870526  0.56685215  1
  Zn  Zn137  1  0.81596866  0.56035883  0.06300138  1
  Zn  Zn138  1  0.80998364  0.56294663  0.56031885  1
  Zn  Zn139  1  0.43894120  0.44445252  0.18769383  1
  Zn  Zn140  1  0.43428442  0.43521125  0.68672623  1
  Zn  Zn141  1  0.43696904  1.05188773  0.18494869  1
  Zn  Zn142  1  0.43099214  0.92524977  0.69379894  1
  Zn  Zn143  1  0.93116709  0.43191881  0.18686176  1
  Zn  Zn144  1  0.93973454  0.43600034  0.68632990  1
  Zn  Zn145  1  0.93666089  0.94045647  0.18526512  1
  Zn  Zn146  1  0.93156851  0.94128335  0.68241837  1
  Zn  Zn147  1  0.06412507  0.06354726  0.31189489  1
  Zn  Zn148  1  0.06247046  0.06452048  0.81541491  1
  Zn  Zn149  1  0.06088761  0.56102843  0.30862027  1
  Zn  Zn150  1  0.16755946  0.56461867  0.81923097  1
  Zn  Zn151  1  0.56619323  0.06716738  0.32120919  1
  Zn  Zn152  1  0.56316089  0.06098079  0.81078565  1
  Zn  Zn153  1  0.56496626  0.55113633  0.30822568  1
  Zn  Zn154  1  0.52531718  0.53927531  0.79650254  1
  Zn  Zn155  1  0.43830096  0.18686186  0.44557422  1
  Zn  Zn156  1  0.43849737  0.18091275  0.92878583  1
  Zn  Zn157  1  0.43847514  0.68921533  0.44121028  1
  Zn  Zn158  1  0.44812264  0.68596419  0.94162420  1
  Zn  Zn159  1  0.93456183  0.18632137  0.43527034  1
  Zn  Zn160  1  0.93797980  0.18921160  0.93457383  1
  Zn  Zn161  1  0.93435499  0.68754940  0.43541638  1
  Zn  Zn162  1  0.99177837  0.62970585  0.88621029  1
  Zn  Zn163  1  0.06306237  0.31038764  0.06165654  1
  Zn  Zn164  1  0.06370707  0.31324546  0.56525271  1
  Zn  Zn165  1  0.05650391  0.83574821  0.06648727  1
  Zn  Zn166  1  0.05957824  0.81205487  0.55978128  1
  Zn  Zn167  1  0.56081804  0.31094902  0.06089025  1
  Zn  Zn168  1  0.56329225  0.31872733  0.56423694  1
  Zn  Zn169  1  0.56351361  0.81185033  0.06060138  1
  Zn  Zn170  1  0.56274069  0.92998139  0.56042039  1
  O  O171  1  0.11779055  0.12394075  0.10898956  1
  O  O172  1  0.12271359  0.12130586  0.61310246  1
  O  O173  1  0.11232365  0.61352848  0.13346905  1
  O  O174  1  0.11339789  0.61488925  0.61863784  1
  O  O175  1  0.62682282  0.11313116  0.11317251  1
  O  O176  1  0.60302132  0.12929701  0.62197757  1
  O  O177  1  0.62397454  0.61609806  0.12100220  1
  O  O178  1  0.61885831  0.61004319  0.62891146  1
  O  O179  1  0.37964561  0.38762304  0.38220396  1
  O  O180  1  0.38917525  0.37282009  0.87670289  1
  O  O181  1  0.38487907  0.87074570  0.38251435  1
  O  O182  1  0.39329271  0.86727968  0.87939907  1
  O  O183  1  0.87867375  0.38085597  0.38015040  1
  O  O184  1  0.87860961  0.36875198  0.88888339  1
  O  O185  1  0.87973801  0.88182150  0.38091146  1
  O  O186  1  0.88154710  0.87036467  0.88371186  1
  O  O187  1  0.24990308  0.00979077  0.36855380  1
  O  O188  1  0.24636491  -0.00905288  0.86309002  1
  O  O189  1  0.25625713  0.50696568  0.36907327  1
  O  O190  1  0.24629006  0.50637787  0.88010666  1
  O  O191  1  0.75914920  -0.00918008  0.36393836  1
  O  O192  1  0.74783865  0.00636810  0.85704558  1
  O  O193  1  0.75312942  0.50453645  0.37461624  1
  O  O194  1  0.75006398  0.51299458  0.87605419  1
  O  O195  1  0.23386037  0.48935048  0.13333047  1
  O  O196  1  0.23347558  0.49120660  0.62020199  1
  O  O197  1  0.24512390  0.99091474  0.13535494  1
  O  O198  1  0.24016856  0.99557003  0.62889746  1
  O  O199  1  0.74139109  0.49907264  0.12760255  1
  O  O200  1  0.74232854  0.49501475  0.62574311  1
  O  O201  1  0.73830228  0.99207011  0.13222150  1
  O  O202  1  0.75268803  0.99588676  0.64309884  1
  O  O203  1  0.00137959  0.36734833  0.25621319  1
  O  O204  1  -0.00963005  0.36650273  0.76159090  1
  O  O205  1  0.00544579  0.87647247  0.25706631  1
  O  O206  1  -0.00308644  0.87276376  0.75116833  1
  O  O207  1  0.50048091  0.39436854  0.27147686  1
  O  O208  1  0.50568501  0.36531890  0.75999868  1
  O  O209  1  0.51292197  0.86943527  0.25933389  1
  O  O210  1  0.51175250  0.86857407  0.75657179  1
  O  O211  1  0.50812587  0.11948857  0.24118830  1
  O  O212  1  0.50214639  0.13693487  0.74076234  1
  O  O213  1  0.49435876  0.61319918  0.24024136  1
  O  O214  1  0.51557307  0.63889273  0.74266179  1
  O  O215  1  0.99239376  0.13138190  0.24981170  1
  O  O216  1  0.99163032  0.13171775  0.74780484  1
  O  O217  1  0.98371075  0.62896673  0.25737587  1
  O  O218  1  0.99038561  0.63554961  0.73852289  1
  O  O219  1  0.36083481  0.24347464  -0.00690680  1
  O  O220  1  0.35882976  0.25299362  0.50091850  1
  O  O221  1  0.39095623  0.75399478  0.01969303  1
  O  O222  1  0.36125593  0.75590575  0.49909783  1
  O  O223  1  0.87475005  0.25739798  0.00248863  1
  O  O224  1  0.86771162  0.25243148  0.50776193  1
  O  O225  1  0.86800528  0.76433721  0.01606424  1
  O  O226  1  0.86562312  0.75604937  0.49780777  1
  O  O227  1  0.12855928  0.24298686  0.49644844  1
  O  O228  1  0.12641911  0.24305541  0.99278880  1
  O  O229  1  0.13324791  0.74440878  0.49359994  1
  O  O230  1  0.09940675  0.73706502  1.01970991  1
  O  O231  1  0.64015281  0.25796510  0.50374887  1
  O  O232  1  0.61708472  0.23080027  1.00359130  1
  O  O233  1  0.63872938  0.74694266  0.48678060  1
  O  O234  1  0.63475894  0.73864379  1.00188796  1
  O  O235  1  0.52476017  0.29824348  0.16513915  1
  O  O236  1  0.49568861  0.25978475  0.63751137  1
  O  O237  1  0.50396633  0.73557278  0.12673896  1
  O  O238  1  0.49916285  0.73441432  0.63071357  1
  O  O239  1  1.00150406  0.24920785  0.14000099  1
  O  O240  1  0.99250150  0.25123493  0.63307887  1
  O  O241  1  0.99242064  0.74350046  0.12593201  1
  O  O242  1  0.99585718  0.74116450  0.62625302  1
  O  O243  1  0.00458782  0.25483719  0.37021918  1
  O  O244  1  0.00380589  0.25835501  0.86819000  1
  O  O245  1  0.00529069  0.75835972  0.37522493  1
  O  O246  1  -0.00787675  0.75915432  0.85566089  1
  O  O247  1  0.49514186  0.26409936  0.38229873  1
  O  O248  1  0.50614705  0.25977291  0.87054293  1
  O  O249  1  0.51268020  0.75380133  0.38047219  1
  O  O250  1  0.51001085  0.75398357  0.86853023  1
  O  O251  1  0.24241969  0.13265400  0.49848266  1
  O  O252  1  0.24009493  0.13501329  0.99581852  1
  O  O253  1  0.24419356  0.63205134  0.49325917  1
  O  O254  1  0.23336019  0.63404240  1.01543315  1
  O  O255  1  0.74851305  0.14009803  0.51052776  1
  O  O256  1  0.73495861  0.11645431  0.99883685  1
  O  O257  1  0.75644556  0.63406073  0.48453384  1
  O  O258  1  0.75038130  0.62849422  0.99520641  1
  O  O259  1  0.24673616  0.36108453  0.00831201  1
  O  O260  1  0.24816182  0.36716848  0.50666746  1
  O  O261  1  0.25192020  0.88134240  0.01843269  1
  O  O262  1  0.25159650  0.86613378  0.50268965  1
  O  O263  1  0.76097346  0.37471610  0.00984405  1
  O  O264  1  0.75709839  0.36899880  0.50830750  1
  O  O265  1  0.75361634  0.87263837  0.00299376  1
  O  O266  1  0.75709833  0.85469586  0.49023415  1
  O  O267  1  0.12339059  0.48739716  0.24386793  1
  O  O268  1  0.11453285  0.49743938  0.73635143  1
  O  O269  1  0.13056494  0.98974576  0.25184735  1
  O  O270  1  0.12499636  0.99332091  0.74227147  1
  O  O271  1  0.62623512  0.48001023  0.23787563  1
  O  O272  1  0.62162469  0.48683013  0.74314500  1
  O  O273  1  0.63016582  0.99086255  0.24365777  1
  O  O274  1  0.63239411  0.98637589  0.75063371  1
  O  O275  1  0.36133106  -0.00452136  0.25740828  1
  O  O276  1  0.35761618  -0.00734041  0.75011426  1
  O  O277  1  0.37168877  0.50901476  0.26284704  1
  O  O278  1  0.41694544  0.50840018  0.76621016  1
  O  O279  1  0.86705754  0.00337440  0.25663886  1
  O  O280  1  0.86558619  0.00795316  0.74661561  1
  O  O281  1  0.87229277  0.50615787  0.25557197  1
  O  O282  1  0.87272374  0.51258095  0.74021464  1
  O  O283  1  0.11883718  0.37256200  0.36862961  1
  O  O284  1  0.11077541  0.36207990  0.88267240  1
  O  O285  1  0.11775515  0.87277920  0.37154081  1
  O  O286  1  0.10197561  0.88103429  0.85945720  1
  O  O287  1  0.61294169  0.37018922  0.36796793  1
  O  O288  1  0.62307871  0.37126287  0.86756933  1
  O  O289  1  0.61892306  0.86270696  0.36813664  1
  O  O290  1  0.61621006  0.87231529  0.86880123  1
  O  O291  1  0.36699645  0.11811072  0.12644823  1
  O  O292  1  0.39080091  0.12007288  0.63311929  1
  O  O293  1  0.38858013  0.63385122  0.13565780  1
  O  O294  1  0.38473918  0.62427172  0.62667455  1
  O  O295  1  0.87673139  0.11725609  0.14070808  1
  O  O296  1  0.87653196  0.13623392  0.62966780  1
  O  O297  1  0.86781711  0.63487500  0.13437605  1
  O  O298  1  0.88598595  0.62443553  0.62481497  1
  O  O299  1  0.24671896  0.25816886  0.10912755  1
  O  O300  1  0.23716471  0.26681431  0.61923272  1
  O  O301  1  0.26703958  0.75910101  0.13640888  1
  O  O302  1  0.24733322  0.75561150  0.61402104  1
  O  O303  1  0.74824600  0.25460286  0.12748633  1
  O  O304  1  0.75691950  0.25574219  0.62056942  1
  O  O305  1  0.75415739  0.75538517  0.12126582  1
  O  O306  1  0.74764154  0.73687030  0.60646867  1
  O  O307  1  0.24066170  0.24427072  0.38563395  1
  O  O308  1  0.24022172  0.25322865  0.88466065  1
  O  O309  1  0.24466756  0.74526424  0.37887379  1
  O  O310  1  0.22889451  0.78220520  0.88086165  1
  O  O311  1  0.75232614  0.25511125  0.39515068  1
  O  O312  1  0.74149276  0.23666326  0.86780254  1
  O  O313  1  0.74285420  0.73963871  0.37847650  1
  O  O314  1  0.75202768  0.73649160  0.88285112  1
  O  O315  1  0.00151696  0.11938225  -0.00046697  1
  O  O316  1  0.00707613  0.11944880  0.49928457  1
  O  O317  1  -0.01057544  0.61158993  0.00887163  1
  O  O318  1  0.00424139  0.62109360  0.50456030  1
  O  O319  1  0.50711768  0.11045519  -0.00429567  1
  O  O320  1  0.49528414  0.12047445  0.51833741  1
  O  O321  1  0.51373774  0.61606842  0.00818503  1
  O  O322  1  0.49744031  0.61551876  0.50854608  1
  O  O323  1  0.49538581  0.38731077  0.49603889  1
  O  O324  1  0.50061430  0.37797252  0.99156978  1
  O  O325  1  0.48854232  0.87105849  0.49304272  1
  O  O326  1  0.50582922  0.88510880  0.99282300  1
  O  O327  1  0.99334326  0.37768890  0.49449950  1
  O  O328  1  0.98507009  0.37370776  0.99806156  1
  O  O329  1  0.99263515  0.88093964  0.49035445  1
  O  O330  1  0.99023053  0.88298009  0.98851691  1
  O  O331  1  0.49362060  0.49902163  0.38553657  1
  O  O332  1  0.51337834  0.47971119  0.89228336  1
  O  O333  1  0.49978042  0.98279813  0.37166119  1
  O  O334  1  0.49861520  0.99131768  0.88010764  1
  O  O335  1  0.99373903  0.49352515  0.37994679  1
  O  O336  1  0.99933340  0.48626261  0.89148883  1
  O  O337  1  0.99185519  0.99472600  0.37951953  1
  O  O338  1  0.99536859  0.99497174  0.88418717  1
  O  O339  1  0.00308881  -0.00265606  0.10989387  1
  O  O340  1  0.00539808  0.00306658  0.61530825  1
  O  O341  1  0.00433121  0.49112044  0.12090995  1
  O  O342  1  0.00863938  0.50412624  0.61772109  1
  O  O343  1  0.51091906  -0.00829890  0.11560931  1
  O  O344  1  0.49797784  0.00003002  0.63102849  1
  O  O345  1  0.51302354  0.50440861  0.11766110  1
  O  O346  1  0.50654413  0.50548443  0.61699204  1
  O  O347  1  0.23909892  0.37970315  0.24701891  1
  O  O348  1  0.24798038  0.37080936  0.73812577  1
  O  O349  1  0.24270723  0.88226151  0.24740031  1
  O  O350  1  0.23280916  0.88323527  0.73744258  1
  O  O351  1  0.75737202  0.37396986  0.23342841  1
  O  O352  1  0.74338094  0.37733431  0.74456377  1
  O  O353  1  0.74333820  0.88325116  0.24487113  1
  O  O354  1  0.73845484  0.88044306  0.75527937  1
  O  O355  1  0.24076356  0.11483944  0.26296639  1
  O  O356  1  0.24590377  0.11334435  0.75059796  1
  O  O357  1  0.26190851  0.61602189  0.24393912  1
  O  O358  1  0.24128841  0.62063880  0.74914108  1
  O  O359  1  0.75435421  0.11005219  0.24719352  1
  O  O360  1  0.75659606  0.11480249  0.74490829  1
  O  O361  1  0.76077657  0.62103416  0.26047470  1
  O  O362  1  0.75767894  0.62417465  0.75887916  1
  O  O363  1  0.36228079  0.12259228  0.38541240  1
  O  O364  1  0.36817247  0.11704213  0.86574290  1
  O  O365  1  0.36978893  0.62244971  0.36940366  1
  O  O366  1  0.36158212  0.64885709  0.88000042  1
  O  O367  1  0.87722419  0.11059406  0.36685301  1
  O  O368  1  0.87527978  0.12797070  0.86104848  1
  O  O369  1  0.86764049  0.61752294  0.36875465  1
  O  O370  1  0.87715495  0.62516712  0.86055115  1
  O  O371  1  0.12872217  0.37651833  0.13385880  1
  O  O372  1  0.13080959  0.38950867  0.62084165  1
  O  O373  1  0.13337033  0.87721038  0.13666000  1
  O  O374  1  0.12510789  0.88337368  0.62586830  1
  O  O375  1  0.64316626  0.37918574  0.12422258  1
  O  O376  1  0.63042362  0.38471904  0.63290984  1
  O  O377  1  0.62924994  0.87822207  0.13215775  1
  O  O378  1  0.62144592  0.86871366  0.64053673  1
  O  O379  1  0.11416597  0.26275601  0.25967170  1
  O  O380  1  0.11009271  0.24497693  0.75764932  1
  O  O381  1  0.11990573  0.76710808  0.25917529  1
  O  O382  1  0.10961285  0.76651559  0.73488267  1
  O  O383  1  0.64070202  0.26262465  0.25981258  1
  O  O384  1  0.61445073  0.26089870  0.74666810  1
  O  O385  1  0.63350493  0.75690938  0.25940049  1
  O  O386  1  0.62170266  0.76129235  0.75241086  1
  O  O387  1  0.36271504  0.24751808  0.25204180  1
  O  O388  1  0.38983163  0.25054919  0.75479310  1
  O  O389  1  0.37857798  0.73752482  0.24699783  1
  O  O390  1  0.39463391  0.75884450  0.74740308  1
  O  O391  1  0.88262531  0.23646599  0.26048810  1
  O  O392  1  0.88277161  0.24341731  0.74238014  1
  O  O393  1  0.87460917  0.74626056  0.23953019  1
  O  O394  1  0.87758737  0.74238337  0.74072532  1
  O  O395  1  0.37931643  0.50405850  0.48881525  1
  O  O396  1  0.39040660  0.50990867  1.00310269  1
  O  O397  1  0.36330833  0.98406184  0.49695183  1
  O  O398  1  0.38360941  0.99272735  0.99482535  1
  O  O399  1  0.88104663  0.49333461  0.49546234  1
  O  O400  1  0.88274295  0.48532999  1.00782384  1
  O  O401  1  0.87410172  0.99415564  0.49214091  1
  O  O402  1  0.87757820  0.98813698  1.00696261  1
  O  O403  1  0.11252241  0.01152368  -0.00202481  1
  O  O404  1  0.12008700  0.00832494  0.50349327  1
  O  O405  1  0.10910491  0.48587770  0.01500627  1
  O  O406  1  0.11714133  0.50766336  0.49969376  1
  O  O407  1  0.61938759  0.00487822  0.00781043  1
  O  O408  1  0.63632878  -0.00757410  0.50738443  1
  O  O409  1  0.62465430  0.50470982  0.00900356  1
  O  O410  1  0.61579594  0.49440866  0.50871918  1
  O  O411  1  0.35996937  0.38429321  0.13237072  1
  O  O412  1  0.35407728  0.38625854  0.62278994  1
  O  O413  1  0.36676914  0.86618113  0.12945449  1
  O  O414  1  0.36544718  0.86779505  0.61632553  1
  O  O415  1  0.86301773  0.37047612  0.11506453  1
  O  O416  1  0.87073142  0.36413539  0.62114985  1
  O  O417  1  0.86703361  0.86962850  0.12147076  1
  O  O418  1  0.87830965  0.87295502  0.60587698  1
  O  O419  1  0.13150729  0.12842425  0.38632738  1
  O  O420  1  0.12412892  0.13740513  0.88346258  1
  O  O421  1  0.13121819  0.62983223  0.37534155  1
  O  O422  1  0.10203276  0.63345700  0.87727104  1
  O  O423  1  0.62021972  0.13189859  0.39125253  1
  O  O424  1  0.62155843  0.12234540  0.89025014  1
  O  O425  1  0.63362542  0.62836034  0.36339393  1
  O  O426  1  0.63639666  0.62392734  0.88918255  1
