# generated using pymatgen
data_V85Zn86O256
_symmetry_space_group_name_H-M   'P 1'
_cell_length_a   16.91615736
_cell_length_b   16.92079842
_cell_length_c   16.91859749
_cell_angle_alpha   90.00846164
_cell_angle_beta   90.01221274
_cell_angle_gamma   89.96591292
_symmetry_Int_Tables_number   1
_chemical_formula_structural   V85Zn86O256
_chemical_formula_sum   'V85 Zn86 O256'
_cell_volume   4842.69184820
_cell_formula_units_Z   1
loop_
 _symmetry_equiv_pos_site_id
 _symmetry_equiv_pos_as_xyz
  1  'x, y, z'
loop_
 _atom_site_type_symbol
 _atom_site_label
 _atom_site_symmetry_multiplicity
 _atom_site_fract_x
 _atom_site_fract_y
 _atom_site_fract_z
 _atom_site_occupancy
  V  V0  1  0.74702775  0.74837713  0.48605798  1
  V  V1  1  0.75895090  0.38012036  0.12174965  1
  V  V2  1  0.37053974  0.25918950  0.12854655  1
  V  V3  1  0.38082125  0.12893098  0.25185374  1
  V  V4  1  -0.01324529  0.49516834  0.00285424  1
  V  V5  1  0.00323229  0.62521789  0.62528894  1
  V  V6  1  0.87025224  0.11458728  0.74832775  1
  V  V7  1  0.75002201  0.49615934  0.74908927  1
  V  V8  1  0.49966391  0.12523196  0.12659308  1
  V  V9  1  0.12183515  0.74835736  0.87388418  1
  V  V10  1  0.00220015  0.24421611  0.75668072  1
  V  V11  1  0.61809237  0.24823725  0.87264650  1
  V  V12  1  0.74416378  0.50428863  0.25309295  1
  V  V13  1  0.00009784  0.12187479  0.62435137  1
  V  V14  1  0.00183147  -0.00965887  0.49531931  1
  V  V15  1  0.12476773  0.24912032  0.37568039  1
  V  V16  1  0.00027497  0.49960210  0.49982107  1
  V  V17  1  0.88164366  0.76949759  0.12058620  1
  V  V18  1  0.49721407  0.63019714  0.62337459  1
  V  V19  1  0.87440370  0.62161614  0.74919402  1
  V  V20  1  0.49653858  0.00096053  0.49289864  1
  V  V21  1  0.62560090  0.74495537  0.88058174  1
  V  V22  1  0.12733848  0.36880626  0.75349727  1
  V  V23  1  0.25530111  0.00261181  0.25166450  1
  V  V24  1  0.12154800  0.62261230  -0.00159183  1
  V  V25  1  0.12538809  0.12399062  0.49984044  1
  V  V26  1  0.49797091  0.87770192  0.87720070  1
  V  V27  1  0.87019487  0.62841759  0.25489557  1
  V  V28  1  0.25630495  0.87651638  0.63173929  1
  V  V29  1  -0.00681196  0.37183210  0.87793015  1
  V  V30  1  0.13117271  0.75057892  0.37525568  1
  V  V31  1  0.87442307  -0.00443505  0.88693019  1
  V  V32  1  0.12421810  0.00087454  0.11717902  1
  V  V33  1  0.61879700  0.36961603  0.74836403  1
  V  V34  1  0.87729339  -0.00442657  0.37215901  1
  V  V35  1  0.37048361  0.11724784  0.75306049  1
  V  V36  1  0.38026810  0.74366578  0.12917013  1
  V  V37  1  0.62762391  -0.00063832  0.62604560  1
  V  V38  1  0.24618364  0.24899510  -0.00905009  1
  V  V39  1  0.25873505  0.74767775  0.50340538  1
  V  V40  1  0.62416367  0.12521515  0.49896009  1
  V  V41  1  0.74643620  0.11674207  0.87077300  1
  V  V42  1  0.62361794  0.11926874  0.00470848  1
  V  V43  1  0.25542778  0.49399295  0.75236839  1
  V  V44  1  0.62823708  0.62586462  0.48549983  1
  V  V45  1  0.62384226  0.50073345  0.62450678  1
  V  V46  1  0.13168930  0.49807942  0.12272674  1
  V  V47  1  0.37432494  0.62527188  0.74911333  1
  V  V48  1  0.74346314  0.72703818  0.01459167  1
  V  V49  1  0.62920751  0.87751151  0.75048677  1
  V  V50  1  0.74105487  0.00115203  0.24845563  1
  V  V51  1  0.75451369  0.25397943  -0.00164163  1
  V  V52  1  0.87377966  0.37509536  0.49968636  1
  V  V53  1  0.25445548  0.62161811  0.87444195  1
  V  V54  1  0.50116127  0.12881793  0.63225534  1
  V  V55  1  0.13108100  0.37572505  0.24601611  1
  V  V56  1  0.12560127  0.88378622  0.75226975  1
  V  V57  1  0.12559081  0.87914550  0.25711246  1
  V  V58  1  0.37483401  0.87714896  0.49832666  1
  V  V59  1  0.37111000  0.87758629  0.00352725  1
  V  V60  1  0.50420893  0.86662551  0.37078862  1
  V  V61  1  -0.00211060  0.62686200  0.12557534  1
  V  V62  1  0.37267278  0.25527394  0.63515175  1
  V  V63  1  0.75281866  0.87665865  0.62707523  1
  V  V64  1  0.00133041  0.75641687  0.25751510  1
  V  V65  1  0.36535825  0.50439140  0.37503791  1
  V  V66  1  -0.00545293  0.87529290  0.88877248  1
  V  V67  1  0.74971588  0.24922573  0.49870239  1
  V  V68  1  -0.00068022  0.12335026  0.11962832  1
  V  V69  1  -0.00047978  0.37587416  0.37535265  1
  V  V70  1  0.13173844  0.62466657  0.49541963  1
  V  V71  1  0.49695359  0.37051686  0.36991501  1
  V  V72  1  0.62043421  0.37600920  0.23794821  1
  V  V73  1  0.51561156  0.51055602  0.01170999  1
  V  V74  1  0.36805247  0.37107522  0.50316881  1
  V  V75  1  0.37083138  0.38391141  -0.00151620  1
  V  V76  1  0.87305013  0.74996888  0.62435932  1
  V  V77  1  0.73918775  0.88537003  0.11392640  1
  V  V78  1  0.13179594  0.49371464  0.62653720  1
  V  V79  1  0.62173416  0.25057265  0.36855232  1
  V  V80  1  -0.00382965  0.25034327  0.24884029  1
  V  V81  1  0.49681903  0.38274619  0.87679985  1
  V  V82  1  0.25584681  0.12326649  0.37729267  1
  V  V83  1  0.49992100  0.49811443  0.50013015  1
  V  V84  1  0.49435103  0.75262712  0.74663271  1
  Zn  Zn85  1  -0.00317509  0.75209757  0.75148285  1
  Zn  Zn86  1  0.51344061  0.72840676  0.24603506  1
  Zn  Zn87  1  0.75030419  0.12402878  0.37198015  1
  Zn  Zn88  1  0.24985834  0.74936353  0.00230725  1
  Zn  Zn89  1  0.87077512  0.50905943  0.37752717  1
  Zn  Zn90  1  0.74172279  0.62174521  0.87240522  1
  Zn  Zn91  1  0.36899608  0.62809451  0.25311485  1
  Zn  Zn92  1  0.62519482  0.86973125  0.25037495  1
  Zn  Zn93  1  0.87750229  0.25201345  0.11783654  1
  Zn  Zn94  1  0.24699931  0.50474239  0.25117638  1
  Zn  Zn95  1  0.50163644  -0.00149010  0.00618742  1
  Zn  Zn96  1  0.23217750  0.11875709  0.86704151  1
  Zn  Zn97  1  0.87864770  0.87162381  0.49597855  1
  Zn  Zn98  1  0.25093204  0.87389805  0.12734513  1
  Zn  Zn99  1  0.36785759  -0.00119223  0.87472124  1
  Zn  Zn100  1  0.87263737  0.12560638  0.24927387  1
  Zn  Zn101  1  0.87345405  0.24775953  0.62592646  1
  Zn  Zn102  1  0.86930370  0.49454089  0.88116226  1
  Zn  Zn103  1  0.74856272  0.37344030  0.62388765  1
  Zn  Zn104  1  0.13097657  0.00074277  0.62762458  1
  Zn  Zn105  1  0.24820369  0.25027258  0.50658981  1
  Zn  Zn106  1  0.12098430  0.12772182  -0.00675568  1
  Zn  Zn107  1  0.18919035  0.18882291  0.18382881  1
  Zn  Zn108  1  0.18861105  0.18755443  0.68768931  1
  Zn  Zn109  1  0.19476685  0.68512572  0.18738396  1
  Zn  Zn110  1  0.18827614  0.69069424  0.68737209  1
  Zn  Zn111  1  0.68845568  0.19026076  0.18547621  1
  Zn  Zn112  1  0.68787465  0.18845663  0.68726828  1
  Zn  Zn113  1  0.68966898  0.69162567  0.18706242  1
  Zn  Zn114  1  0.68456324  0.68966192  0.68551224  1
  Zn  Zn115  1  0.31087560  0.31116312  0.31375801  1
  Zn  Zn116  1  0.31516290  0.31047696  0.81439155  1
  Zn  Zn117  1  0.31502345  0.81430701  0.31549820  1
  Zn  Zn118  1  0.31157187  0.81072301  0.81509649  1
  Zn  Zn119  1  0.81001610  0.31650185  0.31269253  1
  Zn  Zn120  1  0.81168655  0.30700595  0.81115731  1
  Zn  Zn121  1  0.81276040  0.82035304  0.30798854  1
  Zn  Zn122  1  0.81065925  0.80978519  0.81553636  1
  Zn  Zn123  1  0.18664156  0.43300478  0.43997639  1
  Zn  Zn124  1  0.18364556  0.43388401  0.93574628  1
  Zn  Zn125  1  0.19047352  0.93849225  0.43755027  1
  Zn  Zn126  1  0.19077523  0.93968966  0.93418826  1
  Zn  Zn127  1  0.68621726  0.43779065  0.43308690  1
  Zn  Zn128  1  0.68484672  0.43738075  0.93741189  1
  Zn  Zn129  1  0.68791311  0.93633211  0.43726678  1
  Zn  Zn130  1  0.68815986  0.93558031  0.93786022  1
  Zn  Zn131  1  0.31172494  0.06414712  0.06205639  1
  Zn  Zn132  1  0.31402814  0.06081502  0.56585305  1
  Zn  Zn133  1  0.31216384  0.56385440  0.06054351  1
  Zn  Zn134  1  0.31359060  0.56091946  0.56397645  1
  Zn  Zn135  1  0.81320728  0.06753242  0.06305589  1
  Zn  Zn136  1  0.81329102  0.05999840  0.55918997  1
  Zn  Zn137  1  0.79775507  0.57280058  0.07160028  1
  Zn  Zn138  1  0.81022637  0.56363519  0.56238496  1
  Zn  Zn139  1  0.43910271  0.44188461  0.18728510  1
  Zn  Zn140  1  0.43842544  0.43800367  0.68919413  1
  Zn  Zn141  1  0.43633012  0.94071040  0.18738180  1
  Zn  Zn142  1  0.43888810  0.93744294  0.68131680  1
  Zn  Zn143  1  0.93695804  0.44025538  0.18910192  1
  Zn  Zn144  1  0.93944463  0.43401451  0.68575232  1
  Zn  Zn145  1  0.94090081  0.94259276  0.19258323  1
  Zn  Zn146  1  0.94026766  0.93704100  0.69079147  1
  Zn  Zn147  1  0.06260385  0.06371563  0.31109591  1
  Zn  Zn148  1  0.05992328  0.05874431  0.81920444  1
  Zn  Zn149  1  0.06159865  0.56514406  0.31215039  1
  Zn  Zn150  1  0.06117752  0.55739814  0.81357876  1
  Zn  Zn151  1  0.56059741  0.06096253  0.31258255  1
  Zn  Zn152  1  0.55989731  0.05910787  0.81199015  1
  Zn  Zn153  1  0.55481994  0.55637191  0.30668645  1
  Zn  Zn154  1  0.55963198  0.56061566  0.81444580  1
  Zn  Zn155  1  0.43731268  0.18881614  0.44079288  1
  Zn  Zn156  1  0.43629442  0.19217661  0.94005560  1
  Zn  Zn157  1  0.43929313  0.68699111  0.43653223  1
  Zn  Zn158  1  0.43641677  0.68918387  0.93916507  1
  Zn  Zn159  1  0.93599058  0.18299016  0.43535002  1
  Zn  Zn160  1  0.93667942  0.18390164  0.93473177  1
  Zn  Zn161  1  0.94078514  0.69127253  0.43740668  1
  Zn  Zn162  1  0.92705218  0.68452254  0.94103404  1
  Zn  Zn163  1  0.06241750  0.31385208  0.06244782  1
  Zn  Zn164  1  0.06160102  0.30971969  0.56705254  1
  Zn  Zn165  1  0.06784408  0.81423686  0.06473034  1
  Zn  Zn166  1  0.06743491  0.81116715  0.56626626  1
  Zn  Zn167  1  0.55788958  0.30819760  0.05906129  1
  Zn  Zn168  1  0.55868499  0.31122496  0.56114470  1
  Zn  Zn169  1  0.56128446  0.81021376  0.06335304  1
  Zn  Zn170  1  0.56538980  0.81133383  0.55961340  1
  O  O171  1  0.11917760  0.11758599  0.12295530  1
  O  O172  1  0.11885513  0.12193713  0.61978284  1
  O  O173  1  0.11679228  0.62031534  0.11830318  1
  O  O174  1  0.11915412  0.61942419  0.61821441  1
  O  O175  1  0.61426091  0.13593563  0.11561174  1
  O  O176  1  0.61873847  0.12209633  0.62036510  1
  O  O177  1  0.70208764  0.64983454  0.08161663  1
  O  O178  1  0.61503846  0.61878489  0.62074521  1
  O  O179  1  0.37965988  0.37590619  0.38385075  1
  O  O180  1  0.38708048  0.36806210  0.88407033  1
  O  O181  1  0.38482047  0.87474567  0.38937233  1
  O  O182  1  0.38223426  0.87286518  0.88326096  1
  O  O183  1  0.88109428  0.37615443  0.38629070  1
  O  O184  1  0.88751844  0.37647140  0.86585069  1
  O  O185  1  0.87474091  0.88880747  0.37763739  1
  O  O186  1  0.88578844  0.87905557  0.87010702  1
  O  O187  1  0.24582833  0.01504583  0.36802484  1
  O  O188  1  0.25511119  0.00686525  0.87489236  1
  O  O189  1  0.26279654  0.49411027  0.37962938  1
  O  O190  1  0.23990849  0.51109019  0.86461038  1
  O  O191  1  0.75628113  0.00009595  0.36723109  1
  O  O192  1  0.75375522  0.00985720  0.87545390  1
  O  O193  1  0.75456179  0.49277540  0.35922868  1
  O  O194  1  0.75122572  0.50051541  0.86349001  1
  O  O195  1  0.23489830  0.50193731  0.12317123  1
  O  O196  1  0.23868433  0.50331510  0.63371566  1
  O  O197  1  0.24164090  1.00122166  0.13489301  1
  O  O198  1  0.24844647  0.98285364  0.62073345  1
  O  O199  1  0.75217828  0.49016023  0.13780355  1
  O  O200  1  0.74245718  0.49731413  0.63277591  1
  O  O201  1  0.75693993  0.99056117  0.12967892  1
  O  O202  1  0.74500112  0.98479391  0.61725043  1
  O  O203  1  0.00599161  0.36949656  0.25662310  1
  O  O204  1  0.00495943  0.36421329  0.75320778  1
  O  O205  1  0.00929682  0.86439051  0.24884404  1
  O  O206  1  0.00968278  0.87022450  0.75655309  1
  O  O207  1  0.50712829  0.37794173  0.25841528  1
  O  O208  1  0.51101275  0.38100103  0.75872868  1
  O  O209  1  0.49889668  0.88441736  0.26677514  1
  O  O210  1  0.50374105  0.86856361  0.75410335  1
  O  O211  1  0.48772230  0.12339212  0.24712336  1
  O  O212  1  0.49562586  0.12234261  0.73704025  1
  O  O213  1  0.48262084  0.62059271  0.25499347  1
  O  O214  1  0.49565265  0.63105731  0.74418425  1
  O  O215  1  1.00118351  0.13602326  0.24166491  1
  O  O216  1  0.99376201  0.12762074  0.74338058  1
  O  O217  1  0.99779702  0.63886398  0.24428864  1
  O  O218  1  0.99723705  0.62234942  0.73652859  1
  O  O219  1  0.36682239  0.25836648  0.00834975  1
  O  O220  1  0.37354981  0.25570439  0.51169960  1
  O  O221  1  0.37553702  0.76066462  0.00898921  1
  O  O222  1  0.36410769  0.75418626  0.49662590  1
  O  O223  1  0.85855540  0.24619277  -0.00499914  1
  O  O224  1  0.86691560  0.25549476  0.49890622  1
  O  O225  1  0.87280762  0.75538870  0.01851253  1
  O  O226  1  0.86592382  0.74965037  0.50579494  1
  O  O227  1  0.12637143  0.24310226  0.49650378  1
  O  O228  1  0.14386707  0.25317570  1.00885028  1
  O  O229  1  0.13207776  0.74337210  0.49432329  1
  O  O230  1  0.12409990  0.74284877  0.98981001  1
  O  O231  1  0.63110947  0.24760303  0.49116980  1
  O  O232  1  0.63251864  0.24152081  0.99084316  1
  O  O233  1  0.63828005  0.74146626  0.50085831  1
  O  O234  1  0.63278004  0.75491866  0.99141565  1
  O  O235  1  0.48211680  0.23973219  0.11825577  1
  O  O236  1  0.48848434  0.23893111  0.61867651  1
  O  O237  1  0.48551092  0.75512005  0.12793648  1
  O  O238  1  0.50712956  0.74213932  0.63372377  1
  O  O239  1  0.99813371  0.24648140  0.13323109  1
  O  O240  1  0.99707059  0.23623434  0.63309996  1
  O  O241  1  0.99417533  0.75032360  0.13192859  1
  O  O242  1  0.99376619  0.74089816  0.62496530  1
  O  O243  1  0.00614583  0.25316006  0.36890605  1
  O  O244  1  -0.00477804  0.25430368  0.86352026  1
  O  O245  1  0.01534290  0.74932317  0.36924267  1
  O  O246  1  0.00164356  0.75787212  0.87539877  1
  O  O247  1  0.50705591  0.26154261  0.38144820  1
  O  O248  1  0.51320265  0.25996064  0.88233600  1
  O  O249  1  0.49508682  0.76362429  0.37193577  1
  O  O250  1  0.50588065  0.75983641  0.86959018  1
  O  O251  1  0.24565320  0.12437290  0.49390905  1
  O  O252  1  0.25049157  0.13894446  0.99914708  1
  O  O253  1  0.24198631  0.63325389  0.50865613  1
  O  O254  1  0.24091868  0.62456887  0.98991901  1
  O  O255  1  0.74314464  0.13272393  0.49764515  1
  O  O256  1  0.74181925  0.13192940  0.99253285  1
  O  O257  1  0.74322932  0.63771401  0.50331541  1
  O  O258  1  0.79467114  0.63761020  0.97362914  1
  O  O259  1  0.25854409  0.36450909  -0.01000680  1
  O  O260  1  0.26316260  0.37161478  0.50093807  1
  O  O261  1  0.25857542  0.87116827  0.00142536  1
  O  O262  1  0.25754310  0.86893637  0.50451898  1
  O  O263  1  0.74227297  0.36767654  0.00959635  1
  O  O264  1  0.75671945  0.36868541  0.49935754  1
  O  O265  1  0.74843416  0.86890975  0.01197262  1
  O  O266  1  0.75014775  0.86262762  0.50680029  1
  O  O267  1  0.12140232  0.49319432  0.24220968  1
  O  O268  1  0.13209135  0.49310584  0.74308045  1
  O  O269  1  0.13376224  0.99497378  0.24709750  1
  O  O270  1  0.12097870  0.98696284  0.74945069  1
  O  O271  1  0.63154607  0.48832877  0.25274494  1
  O  O272  1  0.63186670  0.49328134  0.74558685  1
  O  O273  1  0.63738938  0.99608092  0.25524823  1
  O  O274  1  0.61977934  0.98554002  0.74344062  1
  O  O275  1  0.36219806  0.01159785  0.24660481  1
  O  O276  1  0.38044468  0.01454651  0.74686358  1
  O  O277  1  0.37006158  0.49006332  0.26753358  1
  O  O278  1  0.36156607  0.50380867  0.74567983  1
  O  O279  1  0.86646915  0.00186953  0.25768592  1
  O  O280  1  0.87807712  0.01047536  0.75746494  1
  O  O281  1  0.86969412  0.51232365  0.25134284  1
  O  O282  1  0.86441683  0.50277766  0.74387296  1
  O  O283  1  0.11800569  0.36867448  0.37087591  1
  O  O284  1  0.11074376  0.37881896  0.86055865  1
  O  O285  1  0.12889953  0.86933329  0.36476102  1
  O  O286  1  0.11520498  0.86793180  0.87180983  1
  O  O287  1  0.61557983  0.36893697  0.36839456  1
  O  O288  1  0.62024517  0.36689965  0.86731655  1
  O  O289  1  0.60750149  0.87637018  0.37889499  1
  O  O290  1  0.61892162  0.86917746  0.86788928  1
  O  O291  1  0.37837074  0.13436652  0.13306458  1
  O  O292  1  0.38140261  0.13195327  0.63397634  1
  O  O293  1  0.37100663  0.64170111  0.12053233  1
  O  O294  1  0.38952813  0.62049491  0.63014536  1
  O  O295  1  0.88356402  0.13017904  0.12928197  1
  O  O296  1  0.88105417  0.12307626  0.63065731  1
  O  O297  1  0.88081200  0.64035031  0.13711108  1
  O  O298  1  0.88284966  0.62748195  0.63102929  1
  O  O299  1  0.26476343  0.24753640  0.11612733  1
  O  O300  1  0.26808873  0.24639789  0.62469246  1
  O  O301  1  0.26057257  0.75509417  0.12144749  1
  O  O302  1  0.24385144  0.76179457  0.61396928  1
  O  O303  1  0.75279239  0.25820737  0.11545201  1
  O  O304  1  0.75009821  0.25182556  0.61089617  1
  O  O305  1  0.76642036  0.77356952  0.12592711  1
  O  O306  1  0.75435720  0.75847280  0.61913498  1
  O  O307  1  0.24264565  0.23979287  0.37793814  1
  O  O308  1  0.25663892  0.24198588  0.88744427  1
  O  O309  1  0.23929730  0.75467655  0.38512905  1
  O  O310  1  0.23885976  0.73987920  0.87644048  1
  O  O311  1  0.74214827  0.25045434  0.38404767  1
  O  O312  1  0.73998474  0.24148090  0.87922630  1
  O  O313  1  0.75567299  0.75597221  0.38770266  1
  O  O314  1  0.74017954  0.75043036  0.88604327  1
  O  O315  1  0.00134584  0.13429115  0.01514047  1
  O  O316  1  0.00497120  0.11909451  0.50777817  1
  O  O317  1  0.00201729  0.61737167  0.00523621  1
  O  O318  1  0.00686329  0.62056587  0.50927033  1
  O  O319  1  0.50600910  0.12485920  0.00635597  1
  O  O320  1  0.50379112  0.11805508  0.50740011  1
  O  O321  1  0.49467595  0.60782578  -0.00808370  1
  O  O322  1  0.50689643  0.62143689  0.50668346  1
  O  O323  1  0.49038891  0.37961976  0.49410927  1
  O  O324  1  0.49405133  0.38294158  0.99409051  1
  O  O325  1  0.49470118  0.87944726  0.49502368  1
  O  O326  1  0.49456170  0.87713689  0.99249158  1
  O  O327  1  0.99397098  0.37877697  0.49685613  1
  O  O328  1  1.00267480  0.38106268  0.99007102  1
  O  O329  1  1.00193638  0.88714368  0.50681063  1
  O  O330  1  1.00258624  0.87180576  0.98737570  1
  O  O331  1  0.48982393  0.48604176  0.38301262  1
  O  O332  1  0.50475933  0.48744150  0.88345853  1
  O  O333  1  0.50179251  0.99406404  0.38871969  1
  O  O334  1  0.49548883  0.98642484  0.87547445  1
  O  O335  1  0.99880402  0.49456117  0.38317575  1
  O  O336  1  0.99620012  0.49089238  0.88448846  1
  O  O337  1  0.99312862  1.00606410  0.38404451  1
  O  O338  1  0.99026762  0.98342946  0.87336264  1
  O  O339  1  0.01110549  0.01164494  0.13472214  1
  O  O340  1  0.00147838  0.00978430  0.61848457  1
  O  O341  1  0.00520047  0.50584868  0.11943335  1
  O  O342  1  0.01022863  0.50558312  0.62006976  1
  O  O343  1  0.49510015  0.01842141  0.12492618  1
  O  O344  1  0.50809532  0.00694138  0.61515369  1
  O  O345  1  0.50001951  0.49916192  0.11140688  1
  O  O346  1  0.50501936  0.50635570  0.61917635  1
  O  O347  1  0.23412398  0.37790172  0.25616018  1
  O  O348  1  0.24177483  0.38160218  0.75853760  1
  O  O349  1  0.24544247  0.88646108  0.25273104  1
  O  O350  1  0.24155407  0.86562982  0.74241544  1
  O  O351  1  0.74185094  0.37977360  0.24146107  1
  O  O352  1  0.74092994  0.37957884  0.74715496  1
  O  O353  1  0.74860542  0.88489468  0.23726119  1
  O  O354  1  0.74040035  0.86783987  0.74124465  1
  O  O355  1  0.25690341  0.12231438  0.25703150  1
  O  O356  1  0.26671888  0.12882416  0.74982884  1
  O  O357  1  0.25553088  0.61842138  0.25219677  1
  O  O358  1  0.25427241  0.61931532  0.75372292  1
  O  O359  1  0.75074979  0.11712815  0.24925215  1
  O  O360  1  0.75722974  0.12918284  0.75836811  1
  O  O361  1  0.75811302  0.61718922  0.24717034  1
  O  O362  1  0.75707310  0.61701861  0.74881249  1
  O  O363  1  0.36740126  0.13481395  0.36618046  1
  O  O364  1  0.38678703  0.12681938  0.85696622  1
  O  O365  1  0.37536835  0.60555257  0.38534247  1
  O  O366  1  0.36175490  0.63108834  0.86769566  1
  O  O367  1  0.87107843  0.11297148  0.37199701  1
  O  O368  1  0.86711368  0.11610307  0.86822271  1
  O  O369  1  0.88322339  0.62844013  0.36013027  1
  O  O370  1  0.88793028  0.61722020  0.85298702  1
  O  O371  1  0.11691551  0.38563055  0.13525052  1
  O  O372  1  0.11933085  0.38403781  0.63631320  1
  O  O373  1  0.12739754  0.88233477  0.13827329  1
  O  O374  1  0.13236713  0.87546979  0.63645636  1
  O  O375  1  0.62838718  0.36317227  0.13572783  1
  O  O376  1  0.62268497  0.37996887  0.63188680  1
  O  O377  1  0.63686014  0.87958386  0.12252160  1
  O  O378  1  0.63199633  0.87742134  0.63145869  1
  O  O379  1  0.11659837  0.25710337  0.25281014  1
  O  O380  1  0.11598165  0.25762661  0.74307727  1
  O  O381  1  0.12220739  0.75678253  0.25703934  1
  O  O382  1  0.12139038  0.75352264  0.76272419  1
  O  O383  1  0.63043163  0.25749637  0.26321575  1
  O  O384  1  0.62812087  0.25937995  0.75700286  1
  O  O385  1  0.62229324  0.75568405  0.24367545  1
  O  O386  1  0.61602743  0.76001930  0.75523301  1
  O  O387  1  0.36896289  0.24569892  0.23742583  1
  O  O388  1  0.37828576  0.24338477  0.73913241  1
  O  O389  1  0.37527033  0.75386571  0.23749474  1
  O  O390  1  0.38806174  0.74509249  0.75322602  1
  O  O391  1  0.88764122  0.25137552  0.25366859  1
  O  O392  1  0.88232205  0.23674661  0.74737007  1
  O  O393  1  0.88367777  0.75074103  0.24441921  1
  O  O394  1  0.87455968  0.73975875  0.74225038  1
  O  O395  1  0.37861916  0.49030792  0.49532432  1
  O  O396  1  0.37534365  0.48625906  1.00427745  1
  O  O397  1  0.38518898  0.99151262  0.50598540  1
  O  O398  1  0.37808111  0.98911510  1.00084280  1
  O  O399  1  0.87938638  0.49359833  0.49929631  1
  O  O400  1  0.88466244  0.50274501  1.00424531  1
  O  O401  1  0.88440328  0.99771400  0.49218507  1
  O  O402  1  0.87117346  1.00430487  0.98614762  1
  O  O403  1  0.12727449  -0.00264208  0.01491470  1
  O  O404  1  0.11815416  0.00666089  0.50013919  1
  O  O405  1  0.11529570  0.50307913  0.00595503  1
  O  O406  1  0.12321808  0.50553525  0.50730759  1
  O  O407  1  0.62358017  0.01526559  -0.00638522  1
  O  O408  1  0.61979373  0.00606671  0.50579474  1
  O  O409  1  0.61596315  0.50195922  0.00063974  1
  O  O410  1  0.62149996  0.50444150  0.50574766  1
  O  O411  1  0.37896867  0.36429554  0.11908143  1
  O  O412  1  0.38313843  0.36203845  0.62096729  1
  O  O413  1  0.37356559  0.87018213  0.11859094  1
  O  O414  1  0.36939639  0.87351395  0.61419650  1
  O  O415  1  0.86307845  0.37161696  0.12972951  1
  O  O416  1  0.87476436  0.37074876  0.61176398  1
  O  O417  1  0.87609670  0.87153389  0.12826023  1
  O  O418  1  0.86883938  0.86939571  0.62438538  1
  O  O419  1  0.13095386  0.13144050  0.38031575  1
  O  O420  1  0.11841516  0.12885546  0.87942350  1
  O  O421  1  0.12171003  0.63102037  0.38885132  1
  O  O422  1  0.12684443  0.63102068  0.87789302  1
  O  O423  1  0.62355966  0.13428699  0.38040821  1
  O  O424  1  0.62881651  0.12995762  0.87650336  1
  O  O425  1  0.61897990  0.61449662  0.38744075  1
  O  O426  1  0.62451317  0.64073755  0.86619391  1
