# generated using pymatgen
data_V85Zn86O256
_symmetry_space_group_name_H-M   'P 1'
_cell_length_a   16.94651586
_cell_length_b   16.94574916
_cell_length_c   16.94152309
_cell_angle_alpha   90.01970320
_cell_angle_beta   89.99083848
_cell_angle_gamma   90.03512335
_symmetry_Int_Tables_number   1
_chemical_formula_structural   V85Zn86O256
_chemical_formula_sum   'V85 Zn86 O256'
_cell_volume   4865.11975620
_cell_formula_units_Z   1
loop_
 _symmetry_equiv_pos_site_id
 _symmetry_equiv_pos_as_xyz
  1  'x, y, z'
loop_
 _atom_site_type_symbol
 _atom_site_label
 _atom_site_symmetry_multiplicity
 _atom_site_fract_x
 _atom_site_fract_y
 _atom_site_fract_z
 _atom_site_occupancy
  V  V0  1  0.37725145  0.25443868  0.62459800  1
  V  V1  1  0.50869448  0.50188172  0.50308919  1
  V  V2  1  0.87486674  0.12799282  0.24769818  1
  V  V3  1  0.74833868  0.86539346  0.61828402  1
  V  V4  1  0.62302858  0.87082664  0.75442969  1
  V  V5  1  0.87027549  0.50124271  0.89547413  1
  V  V6  1  -0.01703842  0.13226625  0.62869170  1
  V  V7  1  0.36676670  0.86832131  0.50383160  1
  V  V8  1  0.62257395  -0.00301562  0.62438452  1
  V  V9  1  0.87670105  0.37510818  0.50535632  1
  V  V10  1  0.37148011  0.12615664  0.74671007  1
  V  V11  1  0.74584814  0.39445849  0.62646703  1
  V  V12  1  0.63166264  0.12606350  -0.00035179  1
  V  V13  1  0.75023846  0.50061781  0.25142435  1
  V  V14  1  0.11917976  0.75954237  0.87701120  1
  V  V15  1  0.12069561  0.25179820  0.87174184  1
  V  V16  1  0.12276625  0.49964168  0.11557368  1
  V  V17  1  0.50289133  0.50044058  0.00165570  1
  V  V18  1  0.12327103  0.12748010  0.50360479  1
  V  V19  1  0.75657909  -0.00181882  0.75127244  1
  V  V20  1  0.37607140  0.62239139  0.75181688  1
  V  V21  1  0.24425644  -0.00330610  0.74528714  1
  V  V22  1  0.12228211  -0.01152407  0.13677457  1
  V  V23  1  0.50133026  0.37707125  0.37569073  1
  V  V24  1  -0.00248507  -0.00050544  0.50070609  1
  V  V25  1  0.76413218  0.25024908  0.00640314  1
  V  V26  1  0.62976039  0.74999179  0.38059638  1
  V  V27  1  0.63533505  0.62655745  0.50633566  1
  V  V28  1  0.80782978  0.17340855  0.81631147  1
  V  V29  1  0.75232098  0.25020022  0.51021366  1
  V  V30  1  0.12379398  0.12347280  0.00103684  1
  V  V31  1  -0.00143242  0.61970921  0.12426525  1
  V  V32  1  0.24673572  0.62725545  0.38766574  1
  V  V33  1  0.87532720  -0.00097908  0.37344144  1
  V  V34  1  0.36394260  0.74397286  0.62409333  1
  V  V35  1  0.24653224  0.12493561  0.87074265  1
  V  V36  1  0.87459890  0.61082929  0.74401758  1
  V  V37  1  0.49992731  0.87351025  0.37653195  1
  V  V38  1  0.87036852  0.74439986  0.12505515  1
  V  V39  1  0.62354145  0.12449192  0.49820588  1
  V  V40  1  0.49934634  0.74803333  0.24688750  1
  V  V41  1  0.75101321  0.87278226  0.11413129  1
  V  V42  1  0.49947864  0.25446699  0.76110642  1
  V  V43  1  0.87751218  0.50489935  0.37565149  1
  V  V44  1  0.49090730  0.25175648  0.24730029  1
  V  V45  1  0.25042383  0.50417332  0.24944782  1
  V  V46  1  0.00637237  0.74468849  0.24796685  1
  V  V47  1  0.24435449  0.37953971  0.62506329  1
  V  V48  1  0.75126658  0.12694386  0.37415440  1
  V  V49  1  0.25636271  0.37035246  0.12622130  1
  V  V50  1  0.74907303  -0.00235122  0.24735760  1
  V  V51  1  0.25371879  0.24973081  0.00232480  1
  V  V52  1  0.88244750  0.74532609  0.62807046  1
  V  V53  1  0.12624559  0.74837105  0.38655889  1
  V  V54  1  0.26189539  0.76673850  0.00926786  1
  V  V55  1  0.62368571  0.38664321  0.75021844  1
  V  V56  1  -0.00144943  -0.01176208  -0.00704842  1
  V  V57  1  0.11657951  0.38136023  0.74706072  1
  V  V58  1  0.12383167  0.25228889  0.37602591  1
  V  V59  1  0.87260473  0.86286992  0.49598685  1
  V  V60  1  -0.00141161  0.38504039  0.88911262  1
  V  V61  1  0.00555944  0.87483825  0.36481734  1
  V  V62  1  0.37282441  0.63020227  0.24401614  1
  V  V63  1  0.24835142  0.12486064  0.36987730  1
  V  V64  1  0.50625156  0.62390136  0.62821670  1
  V  V65  1  0.37622251  0.37816067  0.50107907  1
  V  V66  1  0.00011329  0.38202218  0.37982848  1
  V  V67  1  0.62584513  0.25195925  0.37353123  1
  V  V68  1  0.24689183  0.62513741  0.88150081  1
  V  V69  1  0.29535001  -0.05648786  0.19736763  1
  V  V70  1  0.38534759  0.36748832  -0.00030337  1
  V  V71  1  0.36806847  -0.00113223  0.37606650  1
  V  V72  1  -0.00681546  0.25359623  0.24662979  1
  V  V73  1  0.63469281  0.63125178  0.00380281  1
  V  V74  1  0.37818144  0.49307360  0.87693803  1
  V  V75  1  0.24659492  0.49911584  0.75130390  1
  V  V76  1  0.49703135  0.12894676  0.12498036  1
  V  V77  1  0.62316861  0.24879348  0.87515899  1
  V  V78  1  0.06146330  0.55746520  0.56583211  1
  V  V79  1  0.49816223  0.12402544  0.62517438  1
  V  V80  1  0.12544385  0.37580600  0.25009082  1
  V  V81  1  0.76275072  0.37155624  0.12349515  1
  V  V82  1  0.75553138  0.63126311  0.37152305  1
  V  V83  1  0.49789651  -0.00041574  0.50116930  1
  V  V84  1  -0.00254068  0.12702697  0.12458612  1
  Zn  Zn85  1  0.11665597  0.87403387  0.74607828  1
  Zn  Zn86  1  0.12176468  -0.00246433  0.62405335  1
  Zn  Zn87  1  0.75050828  0.62790179  0.87309556  1
  Zn  Zn88  1  -0.01540241  0.24976811  0.74915083  1
  Zn  Zn89  1  0.63121680  0.87111012  0.25084178  1
  Zn  Zn90  1  0.50019530  0.74869231  0.75447130  1
  Zn  Zn91  1  0.87441829  0.86163920  -0.01275833  1
  Zn  Zn92  1  0.49997470  -0.00294563  -0.00323438  1
  Zn  Zn93  1  0.37288108  -0.01108801  0.88104639  1
  Zn  Zn94  1  0.12310675  0.62540891  -0.00111083  1
  Zn  Zn95  1  0.62875397  0.00001703  0.11963042  1
  Zn  Zn96  1  0.48343357  0.86514818  0.89669180  1
  Zn  Zn97  1  0.36912775  0.12649654  0.24480044  1
  Zn  Zn98  1  0.87961407  -0.00692094  0.86468525  1
  Zn  Zn99  1  0.49846731  0.62705495  0.12358393  1
  Zn  Zn100  1  0.62565055  0.49720179  0.12551755  1
  Zn  Zn101  1  0.24243401  0.86841524  0.62216067  1
  Zn  Zn102  1  0.37731167  0.50376374  0.37458588  1
  Zn  Zn103  1  0.24961282  0.25201562  0.50049092  1
  Zn  Zn104  1  0.62490544  0.37545425  0.24671845  1
  Zn  Zn105  1  0.62752924  0.75169434  0.88295646  1
  Zn  Zn106  1  -0.00782165  0.75399975  0.75998613  1
  Zn  Zn107  1  0.18212180  0.18639935  0.18710256  1
  Zn  Zn108  1  0.18421681  0.19265909  0.68439693  1
  Zn  Zn109  1  0.18519141  0.69204605  0.18703920  1
  Zn  Zn110  1  0.18167324  0.68250719  0.69101187  1
  Zn  Zn111  1  0.68615570  0.18997213  0.18608367  1
  Zn  Zn112  1  0.67923017  0.19069556  0.68374101  1
  Zn  Zn113  1  0.68597599  0.68467981  0.18909755  1
  Zn  Zn114  1  0.69692990  0.68566926  0.69203807  1
  Zn  Zn115  1  0.31223323  0.31384921  0.31648601  1
  Zn  Zn116  1  0.31046498  0.31242116  0.81327869  1
  Zn  Zn117  1  0.31233899  0.80613204  0.31730149  1
  Zn  Zn118  1  0.30569744  0.80821309  0.81283888  1
  Zn  Zn119  1  0.81276807  0.31597299  0.31335027  1
  Zn  Zn120  1  0.80643584  0.34010220  0.81698497  1
  Zn  Zn121  1  0.81791484  0.80976454  0.30609994  1
  Zn  Zn122  1  0.80908849  0.80868745  0.81672472  1
  Zn  Zn123  1  0.18735333  0.44376591  0.43851715  1
  Zn  Zn124  1  0.18983558  0.43480359  0.93689609  1
  Zn  Zn125  1  0.18477449  0.93687633  0.43523675  1
  Zn  Zn126  1  0.18846056  0.93883396  0.93983935  1
  Zn  Zn127  1  0.68885716  0.43960590  0.43853508  1
  Zn  Zn128  1  0.68700914  0.43370975  0.94097687  1
  Zn  Zn129  1  0.68851069  0.93737173  0.43666751  1
  Zn  Zn130  1  0.69104005  0.94247865  0.93197863  1
  Zn  Zn131  1  0.31367577  0.06594164  0.06093819  1
  Zn  Zn132  1  0.30884222  0.06140788  0.56169516  1
  Zn  Zn133  1  0.31349089  0.56138048  0.06288531  1
  Zn  Zn134  1  0.31413479  0.55812296  0.56497205  1
  Zn  Zn135  1  0.81598060  0.06244621  0.06060969  1
  Zn  Zn136  1  0.80996566  0.05699196  0.56235278  1
  Zn  Zn137  1  0.81414729  0.56290274  0.06992073  1
  Zn  Zn138  1  0.82093183  0.56421174  0.55678691  1
  Zn  Zn139  1  0.43570348  0.43738821  0.18646761  1
  Zn  Zn140  1  0.44167188  0.43981268  0.68822264  1
  Zn  Zn141  1  0.46007233  0.92934793  0.17463012  1
  Zn  Zn142  1  0.41836114  0.91879866  0.71803837  1
  Zn  Zn143  1  0.93570666  0.44162389  0.19132186  1
  Zn  Zn144  1  0.93529721  0.43516926  0.68775583  1
  Zn  Zn145  1  0.93512444  0.93470441  0.18253397  1
  Zn  Zn146  1  0.93903223  0.93234455  0.68624981  1
  Zn  Zn147  1  0.06218940  0.06412222  0.31302183  1
  Zn  Zn148  1  0.05914862  0.06430086  0.80925023  1
  Zn  Zn149  1  0.06485171  0.56502526  0.31070292  1
  Zn  Zn150  1  0.05764460  0.56679857  0.80842270  1
  Zn  Zn151  1  0.56116754  0.06286077  0.30991796  1
  Zn  Zn152  1  0.56197811  0.05912118  0.81663098  1
  Zn  Zn153  1  0.56557662  0.56416770  0.31472384  1
  Zn  Zn154  1  0.56051955  0.56384191  0.82130959  1
  Zn  Zn155  1  0.43607595  0.18850359  0.43513214  1
  Zn  Zn156  1  0.42680115  0.16015841  0.94735066  1
  Zn  Zn157  1  0.43659136  0.68594724  0.43682151  1
  Zn  Zn158  1  0.44048244  0.68627305  0.93703082  1
  Zn  Zn159  1  0.93655028  0.19168264  0.43777423  1
  Zn  Zn160  1  0.94460758  0.18787232  0.93953698  1
  Zn  Zn161  1  0.94518218  0.68483327  0.44062124  1
  Zn  Zn162  1  0.93784265  0.68029559  0.94246465  1
  Zn  Zn163  1  0.06580983  0.31105108  0.06413027  1
  Zn  Zn164  1  0.05933935  0.31399640  0.56431503  1
  Zn  Zn165  1  0.06861442  0.80742264  0.06146417  1
  Zn  Zn166  1  0.06058403  0.81274464  0.56286063  1
  Zn  Zn167  1  0.57135972  0.31180081  0.06508923  1
  Zn  Zn168  1  0.56493344  0.31303550  0.56612058  1
  Zn  Zn169  1  0.56201470  0.81557881  0.06403965  1
  Zn  Zn170  1  0.55752675  0.80792389  0.56452392  1
  O  O171  1  0.11496328  0.11743513  0.12077479  1
  O  O172  1  0.11916945  0.12670262  0.61140783  1
  O  O173  1  0.12009659  0.61433090  0.12568102  1
  O  O174  1  0.11923481  0.61748459  0.62598543  1
  O  O175  1  0.61985741  0.12525205  0.11833758  1
  O  O176  1  0.61882939  0.11845562  0.61673465  1
  O  O177  1  0.62231205  0.61792551  0.11741997  1
  O  O178  1  0.62029071  0.63357485  0.61696933  1
  O  O179  1  0.38126180  0.37840672  0.38545737  1
  O  O180  1  0.36754271  0.38438791  0.88505195  1
  O  O181  1  0.38071091  0.87974052  0.38289617  1
  O  O182  1  0.38704770  0.88303315  0.83282733  1
  O  O183  1  0.88238004  0.38185057  0.38173388  1
  O  O184  1  0.88792608  0.38907733  0.87629055  1
  O  O185  1  0.88112750  0.87926501  0.37961241  1
  O  O186  1  0.86907535  0.88097137  0.87703583  1
  O  O187  1  0.26016262  0.00780481  0.38088734  1
  O  O188  1  0.25156284  0.00891390  0.86685503  1
  O  O189  1  0.25103530  0.50982315  0.36629461  1
  O  O190  1  0.25633554  0.50390007  0.87097616  1
  O  O191  1  0.75639427  0.00663753  0.36871204  1
  O  O192  1  0.75066251  0.00546998  0.85634804  1
  O  O193  1  0.75678294  0.50648352  0.37071132  1
  O  O194  1  0.76739309  0.49508970  0.88220624  1
  O  O195  1  0.24426289  0.49207749  0.13182375  1
  O  O196  1  0.25662293  0.48658151  0.63440053  1
  O  O197  1  0.23981941  1.00570779  0.12901882  1
  O  O198  1  0.24410939  0.99912222  0.63143799  1
  O  O199  1  0.75203546  0.49096304  0.13546820  1
  O  O200  1  0.74713858  0.49205127  0.61668596  1
  O  O201  1  0.75247228  0.99224670  0.13226539  1
  O  O202  1  0.74085942  0.99241454  0.62845345  1
  O  O203  1  0.00386327  0.36911215  0.25657452  1
  O  O204  1  0.00399652  0.36896645  0.75727597  1
  O  O205  1  -0.00449733  0.87129535  0.26087813  1
  O  O206  1  0.00296043  0.86767211  0.74770774  1
  O  O207  1  0.50109191  0.36912238  0.25608318  1
  O  O208  1  0.50904597  0.36372478  0.74161677  1
  O  O209  1  0.50453432  0.86821165  0.26210450  1
  O  O210  1  0.52142923  0.87098190  0.73172740  1
  O  O211  1  0.49875248  0.13421447  0.24437209  1
  O  O212  1  0.49057412  0.13190785  0.74406659  1
  O  O213  1  0.49135380  0.63070806  0.25395832  1
  O  O214  1  0.49596366  0.62322318  0.74375677  1
  O  O215  1  0.99618754  0.13382047  0.24514155  1
  O  O216  1  0.99892524  0.12829664  0.73346943  1
  O  O217  1  1.00292673  0.63304868  0.24043685  1
  O  O218  1  0.97969171  0.63362738  0.75723041  1
  O  O219  1  0.36201684  0.25318270  -0.00767540  1
  O  O220  1  0.37639299  0.26301527  0.50453779  1
  O  O221  1  0.35920694  0.74252741  -0.00529572  1
  O  O222  1  0.38065082  0.75750104  0.50879938  1
  O  O223  1  0.86294207  0.24414287  -0.00513626  1
  O  O224  1  0.86340591  0.26371830  0.49174413  1
  O  O225  1  0.88187603  0.74801603  0.01931180  1
  O  O226  1  0.87749118  0.75936641  0.50200010  1
  O  O227  1  0.12434200  0.24372239  0.49358553  1
  O  O228  1  0.13247057  0.24706946  0.98931220  1
  O  O229  1  0.11636789  0.74792692  0.48595780  1
  O  O230  1  0.13748244  0.74774352  0.99035141  1
  O  O231  1  0.62956702  0.24578993  0.49046139  1
  O  O232  1  0.63804879  0.24890948  0.99043127  1
  O  O233  1  0.61994836  0.74157045  0.48867598  1
  O  O234  1  0.62158537  0.73363612  1.00685770  1
  O  O235  1  0.50924497  0.24492173  0.13873312  1
  O  O236  1  0.49564722  0.24301167  0.63086285  1
  O  O237  1  0.50605475  0.74862412  0.14381963  1
  O  O238  1  0.49015478  0.73523750  0.62611365  1
  O  O239  1  1.00697519  0.24143316  0.13476553  1
  O  O240  1  0.99759314  0.23735579  0.62701691  1
  O  O241  1  0.99854191  0.74324715  0.13154251  1
  O  O242  1  0.98391484  0.75176008  0.62252669  1
  O  O243  1  0.00493198  0.26039334  0.36852410  1
  O  O244  1  0.00568536  0.25915528  0.87135814  1
  O  O245  1  0.00438703  0.75551749  0.36786456  1
  O  O246  1  0.01665497  0.74388153  0.88376350  1
  O  O247  1  0.50763094  0.25602807  0.37069625  1
  O  O248  1  0.50570038  0.24640578  0.86483511  1
  O  O249  1  0.50656830  0.75706964  0.37129830  1
  O  O250  1  0.50887996  0.75235585  0.87184741  1
  O  O251  1  0.24070386  0.12764073  0.49085299  1
  O  O252  1  0.24153768  0.13379474  0.99501882  1
  O  O253  1  0.25669742  0.61722530  0.48562017  1
  O  O254  1  0.24875075  0.62054654  0.98832098  1
  O  O255  1  0.74564185  0.13165549  0.49396014  1
  O  O256  1  0.74106374  0.13468464  1.00990823  1
  O  O257  1  0.74033590  0.62030489  0.49061061  1
  O  O258  1  0.73642604  0.61717000  1.00378192  1
  O  O259  1  0.25782887  0.36760950  0.00692202  1
  O  O260  1  0.25911028  0.37742042  0.50682566  1
  O  O261  1  0.25765909  0.86726739  -0.00443435  1
  O  O262  1  0.26375539  0.87983978  0.50021153  1
  O  O263  1  0.75070309  0.36720438  0.01487879  1
  O  O264  1  0.75211263  0.36973223  0.50933069  1
  O  O265  1  0.75064699  0.88113338  0.01145980  1
  O  O266  1  0.76170018  0.88300508  0.50609843  1
  O  O267  1  0.13691865  0.49427463  0.24502117  1
  O  O268  1  0.12851307  0.48716134  0.75804768  1
  O  O269  1  0.12035977  1.00324104  0.23595515  1
  O  O270  1  0.13439285  1.00386074  0.74783566  1
  O  O271  1  0.63800500  0.49814931  0.25301564  1
  O  O272  1  0.61521089  0.48552501  0.75838209  1
  O  O273  1  0.64046141  0.99993739  0.25280677  1
  O  O274  1  0.63147446  0.99219336  0.74151149  1
  O  O275  1  0.36710383  0.00015190  0.25549949  1
  O  O276  1  0.35982291  0.01501112  0.74252704  1
  O  O277  1  0.36353490  0.50413143  0.25239493  1
  O  O278  1  0.37114643  0.50125158  0.75959593  1
  O  O279  1  0.86670763  0.00518028  0.25359343  1
  O  O280  1  0.86068598  -0.00107394  0.74147980  1
  O  O281  1  0.86286202  0.49577234  0.26517872  1
  O  O282  1  0.87886633  0.50870165  0.75763203  1
  O  O283  1  0.11839603  0.37388514  0.37047144  1
  O  O284  1  0.11505682  0.37126914  0.87030891  1
  O  O285  1  0.11496241  0.86618182  0.37912949  1
  O  O286  1  0.12937259  0.86167260  0.87528908  1
  O  O287  1  0.62017554  0.36733131  0.37528795  1
  O  O288  1  0.63721208  0.35941918  0.86422344  1
  O  O289  1  0.61804998  0.86801832  0.37632217  1
  O  O290  1  0.62574972  0.87708159  0.85930946  1
  O  O291  1  0.39096876  0.12581389  0.12842765  1
  O  O292  1  0.37576980  0.13417599  0.62992161  1
  O  O293  1  0.37672379  0.61942147  0.13989735  1
  O  O294  1  0.38149520  0.62690514  0.63070058  1
  O  O295  1  0.88970267  0.12032952  0.13194326  1
  O  O296  1  0.88485332  0.12646103  0.61608967  1
  O  O297  1  0.88150213  0.63496419  0.12922333  1
  O  O298  1  0.86961846  0.62994149  0.63469639  1
  O  O299  1  0.24143834  0.25758456  0.11499138  1
  O  O300  1  0.25750670  0.26291986  0.62267588  1
  O  O301  1  0.24458116  0.74815764  0.10792503  1
  O  O302  1  0.26038669  0.74474585  0.62856387  1
  O  O303  1  0.75059607  0.26192495  0.12130529  1
  O  O304  1  0.74461272  0.25292801  0.61172094  1
  O  O305  1  0.76315624  0.75599904  0.13624579  1
  O  O306  1  0.75768461  0.76157971  0.62315640  1
  O  O307  1  0.24257598  0.24466973  0.37936746  1
  O  O308  1  0.24008435  0.24726136  0.88119916  1
  O  O309  1  0.24204855  0.73613869  0.37517605  1
  O  O310  1  0.24194626  0.74112947  0.88210872  1
  O  O311  1  0.74244328  0.24674286  0.38131319  1
  O  O312  1  0.75015602  0.24267142  0.87542100  1
  O  O313  1  0.74420497  0.74288656  0.36942788  1
  O  O314  1  0.74001612  0.74221817  0.87342022  1
  O  O315  1  0.00623857  0.11972179  0.00889728  1
  O  O316  1  0.00406986  0.12121859  0.50444376  1
  O  O317  1  0.00555978  0.62537416  0.01868143  1
  O  O318  1  0.00026693  0.61166894  0.50348351  1
  O  O319  1  0.51831242  0.13846234  0.01210964  1
  O  O320  1  0.50339752  0.12084210  0.50357500  1
  O  O321  1  0.50696491  0.61497069  0.00382487  1
  O  O322  1  0.50906254  0.61852152  0.50478237  1
  O  O323  1  0.49686883  0.38274245  0.49924071  1
  O  O324  1  0.48856335  0.37491328  1.00704242  1
  O  O325  1  0.49232182  0.87865301  0.49128771  1
  O  O326  1  0.49383307  0.88223181  1.00920249  1
  O  O327  1  0.98934325  0.36812636  0.49098957  1
  O  O328  1  1.00525021  0.37147461  0.98709195  1
  O  O329  1  0.99117787  0.88386436  0.49121222  1
  O  O330  1  1.00133879  0.88698694  1.00439447  1
  O  O331  1  0.49930235  0.49501029  0.38375536  1
  O  O332  1  0.48914380  0.49887983  0.88930151  1
  O  O333  1  0.48900137  0.99355952  0.37705153  1
  O  O334  1  0.49465735  0.99280646  0.87549587  1
  O  O335  1  0.99330881  0.48969337  0.36558881  1
  O  O336  1  0.99521315  0.48956634  0.87603888  1
  O  O337  1  0.99539182  0.99384037  0.37911883  1
  O  O338  1  1.00133004  1.00616741  0.88984331  1
  O  O339  1  0.00827160  0.00519654  0.11914554  1
  O  O340  1  -0.00115099  0.01239871  0.61467862  1
  O  O341  1  0.01117567  0.50602814  0.13623992  1
  O  O342  1  0.00363344  0.49551807  0.62318439  1
  O  O343  1  0.51037908  0.01452996  0.12412048  1
  O  O344  1  0.50547027  0.00705422  0.61810084  1
  O  O345  1  0.49986373  0.49923722  0.11387477  1
  O  O346  1  0.49734590  0.51383343  0.61699702  1
  O  O347  1  0.24814953  0.38048283  0.24409197  1
  O  O348  1  0.24133374  0.37907744  0.74412760  1
  O  O349  1  0.24732710  0.88154654  0.25856474  1
  O  O350  1  0.24322731  0.88525465  0.74503147  1
  O  O351  1  0.74867461  0.38044740  0.24288091  1
  O  O352  1  0.74118516  0.37681355  0.73379495  1
  O  O353  1  0.75272022  0.88402797  0.24392172  1
  O  O354  1  0.73886629  0.88208959  0.73733400  1
  O  O355  1  0.24861884  0.13205243  0.26468900  1
  O  O356  1  0.25298719  0.12318673  0.74915077  1
  O  O357  1  0.25493491  0.61943587  0.25425267  1
  O  O358  1  0.25524845  0.61720212  0.76142149  1
  O  O359  1  0.75613456  0.12096697  0.25380175  1
  O  O360  1  0.75017211  0.12158721  0.74719073  1
  O  O361  1  0.74733970  0.61650237  0.26306020  1
  O  O362  1  0.76710620  0.62146616  0.75425223  1
  O  O363  1  0.36652197  0.11655788  0.37403783  1
  O  O364  1  0.36283887  0.13831022  0.85344285  1
  O  O365  1  0.36370722  0.62398277  0.36678592  1
  O  O366  1  0.36949869  0.61212224  0.87110546  1
  O  O367  1  0.87095795  0.11993429  0.36933704  1
  O  O368  1  0.87430291  0.11927015  0.87167464  1
  O  O369  1  0.86711489  0.61739044  0.38284610  1
  O  O370  1  0.87492076  0.61101888  0.87296789  1
  O  O371  1  0.13446938  0.38006346  0.13129722  1
  O  O372  1  0.13304883  0.36689355  0.63535383  1
  O  O373  1  0.12256037  0.88966110  0.12474684  1
  O  O374  1  0.12657170  0.87917409  0.62386165  1
  O  O375  1  0.63860192  0.37884157  0.12925037  1
  O  O376  1  0.63758525  0.37305063  0.63204712  1
  O  O377  1  0.63678551  0.87686155  0.13172403  1
  O  O378  1  0.63250047  0.87882272  0.62149111  1
  O  O379  1  0.11509353  0.25654692  0.25625404  1
  O  O380  1  0.12565906  0.25994757  0.76159113  1
  O  O381  1  0.11305701  0.74866941  0.25929868  1
  O  O382  1  0.12552379  0.74841175  0.76739352  1
  O  O383  1  0.61922512  0.24996337  0.26368848  1
  O  O384  1  0.61699824  0.25484890  0.75587296  1
  O  O385  1  0.61816062  0.74744372  0.26474099  1
  O  O386  1  0.62693229  0.76411864  0.74389282  1
  O  O387  1  0.38750101  0.24845122  0.25826982  1
  O  O388  1  0.38154458  0.25011972  0.74298003  1
  O  O389  1  0.38492035  0.74088503  0.25816381  1
  O  O390  1  0.37614839  0.73730037  0.74207796  1
  O  O391  1  0.88694806  0.24632319  0.25677106  1
  O  O392  1  0.86250926  0.24314502  0.76585113  1
  O  O393  1  0.89160267  0.75483604  0.23654447  1
  O  O394  1  0.87186661  0.74131307  0.74027781  1
  O  O395  1  0.38689853  0.49109203  0.49957594  1
  O  O396  1  0.37996090  0.48926532  0.99547565  1
  O  O397  1  0.38023412  0.99433325  0.49365629  1
  O  O398  1  0.38919244  1.04473435  0.98197595  1
  O  O399  1  0.86916238  0.48589983  0.48727138  1
  O  O400  1  0.87937564  0.50424417  0.99385370  1
  O  O401  1  0.88388567  0.99466854  0.49303932  1
  O  O402  1  0.89283334  0.99967911  1.00165648  1
  O  O403  1  0.11624691  0.00474877  0.00743664  1
  O  O404  1  0.11104984  0.00858309  0.49617042  1
  O  O405  1  0.13003525  0.49754397  0.01313804  1
  O  O406  1  0.12177091  0.49704480  0.50934302  1
  O  O407  1  0.62674221  0.01400703  -0.00230614  1
  O  O408  1  0.61832516  0.00537154  0.50265367  1
  O  O409  1  0.61644521  0.50319816  0.00118572  1
  O  O410  1  0.61556762  0.50931206  0.49666653  1
  O  O411  1  0.36270392  0.37550288  0.11732919  1
  O  O412  1  0.37080179  0.37270293  0.61879858  1
  O  O413  1  0.35829063  0.88961640  0.14218996  1
  O  O414  1  0.37320294  0.86218747  0.62069789  1
  O  O415  1  0.86244485  0.37706942  0.13099713  1
  O  O416  1  0.85966070  0.37819949  0.61774041  1
  O  O417  1  0.86884181  0.86351383  0.11998814  1
  O  O418  1  0.86740152  0.86864757  0.61429970  1
  O  O419  1  0.12884416  0.12953569  0.38386486  1
  O  O420  1  0.12705346  0.13465465  0.87832760  1
  O  O421  1  0.13932746  0.62988569  0.37134996  1
  O  O422  1  0.13277363  0.62838735  0.87715419  1
  O  O423  1  0.62936022  0.13154064  0.38003441  1
  O  O424  1  0.62307402  0.13883639  0.88158859  1
  O  O425  1  0.63388221  0.63227636  0.38368616  1
  O  O426  1  0.62754547  0.62183717  0.89241959  1
