# generated using pymatgen
data_V85Zn86O256
_symmetry_space_group_name_H-M   'P 1'
_cell_length_a   16.92680952
_cell_length_b   16.94179115
_cell_length_c   16.94329034
_cell_angle_alpha   89.95256816
_cell_angle_beta   90.03503742
_cell_angle_gamma   90.08291257
_symmetry_Int_Tables_number   1
_chemical_formula_structural   V85Zn86O256
_chemical_formula_sum   'V85 Zn86 O256'
_cell_volume   4858.82770574
_cell_formula_units_Z   1
loop_
 _symmetry_equiv_pos_site_id
 _symmetry_equiv_pos_as_xyz
  1  'x, y, z'
loop_
 _atom_site_type_symbol
 _atom_site_label
 _atom_site_symmetry_multiplicity
 _atom_site_fract_x
 _atom_site_fract_y
 _atom_site_fract_z
 _atom_site_occupancy
  V  V0  1  0.24999594  0.37345642  0.61707952  1
  V  V1  1  0.62945805  0.23631674  0.37569869  1
  V  V2  1  -0.00175412  0.50056927  0.49525209  1
  V  V3  1  0.37979901  0.74436094  0.14622273  1
  V  V4  1  0.75408887  0.62857633  0.87553774  1
  V  V5  1  0.62425857  0.75026180  0.87112686  1
  V  V6  1  0.00002488  0.87788118  0.37073119  1
  V  V7  1  0.12446559  0.38047426  0.24836140  1
  V  V8  1  -0.01574177  0.38140546  0.87764766  1
  V  V9  1  0.38107361  0.50184808  0.88175011  1
  V  V10  1  0.87368165  -0.00547595  0.87874632  1
  V  V11  1  0.74948712  0.37445169  0.62217234  1
  V  V12  1  0.25694325  0.62561614  0.87144958  1
  V  V13  1  0.25401039  0.12859269  0.36658026  1
  V  V14  1  0.12554610  0.37898476  0.75209533  1
  V  V15  1  0.26239125  0.75044460  0.00151501  1
  V  V16  1  -0.01103963  0.13032986  0.12565214  1
  V  V17  1  0.74978426  0.23624521  0.49681785  1
  V  V18  1  0.87609624  0.12270512  0.74910358  1
  V  V19  1  0.40074040  0.90054319  0.52514535  1
  V  V20  1  0.12708593  0.75182032  0.87931191  1
  V  V21  1  0.50247677  0.37423967  0.37083302  1
  V  V22  1  0.00029683  0.25266341  0.75048756  1
  V  V23  1  0.12861070  0.75440570  0.37844146  1
  V  V24  1  0.00017920  0.00461589  0.49693642  1
  V  V25  1  0.87025210  0.86993804  0.01760765  1
  V  V26  1  0.62613038  -0.00365843  0.10484682  1
  V  V27  1  0.50157187  0.23759269  0.24915797  1
  V  V28  1  0.74820801  0.61872894  0.37285814  1
  V  V29  1  -0.00438707  0.62957723  0.12213221  1
  V  V30  1  0.24762837  0.12565105  0.87432812  1
  V  V31  1  0.86998965  0.01145140  0.37483481  1
  V  V32  1  0.37667154  0.50615244  0.36518610  1
  V  V33  1  0.87606113  0.62136933  0.75164996  1
  V  V34  1  0.37567159  0.12916655  0.75098449  1
  V  V35  1  0.12577742  0.87731897  0.24873710  1
  V  V36  1  0.12325076  0.87742353  0.75429114  1
  V  V37  1  0.12168735  0.12931607  0.00230088  1
  V  V38  1  0.12660020  0.00041451  0.62471696  1
  V  V39  1  0.37974816  0.00242492  0.37063765  1
  V  V40  1  0.74453571  0.12088027  0.88121391  1
  V  V41  1  -0.00186133  0.75116450  0.75183769  1
  V  V42  1  0.49793338  0.49483637  0.49880630  1
  V  V43  1  0.12655024  0.50105428  0.62578015  1
  V  V44  1  0.62576674  0.24796593  0.88806010  1
  V  V45  1  0.62155572  0.75137472  0.36895586  1
  V  V46  1  0.12937892  0.25483141  0.37813825  1
  V  V47  1  0.12458308  0.00154635  0.12568643  1
  V  V48  1  0.00007558  0.62432593  0.62541066  1
  V  V49  1  0.62769474  0.37703243  0.75329273  1
  V  V50  1  0.49038234  0.74657578  0.75079406  1
  V  V51  1  0.24215368  0.86782211  0.61338641  1
  V  V52  1  0.00020957  -0.00285314  0.00238713  1
  V  V53  1  -0.01261607  0.75259727  0.24448880  1
  V  V54  1  0.76870759  0.24613431  0.00754415  1
  V  V55  1  0.88205148  0.86757787  0.49888868  1
  V  V56  1  0.86534190  0.62020059  0.24553140  1
  V  V57  1  0.73887273  0.00018405  0.25710186  1
  V  V58  1  0.25450566  0.63160324  0.36795023  1
  V  V59  1  -0.00692328  0.25283416  0.24758543  1
  V  V60  1  0.49331414  0.62056619  0.63048740  1
  V  V61  1  0.50257416  0.37530937  0.88026500  1
  V  V62  1  0.13736135  0.13114098  0.49952720  1
  V  V63  1  0.00025613  0.12651498  0.62408044  1
  V  V64  1  0.50002632  0.87453113  0.36864097  1
  V  V65  1  0.74659046  0.75094507  0.01887041  1
  V  V66  1  0.51881451  0.23381232  0.73236721  1
  V  V67  1  0.36599606  0.74353624  0.61724768  1
  V  V68  1  0.13062389  0.63132094  0.49988188  1
  V  V69  1  0.37435925  0.24807207  0.61665290  1
  V  V70  1  0.62218900  0.49011411  0.10815605  1
  V  V71  1  0.75392942  0.50051384  0.75551342  1
  V  V72  1  0.26232944  0.50262030  0.74808798  1
  V  V73  1  0.62376336  0.62470714  0.50089611  1
  V  V74  1  0.25871014  0.87616900  0.12413604  1
  V  V75  1  -0.01437069  0.49969068  -0.00240319  1
  V  V76  1  0.76764601  0.37165651  0.12502035  1
  V  V77  1  0.24951194  0.25516778  -0.00005678  1
  V  V78  1  0.37476877  0.24421030  0.12938530  1
  V  V79  1  0.25241844  0.37963387  0.12418020  1
  V  V80  1  0.12318083  0.25722218  0.87605522  1
  V  V81  1  0.48864444  0.87642933  0.88500549  1
  V  V82  1  0.49977951  0.11680151  0.10564892  1
  V  V83  1  0.72752264  0.89271819  0.61147190  1
  V  V84  1  0.63103975  0.37792892  0.24779478  1
  Zn  Zn85  1  0.49037036  0.61618235  0.12742057  1
  Zn  Zn86  1  0.61809618  0.61814633  -0.00307273  1
  Zn  Zn87  1  0.25617642  0.00633663  0.24655885  1
  Zn  Zn88  1  0.87298943  0.37577620  0.49734969  1
  Zn  Zn89  1  0.61640835  0.88390498  0.74606878  1
  Zn  Zn90  1  0.62600471  0.87312537  0.23809917  1
  Zn  Zn91  1  0.86787175  0.75115600  0.62596753  1
  Zn  Zn92  1  0.75469565  0.74450928  0.50111105  1
  Zn  Zn93  1  0.36883189  0.37367012  0.49273457  1
  Zn  Zn94  1  -0.00254958  0.37711723  0.37456944  1
  Zn  Zn95  1  0.38270186  0.37891446  0.00436096  1
  Zn  Zn96  1  0.87477002  0.24892428  0.62200259  1
  Zn  Zn97  1  0.25336047  -0.00167936  0.74797880  1
  Zn  Zn98  1  -0.00192806  0.87420056  0.87806465  1
  Zn  Zn99  1  0.74053045  -0.00227097  0.74772474  1
  Zn  Zn100  1  0.86779288  0.49755969  0.37218451  1
  Zn  Zn101  1  0.62483801  0.50065356  0.62640940  1
  Zn  Zn102  1  0.86342858  0.13164870  0.25020880  1
  Zn  Zn103  1  0.38617864  0.00554321  0.88586986  1
  Zn  Zn104  1  0.12355884  0.62343687  -0.00022492  1
  Zn  Zn105  1  0.25496639  0.50886073  0.24390154  1
  Zn  Zn106  1  0.12490950  0.50331086  0.12064221  1
  Zn  Zn107  1  0.18190985  0.19289975  0.18805628  1
  Zn  Zn108  1  0.18927275  0.19082808  0.68648167  1
  Zn  Zn109  1  0.18226483  0.69198727  0.18689753  1
  Zn  Zn110  1  0.18709959  0.68661321  0.69146920  1
  Zn  Zn111  1  0.68276201  0.18107029  0.18397891  1
  Zn  Zn112  1  0.69480930  0.18990419  0.69429485  1
  Zn  Zn113  1  0.65717357  0.66811281  0.19820489  1
  Zn  Zn114  1  0.68527692  0.69606679  0.68370418  1
  Zn  Zn115  1  0.31314813  0.31456348  0.30868038  1
  Zn  Zn116  1  0.31661486  0.31397335  0.80791275  1
  Zn  Zn117  1  0.31217396  0.82036073  0.31907299  1
  Zn  Zn118  1  0.31181175  0.81085296  0.80589574  1
  Zn  Zn119  1  0.81227360  0.31489366  0.31554284  1
  Zn  Zn120  1  0.81056557  0.30741683  0.81374978  1
  Zn  Zn121  1  0.80419729  0.81373642  0.31340138  1
  Zn  Zn122  1  0.80627181  0.81600919  0.80479387  1
  Zn  Zn123  1  0.18705507  0.44482245  0.43418105  1
  Zn  Zn124  1  0.18388994  0.44347800  0.94002548  1
  Zn  Zn125  1  0.19268851  0.94486339  0.43763312  1
  Zn  Zn126  1  0.21669582  0.95189286  0.95145460  1
  Zn  Zn127  1  0.68369541  0.43413088  0.43846107  1
  Zn  Zn128  1  0.70212702  0.43089746  0.93802112  1
  Zn  Zn129  1  0.68851251  0.93757024  0.44316975  1
  Zn  Zn130  1  0.68757462  0.92792774  0.93342435  1
  Zn  Zn131  1  0.31542631  0.06416778  0.06060713  1
  Zn  Zn132  1  0.43102838  0.06759993  0.55899219  1
  Zn  Zn133  1  0.31414752  0.56756537  0.06077147  1
  Zn  Zn134  1  0.31234140  0.56078773  0.55471912  1
  Zn  Zn135  1  0.80642942  0.05783923  0.06479515  1
  Zn  Zn136  1  0.79842092  0.04804809  0.56171740  1
  Zn  Zn137  1  0.80603143  0.56422800  0.06649422  1
  Zn  Zn138  1  0.81223658  0.56187895  0.56528075  1
  Zn  Zn139  1  0.44222200  0.43308369  0.18895011  1
  Zn  Zn140  1  0.44095530  0.42819735  0.68830711  1
  Zn  Zn141  1  0.44041904  0.93796511  0.18839874  1
  Zn  Zn142  1  0.43064185  0.93418693  0.70229773  1
  Zn  Zn143  1  0.93908349  0.44267706  0.18674507  1
  Zn  Zn144  1  0.93591637  0.43792384  0.68575716  1
  Zn  Zn145  1  0.93330535  0.94440613  0.19123886  1
  Zn  Zn146  1  0.92621613  0.94190976  0.68234349  1
  Zn  Zn147  1  0.06217766  0.06692418  0.31146036  1
  Zn  Zn148  1  0.06216206  0.06273094  0.81552481  1
  Zn  Zn149  1  0.06216882  0.56699517  0.30976954  1
  Zn  Zn150  1  0.06513525  0.56240071  0.81719819  1
  Zn  Zn151  1  0.55751409  0.06031023  0.31497596  1
  Zn  Zn152  1  0.56460170  0.05748959  0.81192232  1
  Zn  Zn153  1  0.56182745  0.56230186  0.30611612  1
  Zn  Zn154  1  0.56388353  0.56344908  0.81349901  1
  Zn  Zn155  1  0.43353882  0.19015252  0.43146020  1
  Zn  Zn156  1  0.43551835  0.19589999  0.93449193  1
  Zn  Zn157  1  0.43776252  0.69236786  0.44031286  1
  Zn  Zn158  1  0.44176151  0.68328420  0.94448691  1
  Zn  Zn159  1  0.94048002  0.19262368  0.43794342  1
  Zn  Zn160  1  0.93805547  0.18487291  0.93343978  1
  Zn  Zn161  1  0.94099764  0.68425780  0.43066127  1
  Zn  Zn162  1  0.93196466  0.69017037  0.94003085  1
  Zn  Zn163  1  0.05714247  0.31838793  0.06307392  1
  Zn  Zn164  1  0.06216521  0.31413131  0.56198768  1
  Zn  Zn165  1  0.06339246  0.81325555  0.06225336  1
  Zn  Zn166  1  0.05469987  0.81313032  0.56330846  1
  Zn  Zn167  1  0.56538189  0.30809541  0.06346747  1
  Zn  Zn168  1  0.56216679  0.20376816  0.55936321  1
  Zn  Zn169  1  0.55960725  0.80744388  0.06081729  1
  Zn  Zn170  1  0.55788476  0.80426108  0.55941245  1
  O  O171  1  0.11773753  0.12124124  0.11985870  1
  O  O172  1  0.12365510  0.12005907  0.61865450  1
  O  O173  1  0.10979528  0.62553456  0.12462020  1
  O  O174  1  0.12192840  0.62104708  0.61801327  1
  O  O175  1  0.60849981  0.11211365  0.12277266  1
  O  O176  1  0.58680121  0.17294095  0.66671077  1
  O  O177  1  0.65455448  0.59084662  0.11139662  1
  O  O178  1  0.61600417  0.62286888  0.61771651  1
  O  O179  1  0.38223249  0.38303605  0.37324323  1
  O  O180  1  0.38481516  0.38143066  0.87533402  1
  O  O181  1  0.38323927  0.88262762  0.38487045  1
  O  O182  1  0.38568049  0.87274314  0.86850883  1
  O  O183  1  0.87877724  0.38214354  0.37783708  1
  O  O184  1  0.88532525  0.37443245  0.86925058  1
  O  O185  1  0.88121954  0.88021382  0.38253562  1
  O  O186  1  0.87321231  0.88544028  0.87647721  1
  O  O187  1  0.25484464  0.01132014  0.36877958  1
  O  O188  1  0.22225188  0.02447969  0.86060358  1
  O  O189  1  0.25891120  0.51091289  0.36996538  1
  O  O190  1  0.25606300  0.50693662  0.86805928  1
  O  O191  1  0.75511759  -0.00046326  0.36714448  1
  O  O192  1  0.75681582  0.00434476  0.87429873  1
  O  O193  1  0.74621798  0.51412937  0.38008935  1
  O  O194  1  0.74805508  0.50910825  0.86363617  1
  O  O195  1  0.24926384  0.49451899  0.12575493  1
  O  O196  1  0.24764669  0.49617934  0.63170115  1
  O  O197  1  0.24241181  0.99324738  0.12852579  1
  O  O198  1  0.23149790  0.99009102  0.63002397  1
  O  O199  1  0.74784188  0.47464759  0.11597248  1
  O  O200  1  0.74903998  0.49475141  0.63825552  1
  O  O201  1  0.73011422  1.00237068  0.13187172  1
  O  O202  1  0.80238676  0.96921425  0.64601217  1
  O  O203  1  0.00754914  0.37076042  0.24912434  1
  O  O204  1  0.00507956  0.37412744  0.75676330  1
  O  O205  1  0.00337881  0.87075497  0.25222477  1
  O  O206  1  0.00678579  0.86693323  0.75174516  1
  O  O207  1  0.51074647  0.36190820  0.25162911  1
  O  O208  1  0.51297034  0.36322467  0.75597483  1
  O  O209  1  0.50502879  0.87789649  0.26433244  1
  O  O210  1  0.49943754  0.86129577  0.75874734  1
  O  O211  1  0.50215147  0.13528722  0.24219807  1
  O  O212  1  0.48398363  0.13236313  0.76852847  1
  O  O213  1  0.54707245  0.63373903  0.22371756  1
  O  O214  1  0.50080784  0.62607878  0.73661981  1
  O  O215  1  1.00111256  0.13556087  0.24080348  1
  O  O216  1  0.99661284  0.13226665  0.74577601  1
  O  O217  1  0.99277762  0.63475174  0.24269970  1
  O  O218  1  0.99348664  0.62951597  0.74950997  1
  O  O219  1  0.36729220  0.25471974  0.01059873  1
  O  O220  1  0.37365905  0.25497565  0.51302596  1
  O  O221  1  0.36335865  0.74949070  0.00430609  1
  O  O222  1  0.38141100  0.76454265  0.51614038  1
  O  O223  1  0.86742202  0.24606609  0.00052603  1
  O  O224  1  0.86376170  0.25290198  0.50025930  1
  O  O225  1  0.85912246  0.75775548  -0.00115333  1
  O  O226  1  0.88091313  0.75429309  0.49808412  1
  O  O227  1  0.12084697  0.24447759  0.49038736  1
  O  O228  1  0.12835360  0.25052001  0.99528599  1
  O  O229  1  0.11619558  0.74351404  0.49057039  1
  O  O230  1  0.12705293  0.74721146  0.98777359  1
  O  O231  1  0.64030204  0.25314140  0.49089715  1
  O  O232  1  0.63450201  0.25002536  0.99073583  1
  O  O233  1  0.62328064  0.73460116  0.49288373  1
  O  O234  1  0.63557612  0.74831502  0.99173094  1
  O  O235  1  0.49496600  0.23826210  0.12697311  1
  O  O236  1  0.48139452  0.26694669  0.62975369  1
  O  O237  1  0.47904423  0.75849797  0.12713052  1
  O  O238  1  0.49052716  0.73928107  0.63166172  1
  O  O239  1  1.00558069  0.24247071  0.13392311  1
  O  O240  1  0.99822647  0.24530186  0.63234384  1
  O  O241  1  1.00227000  0.74412162  0.13356847  1
  O  O242  1  1.00748091  0.73972237  0.64130927  1
  O  O243  1  0.01293242  0.25307861  0.36696725  1
  O  O244  1  0.00415757  0.26016556  0.87112186  1
  O  O245  1  0.01075481  0.75614329  0.36474254  1
  O  O246  1  0.00711816  0.74902324  0.86678761  1
  O  O247  1  0.50611655  0.25536188  0.36557675  1
  O  O248  1  0.51087751  0.25443667  0.86493488  1
  O  O249  1  0.50998220  0.75713795  0.37804995  1
  O  O250  1  0.50260551  0.75051099  0.86765112  1
  O  O251  1  0.23653526  0.12649585  0.48555651  1
  O  O252  1  0.24031006  0.13752080  0.99260788  1
  O  O253  1  0.23597085  0.62141884  0.48884229  1
  O  O254  1  0.24571282  0.63408102  0.99166089  1
  O  O255  1  0.75192018  0.13798544  0.50840693  1
  O  O256  1  0.75469281  0.13405152  0.99388986  1
  O  O257  1  0.74053358  0.62423450  0.49698405  1
  O  O258  1  0.75203903  0.63700428  0.99000831  1
  O  O259  1  0.24859277  0.37278340  0.01120224  1
  O  O260  1  0.24805955  0.38468217  0.51343576  1
  O  O261  1  0.23347276  0.85922373  0.01619953  1
  O  O262  1  0.25104448  0.87919420  0.51281817  1
  O  O263  1  0.75433056  0.35677685  0.01044584  1
  O  O264  1  0.75046427  0.37154995  0.51001979  1
  O  O265  1  0.75515755  0.85930903  -0.00016251  1
  O  O266  1  0.76790637  0.86404003  0.50630501  1
  O  O267  1  0.12460661  0.48972354  0.24809769  1
  O  O268  1  0.13333852  0.49694726  0.74449784  1
  O  O269  1  0.12183073  0.98955150  0.24499877  1
  O  O270  1  0.11755766  0.99141026  0.74165538  1
  O  O271  1  0.62793740  0.48021748  0.24233667  1
  O  O272  1  0.63319943  0.49120458  0.75146775  1
  O  O273  1  0.63190647  0.99754637  0.25079556  1
  O  O274  1  0.62681555  0.99891520  0.74275801  1
  O  O275  1  0.37276983  -0.00567318  0.26398002  1
  O  O276  1  0.36949553  0.01212023  0.76116366  1
  O  O277  1  0.37863090  0.50017835  0.26051076  1
  O  O278  1  0.36567559  0.49218703  0.75787266  1
  O  O279  1  0.86419951  0.00418742  0.25954653  1
  O  O280  1  0.88750101  0.01231295  0.76605290  1
  O  O281  1  0.88109615  0.51616588  0.25343943  1
  O  O282  1  0.87024788  0.51363452  0.74730769  1
  O  O283  1  0.12581372  0.37127294  0.36764994  1
  O  O284  1  0.11919876  0.37235633  0.86990434  1
  O  O285  1  0.12278503  0.87291149  0.36850997  1
  O  O286  1  0.12448609  0.86788008  0.86725838  1
  O  O287  1  0.62167172  0.36698574  0.36524792  1
  O  O288  1  0.62222179  0.37043103  0.87292923  1
  O  O289  1  0.61816310  0.86783088  0.38397222  1
  O  O290  1  0.61504081  0.86082747  0.87218969  1
  O  O291  1  0.38567027  0.13052214  0.12198192  1
  O  O292  1  0.37352605  0.14017372  0.63403335  1
  O  O293  1  0.37224888  0.63867805  0.13064241  1
  O  O294  1  0.38072670  0.62986627  0.61630872  1
  O  O295  1  0.88660220  0.11793904  0.12705817  1
  O  O296  1  0.88036590  0.12359236  0.63516462  1
  O  O297  1  0.88355127  0.62402518  0.13233874  1
  O  O298  1  0.88191158  0.63016531  0.63316602  1
  O  O299  1  0.25713443  0.25646573  0.12249594  1
  O  O300  1  0.26213883  0.26143830  0.63114316  1
  O  O301  1  0.25692842  0.75468055  0.12076400  1
  O  O302  1  0.25332148  0.75401911  0.62741458  1
  O  O303  1  0.74772904  0.25081500  0.11278052  1
  O  O304  1  0.75113064  0.25653153  0.61543321  1
  O  O305  1  0.73542989  0.74151703  0.11502302  1
  O  O306  1  0.75123593  0.76541940  0.61902635  1
  O  O307  1  0.23879007  0.24645424  0.36824680  1
  O  O308  1  0.24333322  0.24697820  0.87711480  1
  O  O309  1  0.23711963  0.74817532  0.37336033  1
  O  O310  1  0.24662151  0.74517029  0.87997514  1
  O  O311  1  0.74468229  0.25145661  0.38811642  1
  O  O312  1  0.74808919  0.24193364  0.88777658  1
  O  O313  1  0.74244445  0.73892527  0.38164731  1
  O  O314  1  0.73935699  0.74400517  0.87107495  1
  O  O315  1  0.00360360  0.12078136  0.00695325  1
  O  O316  1  0.00757453  0.12226802  0.50597234  1
  O  O317  1  -0.00249850  0.61992468  0.00498284  1
  O  O318  1  0.01013461  0.61969856  0.50390035  1
  O  O319  1  0.49535881  0.12615292  0.00689564  1
  O  O320  1  0.49961949  0.13270460  0.50107323  1
  O  O321  1  0.50701126  0.62821447  0.01445180  1
  O  O322  1  0.50418225  0.61568762  0.50838123  1
  O  O323  1  0.49915994  0.39060913  0.48943602  1
  O  O324  1  0.50053693  0.36467549  0.98432351  1
  O  O325  1  0.49538095  0.87009724  0.48849869  1
  O  O326  1  0.49637066  0.86403449  0.98274086  1
  O  O327  1  0.99856418  0.38688649  0.49971322  1
  O  O328  1  0.99892642  0.38975156  0.99290863  1
  O  O329  1  1.00274710  0.88425398  0.48629271  1
  O  O330  1  0.99016436  0.87843056  0.99872379  1
  O  O331  1  0.49590310  0.49943490  0.37787215  1
  O  O332  1  0.49118055  0.49034536  0.86535212  1
  O  O333  1  0.49158314  0.99210103  0.37766757  1
  O  O334  1  0.50059531  0.98191445  0.87624297  1
  O  O335  1  1.00375521  0.50301002  0.38721635  1
  O  O336  1  1.00072924  0.49558071  0.88677388  1
  O  O337  1  0.99304687  0.99670657  0.37631165  1
  O  O338  1  0.99280899  0.99963778  0.88673664  1
  O  O339  1  0.00572110  0.00820579  0.12166198  1
  O  O340  1  0.00852234  0.00678478  0.61897845  1
  O  O341  1  0.00069035  0.50812558  0.11306188  1
  O  O342  1  0.00637278  0.50602930  0.61822116  1
  O  O343  1  0.50358633  0.01070099  0.12278268  1
  O  O344  1  0.45891648  -0.03486159  0.59778619  1
  O  O345  1  0.51873472  0.49228464  0.12453293  1
  O  O346  1  0.49828538  0.50285744  0.61758725  1
  O  O347  1  0.24388738  0.37847442  0.23794198  1
  O  O348  1  0.24482474  0.38364610  0.74208713  1
  O  O349  1  0.23970365  0.87668594  0.24258336  1
  O  O350  1  0.23553340  0.87491852  0.74216164  1
  O  O351  1  0.74404971  0.35914928  0.23309823  1
  O  O352  1  0.74849010  0.38317212  0.74975390  1
  O  O353  1  0.74884122  0.89375157  0.25035649  1
  O  O354  1  0.73743029  0.87420856  0.73472578  1
  O  O355  1  0.23913156  0.12526277  0.26170979  1
  O  O356  1  0.25998212  0.13140912  0.75630907  1
  O  O357  1  0.23907364  0.62609404  0.26415451  1
  O  O358  1  0.24827177  0.61471775  0.75841294  1
  O  O359  1  0.74992771  0.10843227  0.24346630  1
  O  O360  1  0.76121201  0.12130453  0.75868903  1
  O  O361  1  0.75667603  0.63111296  0.25777185  1
  O  O362  1  0.75609192  0.62072296  0.75267202  1
  O  O363  1  0.36375967  0.11922445  0.37467053  1
  O  O364  1  0.36177475  0.12930239  0.87151351  1
  O  O365  1  0.36509229  0.62218695  0.38215878  1
  O  O366  1  0.36541377  0.61844261  0.87757125  1
  O  O367  1  0.88079347  0.11366819  0.37526905  1
  O  O368  1  0.86636930  0.11544004  0.87198389  1
  O  O369  1  0.86569541  0.62295629  0.36651186  1
  O  O370  1  0.86241690  0.63259780  0.86549322  1
  O  O371  1  0.13320377  0.37707606  0.13215334  1
  O  O372  1  0.13152383  0.38050664  0.63154798  1
  O  O373  1  0.12941331  0.88007184  0.13342809  1
  O  O374  1  0.12402911  0.87966596  0.63101237  1
  O  O375  1  0.63356801  0.37623249  0.12799246  1
  O  O376  1  0.64014795  0.37812271  0.63996233  1
  O  O377  1  0.61022585  0.89262552  0.12269160  1
  O  O378  1  0.62756876  0.86450698  0.62579882  1
  O  O379  1  0.11731339  0.26371421  0.25598053  1
  O  O380  1  0.11932932  0.25805615  0.75555094  1
  O  O381  1  0.11559026  0.76299550  0.25550689  1
  O  O382  1  0.11920293  0.75554546  0.76072731  1
  O  O383  1  0.61976478  0.25333999  0.25379262  1
  O  O384  1  0.63450273  0.26531240  0.76942743  1
  O  O385  1  0.63844790  0.76082944  0.26647897  1
  O  O386  1  0.60910282  0.74591627  0.75694878  1
  O  O387  1  0.38381683  0.25463779  0.23610702  1
  O  O388  1  0.38576019  0.24559574  0.74196521  1
  O  O389  1  0.36963039  0.75174334  0.24448829  1
  O  O390  1  0.38316234  0.74808591  0.73782564  1
  O  O391  1  0.88933647  0.24744475  0.25864328  1
  O  O392  1  0.88092186  0.23720314  0.75169156  1
  O  O393  1  0.88424275  0.74559242  0.25775661  1
  O  O394  1  0.88321000  0.74339276  0.74924074  1
  O  O395  1  0.38150074  0.49781889  0.48559066  1
  O  O396  1  0.37014687  0.49701359  0.98585544  1
  O  O397  1  0.36475940  0.99504197  0.48542522  1
  O  O398  1  0.32541349  0.99159534  0.97841217  1
  O  O399  1  0.88606844  0.50231334  0.49979852  1
  O  O400  1  0.88631817  0.50626966  1.00156297  1
  O  O401  1  0.88110356  0.99201477  0.49115348  1
  O  O402  1  0.87723642  0.99115548  0.99568053  1
  O  O403  1  0.12061174  0.00693127  0.00746500  1
  O  O404  1  0.11971802  0.00935758  0.50555687  1
  O  O405  1  0.11222305  0.50624514  0.00154721  1
  O  O406  1  0.11873289  0.50914463  0.50648373  1
  O  O407  1  0.63229710  -0.00111921  0.00637138  1
  O  O408  1  0.69365701  -0.02061631  0.55002361  1
  O  O409  1  0.62688140  0.48766434  0.00550113  1
  O  O410  1  0.61625302  0.50889015  0.50147908  1
  O  O411  1  0.36875897  0.36901279  0.12348962  1
  O  O412  1  0.36526493  0.36816636  0.62344521  1
  O  O413  1  0.36256837  0.86864734  0.13198308  1
  O  O414  1  0.35731845  0.86374364  0.62796448  1
  O  O415  1  0.86650190  0.37148313  0.13137406  1
  O  O416  1  0.86257563  0.37186793  0.62678236  1
  O  O417  1  0.87610678  0.87881485  0.11644242  1
  O  O418  1  0.90769169  0.86158375  0.60304390  1
  O  O419  1  0.12797546  0.13501561  0.38068832  1
  O  O420  1  0.12362156  0.14046842  0.88107603  1
  O  O421  1  0.12859252  0.63587680  0.38080011  1
  O  O422  1  0.13785226  0.63469069  0.87340770  1
  O  O423  1  0.62241892  0.13728925  0.37079121  1
  O  O424  1  0.63836303  0.13202151  0.87042838  1
  O  O425  1  0.62939067  0.63042669  0.38159436  1
  O  O426  1  0.63392736  0.63234479  0.87652548  1
