# generated using pymatgen
data_V85Zn86O256
_symmetry_space_group_name_H-M   'P 1'
_cell_length_a   16.92270903
_cell_length_b   16.91714346
_cell_length_c   16.91730225
_cell_angle_alpha   89.97090526
_cell_angle_beta   90.00458998
_cell_angle_gamma   89.97987026
_symmetry_Int_Tables_number   1
_chemical_formula_structural   V85Zn86O256
_chemical_formula_sum   'V85 Zn86 O256'
_cell_volume   4843.15026550
_cell_formula_units_Z   1
loop_
 _symmetry_equiv_pos_site_id
 _symmetry_equiv_pos_as_xyz
  1  'x, y, z'
loop_
 _atom_site_type_symbol
 _atom_site_label
 _atom_site_symmetry_multiplicity
 _atom_site_fract_x
 _atom_site_fract_y
 _atom_site_fract_z
 _atom_site_occupancy
  V  V0  1  0.87136440  0.00563248  0.37755142  1
  V  V1  1  0.60540424  0.75745924  0.88069348  1
  V  V2  1  0.87676063  0.24164771  0.62852058  1
  V  V3  1  0.37696458  0.12486308  0.75257195  1
  V  V4  1  -0.00099894  0.62290004  0.62591695  1
  V  V5  1  0.49388136  0.00348219  0.49156098  1
  V  V6  1  0.13040813  0.73310140  0.87561232  1
  V  V7  1  -0.00108672  0.36851651  0.37130144  1
  V  V8  1  0.37310615  0.37256694  -0.00062419  1
  V  V9  1  0.74985426  -0.00075504  0.75237568  1
  V  V10  1  0.12324781  0.49501754  0.62476226  1
  V  V11  1  0.62721709  0.00662945  0.11165235  1
  V  V12  1  0.00409999  0.10794181  0.12306387  1
  V  V13  1  0.88129728  -0.00069952  0.88311985  1
  V  V14  1  0.24962033  0.37024926  0.12127888  1
  V  V15  1  0.12501634  0.24086374  0.37035716  1
  V  V16  1  0.75218385  0.87806325  0.12825324  1
  V  V17  1  0.37745996  0.75218544  0.62769723  1
  V  V18  1  0.74902939  0.00931689  0.25281223  1
  V  V19  1  0.74998526  0.12435306  0.88078901  1
  V  V20  1  0.88121301  0.37121560  0.50193115  1
  V  V21  1  0.24814430  0.88170083  0.11692217  1
  V  V22  1  0.25141922  0.49763214  0.25171032  1
  V  V23  1  0.37061324  0.50326506  0.87354346  1
  V  V24  1  0.74702074  0.50155827  0.74788266  1
  V  V25  1  0.12099096  0.36904431  0.24777893  1
  V  V26  1  0.88047144  0.13302769  0.25226419  1
  V  V27  1  0.36916543  0.87661148  0.49481538  1
  V  V28  1  0.24900537  0.62417947  0.37572989  1
  V  V29  1  0.25205872  0.25348664  0.49376078  1
  V  V30  1  0.50298569  0.25202078  0.74788608  1
  V  V31  1  0.50110200  0.37520889  0.87363823  1
  V  V32  1  0.50216031  0.37609101  0.37677969  1
  V  V33  1  -0.00081473  0.75072068  0.74976140  1
  V  V34  1  0.37793351  0.25400169  0.61645271  1
  V  V35  1  0.50059993  0.49809642  0.00056096  1
  V  V36  1  0.68759620  0.69283803  0.54368846  1
  V  V37  1  0.75099759  0.24052127  0.49596981  1
  V  V38  1  0.37472901  0.62995651  0.25031298  1
  V  V39  1  0.50995200  0.12712228  0.11289490  1
  V  V40  1  0.37799259  0.11374086  0.25033689  1
  V  V41  1  0.12476242  0.50262669  0.11821051  1
  V  V42  1  -0.00353231  0.87030276  0.37205841  1
  V  V43  1  0.88079769  0.62682186  0.25243158  1
  V  V44  1  0.88113005  0.75140115  0.13010810  1
  V  V45  1  0.00295323  0.62646876  0.11846397  1
  V  V46  1  0.62424169  0.49301975  0.12855355  1
  V  V47  1  0.12081457  0.88057039  0.24450773  1
  V  V48  1  0.12781679  0.25341382  0.88744248  1
  V  V49  1  0.00375477  0.00417635  0.51325821  1
  V  V50  1  0.25408508  0.37582953  0.62376842  1
  V  V51  1  0.74551822  0.87377717  0.62235779  1
  V  V52  1  0.74557396  0.62657312  0.37531879  1
  V  V53  1  0.62219525  0.00165577  0.62465828  1
  V  V54  1  0.50464070  0.25758731  0.24696789  1
  V  V55  1  0.38496086  0.62908931  0.74887436  1
  V  V56  1  0.37525954  0.49570721  0.38714605  1
  V  V57  1  0.38496600  -0.00945979  0.88743863  1
  V  V58  1  0.49725643  0.62835244  0.12770521  1
  V  V59  1  0.00708678  0.87667367  0.88200548  1
  V  V60  1  0.49312799  0.87855894  0.36737187  1
  V  V61  1  0.74337673  0.37701603  0.62291356  1
  V  V62  1  0.75297327  0.75328598  -0.00175009  1
  V  V63  1  0.37264495  0.24827307  0.12121842  1
  V  V64  1  0.74712818  0.49563665  0.25173892  1
  V  V65  1  0.62627531  0.75262840  0.37084329  1
  V  V66  1  0.62499457  0.62631041  0.00158136  1
  V  V67  1  0.51833997  0.50263952  0.50558479  1
  V  V68  1  0.75333965  0.25218330  0.00126863  1
  V  V69  1  0.63028467  0.24741770  0.36915037  1
  V  V70  1  0.12472385  0.10929059  0.00284156  1
  V  V71  1  0.60818321  0.87555783  0.75681733  1
  V  V72  1  0.25251424  0.12924546  0.88414686  1
  V  V73  1  0.62594816  0.24691384  0.87770073  1
  V  V74  1  0.87150901  0.86850049  0.50121012  1
  V  V75  1  0.12297846  0.62389125  0.49822066  1
  V  V76  1  0.88917052  0.25445825  0.12216630  1
  V  V77  1  0.75561779  0.37503391  0.12278275  1
  V  V78  1  0.24617463  0.73075824  0.00535324  1
  V  V79  1  0.11875723  0.74728406  0.36797578  1
  V  V80  1  0.00428215  0.24417327  0.75202071  1
  V  V81  1  0.24873660  0.50711396  0.75148257  1
  V  V82  1  0.24578278  -0.00067057  0.74596110  1
  V  V83  1  0.50310872  0.12695252  0.62190470  1
  V  V84  1  0.87188316  0.49437743  0.88517280  1
  Zn  Zn85  1  0.38827613  0.85732098  0.00361685  1
  Zn  Zn86  1  0.24815945  -0.00199565  0.25082889  1
  Zn  Zn87  1  -0.00719194  0.37018071  0.88193597  1
  Zn  Zn88  1  0.75067337  0.62733935  0.87603517  1
  Zn  Zn89  1  0.88359501  0.87966355  0.00491248  1
  Zn  Zn90  1  0.25759830  0.11595366  0.37911725  1
  Zn  Zn91  1  0.87553853  0.62282385  0.75446062  1
  Zn  Zn92  1  0.12231530  0.87827706  0.74448244  1
  Zn  Zn93  1  -0.00253794  0.49408787  0.00149569  1
  Zn  Zn94  1  0.49692835  0.75391811  0.24576394  1
  Zn  Zn95  1  0.13199273  0.11192636  0.52393861  1
  Zn  Zn96  1  -0.00000476  0.49509608  0.50003057  1
  Zn  Zn97  1  0.50928176  0.62736599  0.62058057  1
  Zn  Zn98  1  0.62853211  0.12130305  0.49170620  1
  Zn  Zn99  1  0.24361474  0.87919349  0.62025947  1
  Zn  Zn100  1  0.24780315  0.75139777  0.49995242  1
  Zn  Zn101  1  0.12399029  0.37444713  0.75485688  1
  Zn  Zn102  1  0.62147246  0.88092071  0.24856790  1
  Zn  Zn103  1  0.87539431  0.49813553  0.37596211  1
  Zn  Zn104  1  0.87946868  0.12106881  0.74936746  1
  Zn  Zn105  1  0.62271230  0.38095848  0.74480797  1
  Zn  Zn106  1  0.87019776  0.74575793  0.62514089  1
  Zn  Zn107  1  0.18849105  0.18477599  0.18409948  1
  Zn  Zn108  1  0.19002882  0.18754749  0.69405547  1
  Zn  Zn109  1  0.18516159  0.68935711  0.18944608  1
  Zn  Zn110  1  0.18888335  0.69087002  0.68569558  1
  Zn  Zn111  1  0.69048644  0.19001402  0.18902321  1
  Zn  Zn112  1  0.68957289  0.18785950  0.68868613  1
  Zn  Zn113  1  0.68756775  0.68716743  0.18871415  1
  Zn  Zn114  1  0.68280283  0.69091263  0.70808663  1
  Zn  Zn115  1  0.31644556  0.31056468  0.30888309  1
  Zn  Zn116  1  0.31100287  0.31329268  0.80960040  1
  Zn  Zn117  1  0.30712164  0.81320932  0.30984870  1
  Zn  Zn118  1  0.31403443  0.81203267  0.81798196  1
  Zn  Zn119  1  0.81198586  0.31244771  0.30915545  1
  Zn  Zn120  1  0.81221136  0.31448029  0.80966249  1
  Zn  Zn121  1  0.81013504  0.81293218  0.31246240  1
  Zn  Zn122  1  0.81450215  0.81549469  0.81278672  1
  Zn  Zn123  1  0.18600754  0.43267097  0.43883314  1
  Zn  Zn124  1  0.18794596  0.43936328  0.93866135  1
  Zn  Zn125  1  0.18477059  0.94145287  0.42995245  1
  Zn  Zn126  1  0.19228067  0.93517585  0.93011177  1
  Zn  Zn127  1  0.68936746  0.42981462  0.43424726  1
  Zn  Zn128  1  0.68919212  0.43525135  0.93754856  1
  Zn  Zn129  1  0.68456404  0.93720182  0.43617902  1
  Zn  Zn130  1  0.68952470  0.93486510  0.93838626  1
  Zn  Zn131  1  0.31100145  0.06191014  0.06584106  1
  Zn  Zn132  1  0.31521378  0.06638392  0.56180699  1
  Zn  Zn133  1  0.31320530  0.55997808  0.06488201  1
  Zn  Zn134  1  0.31272407  0.56594224  0.56434582  1
  Zn  Zn135  1  0.81464927  0.06700783  0.06265006  1
  Zn  Zn136  1  0.81396896  0.05990924  0.56307543  1
  Zn  Zn137  1  0.81166085  0.56629935  0.06416244  1
  Zn  Zn138  1  0.81729655  0.55472091  0.56464749  1
  Zn  Zn139  1  0.43565355  0.43949223  0.19175439  1
  Zn  Zn140  1  0.43836230  0.44001252  0.68386451  1
  Zn  Zn141  1  0.44542034  0.92790830  0.15933772  1
  Zn  Zn142  1  0.43011155  0.94202688  0.68336933  1
  Zn  Zn143  1  0.93728468  0.43851580  0.18902532  1
  Zn  Zn144  1  0.93517042  0.43077943  0.69386055  1
  Zn  Zn145  1  0.93644919  0.93777746  0.19392099  1
  Zn  Zn146  1  0.93432034  0.93266305  0.69108276  1
  Zn  Zn147  1  0.05586750  0.05994825  0.31386279  1
  Zn  Zn148  1  0.06415177  0.06605300  0.81491674  1
  Zn  Zn149  1  0.06083077  0.55488082  0.30984251  1
  Zn  Zn150  1  0.05760365  0.55840295  0.81154385  1
  Zn  Zn151  1  0.56076800  0.06597737  0.30690397  1
  Zn  Zn152  1  0.56293967  0.06347205  0.81606962  1
  Zn  Zn153  1  0.56371704  0.56288183  0.31466761  1
  Zn  Zn154  1  0.56399913  0.56510176  0.81446968  1
  Zn  Zn155  1  0.43955070  0.18804979  0.43267230  1
  Zn  Zn156  1  0.43749405  0.18769676  0.93803866  1
  Zn  Zn157  1  0.43965250  0.68796366  0.43857909  1
  Zn  Zn158  1  0.43081302  0.68146018  0.94098218  1
  Zn  Zn159  1  0.94145497  0.18687848  0.43844823  1
  Zn  Zn160  1  0.93902203  0.18553494  0.94053075  1
  Zn  Zn161  1  0.93577670  0.68670735  0.43941056  1
  Zn  Zn162  1  0.93694790  0.68527109  0.93762750  1
  Zn  Zn163  1  0.06300126  0.31236193  0.05685835  1
  Zn  Zn164  1  0.07918092  0.27945271  0.57837841  1
  Zn  Zn165  1  0.06652121  0.80894158  0.06080643  1
  Zn  Zn166  1  0.06420687  0.81372963  0.56200662  1
  Zn  Zn167  1  0.56705349  0.31209943  0.06022205  1
  Zn  Zn168  1  0.56329840  0.31558565  0.55397410  1
  Zn  Zn169  1  0.56541865  0.81644717  0.06387915  1
  Zn  Zn170  1  0.55215440  0.82052766  0.56472349  1
  O  O171  1  0.11237632  0.12595511  0.12046408  1
  O  O172  1  0.11410247  0.17189254  0.61615424  1
  O  O173  1  0.11325768  0.61451622  0.13929710  1
  O  O174  1  0.11566637  0.61950025  0.61903651  1
  O  O175  1  0.61783404  0.12469251  0.12597870  1
  O  O176  1  0.61967417  0.11968131  0.62257008  1
  O  O177  1  0.62126542  0.61314813  0.12108139  1
  O  O178  1  0.62901270  0.64271856  0.61601880  1
  O  O179  1  0.38852726  0.38288463  0.36771155  1
  O  O180  1  0.38041989  0.38160665  0.87783392  1
  O  O181  1  0.38509314  0.86801629  0.37918247  1
  O  O182  1  0.37404985  0.88531558  0.88535114  1
  O  O183  1  0.88285777  0.37085088  0.38072009  1
  O  O184  1  0.87004158  0.38990411  0.87420747  1
  O  O185  1  0.87741845  0.87993739  0.38161051  1
  O  O186  1  0.88377146  0.88251367  0.87795669  1
  O  O187  1  0.24884919  0.00435077  0.36489348  1
  O  O188  1  0.26257477  0.01000723  0.86625936  1
  O  O189  1  0.25625303  0.50156142  0.37167968  1
  O  O190  1  0.25988490  0.49468450  0.86575256  1
  O  O191  1  0.76133712  -0.00383714  0.36873667  1
  O  O192  1  0.75451537  0.00615489  0.87008484  1
  O  O193  1  0.74974855  0.50587955  0.36794359  1
  O  O194  1  0.75714376  0.50147749  0.87055563  1
  O  O195  1  0.24415879  0.49289508  0.13282225  1
  O  O196  1  0.24545721  0.49279857  0.62862990  1
  O  O197  1  0.24781825  0.98666147  0.12897195  1
  O  O198  1  0.25769159  1.00436334  0.64173758  1
  O  O199  1  0.74557099  0.49430606  0.13037879  1
  O  O200  1  0.75369859  0.49004280  0.63382833  1
  O  O201  1  0.74874823  0.99736711  0.13143927  1
  O  O202  1  0.74372612  0.99438325  0.63322388  1
  O  O203  1  0.00955978  0.37599480  0.25681492  1
  O  O204  1  0.00192575  0.36229766  0.76022598  1
  O  O205  1  0.00172877  0.87483462  0.26388131  1
  O  O206  1  -0.00037272  0.86540777  0.75894488  1
  O  O207  1  0.49830492  0.36448518  0.25414986  1
  O  O208  1  0.50157158  0.37013344  0.75415571  1
  O  O209  1  0.49810109  0.87462298  0.25398714  1
  O  O210  1  0.50984297  0.88500679  0.74475773  1
  O  O211  1  0.49269340  0.13847013  0.24142448  1
  O  O212  1  0.49433854  0.13119774  0.74425752  1
  O  O213  1  0.49205720  0.62261812  0.24489521  1
  O  O214  1  0.48925463  0.61775904  0.74306895  1
  O  O215  1  0.99282254  0.12164293  0.23644164  1
  O  O216  1  0.99750899  0.13822905  0.75442508  1
  O  O217  1  0.98485973  0.61791094  0.24650428  1
  O  O218  1  0.99805871  0.63102019  0.74172194  1
  O  O219  1  0.38086278  0.25700093  0.01239427  1
  O  O220  1  0.37205296  0.24557908  0.50959527  1
  O  O221  1  0.35142585  0.74626031  -0.00844178  1
  O  O222  1  0.37298291  0.75986258  0.50417948  1
  O  O223  1  0.86338602  0.24517673  0.00847218  1
  O  O224  1  0.87042012  0.25189180  0.50709531  1
  O  O225  1  0.86852024  0.75073507  0.01186206  1
  O  O226  1  0.87602007  0.76426199  0.50242496  1
  O  O227  1  0.13795098  0.25660851  0.48158379  1
  O  O228  1  0.12542639  0.23816994  0.99105303  1
  O  O229  1  0.12399585  0.74037105  0.48861043  1
  O  O230  1  0.13273348  0.74853394  0.98483701  1
  O  O231  1  0.63485272  0.24836474  0.49075506  1
  O  O232  1  0.64018308  0.25377124  0.99167001  1
  O  O233  1  0.62335889  0.75876447  0.49257946  1
  O  O234  1  0.63339927  0.74988678  0.99852969  1
  O  O235  1  0.49896504  0.24537132  0.12944104  1
  O  O236  1  0.49543073  0.24872854  0.62561687  1
  O  O237  1  0.50957901  0.73093887  0.12734065  1
  O  O238  1  0.48387753  0.74795340  0.62007787  1
  O  O239  1  0.99077952  0.24520945  0.12261061  1
  O  O240  1  0.98340214  0.26253649  0.63823175  1
  O  O241  1  0.99156491  0.74228095  0.12304058  1
  O  O242  1  0.99938208  0.74090564  0.63309686  1
  O  O243  1  0.00982528  0.25897760  0.37713249  1
  O  O244  1  0.00907346  0.24824610  0.87237562  1
  O  O245  1  0.00468497  0.75797417  0.38011694  1
  O  O246  1  0.00873866  0.75348943  0.87033008  1
  O  O247  1  0.50469344  0.25858945  0.36707782  1
  O  O248  1  0.50793017  0.25373840  0.87055903  1
  O  O249  1  0.51041044  0.75724535  0.37308400  1
  O  O250  1  0.50617065  0.75409665  0.89251808  1
  O  O251  1  0.24805663  0.13632965  0.49882551  1
  O  O252  1  0.24309355  0.12260545  0.99362676  1
  O  O253  1  0.23932349  0.62348853  0.49309594  1
  O  O254  1  0.24513803  0.63116330  1.00575299  1
  O  O255  1  0.75009789  0.13636293  0.50177178  1
  O  O256  1  0.75243435  0.13271658  0.98799042  1
  O  O257  1  0.75363423  0.62514257  0.49377037  1
  O  O258  1  0.74202287  0.63666845  1.00268898  1
  O  O259  1  0.25694789  0.38047828  0.01379684  1
  O  O260  1  0.25197840  0.36276363  0.50647685  1
  O  O261  1  0.24571203  0.87021533  0.01068869  1
  O  O262  1  0.26102481  0.87829344  0.49620322  1
  O  O263  1  0.74932217  0.36911648  0.01376309  1
  O  O264  1  0.76089443  0.36534635  0.50391359  1
  O  O265  1  0.75581334  0.87044136  0.01277658  1
  O  O266  1  0.75464186  0.88332817  0.51397138  1
  O  O267  1  0.13210387  0.48665754  0.24413577  1
  O  O268  1  0.13211174  0.49788803  0.74404964  1
  O  O269  1  0.11927247  0.98381030  0.25419647  1
  O  O270  1  0.14285269  1.00461207  0.75518297  1
  O  O271  1  0.63717041  0.50607318  0.24248202  1
  O  O272  1  0.64037132  0.49912517  0.75823011  1
  O  O273  1  0.63615407  1.00342222  0.24366311  1
  O  O274  1  0.63424613  0.99554108  0.74905862  1
  O  O275  1  0.38382701  0.01419535  0.23606216  1
  O  O276  1  0.37043987  0.01229170  0.75760913  1
  O  O277  1  0.36941834  0.50750999  0.26084474  1
  O  O278  1  0.36967724  0.50520404  0.75532609  1
  O  O279  1  0.86991057  0.00972487  0.25869196  1
  O  O280  1  0.86244341  -0.00170386  0.75785723  1
  O  O281  1  0.86370100  0.50780243  0.25266362  1
  O  O282  1  0.86314912  0.49974298  0.75899763  1
  O  O283  1  0.11957889  0.36749359  0.36570402  1
  O  O284  1  0.12985064  0.36441653  0.87549829  1
  O  O285  1  0.11425319  0.86558973  0.37111116  1
  O  O286  1  0.11944248  0.86861551  0.86615163  1
  O  O287  1  0.61264392  0.36422179  0.37607103  1
  O  O288  1  0.61983568  0.36399230  0.87372036  1
  O  O289  1  0.61533882  0.86970265  0.37091381  1
  O  O290  1  0.62547765  0.87025786  0.86957448  1
  O  O291  1  0.38690700  0.13218207  0.12707273  1
  O  O292  1  0.38248005  0.13396436  0.63278400  1
  O  O293  1  0.38546086  0.61431950  0.13634368  1
  O  O294  1  0.37831891  0.63254113  0.63149812  1
  O  O295  1  0.88641526  0.13127873  0.12944651  1
  O  O296  1  0.86862408  0.13668197  0.62930320  1
  O  O297  1  0.88049682  0.63153440  0.13334291  1
  O  O298  1  0.88803207  0.62563278  0.62411741  1
  O  O299  1  0.26039682  0.25825915  0.12777188  1
  O  O300  1  0.26134055  0.25757701  0.61944664  1
  O  O301  1  0.23748860  0.75265740  0.10853746  1
  O  O302  1  0.26170063  0.75126145  0.61932739  1
  O  O303  1  0.75681958  0.25688164  0.11900664  1
  O  O304  1  0.75700967  0.25580029  0.61812710  1
  O  O305  1  0.75492497  0.75894333  0.11924240  1
  O  O306  1  0.74432690  0.75363827  0.62006794  1
  O  O307  1  0.24784468  0.24690246  0.37951393  1
  O  O308  1  0.24497928  0.23825162  0.87032621  1
  O  O309  1  0.23952518  0.74119062  0.37726974  1
  O  O310  1  0.23586854  0.75040813  0.88118442  1
  O  O311  1  0.74209409  0.25671389  0.38238222  1
  O  O312  1  0.74657692  0.24530938  0.88031864  1
  O  O313  1  0.73733268  0.74487903  0.37414774  1
  O  O314  1  0.74885730  0.75462686  0.88996674  1
  O  O315  1  0.00720227  0.12529319  0.01435077  1
  O  O316  1  -0.00039615  0.10677676  0.49737843  1
  O  O317  1  -0.00475454  0.61815769  0.01524673  1
  O  O318  1  0.00574157  0.62046948  0.50639738  1
  O  O319  1  0.50343739  0.13211682  0.01396494  1
  O  O320  1  0.50085106  0.11877582  0.50280598  1
  O  O321  1  0.50299620  0.61645767  0.00862364  1
  O  O322  1  0.49957552  0.60778080  0.49802918  1
  O  O323  1  0.50018524  0.38897023  0.49031942  1
  O  O324  1  0.49444145  0.37982287  0.99519646  1
  O  O325  1  0.48838914  0.88435645  0.49027683  1
  O  O326  1  0.48274028  0.88740019  1.05465738  1
  O  O327  1  0.98850872  0.36838981  0.49500979  1
  O  O328  1  1.00172302  0.38050196  0.99552082  1
  O  O329  1  0.99107070  0.88261376  0.49228131  1
  O  O330  1  1.00120109  0.86991381  0.98664360  1
  O  O331  1  0.49585776  0.49430271  0.38085579  1
  O  O332  1  0.49431254  0.49388298  0.88006336  1
  O  O333  1  0.50465710  0.99231713  0.38029001  1
  O  O334  1  0.48313320  1.00626361  0.87322427  1
  O  O335  1  0.99873341  0.48323864  0.37760531  1
  O  O336  1  0.98372809  0.49920881  0.87560032  1
  O  O337  1  0.98682187  0.99125872  0.38226477  1
  O  O338  1  0.99182383  0.99086741  0.86591579  1
  O  O339  1  -0.00591009  0.00939192  0.12325996  1
  O  O340  1  -0.00919838  -0.00500612  0.61185478  1
  O  O341  1  0.00807807  0.50667640  0.12726728  1
  O  O342  1  0.00558737  0.50350554  0.62729384  1
  O  O343  1  0.51449780  0.02204645  0.13415241  1
  O  O344  1  0.50380775  0.00722410  0.61642278  1
  O  O345  1  0.50807948  0.50350682  0.12258428  1
  O  O346  1  0.50195023  0.50065145  0.60964753  1
  O  O347  1  0.24663087  0.37889081  0.24021390  1
  O  O348  1  0.25070394  0.38613638  0.74098429  1
  O  O349  1  0.23686665  0.87276642  0.24078083  1
  O  O350  1  0.25584515  0.89316339  0.75305404  1
  O  O351  1  0.75248687  0.38489600  0.23907909  1
  O  O352  1  0.74743920  0.38107768  0.73929545  1
  O  O353  1  0.75348353  0.88777211  0.24082419  1
  O  O354  1  0.74395243  0.88056891  0.74048815  1
  O  O355  1  0.26857510  0.12327918  0.24152262  1
  O  O356  1  0.25923378  0.11964962  0.75780234  1
  O  O357  1  0.25511249  0.61827298  0.25560728  1
  O  O358  1  0.25906733  0.61124747  0.74126192  1
  O  O359  1  0.76179722  0.11554181  0.24437043  1
  O  O360  1  0.75073490  0.11626395  0.76136549  1
  O  O361  1  0.75809349  0.61894143  0.25674205  1
  O  O362  1  0.75443649  0.61716359  0.75403048  1
  O  O363  1  0.37792873  0.13007119  0.35433459  1
  O  O364  1  0.36970020  0.12483396  0.86907664  1
  O  O365  1  0.36978645  0.61660617  0.37073566  1
  O  O366  1  0.37916740  0.61094406  0.86609988  1
  O  O367  1  0.88187968  0.11829043  0.36554558  1
  O  O368  1  0.86853539  0.11743259  0.87284721  1
  O  O369  1  0.86419333  0.62572004  0.36995702  1
  O  O370  1  0.87094415  0.61400377  0.87488244  1
  O  O371  1  0.13211903  0.37806553  0.13024198  1
  O  O372  1  0.13874565  0.37471483  0.62737700  1
  O  O373  1  0.13114965  0.86749499  0.13437230  1
  O  O374  1  0.13127718  0.86836204  0.63180256  1
  O  O375  1  0.63231644  0.38730994  0.12231055  1
  O  O376  1  0.63932661  0.36919359  0.62260651  1
  O  O377  1  0.63816231  0.88662317  0.12945247  1
  O  O378  1  0.62830398  0.88121373  0.63211599  1
  O  O379  1  0.13369684  0.26145333  0.25449023  1
  O  O380  1  0.11931078  0.25098940  0.76605650  1
  O  O381  1  0.12406822  0.75661471  0.26274780  1
  O  O382  1  0.11621099  0.74710319  0.75983301  1
  O  O383  1  0.61812873  0.24995151  0.25504036  1
  O  O384  1  0.61920702  0.25307861  0.75700550  1
  O  O385  1  0.62273387  0.75498108  0.25727359  1
  O  O386  1  0.62206788  0.76285820  0.76843001  1
  O  O387  1  0.38402314  0.24552746  0.23615825  1
  O  O388  1  0.38056604  0.24143597  0.74175142  1
  O  O389  1  0.37553795  0.73389737  0.25656017  1
  O  O390  1  0.36802942  0.74002349  0.74474533  1
  O  O391  1  0.86921772  0.23872539  0.23980134  1
  O  O392  1  0.87971693  0.24733413  0.74451143  1
  O  O393  1  0.86703672  0.74223672  0.23864601  1
  O  O394  1  0.88631158  0.74730832  0.74912002  1
  O  O395  1  0.37657746  0.50174795  0.48902020  1
  O  O396  1  0.37944529  0.49465356  0.99180700  1
  O  O397  1  0.38619890  0.99484903  0.50310302  1
  O  O398  1  0.37258717  1.00386723  0.98743137  1
  O  O399  1  0.87833951  0.48615915  0.49576329  1
  O  O400  1  0.86997262  0.50266536  0.98854090  1
  O  O401  1  0.87901080  0.99158734  0.49455621  1
  O  O402  1  0.87065678  0.99909777  0.98714236  1
  O  O403  1  0.12739737  0.01020396  -0.00887349  1
  O  O404  1  0.10987514  -0.00077433  0.49967019  1
  O  O405  1  0.12709840  0.50066934  0.01542017  1
  O  O406  1  0.12248089  0.50440156  0.50675489  1
  O  O407  1  0.63421582  0.00246939  0.01207019  1
  O  O408  1  0.61335884  0.00078358  0.50447817  1
  O  O409  1  0.62042801  0.50488070  0.00620943  1
  O  O410  1  0.61721163  0.49814098  0.49554629  1
  O  O411  1  0.36894644  0.36959914  0.12215648  1
  O  O412  1  0.36509071  0.36690592  0.62918671  1
  O  O413  1  0.34772603  0.86488253  0.13094852  1
  O  O414  1  0.37009528  0.87024034  0.61498900  1
  O  O415  1  0.86827642  0.36620935  0.13115181  1
  O  O416  1  0.86534076  0.36723197  0.61788230  1
  O  O417  1  0.87209697  0.86866957  0.12603171  1
  O  O418  1  0.86331093  0.87032501  0.62010194  1
  O  O419  1  0.12443104  0.13660783  0.36830659  1
  O  O420  1  0.13386507  0.13031543  0.88410502  1
  O  O421  1  0.12570626  0.62752643  0.37717496  1
  O  O422  1  0.12161734  0.63440889  0.87221860  1
  O  O423  1  0.61874427  0.14130527  0.37441778  1
  O  O424  1  0.63300364  0.13793015  0.87116738  1
  O  O425  1  0.63694618  0.63340680  0.37241749  1
  O  O426  1  0.62600385  0.63796113  0.88386102  1
