# generated using pymatgen
data_V85Zn86O256
_symmetry_space_group_name_H-M   'P 1'
_cell_length_a   16.92204997
_cell_length_b   16.93585661
_cell_length_c   16.93383362
_cell_angle_alpha   89.87300984
_cell_angle_beta   89.99135626
_cell_angle_gamma   90.02682260
_symmetry_Int_Tables_number   1
_chemical_formula_structural   V85Zn86O256
_chemical_formula_sum   'V85 Zn86 O256'
_cell_volume   4853.04490903
_cell_formula_units_Z   1
loop_
 _symmetry_equiv_pos_site_id
 _symmetry_equiv_pos_as_xyz
  1  'x, y, z'
loop_
 _atom_site_type_symbol
 _atom_site_label
 _atom_site_symmetry_multiplicity
 _atom_site_fract_x
 _atom_site_fract_y
 _atom_site_fract_z
 _atom_site_occupancy
  V  V0  1  0.25521163  -0.00499451  0.74520785  1
  V  V1  1  0.12507920  0.75552379  0.86848005  1
  V  V2  1  -0.00243318  0.62605105  0.62406631  1
  V  V3  1  0.24329969  0.74665148  -0.00141313  1
  V  V4  1  0.62501427  0.50353403  0.62541817  1
  V  V5  1  0.63088219  0.63828876  0.49952653  1
  V  V6  1  0.74022554  -0.00915851  0.25245036  1
  V  V7  1  0.37518609  0.12591553  0.25073927  1
  V  V8  1  -0.00932737  0.75090811  0.25072946  1
  V  V9  1  0.50569396  0.24893004  0.75316452  1
  V  V10  1  0.00227449  0.75957792  0.74538016  1
  V  V11  1  0.74950003  0.13802928  0.88274589  1
  V  V12  1  0.50419298  0.25646150  0.24981703  1
  V  V13  1  0.37795784  0.24729649  0.62964620  1
  V  V14  1  0.75831817  0.75365648  -0.00236426  1
  V  V15  1  -0.00730090  0.87742336  0.88073773  1
  V  V16  1  0.37351709  0.87886537  0.50709466  1
  V  V17  1  0.50053574  0.12004369  0.11969125  1
  V  V18  1  0.00742580  0.11504221  0.12946458  1
  V  V19  1  0.12546374  0.10353658  -0.00335034  1
  V  V20  1  0.50345192  0.50731859  0.50345404  1
  V  V21  1  0.87554569  0.38046670  0.48809363  1
  V  V22  1  0.74788784  0.12520315  0.37593631  1
  V  V23  1  0.12244996  0.49953369  0.62475308  1
  V  V24  1  0.37574161  0.62421935  0.24452254  1
  V  V25  1  0.87314502  -0.00164562  0.37662794  1
  V  V26  1  0.50165378  0.74646389  0.74846362  1
  V  V27  1  0.50690963  0.50367122  -0.00137037  1
  V  V28  1  0.37692983  0.50112525  0.37523089  1
  V  V29  1  0.24726651  0.24876168  0.49423748  1
  V  V30  1  0.24303506  0.49475065  0.24962517  1
  V  V31  1  0.37476236  0.00328163  0.37710805  1
  V  V32  1  0.12608027  0.36352111  0.74996974  1
  V  V33  1  0.23592695  0.37274877  0.12587747  1
  V  V34  1  0.37390813  0.25110391  0.12293515  1
  V  V35  1  0.62334099  -0.00398251  0.11832455  1
  V  V36  1  0.00595845  0.62498521  0.12165549  1
  V  V37  1  0.37403555  0.75119348  0.12159967  1
  V  V38  1  0.50778353  0.62677070  0.11914601  1
  V  V39  1  0.24954939  0.75891584  0.50155003  1
  V  V40  1  0.74250787  0.00219165  0.75262585  1
  V  V41  1  0.87780831  0.60805657  0.25490760  1
  V  V42  1  0.37464435  0.01068178  0.87262884  1
  V  V43  1  0.87800394  0.49989411  0.87928525  1
  V  V44  1  0.00217243  0.00003668  0.50342469  1
  V  V45  1  0.02205453  0.24695746  0.25790455  1
  V  V46  1  0.86592127  0.74992443  0.62365064  1
  V  V47  1  0.01277420  0.50513135  -0.00420145  1
  V  V48  1  -0.00119285  0.13080201  0.62545223  1
  V  V49  1  0.12916373  0.75319757  0.37304327  1
  V  V50  1  0.75120109  0.50139563  0.75232132  1
  V  V51  1  0.62631490  0.25913641  0.37471103  1
  V  V52  1  -0.00019673  0.87539432  0.37516231  1
  V  V53  1  0.74622400  0.62181684  0.88471048  1
  V  V54  1  0.75253896  0.87394751  0.12084828  1
  V  V55  1  0.25214478  0.37499269  0.62538482  1
  V  V56  1  0.24232819  0.62395691  0.87496673  1
  V  V57  1  0.00354727  0.36370183  0.87426353  1
  V  V58  1  0.12669250  0.87748467  0.24057631  1
  V  V59  1  0.12682436  -0.01421794  0.63200223  1
  V  V60  1  0.75938454  0.24889372  0.50413301  1
  V  V61  1  0.37223167  0.75229192  0.62733383  1
  V  V62  1  0.37405973  0.88127073  -0.00292649  1
  V  V63  1  0.50008741  0.87979497  0.87875798  1
  V  V64  1  0.75959419  0.37269715  0.62656606  1
  V  V65  1  0.62395399  0.12691053  0.50691087  1
  V  V66  1  0.37513723  0.62456638  0.74509971  1
  V  V67  1  0.50779194  0.37250601  0.87472313  1
  V  V68  1  0.38181663  0.37706291  0.50027960  1
  V  V69  1  0.62273467  0.74678268  0.88266562  1
  V  V70  1  0.37380290  0.50079357  0.87318782  1
  V  V71  1  0.01721965  0.37525667  0.37246836  1
  V  V72  1  0.12515489  0.62653654  0.50029919  1
  V  V73  1  0.50366772  0.00115333  0.50426574  1
  V  V74  1  0.25145732  0.62738619  0.37523781  1
  V  V75  1  0.49987057  0.12055745  0.63347139  1
  V  V76  1  0.37194366  0.37331877  -0.00219717  1
  V  V77  1  0.75298479  0.62977595  0.37678241  1
  V  V78  1  0.86870438  0.87186108  0.49940495  1
  V  V79  1  0.74294890  0.87949891  0.62723044  1
  V  V80  1  0.87356433  0.12881484  0.25022900  1
  V  V81  1  0.23141557  0.25027334  -0.00683399  1
  V  V82  1  0.24653268  -0.00263579  0.24477832  1
  V  V83  1  0.87330050  0.12956614  0.74851942  1
  V  V84  1  0.62282540  0.13756519  -0.00409380  1
  Zn  Zn85  1  0.87078340  0.24777667  0.11950259  1
  Zn  Zn86  1  0.24546553  0.88023000  0.11894160  1
  Zn  Zn87  1  0.50951463  0.38709198  0.36587542  1
  Zn  Zn88  1  0.51770916  0.86962457  0.37299145  1
  Zn  Zn89  1  0.62989580  0.37279508  0.75278293  1
  Zn  Zn90  1  0.87574563  0.74994827  0.12173161  1
  Zn  Zn91  1  0.86763024  -0.00315359  0.88480310  1
  Zn  Zn92  1  0.24909161  0.49911036  0.74887486  1
  Zn  Zn93  1  0.62254766  0.87821837  0.74896829  1
  Zn  Zn94  1  -0.00189653  0.24903342  0.74619514  1
  Zn  Zn95  1  0.87503981  0.62598798  0.75079976  1
  Zn  Zn96  1  0.12601022  0.12519814  0.49942376  1
  Zn  Zn97  1  0.52164134  0.75891290  0.25076240  1
  Zn  Zn98  1  0.74502041  0.36708276  0.12593888  1
  Zn  Zn99  1  0.87154210  0.36554853  0.00195240  1
  Zn  Zn100  1  0.24115049  0.13290761  0.36756652  1
  Zn  Zn101  1  0.24309114  0.13290121  0.86196994  1
  Zn  Zn102  1  -0.00931516  -0.01329318  0.01650690  1
  Zn  Zn103  1  0.12513478  0.50100494  0.12379851  1
  Zn  Zn104  1  0.62719219  0.49451967  0.13188754  1
  Zn  Zn105  1  -0.00569458  0.50377232  0.49231959  1
  Zn  Zn106  1  0.73254297  0.48764829  0.25564684  1
  Zn  Zn107  1  0.18860882  0.18299862  0.17907950  1
  Zn  Zn108  1  0.18835929  0.18019651  0.68089941  1
  Zn  Zn109  1  0.18840803  0.68935096  0.18837520  1
  Zn  Zn110  1  0.18817215  0.68966050  0.68749720  1
  Zn  Zn111  1  0.68828360  0.18983244  0.18758222  1
  Zn  Zn112  1  0.68719831  0.18860008  0.68870236  1
  Zn  Zn113  1  0.69366267  0.67477867  0.18167752  1
  Zn  Zn114  1  0.68649892  0.68541029  0.69124101  1
  Zn  Zn115  1  0.31647010  0.31640777  0.31210666  1
  Zn  Zn116  1  0.31477020  0.31059783  0.81190111  1
  Zn  Zn117  1  0.37267293  0.81148697  0.31426192  1
  Zn  Zn118  1  0.31055166  0.81725805  0.81035037  1
  Zn  Zn119  1  0.81645160  0.31443925  0.30730813  1
  Zn  Zn120  1  0.81662942  0.31291277  0.81381831  1
  Zn  Zn121  1  0.69038098  0.80470664  0.31697018  1
  Zn  Zn122  1  0.81274277  0.81078416  0.80973059  1
  Zn  Zn123  1  0.18997173  0.43786697  0.44084771  1
  Zn  Zn124  1  0.18502936  0.43645385  0.93499357  1
  Zn  Zn125  1  0.18814275  0.94188426  0.43330309  1
  Zn  Zn126  1  0.18905651  0.93328788  0.92681999  1
  Zn  Zn127  1  0.69282559  0.44351774  0.43486264  1
  Zn  Zn128  1  0.68897526  0.43228211  0.94694265  1
  Zn  Zn129  1  0.68670508  0.94054614  0.44458645  1
  Zn  Zn130  1  0.68581584  0.94023380  0.93883532  1
  Zn  Zn131  1  0.31076768  0.06373316  0.05961981  1
  Zn  Zn132  1  0.31286226  0.06510661  0.56930310  1
  Zn  Zn133  1  0.31181323  0.56057436  0.06015111  1
  Zn  Zn134  1  0.31172176  0.56514090  0.56418034  1
  Zn  Zn135  1  0.81328745  0.06365618  0.06325506  1
  Zn  Zn136  1  0.81316885  0.06032536  0.56623792  1
  Zn  Zn137  1  0.81570354  0.55449548  0.06651501  1
  Zn  Zn138  1  0.81099463  0.56104108  0.55977238  1
  Zn  Zn139  1  0.43683803  0.43879727  0.18325836  1
  Zn  Zn140  1  0.44101708  0.43793238  0.68734341  1
  Zn  Zn141  1  0.43645365  0.93883706  0.18484204  1
  Zn  Zn142  1  0.43663725  0.93628659  0.69045273  1
  Zn  Zn143  1  0.94224757  0.42986771  0.18562374  1
  Zn  Zn144  1  0.93654247  0.43716107  0.68741102  1
  Zn  Zn145  1  0.93063758  0.93677765  0.19180272  1
  Zn  Zn146  1  0.93106793  0.94183401  0.69183579  1
  Zn  Zn147  1  0.06638492  0.06276793  0.31806512  1
  Zn  Zn148  1  0.06487484  0.06083565  0.81053966  1
  Zn  Zn149  1  0.06277373  0.56128478  0.31302495  1
  Zn  Zn150  1  0.06237181  0.56390012  0.80693182  1
  Zn  Zn151  1  0.56195469  0.06469431  0.31413291  1
  Zn  Zn152  1  0.56380259  0.06238068  0.81551248  1
  Zn  Zn153  1  0.56432160  0.57732493  0.31489109  1
  Zn  Zn154  1  0.56329480  0.56299694  0.81270574  1
  Zn  Zn155  1  0.43803301  0.19008796  0.43802342  1
  Zn  Zn156  1  0.43874637  0.18915592  0.93921593  1
  Zn  Zn157  1  0.44138105  0.68592777  0.44093580  1
  Zn  Zn158  1  0.43281297  0.68855812  0.93546011  1
  Zn  Zn159  1  0.93962727  0.18788815  0.43515524  1
  Zn  Zn160  1  0.94015781  0.17768532  0.93786469  1
  Zn  Zn161  1  0.93402403  0.68979814  0.43544573  1
  Zn  Zn162  1  0.93783109  0.68563560  0.93564077  1
  Zn  Zn163  1  0.03240477  0.29658853  0.05176565  1
  Zn  Zn164  1  0.06159801  0.31368817  0.56047979  1
  Zn  Zn165  1  0.06395292  0.80652712  0.06035562  1
  Zn  Zn166  1  0.05961266  0.81300564  0.56178360  1
  Zn  Zn167  1  0.56430837  0.31369435  0.06303129  1
  Zn  Zn168  1  0.56724567  0.31658557  0.56367706  1
  Zn  Zn169  1  0.56460062  0.81352633  0.06140936  1
  Zn  Zn170  1  0.55722039  0.81544973  0.56608995  1
  O  O171  1  0.12015808  0.12235078  0.11102847  1
  O  O172  1  0.11484836  0.11260327  0.61822627  1
  O  O173  1  0.11064214  0.62400764  0.13303705  1
  O  O174  1  0.11957343  0.61957003  0.62008495  1
  O  O175  1  0.61821155  0.12152910  0.11349283  1
  O  O176  1  0.61676721  0.13081235  0.61406094  1
  O  O177  1  0.60927884  0.62505878  0.11726585  1
  O  O178  1  0.63573355  0.61264649  0.61511337  1
  O  O179  1  0.38047530  0.38476771  0.38329462  1
  O  O180  1  0.38023936  0.38123135  0.88045439  1
  O  O181  1  0.36711541  0.89093510  0.39490907  1
  O  O182  1  0.38031761  0.88190574  0.88016216  1
  O  O183  1  0.88698658  0.36553816  0.38555219  1
  O  O184  1  0.88647953  0.38267989  0.87553997  1
  O  O185  1  0.88254252  0.88317473  0.38659111  1
  O  O186  1  0.88955018  0.87207847  0.87266619  1
  O  O187  1  0.26115931  0.00528565  0.36619446  1
  O  O188  1  0.25642114  0.00296821  0.86308269  1
  O  O189  1  0.25640859  0.50440323  0.36948009  1
  O  O190  1  0.25484119  0.50805622  0.87247006  1
  O  O191  1  0.75263497  0.00687406  0.36998366  1
  O  O192  1  0.74860509  0.00926682  0.86854942  1
  O  O193  1  0.74800378  0.51771432  0.37071355  1
  O  O194  1  0.75593208  0.50524834  0.87266739  1
  O  O195  1  0.24811411  0.49200917  0.13085454  1
  O  O196  1  0.24219324  0.49299187  0.62446931  1
  O  O197  1  0.25897691  0.99865011  0.13995362  1
  O  O198  1  0.23871084  1.00139763  0.63168469  1
  O  O199  1  0.74588653  0.50232796  0.13404427  1
  O  O200  1  0.74750531  0.49397566  0.63350333  1
  O  O201  1  0.74248448  0.99455752  0.13195879  1
  O  O202  1  0.75428792  0.99064549  0.63692407  1
  O  O203  1  0.00380914  0.35919455  0.26235307  1
  O  O204  1  0.00755798  0.37295013  0.75414629  1
  O  O205  1  0.00516083  0.86887557  0.25465077  1
  O  O206  1  -0.00495125  0.86408277  0.75642741  1
  O  O207  1  0.49111484  0.36053446  0.24947672  1
  O  O208  1  0.50178126  0.36854502  0.75826608  1
  O  O209  1  0.47209407  0.86576278  0.26041168  1
  O  O210  1  0.49878305  0.86348275  0.75943688  1
  O  O211  1  0.48947044  0.13216785  0.24432786  1
  O  O212  1  0.50585629  0.13147560  0.74102535  1
  O  O213  1  0.48449784  0.63069026  0.23935809  1
  O  O214  1  0.49083979  0.63814582  0.75752701  1
  O  O215  1  0.99717108  0.12890634  0.25023591  1
  O  O216  1  0.99303289  0.12421152  0.74391113  1
  O  O217  1  0.99503925  0.63085733  0.24818757  1
  O  O218  1  0.99780767  0.63505860  0.73920248  1
  O  O219  1  0.36973815  0.25998281  0.00418885  1
  O  O220  1  0.37335112  0.25816654  0.50996516  1
  O  O221  1  0.36487156  0.75791797  0.00423889  1
  O  O222  1  0.36968742  0.75722344  0.50895768  1
  O  O223  1  0.92131742  0.25759696  0.01238780  1
  O  O224  1  0.86326250  0.25297007  0.49788873  1
  O  O225  1  0.86245788  0.74775313  -0.00105866  1
  O  O226  1  0.88157696  0.76232462  0.50969064  1
  O  O227  1  0.14528005  0.25151316  0.50878948  1
  O  O228  1  0.13014712  0.24643093  1.00299137  1
  O  O229  1  0.13209626  0.74814639  0.49614307  1
  O  O230  1  0.13647254  0.74990853  0.98899617  1
  O  O231  1  0.63241512  0.24470572  0.49432023  1
  O  O232  1  0.61690149  0.23600656  0.99612417  1
  O  O233  1  0.61905119  0.73571636  0.51120087  1
  O  O234  1  0.63301819  0.75184406  0.98715150  1
  O  O235  1  0.49478318  0.23919175  0.13097684  1
  O  O236  1  0.49605811  0.24547286  0.62942530  1
  O  O237  1  0.48959887  0.74433682  0.12181149  1
  O  O238  1  0.48526855  0.75466731  0.63539932  1
  O  O239  1  1.00521084  0.23475770  0.14772588  1
  O  O240  1  1.00356965  0.23477219  0.62266006  1
  O  O241  1  0.99840183  0.74352161  0.13179072  1
  O  O242  1  0.99216157  0.74660039  0.62985444  1
  O  O243  1  0.00354744  0.25443453  0.36578018  1
  O  O244  1  0.00077703  0.26145228  0.86887604  1
  O  O245  1  0.00743191  0.75637789  0.36900760  1
  O  O246  1  0.00560580  0.75516748  0.86742298  1
  O  O247  1  0.50796282  0.25234129  0.36770958  1
  O  O248  1  0.49093878  0.25941740  0.86471148  1
  O  O249  1  0.47254730  0.75865779  0.36340209  1
  O  O250  1  0.50521135  0.75539790  0.87054021  1
  O  O251  1  0.25588500  0.14188873  0.50262878  1
  O  O252  1  0.23639111  0.13066539  0.99954249  1
  O  O253  1  0.24516983  0.63522584  0.49654256  1
  O  O254  1  0.25767473  0.63379929  0.98693979  1
  O  O255  1  0.74351246  0.13031702  0.49977986  1
  O  O256  1  0.73980298  0.12562410  0.98996505  1
  O  O257  1  0.74039382  0.62409062  0.49332344  1
  O  O258  1  0.75440288  0.63046043  0.98912921  1
  O  O259  1  0.25306765  0.36824301  0.00305176  1
  O  O260  1  0.25992172  0.36724513  0.50559368  1
  O  O261  1  0.25582808  0.86667900  -0.00267572  1
  O  O262  1  0.25343999  0.86503059  0.49869772  1
  O  O263  1  0.75921579  0.37616284  0.00612592  1
  O  O264  1  0.75834995  0.36890060  0.50374938  1
  O  O265  1  0.74500198  0.86607012  0.00721827  1
  O  O266  1  0.76159691  0.88348299  0.51135243  1
  O  O267  1  0.13993289  0.50185546  0.24970689  1
  O  O268  1  0.12593407  0.49447548  0.73597273  1
  O  O269  1  0.13482078  0.99072393  0.25578777  1
  O  O270  1  0.13094919  0.99886218  0.73725369  1
  O  O271  1  0.61895816  0.51218189  0.24607140  1
  O  O272  1  0.63168211  0.49861712  0.74279875  1
  O  O273  1  0.63238541  1.01391022  0.23711266  1
  O  O274  1  0.63695422  0.99891144  0.75221702  1
  O  O275  1  0.37128238  0.00878403  0.25922963  1
  O  O276  1  0.36412672  -0.00132982  0.75562976  1
  O  O277  1  0.36788099  0.50731652  0.25300161  1
  O  O278  1  0.37490820  0.50860447  0.75347025  1
  O  O279  1  0.86575363  0.00786732  0.25913143  1
  O  O280  1  0.86365883  0.01057490  0.75849384  1
  O  O281  1  0.88805764  0.50957376  0.25190800  1
  O  O282  1  0.86990519  0.50087374  0.76135993  1
  O  O283  1  0.11603677  0.37061395  0.38306574  1
  O  O284  1  0.11699856  0.38276451  0.85981845  1
  O  O285  1  0.11927167  0.87130794  0.36758503  1
  O  O286  1  0.11490195  0.86162990  0.87227742  1
  O  O287  1  0.62546758  0.36291228  0.38256773  1
  O  O288  1  0.61068658  0.38095021  0.87480933  1
  O  O289  1  0.62898875  0.87779462  0.37555107  1
  O  O290  1  0.61557314  0.86927296  0.87352842  1
  O  O291  1  0.38206299  0.12905392  0.12820704  1
  O  O292  1  0.38755773  0.13597631  0.62187256  1
  O  O293  1  0.37730058  0.63104206  0.12817151  1
  O  O294  1  0.37209570  0.63250301  0.63795920  1
  O  O295  1  0.88511225  0.12455704  0.13634536  1
  O  O296  1  0.88602819  0.11559772  0.63549988  1
  O  O297  1  0.88672160  0.62626132  0.13871125  1
  O  O298  1  0.87937251  0.63334058  0.62310305  1
  O  O299  1  0.25558945  0.25597343  0.11532583  1
  O  O300  1  0.26063262  0.25519092  0.61913065  1
  O  O301  1  0.25331983  0.75097445  0.11253340  1
  O  O302  1  0.26165459  0.74679234  0.61762139  1
  O  O303  1  0.75768440  0.24677812  0.12644769  1
  O  O304  1  0.74356897  0.25981691  0.61578616  1
  O  O305  1  0.75009680  0.75518855  0.11368120  1
  O  O306  1  0.76124137  0.75699900  0.63410364  1
  O  O307  1  0.26086992  0.25209397  0.39094320  1
  O  O308  1  0.25563765  0.24712370  0.88664530  1
  O  O309  1  0.24820379  0.74380766  0.38503866  1
  O  O310  1  0.24303061  0.74566473  0.87639598  1
  O  O311  1  0.74370245  0.24320520  0.38315762  1
  O  O312  1  0.74819876  0.23664562  0.86953544  1
  O  O313  1  0.75933924  0.73120349  0.37386171  1
  O  O314  1  0.74342021  0.74420089  0.87871545  1
  O  O315  1  0.01413596  0.11594500  0.00974712  1
  O  O316  1  -0.00433447  0.11240765  0.50720225  1
  O  O317  1  -0.00384989  0.61941335  0.00964673  1
  O  O318  1  0.00643215  0.62580476  0.50573671  1
  O  O319  1  0.50997982  0.12505026  0.00662211  1
  O  O320  1  0.50552905  0.12120435  0.50860183  1
  O  O321  1  0.48553991  0.61539430  0.00668252  1
  O  O322  1  0.51196846  0.61557215  0.49959621  1
  O  O323  1  0.49702632  0.38802835  0.49920271  1
  O  O324  1  0.48939853  0.38002832  0.99241175  1
  O  O325  1  0.49223021  0.88572550  0.50003067  1
  O  O326  1  0.48984558  0.86907489  0.98734167  1
  O  O327  1  0.99436355  0.37252654  0.48878250  1
  O  O328  1  1.00761504  0.38955560  0.98538013  1
  O  O329  1  0.99191010  0.88481070  0.49851569  1
  O  O330  1  1.00466103  0.87187423  0.98557900  1
  O  O331  1  0.49412481  0.50446325  0.38350410  1
  O  O332  1  0.49153742  0.49494714  0.87866432  1
  O  O333  1  0.48846957  1.00336579  0.38469256  1
  O  O334  1  0.48960911  0.99000090  0.86621286  1
  O  O335  1  1.00725247  0.48122053  0.37487719  1
  O  O336  1  0.99494848  0.49993275  0.87788879  1
  O  O337  1  0.99490203  0.99441099  0.38515966  1
  O  O338  1  1.00192024  0.98095957  0.86977080  1
  O  O339  1  -0.00086769  0.00979633  0.13388324  1
  O  O340  1  0.00815893  0.00226293  0.62185040  1
  O  O341  1  0.00456518  0.50563011  0.11465262  1
  O  O342  1  0.00619717  0.50748915  0.62212913  1
  O  O343  1  0.50608624  0.01247261  0.13045551  1
  O  O344  1  0.49363551  0.00938083  0.61869541  1
  O  O345  1  0.49393142  0.51011763  0.11367428  1
  O  O346  1  0.51271996  0.49740418  0.61798229  1
  O  O347  1  0.25788189  0.38273673  0.23882176  1
  O  O348  1  0.24400110  0.37653351  0.74344239  1
  O  O349  1  0.24094492  0.88352976  0.24817574  1
  O  O350  1  0.24815118  0.89329770  0.75247891  1
  O  O351  1  0.75333524  0.37639044  0.24537877  1
  O  O352  1  0.75115582  0.38100654  0.74413114  1
  O  O353  1  0.74666747  0.88804517  0.24497146  1
  O  O354  1  0.74942177  0.88374949  0.74549655  1
  O  O355  1  0.26172820  0.12156572  0.24755497  1
  O  O356  1  0.24384926  0.10857700  0.74939939  1
  O  O357  1  0.25785850  0.61647116  0.25267218  1
  O  O358  1  0.25744747  0.62316270  0.75585219  1
  O  O359  1  0.75732293  0.11723087  0.25745865  1
  O  O360  1  0.75252040  0.12070887  0.75735547  1
  O  O361  1  0.76911208  0.62191795  0.25537521  1
  O  O362  1  0.75212862  0.61664178  0.76053724  1
  O  O363  1  0.37305531  0.12136326  0.36694508  1
  O  O364  1  0.37312004  0.11244879  0.88269459  1
  O  O365  1  0.36908189  0.61956366  0.36635910  1
  O  O366  1  0.36483505  0.62272368  0.86357627  1
  O  O367  1  0.86887821  0.11676408  0.37287903  1
  O  O368  1  0.86304908  0.12427879  0.87116814  1
  O  O369  1  0.87295727  0.62427250  0.36398232  1
  O  O370  1  0.86731681  0.61748040  0.87171739  1
  O  O371  1  0.13525893  0.37518289  0.11874114  1
  O  O372  1  0.12907938  0.38288681  0.62851867  1
  O  O373  1  0.12494914  0.87008057  0.13663354  1
  O  O374  1  0.12106122  0.88703139  0.62444236  1
  O  O375  1  0.62522238  0.38118683  0.12068919  1
  O  O376  1  0.63920856  0.38735594  0.62400660  1
  O  O377  1  0.63279043  0.88495241  0.12206219  1
  O  O378  1  0.63870893  0.86955391  0.62704220  1
  O  O379  1  0.12071013  0.24095084  0.25482174  1
  O  O380  1  0.12492904  0.26085358  0.73955510  1
  O  O381  1  0.11997655  0.75774269  0.25642158  1
  O  O382  1  0.11578924  0.74764016  0.75502243  1
  O  O383  1  0.61360025  0.23722990  0.26273897  1
  O  O384  1  0.61083027  0.25502897  0.74505654  1
  O  O385  1  0.63052427  0.73843919  0.24851011  1
  O  O386  1  0.61604545  0.75163927  0.75828136  1
  O  O387  1  0.37955379  0.24268810  0.24392475  1
  O  O388  1  0.38578253  0.25654948  0.73632436  1
  O  O389  1  0.35672838  0.73825372  0.22920896  1
  O  O390  1  0.37791897  0.74582065  0.74557182  1
  O  O391  1  0.88498545  0.23299071  0.25836730  1
  O  O392  1  0.87573224  0.23478944  0.75085614  1
  O  O393  1  0.88987693  0.74305962  0.24952486  1
  O  O394  1  0.88301682  0.74752010  0.74057396  1
  O  O395  1  0.38363733  0.49921291  0.49796105  1
  O  O396  1  0.37684562  0.48808320  0.99308253  1
  O  O397  1  0.37977194  0.99797239  0.49849337  1
  O  O398  1  0.36702675  0.98844223  0.99081961  1
  O  O399  1  0.87744475  0.48655225  0.50251845  1
  O  O400  1  0.88689193  0.50205778  0.98772855  1
  O  O401  1  0.88239534  0.99301481  0.49777933  1
  O  O402  1  0.88057153  1.00479785  0.99696893  1
  O  O403  1  0.12576530  0.00204855  -0.00023079  1
  O  O404  1  0.11742034  -0.00370906  0.51053152  1
  O  O405  1  0.11655099  0.50621623  -0.00242898  1
  O  O406  1  0.12401691  0.50577861  0.51061617  1
  O  O407  1  0.62773409  0.01040811  0.01363377  1
  O  O408  1  0.61129438  0.01084642  0.49983669  1
  O  O409  1  0.60803068  0.50203580  -0.00498385  1
  O  O410  1  0.62013754  0.50669811  0.50653439  1
  O  O411  1  0.36753388  0.37087184  0.11383792  1
  O  O412  1  0.37238195  0.37121218  0.61839347  1
  O  O413  1  0.37215970  0.86796895  0.11314616  1
  O  O414  1  0.37482510  0.87011384  0.61531274  1
  O  O415  1  0.88094349  0.36621570  0.12057022  1
  O  O416  1  0.86491400  0.37669053  0.61695576  1
  O  O417  1  0.85761370  0.87145554  0.13162153  1
  O  O418  1  0.86765140  0.86944647  0.62034702  1
  O  O419  1  0.13092326  0.12015802  0.38716281  1
  O  O420  1  0.12357115  0.12001422  0.89131120  1
  O  O421  1  0.13108202  0.63122788  0.38056820  1
  O  O422  1  0.13637837  0.63388275  0.86638465  1
  O  O423  1  0.62765482  0.13259796  0.38846605  1
  O  O424  1  0.63274480  0.12073162  0.88855346  1
  O  O425  1  0.63351504  0.63012513  0.39205122  1
  O  O426  1  0.63368147  0.63388363  0.87122022  1
