# generated using pymatgen
data_V85Zn86O256
_symmetry_space_group_name_H-M   'P 1'
_cell_length_a   16.98295165
_cell_length_b   16.97053029
_cell_length_c   16.94995934
_cell_angle_alpha   89.96837626
_cell_angle_beta   90.08786505
_cell_angle_gamma   90.00661658
_symmetry_Int_Tables_number   1
_chemical_formula_structural   V85Zn86O256
_chemical_formula_sum   'V85 Zn86 O256'
_cell_volume   4885.13609896
_cell_formula_units_Z   1
loop_
 _symmetry_equiv_pos_site_id
 _symmetry_equiv_pos_as_xyz
  1  'x, y, z'
loop_
 _atom_site_type_symbol
 _atom_site_label
 _atom_site_symmetry_multiplicity
 _atom_site_fract_x
 _atom_site_fract_y
 _atom_site_fract_z
 _atom_site_occupancy
  V  V0  1  0.24945838  0.24819162  -0.00100820  1
  V  V1  1  0.87793680  0.74825935  0.62376885  1
  V  V2  1  0.49811473  0.62557296  0.62544379  1
  V  V3  1  0.87775934  0.25186218  0.12483906  1
  V  V4  1  0.86597777  0.00526344  0.37566983  1
  V  V5  1  0.36885808  0.25432300  0.62584314  1
  V  V6  1  0.65679196  0.03694396  0.60578991  1
  V  V7  1  0.62943842  0.50115523  0.62272517  1
  V  V8  1  0.00738013  0.24734127  0.25266580  1
  V  V9  1  0.00980219  0.13755259  0.63020876  1
  V  V10  1  0.62711971  0.63016531  -0.00551176  1
  V  V11  1  0.12414763  0.75523765  0.87402366  1
  V  V12  1  0.67677979  0.31747114  0.30039265  1
  V  V13  1  0.50892304  0.89213984  0.87560690  1
  V  V14  1  0.74962513  0.75999097  -0.00513580  1
  V  V15  1  0.87457681  0.62651059  0.24745278  1
  V  V16  1  0.11928010  0.61867329  -0.00398754  1
  V  V17  1  -0.00292873  0.62140077  0.11862338  1
  V  V18  1  0.12314037  0.12197498  -0.00102626  1
  V  V19  1  0.87389209  0.76050690  0.12273259  1
  V  V20  1  0.62759472  0.00259261  0.12503982  1
  V  V21  1  0.25529605  0.38509403  0.62321922  1
  V  V22  1  0.61383654  0.75391270  0.37200812  1
  V  V23  1  0.00738755  0.38520299  0.37398667  1
  V  V24  1  -0.00183268  0.37243422  0.86869426  1
  V  V25  1  0.49887406  0.24810355  0.75026195  1
  V  V26  1  0.88434739  0.38029486  0.00255450  1
  V  V27  1  0.00210715  0.87452301  0.37470886  1
  V  V28  1  0.86913175  0.12247277  0.25284972  1
  V  V29  1  0.51106430  0.74408017  0.76375384  1
  V  V30  1  0.37265939  0.62479971  0.75062057  1
  V  V31  1  0.50049135  0.37325696  0.87621519  1
  V  V32  1  0.50163911  0.49914090  0.00029637  1
  V  V33  1  0.62742756  0.37299200  0.75036410  1
  V  V34  1  0.37436017  0.11794050  0.75543609  1
  V  V35  1  -0.00012159  0.61925180  0.61712412  1
  V  V36  1  0.25018210  -0.00370133  0.25206738  1
  V  V37  1  0.25093915  0.24835575  0.49553206  1
  V  V38  1  0.49049534  0.49849791  0.49657137  1
  V  V39  1  0.74634236  0.86899751  0.62583875  1
  V  V40  1  0.25124136  0.11914195  0.87603699  1
  V  V41  1  0.87540280  0.62317623  0.74911429  1
  V  V42  1  -0.01225467  0.87944509  0.87946718  1
  V  V43  1  0.24778519  0.62479703  0.86960087  1
  V  V44  1  0.23976381  0.63267004  0.37333866  1
  V  V45  1  -0.01699431  -0.00271606  0.00032846  1
  V  V46  1  0.75257132  0.49504975  0.74965165  1
  V  V47  1  0.37052221  0.12748150  0.26117405  1
  V  V48  1  0.12184000  0.24846403  0.86449878  1
  V  V49  1  0.12971986  -0.00727332  0.12292427  1
  V  V50  1  0.69940522  0.32121590  0.56544363  1
  V  V51  1  0.24710360  0.50037741  0.24646283  1
  V  V52  1  0.76060339  -0.00247553  0.75290367  1
  V  V53  1  0.13043910  0.38760993  0.75032246  1
  V  V54  1  0.37548207  0.37280596  -0.00067150  1
  V  V55  1  0.62558819  0.88200422  0.25326515  1
  V  V56  1  0.74947950  0.62787125  0.36988982  1
  V  V57  1  0.25120222  0.75450786  -0.00206322  1
  V  V58  1  0.12691083  0.50386493  0.61282955  1
  V  V59  1  0.00726449  0.00032326  0.50805317  1
  V  V60  1  0.37140750  -0.02093673  0.38268735  1
  V  V61  1  0.89141125  0.37558192  0.50696297  1
  V  V62  1  0.37425724  0.76437607  0.11971855  1
  V  V63  1  0.88005963  0.50306598  0.87984528  1
  V  V64  1  0.49877516  0.62875361  0.12248302  1
  V  V65  1  0.12201843  0.87986288  0.74361731  1
  V  V66  1  0.49548584  0.12315643  0.12248282  1
  V  V67  1  0.37419551  0.88713870  -0.01686800  1
  V  V68  1  0.61663448  0.11657778  -0.00222533  1
  V  V69  1  0.48873356  0.37289571  0.36333645  1
  V  V70  1  0.24269152  0.00228154  0.74248068  1
  V  V71  1  0.36863404  0.49772442  0.87283126  1
  V  V72  1  0.12609739  0.86862098  0.24885865  1
  V  V73  1  0.74641437  0.37369485  0.12079471  1
  V  V74  1  0.00105555  0.12312222  0.12555481  1
  V  V75  1  0.62403382  0.62535567  0.49701291  1
  V  V76  1  0.37255357  0.62771523  0.24482334  1
  V  V77  1  0.62433616  0.49872429  0.13038549  1
  V  V78  1  0.75987259  0.12068155  0.87552752  1
  V  V79  1  0.49304860  -0.01949349  0.50523270  1
  V  V80  1  0.24862604  0.37440152  0.12231455  1
  V  V81  1  0.75008867  0.74938623  0.49803613  1
  V  V82  1  0.74857185  0.24961769  -0.00012656  1
  V  V83  1  0.49283463  0.12192598  0.61565563  1
  V  V84  1  0.62590097  0.24806424  0.87600874  1
  Zn  Zn85  1  0.37014056  0.50280620  0.37676578  1
  Zn  Zn86  1  0.00260078  0.75012355  0.25260048  1
  Zn  Zn87  1  0.54515573  0.20282787  0.29880197  1
  Zn  Zn88  1  0.24835827  0.76008337  0.50170625  1
  Zn  Zn89  1  0.87819319  0.25513943  0.63232058  1
  Zn  Zn90  1  0.11635909  0.63004471  0.48849897  1
  Zn  Zn91  1  0.25425984  0.87775219  0.61688919  1
  Zn  Zn92  1  0.88324535  0.13121561  0.75139203  1
  Zn  Zn93  1  0.12877593  0.24565497  0.37483130  1
  Zn  Zn94  1  0.87947836  0.50447644  0.37997241  1
  Zn  Zn95  1  0.11899533  0.49677506  0.11716172  1
  Zn  Zn96  1  0.12694361  0.37399197  0.24834562  1
  Zn  Zn97  1  0.75270545  0.88250286  0.12564041  1
  Zn  Zn98  1  0.74952599  0.49906069  0.25039836  1
  Zn  Zn99  1  0.37786638  0.24803982  0.12969551  1
  Zn  Zn100  1  0.62894908  0.87522901  0.75177216  1
  Zn  Zn101  1  0.37790001  0.76268769  0.61595615  1
  Zn  Zn102  1  0.49578722  0.75764259  0.24948149  1
  Zn  Zn103  1  0.13216630  0.11983375  0.49462428  1
  Zn  Zn104  1  0.87511274  0.87672746  0.49898951  1
  Zn  Zn105  1  0.74803744  0.62801851  0.87491323  1
  Zn  Zn106  1  -0.00164213  0.75113057  0.75091520  1
  Zn  Zn107  1  0.19047386  0.18280483  0.18700679  1
  Zn  Zn108  1  0.18460143  0.18867124  0.68439000  1
  Zn  Zn109  1  0.18790549  0.68911380  0.17959410  1
  Zn  Zn110  1  0.18597536  0.69265511  0.68372018  1
  Zn  Zn111  1  0.71383242  0.12317875  0.34789478  1
  Zn  Zn112  1  0.69330339  0.18387476  0.68569428  1
  Zn  Zn113  1  0.68649518  0.69305512  0.18410232  1
  Zn  Zn114  1  0.68902073  0.68340400  0.68840189  1
  Zn  Zn115  1  0.31516776  0.31508131  0.31056690  1
  Zn  Zn116  1  0.30817754  0.31051081  0.80917176  1
  Zn  Zn117  1  0.30744174  0.81173886  0.30718489  1
  Zn  Zn118  1  0.32884533  0.82802794  0.78188609  1
  Zn  Zn119  1  0.83655274  0.30506698  0.32293994  1
  Zn  Zn120  1  0.81417103  0.30940061  0.80942281  1
  Zn  Zn121  1  0.80984628  0.81562400  0.30952995  1
  Zn  Zn122  1  0.81201336  0.80952481  0.81247310  1
  Zn  Zn123  1  0.19067190  0.43590899  0.43699041  1
  Zn  Zn124  1  0.18748328  0.43777900  0.93602896  1
  Zn  Zn125  1  0.18736080  0.93410320  0.43521109  1
  Zn  Zn126  1  0.18515239  0.93732210  0.93433361  1
  Zn  Zn127  1  0.68570244  0.44560842  0.43350218  1
  Zn  Zn128  1  0.68996862  0.44054265  0.93836172  1
  Zn  Zn129  1  0.68688219  0.93907661  0.43968326  1
  Zn  Zn130  1  0.68745376  0.93905443  0.93702535  1
  Zn  Zn131  1  0.31065175  0.05952234  0.06554922  1
  Zn  Zn132  1  0.31275718  0.06140127  0.56106703  1
  Zn  Zn133  1  0.31067851  0.56432250  0.05918866  1
  Zn  Zn134  1  0.31047622  0.57184002  0.56154729  1
  Zn  Zn135  1  0.80689295  0.06782823  0.06795709  1
  Zn  Zn136  1  0.82732043  0.06396959  0.56609796  1
  Zn  Zn137  1  0.81040009  0.56443616  0.06241327  1
  Zn  Zn138  1  0.81342164  0.55714641  0.55941314  1
  Zn  Zn139  1  0.43367216  0.43938623  0.18593725  1
  Zn  Zn140  1  0.43874235  0.44002211  0.68881634  1
  Zn  Zn141  1  0.44187968  0.94045362  0.18683062  1
  Zn  Zn142  1  0.44022640  0.93927723  0.69358452  1
  Zn  Zn143  1  0.93803176  0.44119227  0.19091309  1
  Zn  Zn144  1  0.94367290  0.43782474  0.68953979  1
  Zn  Zn145  1  0.93960900  0.94054763  0.19108497  1
  Zn  Zn146  1  0.93623912  0.93623850  0.68803176  1
  Zn  Zn147  1  0.06370245  0.06134650  0.31819017  1
  Zn  Zn148  1  0.06047906  0.05887104  0.81387212  1
  Zn  Zn149  1  0.06328405  0.56230821  0.30155318  1
  Zn  Zn150  1  0.05867393  0.56344880  0.80845113  1
  Zn  Zn151  1  0.55083952  0.04326792  0.31545013  1
  Zn  Zn152  1  0.57462920  0.06339776  0.79734552  1
  Zn  Zn153  1  0.55859704  0.56439469  0.31028792  1
  Zn  Zn154  1  0.56222866  0.55879476  0.81426800  1
  Zn  Zn155  1  0.43114035  0.18738215  0.44026997  1
  Zn  Zn156  1  0.43652854  0.18602028  0.93861402  1
  Zn  Zn157  1  0.43092899  0.68844138  0.43642269  1
  Zn  Zn158  1  0.43669484  0.68880792  0.93655456  1
  Zn  Zn159  1  0.94211992  0.18993548  0.44187048  1
  Zn  Zn160  1  0.93876630  0.19007449  0.93826341  1
  Zn  Zn161  1  0.93714023  0.69042017  0.43676216  1
  Zn  Zn162  1  0.93479449  0.69242820  0.93813046  1
  Zn  Zn163  1  0.06413567  0.31034731  0.05863887  1
  Zn  Zn164  1  0.06967200  0.31566315  0.56185661  1
  Zn  Zn165  1  0.05931396  0.81095503  0.06088936  1
  Zn  Zn166  1  0.06746381  0.80935752  0.55630018  1
  Zn  Zn167  1  0.56312190  0.30563527  0.06922041  1
  Zn  Zn168  1  0.53511038  0.31086824  0.55348766  1
  Zn  Zn169  1  0.56174959  0.81764881  0.05947717  1
  Zn  Zn170  1  0.56260819  0.80476003  0.56831331  1
  O  O171  1  0.11954283  0.11603249  0.11899394  1
  O  O172  1  0.11420741  0.12552767  0.61829584  1
  O  O173  1  0.11601759  0.62695152  0.11231640  1
  O  O174  1  0.11603171  0.61715771  0.62953391  1
  O  O175  1  0.61488099  0.11725612  0.11222172  1
  O  O176  1  0.59898410  0.12600007  0.64364958  1
  O  O177  1  0.61994006  0.61957169  0.11504914  1
  O  O178  1  0.61899150  0.61778032  0.61969901  1
  O  O179  1  0.38480132  0.38483972  0.37030693  1
  O  O180  1  0.37773221  0.38090841  0.87660840  1
  O  O181  1  0.37387662  0.88133148  0.37050267  1
  O  O182  1  0.38822548  0.87384608  0.87772774  1
  O  O183  1  0.88876329  0.38182144  0.38387901  1
  O  O184  1  0.88287694  0.38070682  0.88178684  1
  O  O185  1  0.87557056  0.88992340  0.37401154  1
  O  O186  1  0.88949509  0.87072138  0.87226459  1
  O  O187  1  0.26329568  -0.00177312  0.36715951  1
  O  O188  1  0.24212685  0.01575849  0.86843281  1
  O  O189  1  0.25087967  0.50531712  0.36175516  1
  O  O190  1  0.26127158  0.50674570  0.87904565  1
  O  O191  1  0.76127798  0.01395471  0.38617527  1
  O  O192  1  0.74390486  0.00839700  0.86528957  1
  O  O193  1  0.74909982  0.51646948  0.36953466  1
  O  O194  1  0.76208873  0.50208249  0.86835391  1
  O  O195  1  0.24844920  0.49169996  0.12622753  1
  O  O196  1  0.24341530  0.49560316  0.62203278  1
  O  O197  1  0.23787470  1.00032814  0.13238977  1
  O  O198  1  0.25254464  1.00087412  0.63921484  1
  O  O199  1  0.74397645  0.48985299  0.12608484  1
  O  O200  1  0.73759642  0.50402319  0.63262522  1
  O  O201  1  0.73396954  1.00080097  0.12297640  1
  O  O202  1  0.75710180  0.98208769  0.62881153  1
  O  O203  1  0.00290155  0.36735546  0.25472473  1
  O  O204  1  0.01082400  0.37717073  0.76261408  1
  O  O205  1  0.00771438  0.87468707  0.25681982  1
  O  O206  1  0.00479393  0.87644595  0.76175430  1
  O  O207  1  0.49755311  0.38305146  0.26321609  1
  O  O208  1  0.50732801  0.36870430  0.75514069  1
  O  O209  1  0.51721978  0.87269967  0.24477390  1
  O  O210  1  0.50563248  0.86277480  0.76215409  1
  O  O211  1  0.48318589  0.12001751  0.24276143  1
  O  O212  1  0.48852410  0.13105941  0.74948818  1
  O  O213  1  0.48839450  0.62903911  0.24108856  1
  O  O214  1  0.49785398  0.63031448  0.74953523  1
  O  O215  1  0.99640902  0.13133256  0.24379073  1
  O  O216  1  1.00332511  0.11694170  0.73355642  1
  O  O217  1  0.99212328  0.63135723  0.24148732  1
  O  O218  1  0.99082728  0.62838955  0.73971522  1
  O  O219  1  0.36668929  0.25727779  0.00008004  1
  O  O220  1  0.36655585  0.24923145  0.51626317  1
  O  O221  1  0.36779734  0.75749975  0.00062371  1
  O  O222  1  0.36325168  0.73472977  0.50738146  1
  O  O223  1  0.87035144  0.25893535  0.00604555  1
  O  O224  1  0.87672026  0.27032318  0.49937862  1
  O  O225  1  0.85979213  0.74547112  0.00894300  1
  O  O226  1  0.86723343  0.75181685  0.50752980  1
  O  O227  1  0.14240760  0.25153269  0.50071725  1
  O  O228  1  0.13120988  0.24248360  0.99025472  1
  O  O229  1  0.13328346  0.74053613  0.50232744  1
  O  O230  1  0.13112149  0.74532844  0.99048483  1
  O  O231  1  0.63548481  0.26340154  0.51665081  1
  O  O232  1  0.63003012  0.24097648  0.99461640  1
  O  O233  1  0.62951427  0.74462981  0.49182075  1
  O  O234  1  0.63861214  0.74329381  1.00718271  1
  O  O235  1  0.49574363  0.23217392  0.12310247  1
  O  O236  1  0.48748380  0.24462922  0.63108770  1
  O  O237  1  0.49031991  0.74474838  0.12019757  1
  O  O238  1  0.49671260  0.74101913  0.63976300  1
  O  O239  1  0.99682440  0.24530643  0.12984837  1
  O  O240  1  1.00614093  0.23996805  0.62180026  1
  O  O241  1  0.98950611  0.74112086  0.12361386  1
  O  O242  1  0.98789847  0.74471974  0.62617072  1
  O  O243  1  0.00012660  0.26078941  0.36551136  1
  O  O244  1  0.01030788  0.26026672  0.88117072  1
  O  O245  1  -0.01016053  0.76955056  0.37330851  1
  O  O246  1  0.00614078  0.76147589  0.87608944  1
  O  O247  1  0.48980651  0.26706400  0.37818997  1
  O  O248  1  0.50478425  0.25536076  0.86949004  1
  O  O249  1  0.51155172  0.74402379  0.37339461  1
  O  O250  1  0.50338405  0.75116048  0.86576216  1
  O  O251  1  0.25102058  0.14333835  0.50883612  1
  O  O252  1  0.24487688  0.12789155  0.99343239  1
  O  O253  1  0.24721309  0.61735326  0.47691080  1
  O  O254  1  0.24321921  0.63206252  0.98813698  1
  O  O255  1  0.72330175  0.11160085  0.57020228  1
  O  O256  1  0.74108569  0.13064414  0.99342306  1
  O  O257  1  0.74432125  0.62908341  0.49112980  1
  O  O258  1  0.74163214  0.63344487  0.99922509  1
  O  O259  1  0.25493232  0.37016293  0.00385027  1
  O  O260  1  0.24864641  0.36803336  0.51540346  1
  O  O261  1  0.26299875  0.86698808  -0.01424956  1
  O  O262  1  0.25040363  0.87703755  0.50365851  1
  O  O263  1  0.76010261  0.37189358  0.00480588  1
  O  O264  1  0.75422104  0.37648211  0.49901432  1
  O  O265  1  0.74612384  0.86331211  0.00281357  1
  O  O266  1  0.75193856  0.86720655  0.50783567  1
  O  O267  1  0.13668190  0.49758329  0.23884698  1
  O  O268  1  0.12571234  0.49077737  0.74793747  1
  O  O269  1  0.13185837  0.99457655  0.24279597  1
  O  O270  1  0.13071158  0.99240304  0.75303158  1
  O  O271  1  0.62681558  0.50821956  0.23374789  1
  O  O272  1  0.62984478  0.49368005  0.74267381  1
  O  O273  1  0.62437182  0.98887653  0.24454057  1
  O  O274  1  0.64335991  1.00121209  0.72451149  1
  O  O275  1  0.36901477  0.00174868  0.25863486  1
  O  O276  1  0.36541782  0.01452992  0.75427828  1
  O  O277  1  0.36197531  0.51164233  0.24280699  1
  O  O278  1  0.38406800  0.51193631  0.76265933  1
  O  O279  1  0.87996583  0.00851469  0.26467937  1
  O  O280  1  0.86390623  0.00614593  0.74608687  1
  O  O281  1  0.87090188  0.51498940  0.25124317  1
  O  O282  1  0.86795817  0.50215785  0.75474813  1
  O  O283  1  0.12069181  0.36925923  0.37115715  1
  O  O284  1  0.11968307  0.37106127  0.86965850  1
  O  O285  1  0.11354908  0.88330728  0.36112054  1
  O  O286  1  0.11472583  0.86821922  0.87083772  1
  O  O287  1  0.62041073  0.37665293  0.36431400  1
  O  O288  1  0.61968814  0.37034448  0.87237100  1
  O  O289  1  0.63072985  0.86906569  0.36406911  1
  O  O290  1  0.61315730  0.87728331  0.87270514  1
  O  O291  1  0.38072263  0.12155208  0.13194274  1
  O  O292  1  0.37738897  0.13258923  0.63583720  1
  O  O293  1  0.37665590  0.63414218  0.12883197  1
  O  O294  1  0.38298812  0.61814630  0.63820229  1
  O  O295  1  0.88230994  0.13111028  0.13176347  1
  O  O296  1  0.89411823  0.13373211  0.62524888  1
  O  O297  1  0.87906281  0.63175135  0.12971169  1
  O  O298  1  0.87955420  0.62731209  0.62832900  1
  O  O299  1  0.25112881  0.25687418  0.11727153  1
  O  O300  1  0.25431097  0.25991835  0.62135697  1
  O  O301  1  0.25841141  0.74682547  0.10644627  1
  O  O302  1  0.25745537  0.75544465  0.62894149  1
  O  O303  1  0.75967081  0.26553471  0.11780879  1
  O  O304  1  0.75446583  0.26479713  0.63033459  1
  O  O305  1  0.75810468  0.75238263  0.11439760  1
  O  O306  1  0.76048469  0.74834199  0.62096224  1
  O  O307  1  0.25651044  0.26014980  0.39332859  1
  O  O308  1  0.24109555  0.24256652  0.87978410  1
  O  O309  1  0.24989846  0.73358779  0.36741236  1
  O  O310  1  0.24129664  0.74223705  0.88210491  1
  O  O311  1  0.73736434  0.25473448  0.35574533  1
  O  O312  1  0.74372805  0.24363867  0.88144096  1
  O  O313  1  0.74284636  0.74204558  0.37776235  1
  O  O314  1  0.75366730  0.74729595  0.88993451  1
  O  O315  1  0.00465745  0.11718605  0.00395228  1
  O  O316  1  0.00181380  0.11493471  0.51013779  1
  O  O317  1  0.00827552  0.63181135  0.00463182  1
  O  O318  1  -0.00257927  0.62671982  0.51194186  1
  O  O319  1  0.50710036  0.12522073  0.00375705  1
  O  O320  1  0.49068366  0.11950905  0.51279175  1
  O  O321  1  0.50559591  0.62023970  0.00395998  1
  O  O322  1  0.50767666  0.61800639  0.50295691  1
  O  O323  1  0.50523703  0.38913877  0.48110410  1
  O  O324  1  0.49445617  0.37756344  0.99641879  1
  O  O325  1  0.49733006  0.88153277  0.51574523  1
  O  O326  1  0.49081748  0.87291750  0.98222694  1
  O  O327  1  0.99805778  0.37586216  0.49162111  1
  O  O328  1  0.98993728  0.37342995  0.99191773  1
  O  O329  1  0.99765072  0.88496391  0.49546412  1
  O  O330  1  1.00144980  0.88245481  0.98849227  1
  O  O331  1  0.49786142  0.49530739  0.38023383  1
  O  O332  1  0.49194240  0.49231136  0.88167293  1
  O  O333  1  0.48228749  0.99313250  0.39003101  1
  O  O334  1  0.50643351  0.99004636  0.86152945  1
  O  O335  1  1.00168164  0.48895452  0.36556198  1
  O  O336  1  0.98701702  0.49268921  0.87054735  1
  O  O337  1  0.99014235  0.99185677  0.38404965  1
  O  O338  1  1.00119624  0.98835401  0.88507459  1
  O  O339  1  0.00645581  0.00503980  0.11840409  1
  O  O340  1  -0.00723440  0.00221210  0.61036679  1
  O  O341  1  0.00032272  0.51601627  0.12742339  1
  O  O342  1  0.01212161  0.50930614  0.63038409  1
  O  O343  1  0.51089381  0.01205575  0.12807437  1
  O  O344  1  0.49108888  0.00803637  0.61955625  1
  O  O345  1  0.50558084  0.50530725  0.11857073  1
  O  O346  1  0.51076783  0.50281578  0.61807238  1
  O  O347  1  0.25053066  0.38223146  0.23967823  1
  O  O348  1  0.24140960  0.37333014  0.73824531  1
  O  O349  1  0.24120288  0.88628373  0.24981818  1
  O  O350  1  0.23439881  0.89031392  0.76447566  1
  O  O351  1  0.74975208  0.37390164  0.24550324  1
  O  O352  1  0.74328418  0.38811939  0.75800530  1
  O  O353  1  0.73167592  0.86768837  0.24262387  1
  O  O354  1  0.74962142  0.87951067  0.74632302  1
  O  O355  1  0.26266295  0.11102412  0.24374228  1
  O  O356  1  0.25240984  0.12199323  0.75618769  1
  O  O357  1  0.25255501  0.61990335  0.25050229  1
  O  O358  1  0.25741165  0.62905775  0.76295619  1
  O  O359  1  0.77010248  0.12977825  0.24841447  1
  O  O360  1  0.75221349  0.11671146  0.76007421  1
  O  O361  1  0.75631556  0.62807394  0.25450508  1
  O  O362  1  0.75526224  0.61288315  0.75365544  1
  O  O363  1  0.37791957  0.11731124  0.36282489  1
  O  O364  1  0.36231922  0.13440074  0.86751344  1
  O  O365  1  0.36606117  0.62332814  0.35636731  1
  O  O366  1  0.36652191  0.61652460  0.87407280  1
  O  O367  1  0.88342795  0.11611096  0.36934899  1
  O  O368  1  0.86266160  0.12791492  0.87836018  1
  O  O369  1  0.86792168  0.62645417  0.36685595  1
  O  O370  1  0.87584427  0.61791903  0.86854009  1
  O  O371  1  0.13697468  0.37645854  0.12044631  1
  O  O372  1  0.13096403  0.38629867  0.63231774  1
  O  O373  1  0.11561294  0.88594283  0.13048526  1
  O  O374  1  0.12146669  0.86949125  0.64218912  1
  O  O375  1  0.63512774  0.38448865  0.11487355  1
  O  O376  1  0.62856289  0.37999381  0.62491992  1
  O  O377  1  0.62414424  0.88553839  0.13004870  1
  O  O378  1  0.64223619  0.86061217  0.63057307  1
  O  O379  1  0.11662992  0.25040832  0.24668925  1
  O  O380  1  0.13024179  0.26033928  0.76131081  1
  O  O381  1  0.12510200  0.76501599  0.23910249  1
  O  O382  1  0.12117597  0.75624477  0.76273873  1
  O  O383  1  0.62143778  0.26384974  0.23810090  1
  O  O384  1  0.62168497  0.25569495  0.75604224  1
  O  O385  1  0.62047374  0.75711357  0.25638818  1
  O  O386  1  0.61381791  0.74517124  0.75040718  1
  O  O387  1  0.36574585  0.23208649  0.24902179  1
  O  O388  1  0.37675079  0.24248929  0.74237602  1
  O  O389  1  0.37389599  0.74706251  0.23630251  1
  O  O390  1  0.38965487  0.73114491  0.76037308  1
  O  O391  1  0.89044674  0.24384737  0.24339769  1
  O  O392  1  0.87726975  0.24580421  0.74785960  1
  O  O393  1  0.87388972  0.74097420  0.24146738  1
  O  O394  1  0.87400624  0.74036745  0.74174995  1
  O  O395  1  0.38791100  0.50849720  0.49940265  1
  O  O396  1  0.38099340  0.49407321  0.99254638  1
  O  O397  1  0.37742647  0.99873863  0.48990228  1
  O  O398  1  0.36820189  0.98474402  0.99806452  1
  O  O399  1  0.87040733  0.48193905  0.49639986  1
  O  O400  1  0.86948818  0.49228947  0.99158144  1
  O  O401  1  0.88405661  0.99967908  0.48975705  1
  O  O402  1  0.88440217  1.00445716  1.00916400  1
  O  O403  1  0.12049583  0.00434881  0.00672166  1
  O  O404  1  0.10945059  0.00027317  0.49447035  1
  O  O405  1  0.12769229  0.51487126  -0.00291630  1
  O  O406  1  0.12715370  0.50546478  0.50985960  1
  O  O407  1  0.62650654  0.01018278  0.00525035  1
  O  O408  1  0.61605770  -0.00615382  0.51749399  1
  O  O409  1  0.62087579  0.50663168  0.00884946  1
  O  O410  1  0.61988423  0.50679625  0.50681409  1
  O  O411  1  0.36493171  0.37208489  0.11922034  1
  O  O412  1  0.36738504  0.36831936  0.63432621  1
  O  O413  1  0.38381204  0.86710688  0.11007040  1
  O  O414  1  0.36152633  0.86481635  0.67042144  1
  O  O415  1  0.87140684  0.37543861  0.11813159  1
  O  O416  1  0.88727855  0.37533394  0.61225708  1
  O  O417  1  0.87470806  0.86402069  0.13248929  1
  O  O418  1  0.86704931  0.86267955  0.62560384  1
  O  O419  1  0.12097868  0.13254411  0.38055146  1
  O  O420  1  0.12775575  0.13281732  0.87823064  1
  O  O421  1  0.13615908  0.62166498  0.36754621  1
  O  O422  1  0.12838133  0.63163932  0.87680982  1
  O  O423  1  0.60615828  0.12937400  0.36288706  1
  O  O424  1  0.63110501  0.12935223  0.87904941  1
  O  O425  1  0.63109527  0.63329431  0.37526093  1
  O  O426  1  0.62630090  0.61603080  0.89066008  1
