# generated using pymatgen
data_V85Zn86O256
_symmetry_space_group_name_H-M   'P 1'
_cell_length_a   16.93479402
_cell_length_b   16.95822845
_cell_length_c   16.95294776
_cell_angle_alpha   90.01741453
_cell_angle_beta   90.01597627
_cell_angle_gamma   90.04125477
_symmetry_Int_Tables_number   1
_chemical_formula_structural   V85Zn86O256
_chemical_formula_sum   'V85 Zn86 O256'
_cell_volume   4868.61546588
_cell_formula_units_Z   1
loop_
 _symmetry_equiv_pos_site_id
 _symmetry_equiv_pos_as_xyz
  1  'x, y, z'
loop_
 _atom_site_type_symbol
 _atom_site_label
 _atom_site_symmetry_multiplicity
 _atom_site_fract_x
 _atom_site_fract_y
 _atom_site_fract_z
 _atom_site_occupancy
  V  V0  1  0.24437565  0.12569223  0.38684889  1
  V  V1  1  0.49865926  0.24476029  0.74913465  1
  V  V2  1  0.74841055  0.11618038  0.86965387  1
  V  V3  1  0.00403437  0.24804860  0.24871199  1
  V  V4  1  0.00045116  0.24577532  0.75595694  1
  V  V5  1  0.24823604  0.49811585  0.24849398  1
  V  V6  1  0.24773778  0.74851464  0.00386387  1
  V  V7  1  0.00543184  0.00463115  0.02250860  1
  V  V8  1  0.87225340  -0.00729087  0.37237450  1
  V  V9  1  0.81760470  0.92000266  0.56033945  1
  V  V10  1  0.75758344  0.74864406  0.50224101  1
  V  V11  1  0.50416438  0.50659987  -0.00002492  1
  V  V12  1  0.11859938  0.50485620  0.12563760  1
  V  V13  1  0.49743495  0.74667625  0.74955659  1
  V  V14  1  -0.00062439  0.75810070  0.75395448  1
  V  V15  1  0.12926692  -0.00076526  0.61986766  1
  V  V16  1  0.13903557  0.88618125  0.77630096  1
  V  V17  1  0.62120917  0.74602890  0.37170912  1
  V  V18  1  0.49537414  0.86972977  0.36252452  1
  V  V19  1  0.16786085  0.21455649  0.85590651  1
  V  V20  1  0.62052147  0.86699037  0.24509365  1
  V  V21  1  0.12589484  0.24709944  0.39052461  1
  V  V22  1  0.62663347  0.62415167  0.50012755  1
  V  V23  1  0.49911652  0.12951939  0.13163003  1
  V  V24  1  0.24732702  0.87662162  0.62779733  1
  V  V25  1  0.74547548  -0.00022651  0.24572411  1
  V  V26  1  0.12104075  0.75473459  0.37414088  1
  V  V27  1  0.00110860  -0.00605585  0.50014954  1
  V  V28  1  0.63269345  0.12514272  0.00156123  1
  V  V29  1  0.87562490  0.87642693  -0.00022986  1
  V  V30  1  0.49716302  0.62124084  0.62817116  1
  V  V31  1  0.86930427  0.49290962  0.87405420  1
  V  V32  1  0.12584126  0.87935422  0.23381784  1
  V  V33  1  0.11926140  0.62308135  0.49975072  1
  V  V34  1  0.89284416  -0.00265662  0.87298742  1
  V  V35  1  0.24783391  0.74818832  0.49986833  1
  V  V36  1  0.50272536  0.37370209  0.37397204  1
  V  V37  1  0.74997203  0.61635656  0.36870466  1
  V  V38  1  0.38116986  0.62761137  0.25027887  1
  V  V39  1  0.62916512  0.50136246  0.62927550  1
  V  V40  1  0.37433419  0.24057317  0.62707945  1
  V  V41  1  0.13270625  0.13183764  0.01124958  1
  V  V42  1  0.62702119  0.74697588  0.87844112  1
  V  V43  1  0.75598998  0.37568016  0.11869019  1
  V  V44  1  0.50262115  0.37650567  0.87693928  1
  V  V45  1  -0.00649285  0.50656297  0.00342278  1
  V  V46  1  0.87838811  0.12473006  0.24517810  1
  V  V47  1  0.37292673  0.87239917  -0.00617414  1
  V  V48  1  0.37395050  0.49789308  0.37637279  1
  V  V49  1  0.87883224  0.25468578  0.62430842  1
  V  V50  1  0.74910083  0.25520687  0.49462656  1
  V  V51  1  0.25314903  0.62821215  0.87127912  1
  V  V52  1  0.50426215  0.62916454  0.12392755  1
  V  V53  1  0.12307796  0.50256405  0.62156007  1
  V  V54  1  0.24916915  0.62459022  0.37513755  1
  V  V55  1  0.74713042  0.62066369  0.88005834  1
  V  V56  1  0.48067305  0.02645323  -0.02120458  1
  V  V57  1  0.61589224  -0.00119716  0.12170978  1
  V  V58  1  0.00830320  0.12831939  0.61847558  1
  V  V59  1  0.12496783  0.38047776  0.75636164  1
  V  V60  1  -0.00292354  0.62364573  0.62390612  1
  V  V61  1  0.88279529  0.38373470  0.49884361  1
  V  V62  1  0.88636174  0.50319437  0.37396639  1
  V  V63  1  0.86955691  0.62313575  0.75094790  1
  V  V64  1  0.37359485  0.75223107  0.12748324  1
  V  V65  1  0.50767353  -0.00002278  0.50091385  1
  V  V66  1  0.37526937  0.87248372  0.49705314  1
  V  V67  1  0.37785631  0.50635021  0.86616023  1
  V  V68  1  0.75366352  0.38041037  0.62737070  1
  V  V69  1  0.87480395  0.61957431  0.23924346  1
  V  V70  1  0.63010806  0.50268045  0.12691319  1
  V  V71  1  0.88083967  0.25018483  0.11759438  1
  V  V72  1  0.24949833  0.37140072  0.11865458  1
  V  V73  1  -0.00124034  0.37262090  0.88537351  1
  V  V74  1  0.62966779  0.24780540  0.87555253  1
  V  V75  1  0.37393621  0.36818236  0.50023258  1
  V  V76  1  0.25092827  0.37270871  0.62240198  1
  V  V77  1  0.63205032  0.88130070  0.73606347  1
  V  V78  1  -0.00193791  0.74532065  0.23972278  1
  V  V79  1  0.50111202  0.87485560  0.87491844  1
  V  V80  1  0.63375562  0.37650979  0.75189895  1
  V  V81  1  0.37287513  0.74277639  0.62867768  1
  V  V82  1  0.63376451  0.37582536  0.24953962  1
  V  V83  1  0.11827603  0.74463648  0.87926003  1
  V  V84  1  0.37191752  0.00257294  0.37026999  1
  Zn  Zn85  1  0.87207199  0.75371045  0.62691583  1
  Zn  Zn86  1  0.75944078  0.25231667  -0.00395572  1
  Zn  Zn87  1  0.50638699  0.11352227  0.63116067  1
  Zn  Zn88  1  0.49863824  0.25285889  0.24926020  1
  Zn  Zn89  1  0.23377639  0.00702088  0.23495513  1
  Zn  Zn90  1  0.12110221  0.62539262  0.00632623  1
  Zn  Zn91  1  0.50043897  0.49768516  0.50186081  1
  Zn  Zn92  1  0.37337314  0.25250290  0.12296712  1
  Zn  Zn93  1  0.74813097  0.87150153  0.12136708  1
  Zn  Zn94  1  0.62513548  0.24555363  0.37230827  1
  Zn  Zn95  1  0.87474137  0.12400778  0.75004958  1
  Zn  Zn96  1  0.75058429  -0.00433294  0.73789389  1
  Zn  Zn97  1  0.12391236  0.37273612  0.25312795  1
  Zn  Zn98  1  0.74814661  0.12741907  0.37222121  1
  Zn  Zn99  1  0.25485886  0.50729562  0.74738984  1
  Zn  Zn100  1  0.36770251  0.37586216  -0.00502876  1
  Zn  Zn101  1  0.74811693  0.75005789  -0.00001407  1
  Zn  Zn102  1  0.87215412  0.74717489  0.12021967  1
  Zn  Zn103  1  0.00468928  0.37684476  0.37861075  1
  Zn  Zn104  1  0.62975127  0.12041470  0.50139881  1
  Zn  Zn105  1  0.36635792  0.13061546  0.24781083  1
  Zn  Zn106  1  -0.00561964  0.87077489  0.37764219  1
  Zn  Zn107  1  0.18716381  0.18760457  0.19468727  1
  Zn  Zn108  1  0.18720310  0.19089544  0.68132813  1
  Zn  Zn109  1  0.18798726  0.68656889  0.18861329  1
  Zn  Zn110  1  0.18583966  0.69087520  0.69271986  1
  Zn  Zn111  1  0.68957692  0.19064690  0.18780560  1
  Zn  Zn112  1  0.68528962  0.18470743  0.68425842  1
  Zn  Zn113  1  0.69071051  0.68748453  0.18480198  1
  Zn  Zn114  1  0.68814434  0.69204002  0.68983572  1
  Zn  Zn115  1  0.31088906  0.30797459  0.31013142  1
  Zn  Zn116  1  0.31628032  0.31859825  0.80870153  1
  Zn  Zn117  1  0.30735303  0.81305760  0.30845281  1
  Zn  Zn118  1  0.31587008  0.93170932  0.81076495  1
  Zn  Zn119  1  0.81568912  0.31610268  0.30896431  1
  Zn  Zn120  1  0.81495736  0.30939210  0.81347370  1
  Zn  Zn121  1  0.80834038  0.80813520  0.30965823  1
  Zn  Zn122  1  0.81174615  0.81477012  0.81417174  1
  Zn  Zn123  1  0.18713646  0.43505802  0.44023713  1
  Zn  Zn124  1  0.18500770  0.44358360  0.93760296  1
  Zn  Zn125  1  0.18774906  0.93841584  0.43723486  1
  Zn  Zn126  1  0.17923280  0.93027281  0.95468318  1
  Zn  Zn127  1  0.68998296  0.43843858  0.43911485  1
  Zn  Zn128  1  0.68817027  0.44006463  0.94262688  1
  Zn  Zn129  1  0.68332758  0.93560858  0.42794836  1
  Zn  Zn130  1  0.68305573  0.93808406  0.93420424  1
  Zn  Zn131  1  0.30401400  0.06650342  0.06083650  1
  Zn  Zn132  1  0.31689567  0.05852183  0.56219111  1
  Zn  Zn133  1  0.31421882  0.56070793  0.05930788  1
  Zn  Zn134  1  0.31099531  0.55854246  0.56104632  1
  Zn  Zn135  1  0.81447402  0.06021678  0.06437276  1
  Zn  Zn136  1  0.81979366  0.08226415  0.56018911  1
  Zn  Zn137  1  0.81120184  0.55859093  0.05765409  1
  Zn  Zn138  1  0.81358546  0.56345303  0.56087978  1
  Zn  Zn139  1  0.43817836  0.43838946  0.18862320  1
  Zn  Zn140  1  0.44077316  0.43324674  0.68893548  1
  Zn  Zn141  1  0.40059589  0.96059278  0.16091987  1
  Zn  Zn142  1  0.44299219  0.92703891  0.68197333  1
  Zn  Zn143  1  0.93797928  0.43336843  0.19111628  1
  Zn  Zn144  1  0.94036810  0.44045049  0.69196751  1
  Zn  Zn145  1  0.93619258  0.92988535  0.19044186  1
  Zn  Zn146  1  0.95101751  0.94223681  0.69811801  1
  Zn  Zn147  1  0.06048207  0.06340278  0.31357047  1
  Zn  Zn148  1  0.15996460  0.05614279  0.81343350  1
  Zn  Zn149  1  0.06139925  0.56517068  0.30989376  1
  Zn  Zn150  1  0.05820777  0.56369665  0.81266110  1
  Zn  Zn151  1  0.56341644  0.06096066  0.31659971  1
  Zn  Zn152  1  0.44970910  0.05926295  0.80777427  1
  Zn  Zn153  1  0.56208654  0.55739809  0.30948811  1
  Zn  Zn154  1  0.56576716  0.56274593  0.80907566  1
  Zn  Zn155  1  0.43581143  0.18717346  0.43697053  1
  Zn  Zn156  1  0.43675059  0.19994442  0.94606586  1
  Zn  Zn157  1  0.43900934  0.68588739  0.43965070  1
  Zn  Zn158  1  0.43743735  0.68753024  0.93744454  1
  Zn  Zn159  1  0.93656288  0.18413105  0.43491069  1
  Zn  Zn160  1  0.94613646  0.17793552  0.93724517  1
  Zn  Zn161  1  0.93682272  0.68658614  0.43551218  1
  Zn  Zn162  1  0.93290873  0.68498315  0.93704762  1
  Zn  Zn163  1  0.07046296  0.30739571  0.06203178  1
  Zn  Zn164  1  0.06383020  0.31652700  0.56368379  1
  Zn  Zn165  1  0.05460597  0.81448908  0.05839024  1
  Zn  Zn166  1  0.05943294  0.81229112  0.56421879  1
  Zn  Zn167  1  0.56526368  0.31215984  0.06114204  1
  Zn  Zn168  1  0.56301421  0.31019367  0.56319203  1
  Zn  Zn169  1  0.55878369  0.81008132  0.06032141  1
  Zn  Zn170  1  0.56243288  0.81016874  0.55649523  1
  O  O171  1  0.13180473  0.13154619  0.11229746  1
  O  O172  1  0.11643431  0.11744696  0.62739732  1
  O  O173  1  0.12678248  0.60941748  0.12767261  1
  O  O174  1  0.11911680  0.61985298  0.62304779  1
  O  O175  1  0.62338991  0.11827931  0.12050777  1
  O  O176  1  0.61624390  0.13716443  0.61230006  1
  O  O177  1  0.61574820  0.61598793  0.13334643  1
  O  O178  1  0.62138377  0.61721655  0.62290332  1
  O  O179  1  0.37909820  0.37646860  0.38214227  1
  O  O180  1  0.38821538  0.38575419  0.87360240  1
  O  O181  1  0.37836413  0.87811021  0.37649050  1
  O  O182  1  0.38535941  0.87144111  0.88316894  1
  O  O183  1  0.87521412  0.38666449  0.38188156  1
  O  O184  1  0.88369500  0.38461752  0.86753813  1
  O  O185  1  0.87439409  0.88803123  0.36492503  1
  O  O186  1  0.87132714  0.89103007  0.88159857  1
  O  O187  1  0.25469983  0.00862797  0.37327455  1
  O  O188  1  0.21313998  -0.03788983  0.84893235  1
  O  O189  1  0.25306674  0.50433290  0.36885461  1
  O  O190  1  0.26049034  0.50758654  0.87392531  1
  O  O191  1  0.75405895  -0.00029142  0.36208390  1
  O  O192  1  0.75184412  0.01030536  0.87305460  1
  O  O193  1  0.75702006  0.51261112  0.37909737  1
  O  O194  1  0.75768053  0.50482024  0.87723782  1
  O  O195  1  0.24335485  0.49692561  0.13316349  1
  O  O196  1  0.24246850  0.49479863  0.62917499  1
  O  O197  1  0.28990555  0.98996550  0.13949275  1
  O  O198  1  0.24267151  0.99036276  0.62012422  1
  O  O199  1  0.74030096  0.49186608  0.11897623  1
  O  O200  1  0.74528198  0.48885030  0.62237214  1
  O  O201  1  0.74022310  0.99766932  0.13419722  1
  O  O202  1  0.76782030  0.99302082  0.61616952  1
  O  O203  1  0.00072832  0.36180890  0.25935492  1
  O  O204  1  0.00899941  0.36787295  0.75459561  1
  O  O205  1  0.00962810  0.86437697  0.25462071  1
  O  O206  1  0.01500651  0.86200758  0.74956170  1
  O  O207  1  0.50944437  0.37716592  0.25802936  1
  O  O208  1  0.51333263  0.37150084  0.75986946  1
  O  O209  1  0.50522498  0.87755809  0.26040832  1
  O  O210  1  0.50944486  0.86403297  0.75583743  1
  O  O211  1  0.50372701  0.12422876  0.23900037  1
  O  O212  1  0.50476834  0.14104734  0.74886140  1
  O  O213  1  0.48709758  0.61807394  0.24302542  1
  O  O214  1  0.50509459  0.63035962  0.73579795  1
  O  O215  1  0.99166596  0.13613450  0.25490244  1
  O  O216  1  1.00193112  0.14231256  0.74185314  1
  O  O217  1  0.98829431  0.63381273  0.25411989  1
  O  O218  1  0.99115506  0.63381965  0.74416746  1
  O  O219  1  0.37902658  0.26577719  0.00960570  1
  O  O220  1  0.38045376  0.26207373  0.50894094  1
  O  O221  1  0.36653756  0.75251598  0.00501042  1
  O  O222  1  0.36887314  0.75277984  0.50697033  1
  O  O223  1  0.88005899  0.23975522  0.01451629  1
  O  O224  1  0.86854672  0.25869998  0.50419342  1
  O  O225  1  0.87676364  0.76261461  -0.00215229  1
  O  O226  1  0.86259944  0.74908400  0.49896413  1
  O  O227  1  0.12161974  0.24941341  0.48974735  1
  O  O228  1  0.12317370  0.23512414  0.98886998  1
  O  O229  1  0.12808927  0.74418894  0.49333371  1
  O  O230  1  0.12705197  0.74614278  0.99837447  1
  O  O231  1  0.64147769  0.26268607  0.49477946  1
  O  O232  1  0.63163378  0.24303032  0.99285854  1
  O  O233  1  0.63291371  0.74219682  0.49199147  1
  O  O234  1  0.62378384  0.75344602  0.98250020  1
  O  O235  1  0.50497324  0.24214981  0.12843539  1
  O  O236  1  0.49068256  0.25754501  0.63486508  1
  O  O237  1  0.49378529  0.73455147  0.12132808  1
  O  O238  1  0.49412753  0.74040207  0.62686126  1
  O  O239  1  0.99385510  0.25848115  0.13595070  1
  O  O240  1  1.00018312  0.24566327  0.62952556  1
  O  O241  1  0.99637577  0.74969304  0.13615565  1
  O  O242  1  0.99948150  0.74016609  0.63493270  1
  O  O243  1  0.01207572  0.24768698  0.37257056  1
  O  O244  1  -0.00935367  0.25915302  0.86714698  1
  O  O245  1  0.00637333  0.75014912  0.36677671  1
  O  O246  1  0.00724749  0.73747973  0.86584511  1
  O  O247  1  0.50181756  0.26320512  0.37567400  1
  O  O248  1  0.50727658  0.26049551  0.86847050  1
  O  O249  1  0.50789325  0.75711092  0.38009545  1
  O  O250  1  0.50488892  0.75257841  0.86600671  1
  O  O251  1  0.25233270  0.11982914  0.48622126  1
  O  O252  1  0.23180498  0.11231650  0.98883602  1
  O  O253  1  0.24213142  0.62854074  0.49416962  1
  O  O254  1  0.24700060  0.62860207  0.99146602  1
  O  O255  1  0.75171415  0.14081740  0.49428664  1
  O  O256  1  0.74297720  0.12307776  0.99574560  1
  O  O257  1  0.74496030  0.63102131  0.49173806  1
  O  O258  1  0.75486421  0.62797654  0.98394935  1
  O  O259  1  0.24773389  0.38701626  0.01610443  1
  O  O260  1  0.25794507  0.37890627  0.51373402  1
  O  O261  1  0.26140261  0.86242110  -0.00236447  1
  O  O262  1  0.25503729  0.86778190  0.50711234  1
  O  O263  1  0.74717927  0.37064357  0.01345150  1
  O  O264  1  0.76173285  0.37347892  0.50730341  1
  O  O265  1  0.76148155  0.87903215  -0.00128384  1
  O  O266  1  0.74906114  0.86835447  0.49813835  1
  O  O267  1  0.13079507  0.49721967  0.24592198  1
  O  O268  1  0.12417503  0.49595312  0.73961726  1
  O  O269  1  0.11862283  0.98395617  0.25278280  1
  O  O270  1  0.11383299  0.98524034  0.73296308  1
  O  O271  1  0.62128696  0.49106251  0.23600132  1
  O  O272  1  0.62406604  0.49164164  0.73757450  1
  O  O273  1  0.62864723  0.98924691  0.24569469  1
  O  O274  1  0.62809053  0.98040184  0.74399452  1
  O  O275  1  0.38594568  0.00537015  0.26789264  1
  O  O276  1  0.38228546  -0.00495851  0.74744556  1
  O  O277  1  0.36728336  0.50725901  0.25635637  1
  O  O278  1  0.37746132  0.49774050  0.76182098  1
  O  O279  1  0.86764144  0.00476625  0.25306624  1
  O  O280  1  0.87515391  0.00080494  0.76218083  1
  O  O281  1  0.87894357  0.50820071  0.25949404  1
  O  O282  1  0.88075678  0.51058982  0.76127805  1
  O  O283  1  0.12614302  0.36106972  0.37702889  1
  O  O284  1  0.11601641  0.38630117  0.86377685  1
  O  O285  1  0.12251330  0.86128702  0.37661586  1
  O  O286  1  0.11599911  0.85531511  0.87907922  1
  O  O287  1  0.61881854  0.38032205  0.36685244  1
  O  O288  1  0.62469054  0.37219073  0.86805692  1
  O  O289  1  0.61596969  0.86635642  0.36496238  1
  O  O290  1  0.61915710  0.86463479  0.86581757  1
  O  O291  1  0.38640432  0.12982002  0.12390201  1
  O  O292  1  0.38029404  0.13770818  0.61938059  1
  O  O293  1  0.38117139  0.62981931  0.13153737  1
  O  O294  1  0.38261097  0.63207534  0.61791487  1
  O  O295  1  0.86955514  0.13229342  0.13860707  1
  O  O296  1  0.89025869  0.13567797  0.63050840  1
  O  O297  1  0.86824825  0.62243611  0.13613302  1
  O  O298  1  0.88120261  0.62548692  0.63254617  1
  O  O299  1  0.24616920  0.26991705  0.13289795  1
  O  O300  1  0.25986980  0.26033024  0.62948050  1
  O  O301  1  0.25812435  0.73982086  0.11349830  1
  O  O302  1  0.25540687  0.75179143  0.61951066  1
  O  O303  1  0.76084355  0.25743009  0.12304689  1
  O  O304  1  0.75792480  0.26356959  0.61855641  1
  O  O305  1  0.75203579  0.75308108  0.11692700  1
  O  O306  1  0.75273297  0.74455380  0.61104833  1
  O  O307  1  0.23744736  0.23874161  0.37429971  1
  O  O308  1  0.24597161  0.27088597  0.88526217  1
  O  O309  1  0.24233986  0.74314678  0.37982540  1
  O  O310  1  0.23844205  0.73999258  0.89076185  1
  O  O311  1  0.75205412  0.25281338  0.38197438  1
  O  O312  1  0.75038549  0.23724340  0.87637387  1
  O  O313  1  0.74218170  0.74075745  0.38135550  1
  O  O314  1  0.74275291  0.74162145  0.87532631  1
  O  O315  1  0.00898650  0.11035663  0.00430112  1
  O  O316  1  -0.00946362  0.11135514  0.50901327  1
  O  O317  1  -0.00139590  0.61037018  -0.00168855  1
  O  O318  1  0.00595959  0.63212065  0.51154827  1
  O  O319  1  0.51796306  0.13042213  0.01356834  1
  O  O320  1  0.49713438  0.10637978  0.49454613  1
  O  O321  1  0.49722643  0.61689207  0.00901633  1
  O  O322  1  0.50790505  0.62177586  0.51093921  1
  O  O323  1  0.49366546  0.37751940  0.49289685  1
  O  O324  1  0.50766587  0.38307015  0.98577296  1
  O  O325  1  0.49380395  0.87986015  0.49009177  1
  O  O326  1  0.49142508  0.87001940  0.98737635  1
  O  O327  1  0.98690067  0.37314722  0.49953615  1
  O  O328  1  1.00773356  0.37913270  0.98760681  1
  O  O329  1  0.99932376  0.88735713  0.49914500  1
  O  O330  1  0.98822301  0.89130332  1.00393601  1
  O  O331  1  0.49268397  0.48968800  0.37699669  1
  O  O332  1  0.49873620  0.49817021  0.87990453  1
  O  O333  1  0.49367744  0.98931033  0.38347001  1
  O  O334  1  0.51246192  0.98189193  0.88000838  1
  O  O335  1  0.99075510  0.50028971  0.37578673  1
  O  O336  1  0.99209622  0.49290841  0.88219846  1
  O  O337  1  0.99057904  0.99900858  0.38391574  1
  O  O338  1  0.98941591  1.00122362  0.87803630  1
  O  O339  1  -0.00625085  0.00229666  0.12029372  1
  O  O340  1  0.00528090  0.00879103  0.61848440  1
  O  O341  1  0.00599679  0.48898919  0.11539930  1
  O  O342  1  0.00756979  0.51401544  0.63023333  1
  O  O343  1  0.49924219  0.01214558  0.10987378  1
  O  O344  1  0.49300569  -0.00339908  0.60465314  1
  O  O345  1  0.50413794  0.50726132  0.11747624  1
  O  O346  1  0.50776296  0.50523970  0.62476480  1
  O  O347  1  0.24891645  0.38782637  0.24574399  1
  O  O348  1  0.24080005  0.38095568  0.74066724  1
  O  O349  1  0.22783484  0.87433179  0.25503234  1
  O  O350  1  0.24284779  0.86355026  0.73469361  1
  O  O351  1  0.73968451  0.37353141  0.24044786  1
  O  O352  1  0.74131560  0.37032668  0.74311515  1
  O  O353  1  0.73853644  0.88146176  0.24738270  1
  O  O354  1  0.73806374  0.87391697  0.74940452  1
  O  O355  1  0.24912653  0.12043924  0.26363199  1
  O  O356  1  0.22091255  0.14983132  0.78290225  1
  O  O357  1  0.25693466  0.61465632  0.25535909  1
  O  O358  1  0.24637008  0.62598283  0.76567802  1
  O  O359  1  0.75527926  0.11544787  0.25076741  1
  O  O360  1  0.75237999  0.11956582  0.75463870  1
  O  O361  1  0.75973184  0.63036753  0.26003139  1
  O  O362  1  0.76414114  0.63127700  0.75656722  1
  O  O363  1  0.36326911  0.11991693  0.37551176  1
  O  O364  1  0.42009444  0.09405588  0.91178249  1
  O  O365  1  0.37116275  0.62042740  0.36873346  1
  O  O366  1  0.36728146  0.61815429  0.87873315  1
  O  O367  1  0.87193209  0.11236232  0.36430415  1
  O  O368  1  0.86954860  0.11238267  0.87397465  1
  O  O369  1  0.86831616  0.61830282  0.36885922  1
  O  O370  1  0.86787015  0.61584859  0.86799902  1
  O  O371  1  0.13482914  0.38496359  0.12880796  1
  O  O372  1  0.13045541  0.38266615  0.63192751  1
  O  O373  1  0.12238112  0.87102626  0.13528976  1
  O  O374  1  0.13422033  0.88046599  0.62402772  1
  O  O375  1  0.63157408  0.38133893  0.13143197  1
  O  O376  1  0.63343084  0.38118188  0.63130413  1
  O  O377  1  0.61958084  0.88038301  0.13019628  1
  O  O378  1  0.62013244  0.86451945  0.63739097  1
  O  O379  1  0.11700692  0.25168186  0.26078661  1
  O  O380  1  0.11934898  0.26222822  0.76134490  1
  O  O381  1  0.11790540  0.75400136  0.25529197  1
  O  O382  1  0.12134529  0.75837048  0.76230502  1
  O  O383  1  0.62302299  0.26148794  0.25301333  1
  O  O384  1  0.62060229  0.25927581  0.75623467  1
  O  O385  1  0.62741048  0.76091615  0.25338133  1
  O  O386  1  0.61562630  0.75299420  0.75787531  1
  O  O387  1  0.38003225  0.24825164  0.24331520  1
  O  O388  1  0.38636429  0.25857816  0.74084112  1
  O  O389  1  0.36593471  0.73872379  0.24155234  1
  O  O390  1  0.39179514  0.75153929  0.73607331  1
  O  O391  1  0.88197816  0.24172137  0.24568839  1
  O  O392  1  0.88427194  0.25189523  0.74053439  1
  O  O393  1  0.88212936  0.74102397  0.24924388  1
  O  O394  1  0.88380995  0.74574022  0.75097412  1
  O  O395  1  0.37598878  0.48835691  0.49373600  1
  O  O396  1  0.38800532  0.49589986  0.99043360  1
  O  O397  1  0.38086961  0.99063783  0.48862140  1
  O  O398  1  0.38349923  0.98338626  1.00569830  1
  O  O399  1  0.87192919  0.49429755  0.48988537  1
  O  O400  1  0.88144700  0.49829204  0.98810574  1
  O  O401  1  0.87378318  0.99226001  0.49484465  1
  O  O402  1  0.88417594  0.99882832  0.99296071  1
  O  O403  1  0.11021865  0.00374490  0.00643914  1
  O  O404  1  0.11635986  -0.00316261  0.51039334  1
  O  O405  1  0.11410742  0.50281642  0.00859801  1
  O  O406  1  0.12776824  0.50495858  0.51342800  1
  O  O407  1  0.61321887  0.00985483  0.00090257  1
  O  O408  1  0.61069717  -0.00519727  0.49498741  1
  O  O409  1  0.61346933  0.49805468  0.01138776  1
  O  O410  1  0.62533031  0.50490669  0.51243172  1
  O  O411  1  0.35842050  0.38357953  0.12634118  1
  O  O412  1  0.36858262  0.37162768  0.61933557  1
  O  O413  1  0.39035429  0.85404550  0.11411319  1
  O  O414  1  0.36796790  0.86137397  0.61742982  1
  O  O415  1  0.86565602  0.36453518  0.13264280  1
  O  O416  1  0.87111608  0.37675796  0.62011099  1
  O  O417  1  0.87066485  0.87312360  0.11523264  1
  O  O418  1  0.88225737  0.87380724  0.62648357  1
  O  O419  1  0.13362644  0.13320355  0.37601941  1
  O  O420  1  0.11261104  0.12850721  0.88878880  1
  O  O421  1  0.12857598  0.63440560  0.37845252  1
  O  O422  1  0.13023329  0.63013425  0.87814062  1
  O  O423  1  0.62885446  0.12768047  0.38248414  1
  O  O424  1  0.63511800  0.13238186  0.88556354  1
  O  O425  1  0.63059249  0.62558280  0.37632023  1
  O  O426  1  0.63605018  0.63166257  0.86586994  1
