# generated using pymatgen
data_V85Zn86O256
_symmetry_space_group_name_H-M   'P 1'
_cell_length_a   16.92722771
_cell_length_b   16.92425010
_cell_length_c   16.92877835
_cell_angle_alpha   90.02579195
_cell_angle_beta   89.97187680
_cell_angle_gamma   89.91461707
_symmetry_Int_Tables_number   1
_chemical_formula_structural   V85Zn86O256
_chemical_formula_sum   'V85 Zn86 O256'
_cell_volume   4849.76071509
_cell_formula_units_Z   1
loop_
 _symmetry_equiv_pos_site_id
 _symmetry_equiv_pos_as_xyz
  1  'x, y, z'
loop_
 _atom_site_type_symbol
 _atom_site_label
 _atom_site_symmetry_multiplicity
 _atom_site_fract_x
 _atom_site_fract_y
 _atom_site_fract_z
 _atom_site_occupancy
  V  V0  1  0.50137793  0.75289750  0.25150777  1
  V  V1  1  0.37608227  0.37496039  -0.00382853  1
  V  V2  1  0.00345315  0.62640528  0.62639541  1
  V  V3  1  0.00464513  0.11840370  0.12470085  1
  V  V4  1  0.37813010  0.75460893  0.12394428  1
  V  V5  1  0.62836960  0.37425098  0.24829047  1
  V  V6  1  0.50114186  0.24384174  0.74888489  1
  V  V7  1  0.50122392  0.24693718  0.24834927  1
  V  V8  1  0.24101139  0.88194964  0.11893416  1
  V  V9  1  0.87794085  0.87563153  -0.00697003  1
  V  V10  1  0.62233707  0.24795415  0.88099136  1
  V  V11  1  0.00711447  -0.00524326  -0.00186172  1
  V  V12  1  0.61801203  0.12693550  0.50614429  1
  V  V13  1  0.87346073  0.62600151  0.24782077  1
  V  V14  1  0.62208165  0.76126331  0.37668397  1
  V  V15  1  0.00378495  0.37200168  0.36844483  1
  V  V16  1  0.37130565  0.37397911  0.50017037  1
  V  V17  1  0.24927168  0.36738836  0.62382281  1
  V  V18  1  0.87929535  0.25038339  0.12165686  1
  V  V19  1  0.13985048  0.13103263  0.50233226  1
  V  V20  1  0.62312576  0.61856457  -0.00901352  1
  V  V21  1  0.24315247  0.37285264  0.13711765  1
  V  V22  1  0.74804409  0.50273245  0.75566688  1
  V  V23  1  0.24992709  0.12626649  0.87284127  1
  V  V24  1  0.61664289  0.00487143  0.62797170  1
  V  V25  1  0.51539764  0.12061155  0.12026918  1
  V  V26  1  0.00749213  0.49810403  -0.00367732  1
  V  V27  1  -0.00373608  0.36781789  0.87805943  1
  V  V28  1  0.87620012  0.37366887  0.50543348  1
  V  V29  1  0.13744787  0.24703607  0.37065246  1
  V  V30  1  0.62513356  0.62751322  0.49635571  1
  V  V31  1  0.37686897  0.87352465  0.49399712  1
  V  V32  1  0.88266427  0.00333161  0.86981125  1
  V  V33  1  0.75199248  0.24753152  -0.00047046  1
  V  V34  1  0.49725158  0.75166114  0.75134683  1
  V  V35  1  0.50066345  0.37630449  0.37653156  1
  V  V36  1  0.24350085  0.25034546  -0.00468624  1
  V  V37  1  -0.00221771  0.23889046  0.75016971  1
  V  V38  1  0.62584467  0.49938401  0.62424397  1
  V  V39  1  0.87137031  0.49829428  0.88333503  1
  V  V40  1  0.37726760  0.24231860  0.62293486  1
  V  V41  1  0.74855925  0.49970154  0.24823922  1
  V  V42  1  0.87738273  0.11688003  0.25526465  1
  V  V43  1  0.36698719  0.74927493  0.62515936  1
  V  V44  1  0.87504731  0.49797968  0.37642094  1
  V  V45  1  0.87255283  0.75040217  0.12250817  1
  V  V46  1  0.12530091  0.49863355  0.62751666  1
  V  V47  1  0.50032836  -0.00357577  0.49524472  1
  V  V48  1  0.75079441  0.12454010  0.87710220  1
  V  V49  1  0.49857079  0.38488860  0.87862068  1
  V  V50  1  0.87286088  0.62440281  0.75527281  1
  V  V51  1  0.12340340  0.36706990  0.75594160  1
  V  V52  1  0.87594515  0.75368248  0.62327868  1
  V  V53  1  0.12607292  0.12421772  -0.00101329  1
  V  V54  1  0.74836109  0.74609923  -0.00825192  1
  V  V55  1  0.13675717  0.74536243  0.88311632  1
  V  V56  1  0.75403899  0.00599041  0.74804832  1
  V  V57  1  0.25241572  0.49848759  0.75461163  1
  V  V58  1  -0.00582155  0.01217547  0.49334290  1
  V  V59  1  0.00468785  0.74810245  0.25673623  1
  V  V60  1  0.12814987  0.62637796  0.48538071  1
  V  V61  1  0.25095607  -0.00275229  0.74826285  1
  V  V62  1  0.11665088  0.00231580  0.62452835  1
  V  V63  1  0.31665709  0.55748929  0.93662079  1
  V  V64  1  0.87717941  0.23371625  0.63042891  1
  V  V65  1  0.24501939  0.74766036  0.48135459  1
  V  V66  1  0.49873985  0.62373894  0.62579481  1
  V  V67  1  0.37317657  0.00696813  0.37328642  1
  V  V68  1  0.00043575  0.75879621  0.76033949  1
  V  V69  1  -0.00037171  0.49869464  0.50131542  1
  V  V70  1  0.51335847  0.00032679  -0.00099858  1
  V  V71  1  0.11953982  0.49453239  0.13910359  1
  V  V72  1  0.74811955  0.62609722  0.37488734  1
  V  V73  1  0.24016324  0.00474067  0.25232440  1
  V  V74  1  0.74691474  0.88623922  0.12196333  1
  V  V75  1  0.00275991  0.62721787  0.11771708  1
  V  V76  1  0.37391337  0.24452964  0.12366417  1
  V  V77  1  0.62817523  0.24639239  0.37524470  1
  V  V78  1  0.75004420  0.24947497  0.50214417  1
  V  V79  1  0.62281613  0.88348598  0.24672806  1
  V  V80  1  0.75694316  0.37584262  0.11857862  1
  V  V81  1  0.62515478  0.87533877  0.74974300  1
  V  V82  1  0.87700016  0.87823117  0.49066662  1
  V  V83  1  0.61816910  0.50024941  0.12194259  1
  V  V84  1  0.36866958  0.61867894  0.75255077  1
  Zn  Zn85  1  0.25488327  0.73933223  -0.00179045  1
  Zn  Zn86  1  0.49818012  0.62382716  0.12159437  1
  Zn  Zn87  1  0.75176749  -0.00145269  0.25568671  1
  Zn  Zn88  1  0.12547038  0.87243780  0.25485245  1
  Zn  Zn89  1  0.49849777  0.87746683  0.87525513  1
  Zn  Zn90  1  0.75119324  0.87774438  0.62291730  1
  Zn  Zn91  1  0.24435380  0.87505390  0.62208893  1
  Zn  Zn92  1  0.37522589  -0.00093575  0.87761070  1
  Zn  Zn93  1  0.37395930  0.12346051  0.25160237  1
  Zn  Zn94  1  0.35212946  0.63779538  0.26611032  1
  Zn  Zn95  1  0.74975196  0.37389836  0.62830677  1
  Zn  Zn96  1  0.62409659  0.37493404  0.75107055  1
  Zn  Zn97  1  0.75116594  0.75358223  0.49982806  1
  Zn  Zn98  1  0.35005924  0.49894200  0.36401659  1
  Zn  Zn99  1  0.00474305  0.87702798  0.37504467  1
  Zn  Zn100  1  0.63041746  0.74633565  0.86968489  1
  Zn  Zn101  1  0.12091127  0.87715737  0.75257606  1
  Zn  Zn102  1  0.75735228  0.11870177  0.37911123  1
  Zn  Zn103  1  0.49588526  0.50169728  0.49810621  1
  Zn  Zn104  1  0.37573484  0.87884341  -0.00235799  1
  Zn  Zn105  1  0.00508344  0.25043442  0.24862968  1
  Zn  Zn106  1  0.37932644  0.12209055  0.74791030  1
  Zn  Zn107  1  0.18691961  0.18422690  0.18654159  1
  Zn  Zn108  1  0.18593807  0.18596308  0.68706838  1
  Zn  Zn109  1  0.18054843  0.69441887  0.17359120  1
  Zn  Zn110  1  0.18579652  0.68704945  0.69003984  1
  Zn  Zn111  1  0.69326204  0.18670941  0.18849237  1
  Zn  Zn112  1  0.68801760  0.18714963  0.69013585  1
  Zn  Zn113  1  0.68438863  0.69037898  0.18459801  1
  Zn  Zn114  1  0.68974293  0.68627798  0.68624798  1
  Zn  Zn115  1  0.31570232  0.31115133  0.31329377  1
  Zn  Zn116  1  0.31454296  0.31008634  0.81280272  1
  Zn  Zn117  1  0.31393125  0.82281154  0.30932144  1
  Zn  Zn118  1  0.31183651  0.81588373  0.81457296  1
  Zn  Zn119  1  0.81606267  0.30751229  0.31094724  1
  Zn  Zn120  1  0.81294582  0.31549900  0.81131091  1
  Zn  Zn121  1  0.81062474  0.81367282  0.31102301  1
  Zn  Zn122  1  0.81353286  0.81751866  0.81152594  1
  Zn  Zn123  1  0.18380585  0.43069522  0.44132216  1
  Zn  Zn124  1  0.18110878  0.42940589  0.94166764  1
  Zn  Zn125  1  0.18285288  0.93597798  0.43353915  1
  Zn  Zn126  1  0.18389323  0.93237702  0.93035812  1
  Zn  Zn127  1  0.68690215  0.43710301  0.43850890  1
  Zn  Zn128  1  0.68843877  0.43375944  0.93688626  1
  Zn  Zn129  1  0.69298723  0.94114815  0.43664700  1
  Zn  Zn130  1  0.68807797  0.93687297  0.93453422  1
  Zn  Zn131  1  0.31666692  0.05885957  0.06168505  1
  Zn  Zn132  1  0.31056920  0.06007776  0.56377786  1
  Zn  Zn133  1  0.29300268  0.57521663  0.11964581  1
  Zn  Zn134  1  0.30878923  0.55888952  0.55952099  1
  Zn  Zn135  1  0.81633023  0.06444377  0.06059584  1
  Zn  Zn136  1  0.80716036  0.06058229  0.55965922  1
  Zn  Zn137  1  0.80941902  0.56420815  0.05896988  1
  Zn  Zn138  1  0.81098940  0.56464368  0.56540864  1
  Zn  Zn139  1  0.43423639  0.43323354  0.18495247  1
  Zn  Zn140  1  0.43886580  0.43325431  0.68997187  1
  Zn  Zn141  1  0.43751332  0.93776155  0.18560168  1
  Zn  Zn142  1  0.43477634  0.93678856  0.68374437  1
  Zn  Zn143  1  0.93690606  0.43822114  0.18795284  1
  Zn  Zn144  1  0.93686472  0.43524355  0.69072866  1
  Zn  Zn145  1  0.93910303  0.93512029  0.18194414  1
  Zn  Zn146  1  0.93702850  0.94090217  0.68161457  1
  Zn  Zn147  1  0.06388468  0.06585184  0.31708863  1
  Zn  Zn148  1  0.06771936  0.06321150  0.81580554  1
  Zn  Zn149  1  0.18139777  0.56421875  0.30684999  1
  Zn  Zn150  1  0.06303145  0.56272603  0.81338011  1
  Zn  Zn151  1  0.56052096  0.06207322  0.31389256  1
  Zn  Zn152  1  0.56582277  0.06544114  0.81710284  1
  Zn  Zn153  1  0.49198843  0.56177318  0.30637166  1
  Zn  Zn154  1  0.55968883  0.56380233  0.81284544  1
  Zn  Zn155  1  0.43757340  0.18812730  0.44030505  1
  Zn  Zn156  1  0.43648033  0.18485244  0.93887587  1
  Zn  Zn157  1  0.43965728  0.68983683  0.43747607  1
  Zn  Zn158  1  0.44382440  0.69329676  0.94111755  1
  Zn  Zn159  1  0.94199823  0.19043594  0.43863652  1
  Zn  Zn160  1  0.93583950  0.18553846  0.93735329  1
  Zn  Zn161  1  0.93740269  0.68490047  0.43803685  1
  Zn  Zn162  1  0.93690523  0.68521759  0.93654100  1
  Zn  Zn163  1  0.06096684  0.31237674  0.06043160  1
  Zn  Zn164  1  0.06103220  0.30699613  0.56440441  1
  Zn  Zn165  1  0.06458146  0.81156652  0.05840150  1
  Zn  Zn166  1  0.06292251  0.81587611  0.56004115  1
  Zn  Zn167  1  0.56334074  0.31213629  0.06005765  1
  Zn  Zn168  1  0.55969681  0.31404919  0.56484033  1
  Zn  Zn169  1  0.56547877  0.81369583  0.06155264  1
  Zn  Zn170  1  0.56013326  0.81432607  0.56569787  1
  O  O171  1  0.11679524  0.12747282  0.11222644  1
  O  O172  1  0.12781656  0.12005174  0.61122715  1
  O  O173  1  0.11278209  0.60926459  0.12239294  1
  O  O174  1  0.11556274  0.62007257  0.62337172  1
  O  O175  1  0.61358322  0.13121789  0.12625461  1
  O  O176  1  0.62705805  0.11790162  0.61847845  1
  O  O177  1  0.62832531  0.61492487  0.11400314  1
  O  O178  1  0.62090493  0.62121219  0.61625028  1
  O  O179  1  0.38363680  0.37700062  0.38157358  1
  O  O180  1  0.38118416  0.36913476  0.88795416  1
  O  O181  1  0.37223227  0.88597433  0.38798631  1
  O  O182  1  0.38054081  0.87949373  0.87743411  1
  O  O183  1  0.87946503  0.37463596  0.38731634  1
  O  O184  1  0.88461311  0.38675751  0.86761305  1
  O  O185  1  0.88009652  0.86826596  0.38732863  1
  O  O186  1  0.87060634  0.88581807  0.88606752  1
  O  O187  1  0.25693534  -0.00387844  0.36047468  1
  O  O188  1  0.24868463  0.00665427  0.86545013  1
  O  O189  1  0.24000424  0.50203308  0.37907895  1
  O  O190  1  0.25006027  0.50216925  0.87785700  1
  O  O191  1  0.75112370  0.00686330  0.37015696  1
  O  O192  1  0.75737083  0.00671747  0.86950468  1
  O  O193  1  0.75380701  0.50485211  0.36940362  1
  O  O194  1  0.75832852  0.49610260  0.86803003  1
  O  O195  1  0.22773646  0.48567563  0.11754762  1
  O  O196  1  0.24442490  0.48878834  0.63299923  1
  O  O197  1  0.25589473  0.98888294  0.13531842  1
  O  O198  1  0.23851737  0.99991046  0.63141583  1
  O  O199  1  0.74752381  0.49079549  0.12703028  1
  O  O200  1  0.73925490  0.50122343  0.63246422  1
  O  O201  1  0.75555316  0.98910679  0.12430417  1
  O  O202  1  0.73843462  1.00033478  0.63251609  1
  O  O203  1  -0.00750876  0.37299481  0.26527321  1
  O  O204  1  0.00634798  0.36863199  0.75692694  1
  O  O205  1  -0.00351360  0.85920458  0.24589761  1
  O  O206  1  -0.00427012  0.86054683  0.74569445  1
  O  O207  1  0.50834010  0.36552892  0.25520975  1
  O  O208  1  0.50002120  0.36324752  0.76118936  1
  O  O209  1  0.51020233  0.86588513  0.24323252  1
  O  O210  1  0.50624372  0.86756616  0.74696859  1
  O  O211  1  0.49837063  0.12840554  0.23774185  1
  O  O212  1  0.49919683  0.13860975  0.75712874  1
  O  O213  1  0.51901460  0.64702396  0.23822715  1
  O  O214  1  0.48916740  0.63059154  0.74607942  1
  O  O215  1  0.99435169  0.12454549  0.24121824  1
  O  O216  1  1.00529898  0.13969004  0.75785601  1
  O  O217  1  0.98833809  0.63775263  0.23376320  1
  O  O218  1  0.99310362  0.63227985  0.74175605  1
  O  O219  1  0.36604338  0.25516376  0.00628479  1
  O  O220  1  0.38140435  0.26220892  0.50857061  1
  O  O221  1  0.37440842  0.75622578  0.00795908  1
  O  O222  1  0.36659135  0.75385473  0.50464330  1
  O  O223  1  0.86965988  0.24600800  0.01324786  1
  O  O224  1  0.87256116  0.25430506  0.51138466  1
  O  O225  1  0.86979943  0.75688679  0.00142545  1
  O  O226  1  0.87759120  0.75710070  0.50832980  1
  O  O227  1  0.12185997  0.23644120  0.49623300  1
  O  O228  1  0.13602447  0.24244835  1.00325841  1
  O  O229  1  0.13806727  0.74290781  0.50403128  1
  O  O230  1  0.13123283  0.74777722  0.98853555  1
  O  O231  1  0.62741884  0.24442008  0.49641131  1
  O  O232  1  0.63370988  0.25238492  0.98820871  1
  O  O233  1  0.62521059  0.74668194  0.49552118  1
  O  O234  1  0.63247248  0.74070390  0.99655808  1
  O  O235  1  0.49452075  0.24129067  0.12620281  1
  O  O236  1  0.49097644  0.25616365  0.63646020  1
  O  O237  1  0.49265741  0.75436855  0.12991561  1
  O  O238  1  0.48838856  0.74544340  0.63345807  1
  O  O239  1  0.99469302  0.24189274  0.12555544  1
  O  O240  1  0.98488526  0.25256045  0.63365149  1
  O  O241  1  0.99256707  0.74269780  0.12288618  1
  O  O242  1  0.99228174  0.74414483  0.63153464  1
  O  O243  1  0.00699421  0.25724356  0.37316904  1
  O  O244  1  -0.01134064  0.25997926  0.86708774  1
  O  O245  1  -0.00693229  0.74599860  0.35793329  1
  O  O246  1  -0.00111388  0.74913407  0.86209146  1
  O  O247  1  0.50705386  0.25737904  0.37058384  1
  O  O248  1  0.50759265  0.25359856  0.87323789  1
  O  O249  1  0.51196458  0.75048415  0.36748204  1
  O  O250  1  0.50371297  0.75109791  0.86011379  1
  O  O251  1  0.23820786  0.12203322  0.49732367  1
  O  O252  1  0.24424824  0.12878931  0.99684205  1
  O  O253  1  0.24243793  0.63822358  0.50499411  1
  O  O254  1  0.26545844  0.61626157  1.00264878  1
  O  O255  1  0.73735060  0.13155093  0.49933885  1
  O  O256  1  0.75379002  0.13755339  0.99449959  1
  O  O257  1  0.74319221  0.62952316  0.49573949  1
  O  O258  1  0.73893967  0.63496198  1.00127002  1
  O  O259  1  0.25410303  0.36502515  0.00542613  1
  O  O260  1  0.25752344  0.37462490  0.51304991  1
  O  O261  1  0.25061974  0.88135470  0.01209942  1
  O  O262  1  0.25443053  0.86150356  0.50072317  1
  O  O263  1  0.74981366  0.36172679  0.00667079  1
  O  O264  1  0.75809823  0.36745496  0.50196122  1
  O  O265  1  0.75540058  0.87042985  0.00454980  1
  O  O266  1  0.76049830  0.87381446  0.50400785  1
  O  O267  1  0.11182166  0.49867909  0.23711429  1
  O  O268  1  0.13003421  0.49059326  0.74662247  1
  O  O269  1  0.13708010  1.00243804  0.25190454  1
  O  O270  1  0.12940193  0.99995798  0.74193601  1
  O  O271  1  0.63451333  0.49021504  0.23788321  1
  O  O272  1  0.63191225  0.50275020  0.74367793  1
  O  O273  1  0.62379978  0.98713472  0.25373230  1
  O  O274  1  0.62844843  0.99539152  0.74441794  1
  O  O275  1  0.37008288  -0.00070151  0.25904102  1
  O  O276  1  0.36617166  0.00424680  0.74738146  1
  O  O277  1  0.39538370  0.51213409  0.25374321  1
  O  O278  1  0.36750966  0.50599156  0.74706631  1
  O  O279  1  0.87856997  0.01400772  0.24333607  1
  O  O280  1  0.86714743  -0.00596374  0.75733084  1
  O  O281  1  0.86887672  0.50595358  0.25558443  1
  O  O282  1  0.86893701  0.50729394  0.75582485  1
  O  O283  1  0.11377552  0.35753402  0.38665476  1
  O  O284  1  0.11291608  0.37596593  0.86561607  1
  O  O285  1  0.11842731  0.87362147  0.36883912  1
  O  O286  1  0.12445588  0.85509053  0.86886537  1
  O  O287  1  0.62312884  0.36124454  0.37289150  1
  O  O288  1  0.61678069  0.36682451  0.87462380  1
  O  O289  1  0.63142585  0.86549021  0.36934897  1
  O  O290  1  0.62219285  0.87337816  0.86035087  1
  O  O291  1  0.38158963  0.13712034  0.12340300  1
  O  O292  1  0.37032715  0.13872666  0.62348784  1
  O  O293  1  0.38108107  0.64319206  0.13158568  1
  O  O294  1  0.37851048  0.62943048  0.63207543  1
  O  O295  1  0.88497874  0.13095000  0.13047453  1
  O  O296  1  0.87140239  0.13554628  0.62356817  1
  O  O297  1  0.87771296  0.63068810  0.12748019  1
  O  O298  1  0.88378393  0.63065913  0.63306981  1
  O  O299  1  0.25607494  0.25338766  0.11862251  1
  O  O300  1  0.25889446  0.26128461  0.63451086  1
  O  O301  1  0.25674055  0.76351867  0.11942880  1
  O  O302  1  0.26007231  0.75000189  0.62444639  1
  O  O303  1  0.75657177  0.25521248  0.11766474  1
  O  O304  1  0.76069422  0.25172686  0.62240215  1
  O  O305  1  0.75676190  0.75709201  0.11350985  1
  O  O306  1  0.76554897  0.75070257  0.62610159  1
  O  O307  1  0.23660006  0.25515049  0.37484542  1
  O  O308  1  0.25284744  0.24196852  0.88454802  1
  O  O309  1  0.25670811  0.74792842  0.38290040  1
  O  O310  1  0.24208281  0.74626208  0.87685433  1
  O  O311  1  0.74377707  0.24515688  0.38214330  1
  O  O312  1  0.74773062  0.24577685  0.88001620  1
  O  O313  1  0.74146103  0.74262194  0.37573104  1
  O  O314  1  0.75042991  0.75584843  0.88647440  1
  O  O315  1  0.00740953  0.11937588  0.00384830  1
  O  O316  1  0.00349270  0.11450505  0.50085388  1
  O  O317  1  -0.00834633  0.61519272  0.00990520  1
  O  O318  1  0.00564553  0.62185128  0.50981281  1
  O  O319  1  0.50038065  0.11799199  0.01164470  1
  O  O320  1  0.51157855  0.11798415  0.49919677  1
  O  O321  1  0.51837456  0.62885219  0.00353356  1
  O  O322  1  0.50823462  0.62364625  0.50910479  1
  O  O323  1  0.49321772  0.37590395  0.49233293  1
  O  O324  1  0.48869042  0.36995041  0.99310006  1
  O  O325  1  0.49011550  0.88339246  0.50501670  1
  O  O326  1  0.50281247  0.88898543  0.99992223  1
  O  O327  1  0.99202628  0.37721525  0.49755549  1
  O  O328  1  1.00031997  0.38099741  0.98841442  1
  O  O329  1  0.99347789  0.88685249  0.49978054  1
  O  O330  1  0.99152222  0.88348329  1.00485270  1
  O  O331  1  0.52015600  0.48004047  0.37962361  1
  O  O332  1  0.50263834  0.48439762  0.87109043  1
  O  O333  1  0.49385457  1.00112848  0.38846372  1
  O  O334  1  0.50051246  1.00375973  0.88800665  1
  O  O335  1  0.98937541  0.48746838  0.38801787  1
  O  O336  1  0.99380132  0.49384714  0.88019948  1
  O  O337  1  0.99954077  1.00128959  0.38982398  1
  O  O338  1  0.98987965  1.00563529  0.88042475  1
  O  O339  1  -0.00369619  0.01001504  0.11298963  1
  O  O340  1  0.01042458  0.00104709  0.61582559  1
  O  O341  1  0.00359475  0.50180265  0.11709345  1
  O  O342  1  0.00323526  0.50742104  0.62310699  1
  O  O343  1  0.49925488  0.01347909  0.11702999  1
  O  O344  1  0.51030393  -0.00206820  0.61647161  1
  O  O345  1  0.51560271  0.49686854  0.12450693  1
  O  O346  1  0.51128614  0.50441447  0.62644968  1
  O  O347  1  0.25699127  0.37296667  0.23574687  1
  O  O348  1  0.24178795  0.37800575  0.74874124  1
  O  O349  1  0.24770032  0.88551748  0.23896294  1
  O  O350  1  0.24778418  0.88710434  0.74640460  1
  O  O351  1  0.74674477  0.37688320  0.24236253  1
  O  O352  1  0.74755094  0.38911757  0.74797339  1
  O  O353  1  0.74517375  0.87667002  0.23890797  1
  O  O354  1  0.74267666  0.88636416  0.74798758  1
  O  O355  1  0.25548267  0.10856731  0.24098562  1
  O  O356  1  0.24807856  0.11696395  0.75786721  1
  O  O357  1  0.24611109  0.61872747  0.22807841  1
  O  O358  1  0.26173583  0.61936432  0.74764678  1
  O  O359  1  0.76666806  0.12262930  0.24703431  1
  O  O360  1  0.74751473  0.11271471  0.75776961  1
  O  O361  1  0.75284197  0.62050386  0.25381182  1
  O  O362  1  0.75940420  0.61456144  0.74611207  1
  O  O363  1  0.37907911  0.11221080  0.37611746  1
  O  O364  1  0.36161258  0.12288769  0.87384687  1
  O  O365  1  0.39863058  0.61110620  0.36912155  1
  O  O366  1  0.37746456  0.61821076  0.87486746  1
  O  O367  1  0.87859771  0.13462441  0.35778330  1
  O  O368  1  0.86306281  0.11611548  0.87820686  1
  O  O369  1  0.86877970  0.61802407  0.37021249  1
  O  O370  1  0.88049328  0.61633642  0.86181884  1
  O  O371  1  0.12714951  0.38252137  0.12511575  1
  O  O372  1  0.13129521  0.37719122  0.63135170  1
  O  O373  1  0.13827845  0.87102244  0.12887822  1
  O  O374  1  0.12565951  0.88595350  0.62778983  1
  O  O375  1  0.63639975  0.37901329  0.12575067  1
  O  O376  1  0.62720264  0.38548579  0.62746085  1
  O  O377  1  0.63670473  0.86976305  0.13350470  1
  O  O378  1  0.62719639  0.88241654  0.63499488  1
  O  O379  1  0.12399475  0.24205606  0.26534288  1
  O  O380  1  0.11487327  0.26013916  0.74293916  1
  O  O381  1  0.10705643  0.74769161  0.24333161  1
  O  O382  1  0.11085136  0.75164505  0.75082051  1
  O  O383  1  0.62373284  0.25310824  0.25779049  1
  O  O384  1  0.62027312  0.25235634  0.76043259  1
  O  O385  1  0.62374712  0.76179470  0.25778107  1
  O  O386  1  0.61772864  0.75633255  0.74636327  1
  O  O387  1  0.38265649  0.24740803  0.24172666  1
  O  O388  1  0.38300936  0.24764389  0.74219734  1
  O  O389  1  0.38451884  0.75333848  0.24712791  1
  O  O390  1  0.37884046  0.74363644  0.74397080  1
  O  O391  1  0.87804387  0.24052070  0.23665074  1
  O  O392  1  0.87947620  0.25377560  0.73678368  1
  O  O393  1  0.87798545  0.74590163  0.24025828  1
  O  O394  1  0.88251327  0.74470268  0.74636969  1
  O  O395  1  0.37732908  0.48618537  0.50084899  1
  O  O396  1  0.36735903  0.49313251  0.99712266  1
  O  O397  1  0.38027185  0.99335277  0.49744553  1
  O  O398  1  0.38976727  0.99887717  0.99886794  1
  O  O399  1  0.87730332  0.49269470  0.49834302  1
  O  O400  1  0.88047067  0.50448117  0.98735937  1
  O  O401  1  0.88719327  0.99504015  0.50776008  1
  O  O402  1  0.88396860  0.99449173  0.99155535  1
  O  O403  1  0.11347055  0.00480486  -0.00765684  1
  O  O404  1  0.11678179  0.01116587  0.50401202  1
  O  O405  1  0.11013527  0.49753487  0.00402204  1
  O  O406  1  0.11760153  0.50695704  0.51013039  1
  O  O407  1  0.61379649  0.00018859  -0.00218227  1
  O  O408  1  0.61824299  0.00522044  0.50700538  1
  O  O409  1  0.63509203  0.51165553  0.00504929  1
  O  O410  1  0.62616112  0.50934505  0.50853960  1
  O  O411  1  0.36917592  0.36538215  0.11486095  1
  O  O412  1  0.36814361  0.36816902  0.62015401  1
  O  O413  1  0.36531557  0.86793766  0.12492084  1
  O  O414  1  0.37073977  0.86606126  0.61366458  1
  O  O415  1  0.86497229  0.36760680  0.12910255  1
  O  O416  1  0.87308972  0.37284465  0.61486388  1
  O  O417  1  0.86816570  0.86974696  0.11229504  1
  O  O418  1  0.87496781  0.86775143  0.61555594  1
  O  O419  1  0.12115995  0.13803107  0.38770154  1
  O  O420  1  0.13645889  0.12427661  0.88834976  1
  O  O421  1  0.11662186  0.62328491  0.38711028  1
  O  O422  1  0.11807335  0.64600474  0.86688163  1
  O  O423  1  0.62227290  0.13666282  0.38129641  1
  O  O424  1  0.64055576  0.13338852  0.87387892  1
  O  O425  1  0.62863236  0.63418530  0.38959453  1
  O  O426  1  0.62436812  0.62552215  0.88626043  1
