# generated using pymatgen
data_V85Zn86O256
_symmetry_space_group_name_H-M   'P 1'
_cell_length_a   16.92176343
_cell_length_b   16.92241757
_cell_length_c   16.91358267
_cell_angle_alpha   90.04596818
_cell_angle_beta   90.01146923
_cell_angle_gamma   90.00506412
_symmetry_Int_Tables_number   1
_chemical_formula_structural   V85Zn86O256
_chemical_formula_sum   'V85 Zn86 O256'
_cell_volume   4843.32360039
_cell_formula_units_Z   1
loop_
 _symmetry_equiv_pos_site_id
 _symmetry_equiv_pos_as_xyz
  1  'x, y, z'
loop_
 _atom_site_type_symbol
 _atom_site_label
 _atom_site_symmetry_multiplicity
 _atom_site_fract_x
 _atom_site_fract_y
 _atom_site_fract_z
 _atom_site_occupancy
  V  V0  1  0.24878828  0.12401510  0.86998146  1
  V  V1  1  0.75482442  0.49923455  0.74257316  1
  V  V2  1  0.25028563  0.87855669  0.12873575  1
  V  V3  1  0.13085065  0.87542809  0.26008730  1
  V  V4  1  0.37392224  0.74866805  0.12414217  1
  V  V5  1  0.38134343  0.24503956  0.62430149  1
  V  V6  1  0.62629212  0.49959333  0.12461636  1
  V  V7  1  0.12310493  0.74950791  0.86929396  1
  V  V8  1  0.06062699  0.55888509  0.54016961  1
  V  V9  1  0.38305050  0.37460632  -0.00196915  1
  V  V10  1  0.11427247  0.25536300  0.37138977  1
  V  V11  1  0.25108328  0.87769546  0.62879392  1
  V  V12  1  0.74773678  0.49601243  0.25149207  1
  V  V13  1  0.75123689  0.13150364  0.88173889  1
  V  V14  1  0.00115118  0.62384882  0.12717421  1
  V  V15  1  0.36836358  0.62703116  0.25635945  1
  V  V16  1  0.37971758  0.49673579  0.87325718  1
  V  V17  1  0.24938699  0.25079182  0.49804139  1
  V  V18  1  0.62532000  0.25545290  0.88288135  1
  V  V19  1  0.13050383  0.36724267  0.75684927  1
  V  V20  1  0.73742531  0.23916248  0.49524624  1
  V  V21  1  0.49785652  0.62271156  0.12648472  1
  V  V22  1  0.36307577  0.50413979  0.37882575  1
  V  V23  1  0.11882160  0.50056426  0.12415530  1
  V  V24  1  -0.00096680  0.00359919  0.49764772  1
  V  V25  1  0.86615844  0.12010152  0.26729062  1
  V  V26  1  0.10990144  0.37410279  0.25265084  1
  V  V27  1  -0.00305897  0.13076362  0.13594154  1
  V  V28  1  0.88442508  0.50145814  0.87998723  1
  V  V29  1  0.87447037  0.75260379  0.12761942  1
  V  V30  1  0.75345652  0.74995004  0.49702859  1
  V  V31  1  0.38057384  0.25100686  0.13409408  1
  V  V32  1  0.74623757  0.87805488  0.62090743  1
  V  V33  1  0.37644504  0.63002559  0.74860003  1
  V  V34  1  0.37737486  0.75149946  0.62348326  1
  V  V35  1  0.50305984  0.63057503  0.62669605  1
  V  V36  1  0.00172119  0.87538300  0.37779448  1
  V  V37  1  0.37722968  0.37397322  0.49815940  1
  V  V38  1  0.88238170  0.48406035  0.37178456  1
  V  V39  1  0.00598972  0.37990328  0.88088257  1
  V  V40  1  0.12683577  0.12942037  0.49968381  1
  V  V41  1  0.24941900  0.25110403  -0.00422272  1
  V  V42  1  0.62009784  0.01684413  0.62386516  1
  V  V43  1  0.24797463  0.37642174  0.12773035  1
  V  V44  1  0.13062671  0.00319517  0.63237643  1
  V  V45  1  0.50440392  0.01391911  0.50040942  1
  V  V46  1  0.74981146  0.36509234  0.11602474  1
  V  V47  1  0.49922739  0.25313953  0.75646572  1
  V  V48  1  0.37962743  0.12063559  0.74727936  1
  V  V49  1  0.74876688  0.00041855  0.75257905  1
  V  V50  1  0.00201777  0.00039091  0.00220168  1
  V  V51  1  0.37110588  -0.00260312  0.36166990  1
  V  V52  1  0.25021354  0.37709173  0.62433284  1
  V  V53  1  0.50867861  0.75406992  0.24978186  1
  V  V54  1  0.37195219  -0.00108992  0.87214125  1
  V  V55  1  0.24882361  0.50163420  0.74556290  1
  V  V56  1  0.87706031  0.62329370  0.25381949  1
  V  V57  1  0.62382137  0.11770096  -0.00065354  1
  V  V58  1  0.49706947  0.86917179  0.86636263  1
  V  V59  1  0.37386798  0.87466960  0.00173567  1
  V  V60  1  0.73899560  -0.00708950  0.25609431  1
  V  V61  1  0.50653561  0.12173426  0.13138034  1
  V  V62  1  0.00379641  0.74929867  0.26095940  1
  V  V63  1  0.62292788  0.74789131  0.86233587  1
  V  V64  1  0.24049316  0.74152284  0.48603083  1
  V  V65  1  0.88279327  0.75240626  0.62435195  1
  V  V66  1  0.24949187  0.12274873  0.36488024  1
  V  V67  1  0.87535607  0.00151109  0.87553524  1
  V  V68  1  0.12632238  0.12825514  -0.00132547  1
  V  V69  1  0.87438409  0.87605433  0.00307313  1
  V  V70  1  0.62491380  0.62613900  -0.00273909  1
  V  V71  1  0.88038651  0.62952176  0.74811695  1
  V  V72  1  0.75182174  0.62556057  0.87507657  1
  V  V73  1  0.12993269  0.00003014  0.13316170  1
  V  V74  1  0.11852889  0.62166324  -0.00398234  1
  V  V75  1  0.62972098  0.62421542  0.49710610  1
  V  V76  1  0.51289950  0.87690671  0.37329772  1
  V  V77  1  0.50152514  0.49895223  0.49828339  1
  V  V78  1  0.00234319  0.13441960  0.62689762  1
  V  V79  1  0.37652800  0.87655732  0.49682225  1
  V  V80  1  0.87620996  0.36726970  0.49469193  1
  V  V81  1  0.24645821  0.74830441  -0.00051495  1
  V  V82  1  0.00286102  0.25145255  0.75739268  1
  V  V83  1  0.87278398  0.88167556  0.49426597  1
  V  V84  1  0.62143298  0.37735335  0.75256695  1
  Zn  Zn85  1  0.49705199  0.36719060  0.35522684  1
  Zn  Zn86  1  0.87338933  0.24726079  0.12449947  1
  Zn  Zn87  1  0.87431950  0.37092277  -0.00325007  1
  Zn  Zn88  1  0.00647260  0.75479230  0.74280245  1
  Zn  Zn89  1  0.24288147  0.50607834  0.25586477  1
  Zn  Zn90  1  0.24813214  0.62476902  0.87050705  1
  Zn  Zn91  1  0.74785788  0.36963183  0.62258211  1
  Zn  Zn92  1  0.50190048  -0.00366863  0.00274500  1
  Zn  Zn93  1  0.87579293  0.12850532  0.75179690  1
  Zn  Zn94  1  0.75024484  0.75274079  0.00054245  1
  Zn  Zn95  1  0.12770470  0.87859487  0.75076487  1
  Zn  Zn96  1  0.75352755  0.62185162  0.37585746  1
  Zn  Zn97  1  0.61792302  0.35815007  0.25045529  1
  Zn  Zn98  1  0.62773115  0.49936906  0.62423815  1
  Zn  Zn99  1  0.87169933  0.25022443  0.62599434  1
  Zn  Zn100  1  0.73128249  0.88258101  0.12544452  1
  Zn  Zn101  1  0.50173566  0.49742555  -0.00623384  1
  Zn  Zn102  1  0.61101752  0.22586403  0.37288571  1
  Zn  Zn103  1  0.00231953  0.87761755  0.87024545  1
  Zn  Zn104  1  0.37365956  0.12303992  0.24687555  1
  Zn  Zn105  1  0.61893042  0.87298073  0.74542593  1
  Zn  Zn106  1  0.63002590  0.75195591  0.37078458  1
  Zn  Zn107  1  0.18589255  0.19179937  0.18642304  1
  Zn  Zn108  1  0.19007668  0.19114534  0.68867193  1
  Zn  Zn109  1  0.18565323  0.69079501  0.18943114  1
  Zn  Zn110  1  0.18391209  0.68215997  0.67167631  1
  Zn  Zn111  1  0.68892411  0.18128545  0.19089257  1
  Zn  Zn112  1  0.69011977  0.19120193  0.69132917  1
  Zn  Zn113  1  0.69151474  0.68582827  0.18606106  1
  Zn  Zn114  1  0.69520632  0.68592274  0.68316493  1
  Zn  Zn115  1  0.30750814  0.31618068  0.31340760  1
  Zn  Zn116  1  0.31477990  0.31097303  0.81510123  1
  Zn  Zn117  1  0.31703009  0.81325024  0.31123357  1
  Zn  Zn118  1  0.30960417  0.81032539  0.81042228  1
  Zn  Zn119  1  0.79674611  0.29982454  0.30540352  1
  Zn  Zn120  1  0.81484822  0.31410775  0.81264655  1
  Zn  Zn121  1  0.81184031  0.81867541  0.31409777  1
  Zn  Zn122  1  0.81153696  0.81514726  0.81394622  1
  Zn  Zn123  1  0.17775928  0.44542395  0.44054253  1
  Zn  Zn124  1  0.19087045  0.44159679  0.93624736  1
  Zn  Zn125  1  0.18949387  0.93830293  0.44360857  1
  Zn  Zn126  1  0.18783671  0.93890595  0.93692924  1
  Zn  Zn127  1  0.68685383  0.42693103  0.43528959  1
  Zn  Zn128  1  0.69052991  0.44075974  0.93330009  1
  Zn  Zn129  1  0.69277550  1.05774374  0.43403852  1
  Zn  Zn130  1  0.68712952  0.93418212  0.93833647  1
  Zn  Zn131  1  0.31559541  0.06253452  0.06314554  1
  Zn  Zn132  1  0.31462618  0.06266919  0.55819057  1
  Zn  Zn133  1  0.30859061  0.56068931  0.06241532  1
  Zn  Zn134  1  0.30994969  0.56483742  0.56170772  1
  Zn  Zn135  1  0.80860482  0.05935634  0.06731506  1
  Zn  Zn136  1  0.81638335  0.06506239  0.56753636  1
  Zn  Zn137  1  0.81392735  0.56082091  0.06195913  1
  Zn  Zn138  1  0.84409305  0.56807609  0.55322734  1
  Zn  Zn139  1  0.43347390  0.44190637  0.18827179  1
  Zn  Zn140  1  0.43903741  0.43801420  0.68492755  1
  Zn  Zn141  1  0.55936177  0.93661106  0.18331530  1
  Zn  Zn142  1  0.43730079  0.93969343  0.68672800  1
  Zn  Zn143  1  0.93516702  0.43621777  0.18502099  1
  Zn  Zn144  1  0.93766097  0.43440637  0.67660954  1
  Zn  Zn145  1  0.93603510  0.94115537  0.19115967  1
  Zn  Zn146  1  0.93986474  0.93927563  0.68642730  1
  Zn  Zn147  1  0.06228061  0.06322450  0.31428089  1
  Zn  Zn148  1  0.06381067  0.06391918  0.81389704  1
  Zn  Zn149  1  0.06424358  0.55999327  0.32966185  1
  Zn  Zn150  1  0.04320624  0.54003442  0.74470858  1
  Zn  Zn151  1  0.55861674  0.06403670  0.31141678  1
  Zn  Zn152  1  0.55993107  0.06224734  0.81315420  1
  Zn  Zn153  1  0.56220355  0.54995671  0.31669001  1
  Zn  Zn154  1  0.56127003  0.56194570  0.80872214  1
  Zn  Zn155  1  0.43933108  0.18405016  0.43457959  1
  Zn  Zn156  1  0.43951911  0.18828094  0.93976527  1
  Zn  Zn157  1  0.43741866  0.68930705  0.43718624  1
  Zn  Zn158  1  0.43814427  0.68577594  0.93437236  1
  Zn  Zn159  1  0.93562315  0.19172833  0.43960368  1
  Zn  Zn160  1  0.93705170  0.19143354  0.94098140  1
  Zn  Zn161  1  0.94659458  0.67719722  0.44029764  1
  Zn  Zn162  1  0.94107641  0.68843476  0.93684612  1
  Zn  Zn163  1  0.06097458  0.31055410  0.06131459  1
  Zn  Zn164  1  0.07152132  0.34316117  0.55356604  1
  Zn  Zn165  1  0.06120826  0.81307692  0.06635224  1
  Zn  Zn166  1  0.06626263  0.81454440  0.56033276  1
  Zn  Zn167  1  0.56220736  0.31023206  0.06742883  1
  Zn  Zn168  1  0.56111167  0.31191593  0.56467806  1
  Zn  Zn169  1  0.55783567  0.80521660  0.05203876  1
  Zn  Zn170  1  0.56440243  0.81499070  0.55723742  1
  O  O171  1  0.11809982  0.11802221  0.12270084  1
  O  O172  1  0.12240951  0.12270330  0.62014564  1
  O  O173  1  0.12061620  0.61899562  0.12109043  1
  O  O174  1  0.11891424  0.61644765  0.60144214  1
  O  O175  1  0.61384748  0.13289558  0.11483860  1
  O  O176  1  0.62263442  0.11472860  0.63350591  1
  O  O177  1  0.61939349  0.62198066  0.11491948  1
  O  O178  1  0.61952036  0.62617437  0.61570022  1
  O  O179  1  0.37500806  0.38535554  0.38070871  1
  O  O180  1  0.36964378  0.38371161  0.88553412  1
  O  O181  1  0.38064720  0.88088928  0.38163197  1
  O  O182  1  0.37604901  0.87830302  0.87977038  1
  O  O183  1  0.86214918  0.37719232  0.37717560  1
  O  O184  1  0.88544340  0.38479620  0.87408037  1
  O  O185  1  0.88354477  0.87169705  0.38892256  1
  O  O186  1  0.87749033  0.88060343  0.88778261  1
  O  O187  1  0.25887615  0.01062284  0.38508237  1
  O  O188  1  0.26232185  0.00827850  0.87973370  1
  O  O189  1  0.25793136  0.50037886  0.37871871  1
  O  O190  1  0.26242004  0.50450305  0.86632039  1
  O  O191  1  0.75088553  -0.00372061  0.35802244  1
  O  O192  1  0.75414003  0.00456811  0.86864947  1
  O  O193  1  0.75345131  0.49899474  0.35996140  1
  O  O194  1  0.76082117  0.50605591  0.86399871  1
  O  O195  1  0.23784575  0.49290101  0.12700145  1
  O  O196  1  0.26030009  0.48874263  0.63238487  1
  O  O197  1  0.23806680  0.99514799  0.11867618  1
  O  O198  1  0.24238617  0.99176020  0.61624945  1
  O  O199  1  0.74351516  0.49602108  0.13081001  1
  O  O200  1  0.75321139  0.50293923  0.63684901  1
  O  O201  1  0.75346895  0.99648713  0.14091319  1
  O  O202  1  0.74022494  0.99731682  0.63145390  1
  O  O203  1  0.01107431  0.37164592  0.24092056  1
  O  O204  1  0.01209674  0.36796576  0.75215148  1
  O  O205  1  0.00519392  0.86923706  0.25892449  1
  O  O206  1  0.00644494  0.87358404  0.75165776  1
  O  O207  1  0.50460976  0.37717439  0.24009135  1
  O  O208  1  0.50781949  0.36788516  0.74822536  1
  O  O209  1  0.49943292  0.86533535  0.25777962  1
  O  O210  1  0.49862714  0.87575364  0.76154384  1
  O  O211  1  0.49557893  0.12478743  0.23496565  1
  O  O212  1  0.48716112  0.13346260  0.75481443  1
  O  O213  1  0.49057326  0.62737801  0.24296425  1
  O  O214  1  0.49305503  0.62156566  0.73496269  1
  O  O215  1  0.99083028  0.11815739  0.24002822  1
  O  O216  1  1.00277066  0.13448733  0.74542761  1
  O  O217  1  0.99923838  0.63146656  0.25066872  1
  O  O218  1  0.98418881  0.63721091  0.75532112  1
  O  O219  1  0.36859767  0.25758298  0.00652357  1
  O  O220  1  0.36833335  0.25363688  0.50868495  1
  O  O221  1  0.36584780  0.75348349  0.00091993  1
  O  O222  1  0.37246788  0.76154143  0.50465544  1
  O  O223  1  0.88477455  0.25860661  0.01080492  1
  O  O224  1  0.86161091  0.25547310  0.49978179  1
  O  O225  1  0.87777071  0.75831663  0.00818660  1
  O  O226  1  0.87014557  0.75598506  0.50569907  1
  O  O227  1  0.13262977  0.25167587  0.49388159  1
  O  O228  1  0.13331455  0.23645841  1.00554777  1
  O  O229  1  0.14107588  0.75609416  0.49981435  1
  O  O230  1  0.13075070  0.74646705  0.99630270  1
  O  O231  1  0.63561707  0.25045111  0.50540639  1
  O  O232  1  0.61830642  0.24375698  0.98650739  1
  O  O233  1  0.63599249  0.74254805  0.49841850  1
  O  O234  1  0.62706818  0.73664423  0.98778894  1
  O  O235  1  0.48999446  0.23704730  0.11785497  1
  O  O236  1  0.48739728  0.25261072  0.63553826  1
  O  O237  1  0.49344092  0.73860197  0.12882300  1
  O  O238  1  0.48780913  0.74575367  0.61772322  1
  O  O239  1  1.00674916  0.23231648  0.12731901  1
  O  O240  1  1.00427588  0.24188665  0.63331155  1
  O  O241  1  0.99198756  0.74522751  0.13613246  1
  O  O242  1  0.98679640  0.75761894  0.62209916  1
  O  O243  1  0.01560526  0.24343537  0.37619152  1
  O  O244  1  -0.00153186  0.26026131  0.86410972  1
  O  O245  1  -0.00342802  0.75210781  0.36796706  1
  O  O246  1  0.01472258  0.75434299  0.87621858  1
  O  O247  1  0.50292741  0.26102452  0.39275067  1
  O  O248  1  0.50657900  0.24856147  0.86450177  1
  O  O249  1  0.49966846  0.75819371  0.36595714  1
  O  O250  1  0.50893290  0.75600942  0.87614132  1
  O  O251  1  0.24473182  0.13310080  0.49324683  1
  O  O252  1  0.24608709  0.13161600  0.99439776  1
  O  O253  1  0.25763622  0.64251106  0.50008761  1
  O  O254  1  0.24245038  0.63714044  1.00210405  1
  O  O255  1  0.75276654  0.13281088  0.50220555  1
  O  O256  1  0.74273260  0.12021120  0.98915867  1
  O  O257  1  0.74728031  0.63174016  0.50022534  1
  O  O258  1  0.74225908  0.62577056  0.99402100  1
  O  O259  1  0.25357334  0.36889569  0.00841808  1
  O  O260  1  0.25626662  0.37081270  0.50765324  1
  O  O261  1  0.25333915  0.86492869  0.00454956  1
  O  O262  1  0.25964932  0.86902261  0.50868424  1
  O  O263  1  0.75097524  0.38345561  0.01257930  1
  O  O264  1  0.75329899  0.36193720  0.50233223  1
  O  O265  1  0.76072475  0.87374634  0.00431453  1
  O  O266  1  0.75945619  0.86821997  0.50764776  1
  O  O267  1  0.12488076  0.49534240  0.24710830  1
  O  O268  1  0.14424852  0.48915799  0.75267703  1
  O  O269  1  0.12104315  0.99103626  0.24276019  1
  O  O270  1  0.12501311  1.00313250  0.73648378  1
  O  O271  1  0.63243201  0.51334032  0.23233421  1
  O  O272  1  0.63356601  0.49380281  0.74988832  1
  O  O273  1  0.63230824  1.00087956  0.24900694  1
  O  O274  1  0.62962491  0.99712210  0.74177858  1
  O  O275  1  0.37296777  -0.00029364  0.26289125  1
  O  O276  1  0.37728372  0.00899092  0.75709469  1
  O  O277  1  0.36861580  0.50968295  0.25932924  1
  O  O278  1  0.36953447  0.50734385  0.75359082  1
  O  O279  1  0.87091530  0.01335865  0.24888902  1
  O  O280  1  0.86660449  0.00238003  0.75613813  1
  O  O281  1  0.86631116  0.49985065  0.25516021  1
  O  O282  1  0.87057883  0.50955120  0.75329426  1
  O  O283  1  0.13119894  0.36858454  0.36342801  1
  O  O284  1  0.12298404  0.37977615  0.86526684  1
  O  O285  1  0.12122788  0.88213663  0.36641795  1
  O  O286  1  0.12747083  0.86674482  0.87153823  1
  O  O287  1  0.60974336  0.40504096  0.35922654  1
  O  O288  1  0.63060913  0.36901797  0.86466837  1
  O  O289  1  0.61167120  0.87165266  0.38010958  1
  O  O290  1  0.61582140  0.86545430  0.87377830  1
  O  O291  1  0.38327171  0.13353298  0.12430161  1
  O  O292  1  0.36504559  0.13256826  0.63707661  1
  O  O293  1  0.38147785  0.62758803  0.12876667  1
  O  O294  1  0.38279480  0.63293638  0.62844773  1
  O  O295  1  0.89237824  0.12200329  0.12159322  1
  O  O296  1  0.88953205  0.12702432  0.63089722  1
  O  O297  1  0.88250523  0.63020569  0.13123354  1
  O  O298  1  0.85853799  0.64226712  0.63897427  1
  O  O299  1  0.25534770  0.25636438  0.11447121  1
  O  O300  1  0.26124625  0.25506776  0.61972190  1
  O  O301  1  0.25419517  0.75614807  0.11756935  1
  O  O302  1  0.26189042  0.75604760  0.61617263  1
  O  O303  1  0.74489896  0.26342487  0.12162360  1
  O  O304  1  0.75289384  0.24847841  0.61673071  1
  O  O305  1  0.76517155  0.75195545  0.12456015  1
  O  O306  1  0.75612088  0.76017275  0.61538133  1
  O  O307  1  0.24657985  0.24236933  0.38208053  1
  O  O308  1  0.25620980  0.24179148  0.88885075  1
  O  O309  1  0.25495710  0.75508007  0.38686058  1
  O  O310  1  0.24129736  0.74832604  0.88242478  1
  O  O311  1  0.74117441  0.24801486  0.39244116  1
  O  O312  1  0.74070186  0.24124141  0.86830923  1
  O  O313  1  0.75140611  0.74786814  0.38543725  1
  O  O314  1  0.74243153  0.74423295  0.87759751  1
  O  O315  1  0.00930963  0.11638742  0.00657142  1
  O  O316  1  0.00549783  0.12294861  0.50828683  1
  O  O317  1  0.01172574  0.63126053  0.00946763  1
  O  O318  1  -0.03781752  0.60221956  0.52373944  1
  O  O319  1  0.50711873  0.12208717  0.00622929  1
  O  O320  1  0.47825972  0.10888674  0.51343474  1
  O  O321  1  0.50664098  0.62366260  0.00715045  1
  O  O322  1  0.50773273  0.62236615  0.50808150  1
  O  O323  1  0.49093152  0.38746964  0.51024069  1
  O  O324  1  0.48669915  0.37771662  1.00623075  1
  O  O325  1  0.49343102  0.88091882  0.49259632  1
  O  O326  1  0.48783145  0.87361333  0.98656502  1
  O  O327  1  0.97575913  0.35875486  0.49401861  1
  O  O328  1  1.00829926  0.37730100  0.98389081  1
  O  O329  1  0.99476543  0.88411249  0.49782331  1
  O  O330  1  0.99733718  0.88782693  1.00039798  1
  O  O331  1  0.48485764  0.50524361  0.39025796  1
  O  O332  1  0.48525354  0.50607436  0.87504842  1
  O  O333  1  0.48940768  0.99227555  0.38267459  1
  O  O334  1  0.48777206  0.99219267  0.87724311  1
  O  O335  1  0.98016252  0.48434357  0.36355180  1
  O  O336  1  0.99304811  0.49108054  0.85442437  1
  O  O337  1  1.00585495  0.99713208  0.39154604  1
  O  O338  1  0.99455562  1.00152289  0.88483578  1
  O  O339  1  0.01101935  0.00677914  0.11982869  1
  O  O340  1  0.00898741  0.01081400  0.61773002  1
  O  O341  1  0.01103984  0.50570513  0.12807079  1
  O  O342  1  0.01016075  0.50886862  0.63693646  1
  O  O343  1  0.49749812  0.01690402  0.12086731  1
  O  O344  1  0.51504339  -0.00832304  0.61884046  1
  O  O345  1  0.50617704  0.51137431  0.12060334  1
  O  O346  1  0.49989487  0.51143440  0.61463184  1
  O  O347  1  0.24417077  0.37878145  0.23610641  1
  O  O348  1  0.24945063  0.37847513  0.74615832  1
  O  O349  1  0.24133515  0.86811803  0.24258651  1
  O  O350  1  0.25107306  0.87225391  0.73349486  1
  O  O351  1  0.74505987  0.38258673  0.23513212  1
  O  O352  1  0.74501502  0.38351509  0.74786352  1
  O  O353  1  0.75497713  0.88704323  0.24467488  1
  O  O354  1  0.74870113  0.88756421  0.74372381  1
  O  O355  1  0.24895431  0.12712229  0.26134865  1
  O  O356  1  0.25986678  0.13436987  0.76473036  1
  O  O357  1  0.26339647  0.62732979  0.24445895  1
  O  O358  1  0.25748618  0.61716278  0.74261154  1
  O  O359  1  0.75985313  0.11004067  0.24840690  1
  O  O360  1  0.74980378  0.11499849  0.76124471  1
  O  O361  1  0.76005825  0.61662891  0.25045325  1
  O  O362  1  0.75657409  0.61948295  0.75766439  1
  O  O363  1  0.36677020  0.11648110  0.37224687  1
  O  O364  1  0.37011623  0.11691348  0.87204123  1
  O  O365  1  0.37858864  0.61900474  0.36665625  1
  O  O366  1  0.37151037  0.62134788  0.86384815  1
  O  O367  1  0.87843030  0.12456993  0.36550162  1
  O  O368  1  0.86757655  0.12044055  0.87549438  1
  O  O369  1  0.87544930  0.60745096  0.36947757  1
  O  O370  1  0.87158338  0.62171160  0.86972271  1
  O  O371  1  0.12905795  0.38197913  0.12808391  1
  O  O372  1  0.14440781  0.36217129  0.64108930  1
  O  O373  1  0.12818255  0.88249871  0.13495481  1
  O  O374  1  0.13433445  0.88547763  0.62436700  1
  O  O375  1  0.63352914  0.38463540  0.12145919  1
  O  O376  1  0.62697019  0.37817841  0.63906109  1
  O  O377  1  0.61876163  0.86951733  0.11700949  1
  O  O378  1  0.63721004  0.87640326  0.62582329  1
  O  O379  1  0.13150638  0.26168809  0.25863991  1
  O  O380  1  0.12007619  0.25635739  0.75406366  1
  O  O381  1  0.11430059  0.76071478  0.24679969  1
  O  O382  1  0.12813774  0.74652157  0.75551477  1
  O  O383  1  0.64190113  0.24798124  0.26519153  1
  O  O384  1  0.61734397  0.25650305  0.75795339  1
  O  O385  1  0.61246735  0.73855608  0.25145895  1
  O  O386  1  0.63110559  0.74994456  0.75861410  1
  O  O387  1  0.36557939  0.24954474  0.23630284  1
  O  O388  1  0.38216255  0.24527256  0.74615723  1
  O  O389  1  0.38538962  0.74432822  0.24330449  1
  O  O390  1  0.37023578  0.73769881  0.74141897  1
  O  O391  1  0.86384178  0.22795447  0.24170305  1
  O  O392  1  0.88691912  0.25043140  0.74671133  1
  O  O393  1  0.88274912  0.74644152  0.24563762  1
  O  O394  1  0.87341416  0.74788209  0.74243077  1
  O  O395  1  0.37957954  0.49642944  0.49593529  1
  O  O396  1  0.37305089  0.49300810  0.99193848  1
  O  O397  1  0.38115527  0.98730738  0.49768726  1
  O  O398  1  0.37478701  0.98910409  0.99272699  1
  O  O399  1  0.86146037  0.48035241  0.48080470  1
  O  O400  1  0.87650430  0.50076534  0.98377873  1
  O  O401  1  0.88498778  0.99146223  0.50966179  1
  O  O402  1  0.88326480  0.99450956  0.99818046  1
  O  O403  1  0.11992405  0.00740742  0.00770766  1
  O  O404  1  0.11877525  0.00872391  0.51003429  1
  O  O405  1  0.13184103  0.51201803  0.00881259  1
  O  O406  1  0.10188771  0.45913014  0.52279619  1
  O  O407  1  0.62151881  0.01354576  -0.00931058  1
  O  O408  1  0.61989139  0.00155494  0.51656483  1
  O  O409  1  0.62411255  0.50960931  0.00542447  1
  O  O410  1  0.61838345  0.50705022  0.50379933  1
  O  O411  1  0.36535348  0.37125540  0.11792278  1
  O  O412  1  0.36766996  0.36626748  0.62184355  1
  O  O413  1  0.37030362  0.86684721  0.10965938  1
  O  O414  1  0.37209797  0.86979342  0.61859825  1
  O  O415  1  0.85994602  0.37661918  0.12272503  1
  O  O416  1  0.86997744  0.37310971  0.60890323  1
  O  O417  1  0.88288068  0.86781615  0.11523056  1
  O  O418  1  0.86509722  0.87193613  0.61910372  1
  O  O419  1  0.13205157  0.13104424  0.38020598  1
  O  O420  1  0.13647813  0.11703690  0.88646839  1
  O  O421  1  0.08830475  0.58473797  0.43889409  1
  O  O422  1  0.12936997  0.63414225  0.88633859  1
  O  O423  1  0.60242813  0.11383188  0.39896159  1
  O  O424  1  0.63048112  0.13276792  0.87989727  1
  O  O425  1  0.62631805  0.62464686  0.38776622  1
  O  O426  1  0.62848021  0.62845354  0.87851064  1
