# generated using pymatgen
data_V85Zn86O256
_symmetry_space_group_name_H-M   'P 1'
_cell_length_a   16.93141409
_cell_length_b   16.93267060
_cell_length_c   16.92123118
_cell_angle_alpha   90.08111896
_cell_angle_beta   90.00829197
_cell_angle_gamma   89.96608564
_symmetry_Int_Tables_number   1
_chemical_formula_structural   V85Zn86O256
_chemical_formula_sum   'V85 Zn86 O256'
_cell_volume   4851.21066231
_cell_formula_units_Z   1
loop_
 _symmetry_equiv_pos_site_id
 _symmetry_equiv_pos_as_xyz
  1  'x, y, z'
loop_
 _atom_site_type_symbol
 _atom_site_label
 _atom_site_symmetry_multiplicity
 _atom_site_fract_x
 _atom_site_fract_y
 _atom_site_fract_z
 _atom_site_occupancy
  V  V0  1  0.74972970  0.00160530  0.25246128  1
  V  V1  1  0.88189385  0.87707045  0.50080709  1
  V  V2  1  -0.00396668  0.50798933  0.50502931  1
  V  V3  1  0.12824807  0.25038288  0.38844812  1
  V  V4  1  0.49644648  0.25522649  0.75553749  1
  V  V5  1  0.24821877  0.50901453  0.75323286  1
  V  V6  1  0.11764393  0.76160478  0.86854728  1
  V  V7  1  0.87298472  0.49723269  0.37998280  1
  V  V8  1  0.11415575  0.87424261  0.24955520  1
  V  V9  1  0.24562932  -0.01632528  0.73483744  1
  V  V10  1  0.24762988  -0.00179936  0.25028711  1
  V  V11  1  0.87066214  0.12754221  0.25378602  1
  V  V12  1  0.38025109  0.62237974  0.74286620  1
  V  V13  1  0.62116756  0.25269228  0.87494118  1
  V  V14  1  0.61572840  0.62428371  0.50849509  1
  V  V15  1  0.25097819  0.13119754  0.38314735  1
  V  V16  1  0.37479165  0.87271346  -0.00342980  1
  V  V17  1  -0.00212697  0.12384392  0.12209628  1
  V  V18  1  0.37449578  -0.00369844  0.87216233  1
  V  V19  1  0.62132697  0.37817187  0.75397834  1
  V  V20  1  0.88720782  0.62439124  0.75122746  1
  V  V21  1  0.49877203  0.62605428  0.12854077  1
  V  V22  1  0.74915368  0.25188061  0.49476465  1
  V  V23  1  0.87162173  0.26117667  0.12662384  1
  V  V24  1  0.24599336  0.37296879  0.61903608  1
  V  V25  1  0.63104777  0.62862955  0.00086806  1
  V  V26  1  0.74964857  0.62384368  0.37593991  1
  V  V27  1  0.12379570  0.49951547  0.12423074  1
  V  V28  1  0.37845011  0.37197774  -0.00767414  1
  V  V29  1  0.87410764  0.12570338  0.75012840  1
  V  V30  1  0.37045899  0.12517475  0.75078874  1
  V  V31  1  0.50131595  0.12674146  0.62439263  1
  V  V32  1  0.00106808  0.63273867  0.12792888  1
  V  V33  1  0.12903633  0.62331469  -0.00913311  1
  V  V34  1  0.75067664  0.37793368  0.62143926  1
  V  V35  1  0.87569700  0.25387291  0.62048578  1
  V  V36  1  0.86942836  0.37965582  -0.00878035  1
  V  V37  1  0.49651208  0.37066570  0.37257615  1
  V  V38  1  0.62426952  0.74863485  0.37288977  1
  V  V39  1  0.12622815  0.37241804  0.75736350  1
  V  V40  1  0.00410172  0.24802822  0.75473523  1
  V  V41  1  0.75656591  0.50083770  0.75649310  1
  V  V42  1  0.74836162  0.12390936  0.87641479  1
  V  V43  1  0.62283664  0.75230056  0.87825059  1
  V  V44  1  0.50199541  0.74513915  0.74423295  1
  V  V45  1  0.25122922  0.37141793  0.12434128  1
  V  V46  1  0.37637889  0.13244348  0.24982127  1
  V  V47  1  0.37226360  0.50699498  0.87728147  1
  V  V48  1  0.36912054  0.87324458  0.50591841  1
  V  V49  1  0.88837642  -0.00113128  0.88284316  1
  V  V50  1  0.36923926  0.25094488  0.61694876  1
  V  V51  1  0.49982551  0.87466500  0.37346757  1
  V  V52  1  0.12098477  0.51008135  0.62696497  1
  V  V53  1  -0.00458290  0.49868319  -0.00432715  1
  V  V54  1  0.75111606  0.74984665  0.50246106  1
  V  V55  1  0.12664477  0.74078725  0.36558348  1
  V  V56  1  0.25152626  0.74491588  -0.00611532  1
  V  V57  1  0.00276966  0.11393486  0.61733351  1
  V  V58  1  0.49916461  0.12906690  0.12841858  1
  V  V59  1  0.12368276  0.37285640  0.25123551  1
  V  V60  1  0.12201937  0.00183016  0.11494268  1
  V  V61  1  0.87669910  0.00201323  0.37798370  1
  V  V62  1  0.24101130  0.24725291  -0.00953100  1
  V  V63  1  0.75568006  0.63149603  0.87610825  1
  V  V64  1  0.63183881  0.49742914  0.12791810  1
  V  V65  1  0.63019248  0.12550885  0.49348083  1
  V  V66  1  0.62279212  0.12466562  -0.00104461  1
  V  V67  1  0.88994688  0.74477579  0.62995848  1
  V  V68  1  0.25422323  0.50337478  0.25623712  1
  V  V69  1  0.87812575  0.63277582  0.25270581  1
  V  V70  1  0.62590173  -0.00028325  0.12398311  1
  V  V71  1  0.88850487  0.87086909  -0.00078560  1
  V  V72  1  0.74808628  -0.00019755  0.75330953  1
  V  V73  1  -0.00399604  0.37384424  0.38547954  1
  V  V74  1  0.50229140  0.00000170  0.50065897  1
  V  V75  1  0.49980729  -0.00593947  -0.00465592  1
  V  V76  1  0.37504264  0.00037518  0.37328169  1
  V  V77  1  0.74930641  0.86723981  0.11762545  1
  V  V78  1  -0.00140346  0.25108545  0.25234119  1
  V  V79  1  0.74904540  0.87319662  0.63031963  1
  V  V80  1  0.50234285  0.49636720  -0.00409514  1
  V  V81  1  0.24770974  0.74206300  0.50221728  1
  V  V82  1  0.74655404  0.25647314  0.00455097  1
  V  V83  1  0.61872448  0.87555142  0.75396463  1
  V  V84  1  0.62722646  0.36720678  0.24748174  1
  Zn  Zn85  1  0.12593462  0.62401832  0.49677906  1
  Zn  Zn86  1  0.75177840  0.49709154  0.24838678  1
  Zn  Zn87  1  0.62025851  0.50757981  0.63151165  1
  Zn  Zn88  1  0.62612775  0.87491681  0.24944787  1
  Zn  Zn89  1  0.37539468  0.50633575  0.38144776  1
  Zn  Zn90  1  -0.00010556  0.37340905  0.87527682  1
  Zn  Zn91  1  -0.00103044  0.86892080  0.37491233  1
  Zn  Zn92  1  0.24136691  0.12380632  0.86970641  1
  Zn  Zn93  1  0.49278342  0.49894357  0.50740139  1
  Zn  Zn94  1  0.37469776  0.74917201  0.62560931  1
  Zn  Zn95  1  0.36640901  0.63454408  0.25248997  1
  Zn  Zn96  1  0.13042874  0.11124653  0.51118420  1
  Zn  Zn97  1  0.37148918  0.37500179  0.49748676  1
  Zn  Zn98  1  0.37722589  0.25093048  0.12397144  1
  Zn  Zn99  1  0.10440577  0.87763920  0.72955340  1
  Zn  Zn100  1  0.87504775  0.74991568  0.12518354  1
  Zn  Zn101  1  0.25026843  0.87404094  0.12390089  1
  Zn  Zn102  1  0.11215433  0.12546213  -0.01275769  1
  Zn  Zn103  1  0.62376423  0.24637457  0.37045210  1
  Zn  Zn104  1  0.49445888  0.75174199  0.24908482  1
  Zn  Zn105  1  0.37422509  0.75117223  0.12448749  1
  Zn  Zn106  1  0.62668278  0.00094775  0.62490792  1
  Zn  Zn107  1  0.18598697  0.18630699  0.18944340  1
  Zn  Zn108  1  0.18582997  0.18552216  0.68842637  1
  Zn  Zn109  1  0.18796686  0.68819664  0.18057617  1
  Zn  Zn110  1  0.18782337  0.69541874  0.68514998  1
  Zn  Zn111  1  0.68892038  0.18713081  0.18564512  1
  Zn  Zn112  1  0.68651350  0.18932281  0.68433867  1
  Zn  Zn113  1  0.68765732  0.68553408  0.19055105  1
  Zn  Zn114  1  0.69451951  0.69038958  0.69178867  1
  Zn  Zn115  1  0.31227186  0.31311475  0.31208461  1
  Zn  Zn116  1  0.31221849  0.31814985  0.81097623  1
  Zn  Zn117  1  0.30886315  0.81090229  0.31474667  1
  Zn  Zn118  1  0.31334842  0.80784141  0.81764906  1
  Zn  Zn119  1  0.80927366  0.31691107  0.31393371  1
  Zn  Zn120  1  0.81086557  0.31126048  0.81180009  1
  Zn  Zn121  1  0.81027799  0.81410477  0.31118701  1
  Zn  Zn122  1  0.93669786  0.81143523  0.81576144  1
  Zn  Zn123  1  0.18441754  0.43806614  0.43945086  1
  Zn  Zn124  1  0.18931554  0.43760886  0.93687288  1
  Zn  Zn125  1  0.18665584  0.93180792  0.44512692  1
  Zn  Zn126  1  0.19125638  0.93742445  0.93318299  1
  Zn  Zn127  1  0.68290826  0.43762906  0.43628300  1
  Zn  Zn128  1  0.68860629  0.44066637  0.93473744  1
  Zn  Zn129  1  0.69120764  0.93725559  0.43832027  1
  Zn  Zn130  1  0.69131200  0.93408476  0.93658623  1
  Zn  Zn131  1  0.31056250  0.06220043  0.06268075  1
  Zn  Zn132  1  0.31585242  0.06202055  0.56158147  1
  Zn  Zn133  1  0.31257603  0.56170511  0.06607173  1
  Zn  Zn134  1  0.31094723  0.56082616  0.56293060  1
  Zn  Zn135  1  0.81268613  0.06351529  0.06360490  1
  Zn  Zn136  1  0.81276939  0.06397323  0.56333472  1
  Zn  Zn137  1  0.81259521  0.56382399  0.06346771  1
  Zn  Zn138  1  0.80954931  0.56347770  0.56423902  1
  Zn  Zn139  1  0.44101035  0.43581998  0.18529377  1
  Zn  Zn140  1  0.43796497  0.43793148  0.68447809  1
  Zn  Zn141  1  0.43663943  0.93923268  0.18544748  1
  Zn  Zn142  1  0.43938922  0.93699435  0.68743024  1
  Zn  Zn143  1  0.93766586  0.44180829  0.19042880  1
  Zn  Zn144  1  0.93685370  0.43655617  0.68867291  1
  Zn  Zn145  1  0.93699426  0.94073349  0.18531113  1
  Zn  Zn146  1  0.93167750  0.94046589  0.68654346  1
  Zn  Zn147  1  0.08149391  0.03889884  0.35192213  1
  Zn  Zn148  1  0.06667289  0.06186992  0.80656209  1
  Zn  Zn149  1  0.06174475  0.56027274  0.31177531  1
  Zn  Zn150  1  0.06449240  0.56110604  0.81674985  1
  Zn  Zn151  1  0.56283131  0.06256862  0.31202855  1
  Zn  Zn152  1  0.55882660  0.06326881  0.81240645  1
  Zn  Zn153  1  0.55762058  0.55824342  0.31579064  1
  Zn  Zn154  1  0.56192826  0.56196755  0.81475847  1
  Zn  Zn155  1  0.44179114  0.19073201  0.43582356  1
  Zn  Zn156  1  0.43347342  0.18477165  0.93737315  1
  Zn  Zn157  1  0.43304195  0.68649122  0.43270714  1
  Zn  Zn158  1  0.44284257  0.68544902  0.93445429  1
  Zn  Zn159  1  0.93379703  0.18722802  0.43832111  1
  Zn  Zn160  1  0.93413478  0.18901680  0.93790663  1
  Zn  Zn161  1  0.94116233  0.69015672  0.43753374  1
  Zn  Zn162  1  0.93733257  0.68523884  0.94236950  1
  Zn  Zn163  1  0.05970514  0.31256622  0.06287416  1
  Zn  Zn164  1  0.06180852  0.31382987  0.56750747  1
  Zn  Zn165  1  0.06674071  0.81216363  0.06217953  1
  Zn  Zn166  1  0.06808740  0.81776007  0.56198773  1
  Zn  Zn167  1  0.56098869  0.31384184  0.06475908  1
  Zn  Zn168  1  0.56213320  0.31579855  0.56448820  1
  Zn  Zn169  1  0.56220938  0.81176438  0.06185442  1
  Zn  Zn170  1  0.56162445  0.81140868  0.56250358  1
  O  O171  1  0.11489913  0.11870810  0.12538473  1
  O  O172  1  0.10922828  0.12598755  0.62531383  1
  O  O173  1  0.11760661  0.61902555  0.11628049  1
  O  O174  1  0.12803415  0.61293010  0.62603510  1
  O  O175  1  0.61863296  0.11936197  0.11904779  1
  O  O176  1  0.61644186  0.12445584  0.61747126  1
  O  O177  1  0.62178921  0.61926644  0.11803394  1
  O  O178  1  0.63298293  0.62992530  0.61115386  1
  O  O179  1  0.38535306  0.37578881  0.37413871  1
  O  O180  1  0.37249296  0.38560954  0.88626633  1
  O  O181  1  0.38353773  0.87959646  0.38166472  1
  O  O182  1  0.37618643  0.88182404  0.88629032  1
  O  O183  1  0.88372855  0.38454142  0.37157048  1
  O  O184  1  0.87492911  0.37228580  0.88762215  1
  O  O185  1  0.87256108  0.87862122  0.38444183  1
  O  O186  1  0.87579819  0.88483962  0.88989122  1
  O  O187  1  0.25842650  0.00799929  0.36666379  1
  O  O188  1  0.26331598  0.00076280  0.86657196  1
  O  O189  1  0.24884793  0.49169150  0.35892516  1
  O  O190  1  0.25942369  0.49649982  0.86655324  1
  O  O191  1  0.75747552  -0.00692063  0.35942539  1
  O  O192  1  0.75404022  0.00618446  0.86982514  1
  O  O193  1  0.75793297  0.50500564  0.37658033  1
  O  O194  1  0.74628823  0.51311788  0.86569272  1
  O  O195  1  0.24356969  0.48666999  0.12779797  1
  O  O196  1  0.24094898  0.49261027  0.63340351  1
  O  O197  1  0.24058295  1.00198947  0.13411013  1
  O  O198  1  0.25727317  1.00045242  0.63671751  1
  O  O199  1  0.73534573  0.50276954  0.12515924  1
  O  O200  1  0.74460246  0.49294594  0.63320010  1
  O  O201  1  0.74491564  0.99410016  0.13227795  1
  O  O202  1  0.75084792  0.99286772  0.63470524  1
  O  O203  1  0.00442261  0.37177393  0.26054350  1
  O  O204  1  0.00726555  0.36810952  0.75238008  1
  O  O205  1  0.01123346  0.87428311  0.24587890  1
  O  O206  1  -0.00432955  0.88216343  0.75405040  1
  O  O207  1  0.51048039  0.37939247  0.26029956  1
  O  O208  1  0.50732226  0.36550462  0.74972772  1
  O  O209  1  0.50278960  0.87886567  0.26217215  1
  O  O210  1  0.51280567  0.86959437  0.74833856  1
  O  O211  1  0.49010681  0.11732855  0.24073218  1
  O  O212  1  0.48899181  0.13068562  0.74401307  1
  O  O213  1  0.50622105  0.62422288  0.23539462  1
  O  O214  1  0.49303604  0.63154234  0.75354735  1
  O  O215  1  0.98361052  0.13578561  0.23942071  1
  O  O216  1  0.99392629  0.13065132  0.73961982  1
  O  O217  1  0.99121524  0.61585034  0.23965939  1
  O  O218  1  0.98645165  0.61359410  0.75311579  1
  O  O219  1  0.36734479  0.25753568  0.00137889  1
  O  O220  1  0.37855595  0.25172111  0.51377296  1
  O  O221  1  0.37059680  0.75550558  -0.00457029  1
  O  O222  1  0.36579388  0.75548771  0.49839070  1
  O  O223  1  0.86602097  0.25876880  0.00697946  1
  O  O224  1  0.86618016  0.24740000  0.51244965  1
  O  O225  1  0.87664508  0.76604842  0.00283513  1
  O  O226  1  0.86912613  0.75472820  0.50799374  1
  O  O227  1  0.11984522  0.24504663  0.49022251  1
  O  O228  1  0.13814456  0.25075378  1.00329544  1
  O  O229  1  0.13515384  0.74611816  0.48997351  1
  O  O230  1  0.13124376  0.74342702  0.99285969  1
  O  O231  1  0.63202249  0.24249611  0.50161453  1
  O  O232  1  0.62950035  0.24821512  0.99569723  1
  O  O233  1  0.62935585  0.74287345  0.49213065  1
  O  O234  1  0.62051083  0.73983188  0.99250064  1
  O  O235  1  0.49808078  0.23329917  0.11823630  1
  O  O236  1  0.49231124  0.24637487  0.63614896  1
  O  O237  1  0.49935251  0.74106838  0.12647855  1
  O  O238  1  0.49847081  0.75241872  0.63936307  1
  O  O239  1  0.99051131  0.24831335  0.13300043  1
  O  O240  1  0.99035222  0.24863324  0.63406922  1
  O  O241  1  1.00050185  0.73605188  0.12167957  1
  O  O242  1  0.98729014  0.74778967  0.61554953  1
  O  O243  1  0.00394305  0.25663043  0.37225135  1
  O  O244  1  -0.00920163  0.25033933  0.85884855  1
  O  O245  1  0.01933366  0.75170928  0.37916738  1
  O  O246  1  0.01256659  0.74905910  0.88075208  1
  O  O247  1  0.50382288  0.26399174  0.37372308  1
  O  O248  1  0.50312197  0.24309358  0.86337827  1
  O  O249  1  0.50804449  0.75926974  0.37389821  1
  O  O250  1  0.51448222  0.74523471  0.86405309  1
  O  O251  1  0.25040508  0.12215330  0.48735199  1
  O  O252  1  0.25162554  0.14147000  1.00090763  1
  O  O253  1  0.24889413  0.63739271  0.49889942  1
  O  O254  1  0.24051301  0.63020973  1.00543462  1
  O  O255  1  0.73986366  0.13617520  0.50871459  1
  O  O256  1  0.74167998  0.13251407  0.99672546  1
  O  O257  1  0.74348637  0.63266993  0.49381887  1
  O  O258  1  0.73990897  0.61993414  0.99296052  1
  O  O259  1  0.25535599  0.36599642  0.00488619  1
  O  O260  1  0.24632415  0.37576527  0.51499554  1
  O  O261  1  0.25899836  0.86751312  -0.00014267  1
  O  O262  1  0.26165278  0.86320344  0.49213520  1
  O  O263  1  0.75478635  0.36819873  -0.00277323  1
  O  O264  1  0.73932025  0.36923104  0.51304016  1
  O  O265  1  0.75836626  0.88128191  0.01432603  1
  O  O266  1  0.75482935  0.86933862  0.51153644  1
  O  O267  1  0.13293064  0.49199647  0.24483498  1
  O  O268  1  0.13064709  0.49536102  0.74598179  1
  O  O269  1  0.13163104  0.99224509  0.24983032  1
  O  O270  1  0.14237010  0.99219066  0.75293652  1
  O  O271  1  0.62577262  0.49226524  0.24257500  1
  O  O272  1  0.63307570  0.49298712  0.75242751  1
  O  O273  1  0.63312049  0.99948420  0.24398277  1
  O  O274  1  0.62892814  0.99332801  0.75129995  1
  O  O275  1  0.36769600  0.00754831  0.25378491  1
  O  O276  1  0.37332766  0.00634268  0.75488692  1
  O  O277  1  0.35861270  0.49436170  0.24550246  1
  O  O278  1  0.36952127  0.50365571  0.75753904  1
  O  O279  1  0.86677328  0.00905598  0.25179490  1
  O  O280  1  0.86589843  0.00655914  0.76231426  1
  O  O281  1  0.87308584  0.50826598  0.26242797  1
  O  O282  1  0.86394322  0.50707584  0.74502703  1
  O  O283  1  0.11784281  0.36791661  0.37138869  1
  O  O284  1  0.12407962  0.37832828  0.86168698  1
  O  O285  1  0.12289017  0.86492233  0.36415327  1
  O  O286  1  0.12527948  0.86266552  0.87463491  1
  O  O287  1  0.61720307  0.37296335  0.36381001  1
  O  O288  1  0.63037799  0.36802262  0.86276898  1
  O  O289  1  0.61889628  0.86707582  0.37609684  1
  O  O290  1  0.63186993  0.86496659  0.86662355  1
  O  O291  1  0.38217203  0.12301140  0.13221599  1
  O  O292  1  0.38070294  0.13262863  0.63067243  1
  O  O293  1  0.38554060  0.62552851  0.12813843  1
  O  O294  1  0.37221362  0.62517287  0.63933517  1
  O  O295  1  0.87817647  0.13627129  0.12931019  1
  O  O296  1  0.88099606  0.13340209  0.63088548  1
  O  O297  1  0.88171147  0.62634540  0.13297376  1
  O  O298  1  0.86819718  0.63837944  0.63317718  1
  O  O299  1  0.25040291  0.26018144  0.11849004  1
  O  O300  1  0.25829493  0.25806830  0.63304850  1
  O  O301  1  0.25167928  0.75334084  0.10955800  1
  O  O302  1  0.25476135  0.74839430  0.60812508  1
  O  O303  1  0.75584142  0.24782309  0.11240414  1
  O  O304  1  0.75641561  0.25786539  0.61970701  1
  O  O305  1  0.75060646  0.76420796  0.13018000  1
  O  O306  1  0.75711328  0.75838251  0.62153129  1
  O  O307  1  0.24168857  0.24389985  0.37183426  1
  O  O308  1  0.25424400  0.25165887  0.88816410  1
  O  O309  1  0.23705622  0.75219447  0.38444091  1
  O  O310  1  0.23875549  0.75038674  0.88658213  1
  O  O311  1  0.74821858  0.25646954  0.39098260  1
  O  O312  1  0.74457926  0.24356768  0.88475096  1
  O  O313  1  0.74238254  0.74641565  0.38120322  1
  O  O314  1  0.73300504  0.73366999  0.86992651  1
  O  O315  1  -0.00220465  0.13619371  0.01626530  1
  O  O316  1  -0.00190417  0.13199233  0.51560640  1
  O  O317  1  0.00474222  0.61604439  0.00811614  1
  O  O318  1  0.00293951  0.61125422  0.49689522  1
  O  O319  1  0.50290754  0.11434215  0.00509618  1
  O  O320  1  0.50574925  0.12050067  0.50544253  1
  O  O321  1  0.50934432  0.61777618  0.00866756  1
  O  O322  1  0.51419771  0.62926251  0.49913944  1
  O  O323  1  0.50137438  0.37348212  0.48626876  1
  O  O324  1  0.49059380  0.38300619  1.00482924  1
  O  O325  1  0.49639870  0.87929783  0.48962338  1
  O  O326  1  0.49566366  0.88798575  1.00264471  1
  O  O327  1  1.00431737  0.38226659  0.48973898  1
  O  O328  1  0.99057043  0.37982691  0.99838836  1
  O  O329  1  0.98468073  0.87167075  0.49991444  1
  O  O330  1  0.98685596  0.87915288  1.01033360  1
  O  O331  1  0.50036919  0.48506803  0.38230940  1
  O  O332  1  0.49382300  0.50247092  0.88927143  1
  O  O333  1  0.49548149  0.99432911  0.38093925  1
  O  O334  1  0.48649932  1.00647996  0.88272918  1
  O  O335  1  0.99410965  0.49268473  0.38276276  1
  O  O336  1  1.00310832  0.49691885  0.89165603  1
  O  O337  1  0.97842926  0.98942323  0.36207853  1
  O  O338  1  0.98595750  1.00922926  0.87504555  1
  O  O339  1  0.00871575  0.01234027  0.13074802  1
  O  O340  1  -0.01098693  0.01582719  0.62178939  1
  O  O341  1  0.00635074  0.50435693  0.11659680  1
  O  O342  1  0.00750517  0.49081877  0.61554788  1
  O  O343  1  0.50664135  0.00760349  0.11690013  1
  O  O344  1  0.50182149  0.00825855  0.61810686  1
  O  O345  1  0.50835778  0.50586975  0.11542258  1
  O  O346  1  0.50935504  0.49246957  0.62049606  1
  O  O347  1  0.24441244  0.37955038  0.24110171  1
  O  O348  1  0.24333802  0.38420332  0.74339201  1
  O  O349  1  0.24585684  0.88796616  0.24819631  1
  O  O350  1  0.26318957  0.88513416  0.74856568  1
  O  O351  1  0.73278355  0.37922384  0.25368746  1
  O  O352  1  0.74466413  0.38276695  0.74634051  1
  O  O353  1  0.75063512  0.88371189  0.23697060  1
  O  O354  1  0.73810650  0.88049221  0.73839277  1
  O  O355  1  0.25722604  0.11649004  0.25536911  1
  O  O356  1  0.26148580  0.11766470  0.74713835  1
  O  O357  1  0.24760219  0.60590471  0.23839943  1
  O  O358  1  0.25581167  0.61349069  0.74752369  1
  O  O359  1  0.76057434  0.11795006  0.24353142  1
  O  O360  1  0.75363609  0.12168915  0.75498991  1
  O  O361  1  0.75752872  0.62086835  0.25802646  1
  O  O362  1  0.75693012  0.61782072  0.75737892  1
  O  O363  1  0.37089515  0.12301217  0.36861962  1
  O  O364  1  0.36930824  0.11800608  0.86567168  1
  O  O365  1  0.38517218  0.61728435  0.36215202  1
  O  O366  1  0.37863607  0.61264684  0.86755777  1
  O  O367  1  0.87624110  0.11781835  0.36570316  1
  O  O368  1  0.86771973  0.11665188  0.87346470  1
  O  O369  1  0.87150738  0.62041125  0.37046764  1
  O  O370  1  0.86687586  0.63381499  0.86683179  1
  O  O371  1  0.13094990  0.37892886  0.12988991  1
  O  O372  1  0.12980070  0.38226021  0.63545481  1
  O  O373  1  0.12742681  0.88377649  0.13131649  1
  O  O374  1  0.14109976  0.86414778  0.62640242  1
  O  O375  1  0.61682561  0.38203914  0.13866395  1
  O  O376  1  0.63489384  0.37072556  0.64029806  1
  O  O377  1  0.63480226  0.88000692  0.12463294  1
  O  O378  1  0.63212741  0.87643392  0.63059736  1
  O  O379  1  0.11823766  0.25743099  0.25540774  1
  O  O380  1  0.11544343  0.25928591  0.74397627  1
  O  O381  1  0.13511264  0.75755552  0.25800063  1
  O  O382  1  0.12892869  0.74868815  0.76684232  1
  O  O383  1  0.62841736  0.26212285  0.24888843  1
  O  O384  1  0.61639273  0.25516874  0.75481880  1
  O  O385  1  0.62379344  0.75223355  0.26293909  1
  O  O386  1  0.62018769  0.75570143  0.75524268  1
  O  O387  1  0.36966096  0.23634689  0.24505979  1
  O  O388  1  0.37958663  0.24412969  0.74672777  1
  O  O389  1  0.37555804  0.75228250  0.24383289  1
  O  O390  1  0.38313613  0.74052701  0.75311993  1
  O  O391  1  0.87349697  0.24724189  0.24448519  1
  O  O392  1  0.87743754  0.24387448  0.74100493  1
  O  O393  1  0.87285827  0.73716543  0.25004847  1
  O  O394  1  0.87949168  0.74227689  0.73820448  1
  O  O395  1  0.37371475  0.49301365  0.49887158  1
  O  O396  1  0.38037945  0.49505167  0.99492280  1
  O  O397  1  0.38054519  0.99231248  0.49286372  1
  O  O398  1  0.37926708  0.99512163  0.99258116  1
  O  O399  1  0.88007454  0.50486546  0.49005546  1
  O  O400  1  0.88210670  0.48986952  1.00900575  1
  O  O401  1  0.86317062  0.99094414  0.48945878  1
  O  O402  1  0.86992660  0.99381569  0.98935058  1
  O  O403  1  0.13262648  0.00241199  0.01219249  1
  O  O404  1  0.11439489  0.01193261  0.46015921  1
  O  O405  1  0.12033973  0.50534638  0.00457118  1
  O  O406  1  0.11732853  0.50267678  0.50847530  1
  O  O407  1  0.61750715  0.00362391  0.00122292  1
  O  O408  1  0.62206169  0.00738981  0.50131102  1
  O  O409  1  0.61853199  0.50420336  0.00533931  1
  O  O410  1  0.62714954  0.51823159  0.50044664  1
  O  O411  1  0.36799407  0.37420313  0.11412343  1
  O  O412  1  0.36367461  0.36588408  0.62823642  1
  O  O413  1  0.37439659  0.87679629  0.10982750  1
  O  O414  1  0.38475513  0.87227937  0.60892426  1
  O  O415  1  0.87808315  0.36502960  0.12134714  1
  O  O416  1  0.86204881  0.36679859  0.63118519  1
  O  O417  1  0.86673586  0.87594162  0.11651529  1
  O  O418  1  0.86737139  0.86537764  0.62058669  1
  O  O419  1  0.13806071  0.13959852  0.36412193  1
  O  O420  1  0.12873124  0.12316882  0.87622337  1
  O  O421  1  0.12450532  0.63643679  0.37145756  1
  O  O422  1  0.12185016  0.63201035  0.88758579  1
  O  O423  1  0.62013880  0.12777034  0.38791577  1
  O  O424  1  0.62801514  0.13170912  0.88017151  1
  O  O425  1  0.62866276  0.63213065  0.38196874  1
  O  O426  1  0.62878018  0.62853186  0.88494527  1
