# generated using pymatgen
data_V85Zn86O256
_symmetry_space_group_name_H-M   'P 1'
_cell_length_a   16.94258775
_cell_length_b   16.94565497
_cell_length_c   16.94008915
_cell_angle_alpha   90.04296263
_cell_angle_beta   90.11137119
_cell_angle_gamma   90.04213730
_symmetry_Int_Tables_number   1
_chemical_formula_structural   V85Zn86O256
_chemical_formula_sum   'V85 Zn86 O256'
_cell_volume   4863.54271006
_cell_formula_units_Z   1
loop_
 _symmetry_equiv_pos_site_id
 _symmetry_equiv_pos_as_xyz
  1  'x, y, z'
loop_
 _atom_site_type_symbol
 _atom_site_label
 _atom_site_symmetry_multiplicity
 _atom_site_fract_x
 _atom_site_fract_y
 _atom_site_fract_z
 _atom_site_occupancy
  V  V0  1  0.87696683  -0.00359933  0.87528324  1
  V  V1  1  0.62207092  -0.00303574  0.62535949  1
  V  V2  1  0.62636159  0.61754556  0.00001928  1
  V  V3  1  0.25001955  -0.00849859  0.75094490  1
  V  V4  1  0.87429419  0.62535509  0.24976405  1
  V  V5  1  0.62181598  0.88079843  0.24504296  1
  V  V6  1  0.00053974  0.62757903  0.12394193  1
  V  V7  1  0.61848767  0.12873736  0.49612186  1
  V  V8  1  0.50281121  0.87487531  0.87357478  1
  V  V9  1  0.25268752  0.12157195  0.88038029  1
  V  V10  1  0.75371220  0.00151769  0.75080956  1
  V  V11  1  0.87550156  0.12454095  0.25380582  1
  V  V12  1  0.12493595  0.38020988  0.25045240  1
  V  V13  1  0.62133759  0.62263834  0.50053529  1
  V  V14  1  -0.00801530  0.88305999  0.38829785  1
  V  V15  1  0.12369407  0.12311570  0.00605946  1
  V  V16  1  0.26333853  0.50620473  0.74182559  1
  V  V17  1  0.50589812  -0.00312399  0.01330788  1
  V  V18  1  0.75226187  0.75514412  -0.00097653  1
  V  V19  1  0.00561405  0.25375921  0.25150034  1
  V  V20  1  0.74428335  0.49584947  0.24479001  1
  V  V21  1  0.12756843  0.86834569  0.75098621  1
  V  V22  1  0.00085377  0.74931628  0.75108079  1
  V  V23  1  -0.00128582  0.23608053  0.74923432  1
  V  V24  1  0.74806247  0.88524519  0.12327406  1
  V  V25  1  0.38048771  0.37730355  -0.00479802  1
  V  V26  1  0.12696118  0.25101608  0.87798719  1
  V  V27  1  0.37589971  0.12255659  0.75409743  1
  V  V28  1  0.12447430  0.50447790  0.12099303  1
  V  V29  1  0.74889065  0.62593117  0.87374769  1
  V  V30  1  0.25300044  0.50258675  0.24998792  1
  V  V31  1  -0.00258428  -0.00197376  0.00420747  1
  V  V32  1  0.37612836  -0.00182502  0.87721712  1
  V  V33  1  0.36771728  -0.00338139  0.36483916  1
  V  V34  1  0.75030981  0.62678953  0.37471211  1
  V  V35  1  0.74686086  0.48246107  0.74684254  1
  V  V36  1  0.25756953  0.38154761  0.12111684  1
  V  V37  1  0.87527721  0.75703123  0.62083392  1
  V  V38  1  0.60567750  0.36989810  0.24891135  1
  V  V39  1  0.24692413  0.75319560  0.50586815  1
  V  V40  1  0.63025867  0.48598220  0.62148980  1
  V  V41  1  0.24536551  0.11768749  0.36602290  1
  V  V42  1  0.61967833  0.75039432  0.36925332  1
  V  V43  1  0.49934631  0.14157772  0.13101348  1
  V  V44  1  0.75195649  0.76127622  0.49711089  1
  V  V45  1  0.74655310  0.24906545  0.00243012  1
  V  V46  1  0.00226307  0.50118954  -0.00319882  1
  V  V47  1  0.75313196  0.12408006  0.87469494  1
  V  V48  1  0.13673972  0.25357060  0.38384676  1
  V  V49  1  0.00190410  0.86904884  0.88295324  1
  V  V50  1  0.37270185  0.87498974  0.50445146  1
  V  V51  1  0.12750304  -0.00264232  0.62287959  1
  V  V52  1  0.87409451  0.49965614  0.87399271  1
  V  V53  1  0.50208282  0.74369694  0.74850122  1
  V  V54  1  0.35682938  0.24373178  0.62059066  1
  V  V55  1  0.87603064  0.25573345  0.62790349  1
  V  V56  1  0.13250216  0.12756842  0.50768621  1
  V  V57  1  0.36919839  0.86674495  -0.00127901  1
  V  V58  1  0.13105772  0.37851664  0.74402922  1
  V  V59  1  0.00196206  0.37366177  0.87441802  1
  V  V60  1  0.87491742  0.25331611  0.12840131  1
  V  V61  1  0.24790871  0.62938924  0.87733414  1
  V  V62  1  0.37426904  0.74476741  0.62622536  1
  V  V63  1  0.87373145  0.75939538  0.12457401  1
  V  V64  1  0.74531713  0.13329804  0.37267540  1
  V  V65  1  0.50790676  0.62887902  0.12728343  1
  V  V66  1  0.00452910  0.38045047  0.38766230  1
  V  V67  1  0.50625338  0.37555229  0.86043003  1
  V  V68  1  0.39381668  0.50112310  0.37882588  1
  V  V69  1  0.87178260  0.62460913  0.74581573  1
  V  V70  1  0.87934588  0.50223395  0.38062188  1
  V  V71  1  0.12660842  0.88407279  0.25428891  1
  V  V72  1  0.25576787  0.25141706  0.00755807  1
  V  V73  1  -0.04610584  0.06686063  0.56445364  1
  V  V74  1  0.24539224  0.86641931  0.12170343  1
  V  V75  1  0.87561135  0.37482887  0.00110803  1
  V  V76  1  0.12083996  0.61174215  0.50336243  1
  V  V77  1  0.25026240  0.62726316  0.37304122  1
  V  V78  1  0.12144885  0.75293501  0.37657181  1
  V  V79  1  0.13310662  0.00436774  0.12775385  1
  V  V80  1  0.86641103  0.38023791  0.50522335  1
  V  V81  1  0.37758363  0.63711134  0.24633368  1
  V  V82  1  0.49961674  0.61872624  0.62448075  1
  V  V83  1  0.49660595  0.87152532  0.36882579  1
  V  V84  1  0.49885350  0.12425971  0.62794767  1
  Zn  Zn85  1  0.50426300  0.49903206  -0.00087167  1
  Zn  Zn86  1  -0.00198331  0.61308905  0.61371575  1
  Zn  Zn87  1  0.74108471  0.25904349  0.50753397  1
  Zn  Zn88  1  0.49710480  -0.00250363  0.49723033  1
  Zn  Zn89  1  0.12011279  0.63901312  -0.01836388  1
  Zn  Zn90  1  0.62566236  0.74806882  0.87265957  1
  Zn  Zn91  1  0.37546106  0.36380741  0.48329557  1
  Zn  Zn92  1  0.62669373  0.87322666  0.74760147  1
  Zn  Zn93  1  0.60216487  0.25788499  0.37509706  1
  Zn  Zn94  1  0.37537896  0.75056336  0.12218962  1
  Zn  Zn95  1  -0.00318302  0.75425200  0.25260458  1
  Zn  Zn96  1  0.37748803  0.13028393  0.24578797  1
  Zn  Zn97  1  0.74778392  0.00383139  0.25085678  1
  Zn  Zn98  1  0.50771594  0.24998027  0.74785677  1
  Zn  Zn99  1  0.74206286  0.37968755  0.12313275  1
  Zn  Zn100  1  0.24520325  0.37936453  0.61334976  1
  Zn  Zn101  1  0.62794333  0.11808128  0.00670256  1
  Zn  Zn102  1  0.62854172  0.25171717  0.86952788  1
  Zn  Zn103  1  0.00196807  0.12611203  0.12907135  1
  Zn  Zn104  1  0.38015801  0.50547445  0.86730139  1
  Zn  Zn105  1  0.87432041  0.00224913  0.38915406  1
  Zn  Zn106  1  0.75399676  0.87900667  0.62118367  1
  Zn  Zn107  1  0.24242436  0.23763087  0.22833707  1
  Zn  Zn108  1  0.18077846  0.17695994  0.69452578  1
  Zn  Zn109  1  0.18378642  0.69080820  0.18807614  1
  Zn  Zn110  1  0.18765973  0.68344770  0.68742621  1
  Zn  Zn111  1  0.68111571  0.18985776  0.18658519  1
  Zn  Zn112  1  0.68931682  0.18875764  0.68988600  1
  Zn  Zn113  1  0.68782448  0.69189986  0.18764642  1
  Zn  Zn114  1  0.68769832  0.68802503  0.68458185  1
  Zn  Zn115  1  0.42351940  0.30650087  0.30492637  1
  Zn  Zn116  1  0.31606546  0.31167137  0.81171970  1
  Zn  Zn117  1  0.30588914  0.81495873  0.31171575  1
  Zn  Zn118  1  0.31794838  0.80802279  0.80850384  1
  Zn  Zn119  1  0.81181262  0.31385778  0.31648074  1
  Zn  Zn120  1  0.81561760  0.30737700  0.81323774  1
  Zn  Zn121  1  0.81141072  0.81614384  0.31053314  1
  Zn  Zn122  1  0.81380850  0.81659378  0.81221922  1
  Zn  Zn123  1  0.19978999  0.43562607  0.43735103  1
  Zn  Zn124  1  0.19075987  0.44495859  0.93125633  1
  Zn  Zn125  1  0.18631519  0.93746415  0.44275187  1
  Zn  Zn126  1  0.18751745  0.81109364  0.93394028  1
  Zn  Zn127  1  0.68395127  0.43950667  0.43162577  1
  Zn  Zn128  1  0.68797407  0.43670295  0.93515283  1
  Zn  Zn129  1  0.68578757  0.94327232  0.43332830  1
  Zn  Zn130  1  0.68635339  0.93524922  0.93763829  1
  Zn  Zn131  1  0.31640866  0.05806582  0.06492823  1
  Zn  Zn132  1  0.30880335  0.05814871  0.56222277  1
  Zn  Zn133  1  0.31574716  0.56597919  0.05575996  1
  Zn  Zn134  1  0.30886713  0.56296709  0.56102771  1
  Zn  Zn135  1  0.81739107  0.06581189  0.06305073  1
  Zn  Zn136  1  0.79365574  0.07444346  0.56696910  1
  Zn  Zn137  1  0.81438287  0.56581497  0.06196029  1
  Zn  Zn138  1  0.80726843  0.56621767  0.56193748  1
  Zn  Zn139  1  0.43613461  0.45108740  0.18166178  1
  Zn  Zn140  1  0.44612182  0.42135844  0.65427081  1
  Zn  Zn141  1  0.43372475  0.93438497  0.18836590  1
  Zn  Zn142  1  0.43779668  0.93414963  0.68721379  1
  Zn  Zn143  1  0.93652480  0.43950023  0.19102942  1
  Zn  Zn144  1  0.94350244  0.43698641  0.68793326  1
  Zn  Zn145  1  0.94134464  0.93938194  0.19231304  1
  Zn  Zn146  1  0.93541785  0.93344978  0.69494172  1
  Zn  Zn147  1  0.06078203  0.06381347  0.31631294  1
  Zn  Zn148  1  0.06750484  0.05685751  0.81847444  1
  Zn  Zn149  1  0.06208654  0.56525839  0.31303631  1
  Zn  Zn150  1  0.05818527  0.55586198  0.78887477  1
  Zn  Zn151  1  0.55756107  0.06099689  0.31044014  1
  Zn  Zn152  1  0.56755736  0.06322962  0.81592526  1
  Zn  Zn153  1  0.56602172  0.56551468  0.30455328  1
  Zn  Zn154  1  0.56429928  0.55871354  0.80807472  1
  Zn  Zn155  1  0.43071712  0.18121580  0.43800767  1
  Zn  Zn156  1  0.44189480  0.19021494  0.94207498  1
  Zn  Zn157  1  0.43771728  0.68537116  0.43775773  1
  Zn  Zn158  1  0.43528499  0.68378064  0.93344669  1
  Zn  Zn159  1  0.93653853  0.19837624  0.43438581  1
  Zn  Zn160  1  0.93588365  0.18493520  0.93740735  1
  Zn  Zn161  1  0.93939460  0.69032015  0.43851642  1
  Zn  Zn162  1  0.93464688  0.68846202  0.93857436  1
  Zn  Zn163  1  0.06549399  0.31412846  0.06469608  1
  Zn  Zn164  1  0.05815373  0.30915428  0.56541120  1
  Zn  Zn165  1  0.06022410  0.81423738  0.06596874  1
  Zn  Zn166  1  0.06175810  0.81069850  0.56731225  1
  Zn  Zn167  1  0.56443977  0.31678531  0.06389135  1
  Zn  Zn168  1  0.54637618  0.31057632  0.55197996  1
  Zn  Zn169  1  0.56455664  0.80736036  0.06121585  1
  Zn  Zn170  1  0.56087102  0.81073494  0.55740212  1
  O  O171  1  0.12431326  0.12005906  0.11413153  1
  O  O172  1  0.12046004  0.11436257  0.61915746  1
  O  O173  1  0.11067782  0.62382934  0.12605031  1
  O  O174  1  0.12518348  0.62919147  0.60545039  1
  O  O175  1  0.60867093  0.12759098  0.12222617  1
  O  O176  1  0.61700466  0.11619723  0.61804843  1
  O  O177  1  0.61595805  0.63161646  0.11900392  1
  O  O178  1  0.62016725  0.62335558  0.61484302  1
  O  O179  1  0.37899092  0.39806308  0.36835314  1
  O  O180  1  0.38696507  0.37600970  0.87975357  1
  O  O181  1  0.37825352  0.87698415  0.38037791  1
  O  O182  1  0.38437166  0.87758555  0.87938316  1
  O  O183  1  0.88360018  0.38331007  0.38271162  1
  O  O184  1  0.88126074  0.37970833  0.88134103  1
  O  O185  1  0.88717820  0.87954777  0.37187405  1
  O  O186  1  0.88386447  0.88808219  0.87440858  1
  O  O187  1  0.25490266  0.00431045  0.37958609  1
  O  O188  1  0.26151060  0.00697726  0.86722439  1
  O  O189  1  0.24915890  0.50921654  0.35906091  1
  O  O190  1  0.25754704  0.50642864  0.86089527  1
  O  O191  1  0.75561841  0.01556277  0.37548086  1
  O  O192  1  0.75758735  0.00164479  0.87219342  1
  O  O193  1  0.75775410  0.50765573  0.36497167  1
  O  O194  1  0.75394289  0.50501717  0.86566699  1
  O  O195  1  0.24604719  0.50117944  0.13007292  1
  O  O196  1  0.25025878  0.49821602  0.63652171  1
  O  O197  1  0.23663292  0.99033114  0.11778652  1
  O  O198  1  0.24045359  1.00203325  0.63821128  1
  O  O199  1  0.76011121  0.50092374  0.14144660  1
  O  O200  1  0.73928066  0.50276417  0.63216337  1
  O  O201  1  0.75640366  0.98824135  0.12400450  1
  O  O202  1  0.74121742  0.99926886  0.63320663  1
  O  O203  1  0.00707413  0.37351439  0.25848833  1
  O  O204  1  0.01485469  0.36418068  0.75814013  1
  O  O205  1  0.01115911  0.87380377  0.25942956  1
  O  O206  1  0.00467102  0.86452038  0.75826332  1
  O  O207  1  0.50238427  0.37831043  0.24351286  1
  O  O208  1  0.49469167  0.37313018  0.75865011  1
  O  O209  1  0.50462299  0.87479415  0.25984309  1
  O  O210  1  0.50097590  0.86565184  0.75723593  1
  O  O211  1  0.49903709  0.12533970  0.23635215  1
  O  O212  1  0.49120889  0.11796917  0.74473496  1
  O  O213  1  0.49453829  0.62564269  0.23619106  1
  O  O214  1  0.50466845  0.63653842  0.74226190  1
  O  O215  1  0.99306515  0.13586836  0.25270754  1
  O  O216  1  1.00945196  0.13748534  0.76110188  1
  O  O217  1  0.99264101  0.62835725  0.24195000  1
  O  O218  1  0.98325826  0.64465069  0.77115393  1
  O  O219  1  0.36519095  0.26244116  -0.00427694  1
  O  O220  1  0.37036574  0.24184238  0.51867592  1
  O  O221  1  0.37976241  0.76376709  -0.00166141  1
  O  O222  1  0.36735831  0.75389859  0.50556303  1
  O  O223  1  0.86810763  0.25357522  0.00864527  1
  O  O224  1  0.87577258  0.26326009  0.50849934  1
  O  O225  1  0.86193264  0.74560212  0.01044533  1
  O  O226  1  0.86413381  0.74190342  0.50819301  1
  O  O227  1  0.11760332  0.24008279  0.49523990  1
  O  O228  1  0.12980376  0.24535424  0.99232130  1
  O  O229  1  0.13068271  0.75008976  0.49196091  1
  O  O230  1  0.11787320  0.75067636  0.99652335  1
  O  O231  1  0.62151007  0.24413659  0.49861098  1
  O  O232  1  0.63981682  0.25210542  0.99849817  1
  O  O233  1  0.63248165  0.74489353  0.48936584  1
  O  O234  1  0.63763574  0.73961709  0.99711125  1
  O  O235  1  0.49553612  0.23952641  0.11674958  1
  O  O236  1  0.48773289  0.23245793  0.62969315  1
  O  O237  1  0.49490789  0.73529888  0.11862121  1
  O  O238  1  0.49666504  0.74169204  0.62876036  1
  O  O239  1  0.99450471  0.25149551  0.13316417  1
  O  O240  1  0.98950142  0.24907728  0.63609276  1
  O  O241  1  0.99011409  0.74523480  0.12881581  1
  O  O242  1  0.99182992  0.74290279  0.63375824  1
  O  O243  1  0.00910028  0.26278637  0.36962964  1
  O  O244  1  0.00738923  0.25490078  0.87394397  1
  O  O245  1  0.00587735  0.76102306  0.37412959  1
  O  O246  1  -0.01113633  0.76430549  0.87102615  1
  O  O247  1  0.48849886  0.25939924  0.38512293  1
  O  O248  1  0.50180669  0.26283970  0.87420399  1
  O  O249  1  0.50866631  0.75708337  0.37836428  1
  O  O250  1  0.49937742  0.75553342  0.86480865  1
  O  O251  1  0.23561043  0.11848097  0.49322632  1
  O  O252  1  0.24650701  0.13284162  1.00061749  1
  O  O253  1  0.24019064  0.63505857  0.49283245  1
  O  O254  1  0.24276952  0.61981815  0.98282297  1
  O  O255  1  0.73248928  0.13242969  0.49264443  1
  O  O256  1  0.74957419  0.13236000  0.99696975  1
  O  O257  1  0.73912287  0.63450606  0.49300686  1
  O  O258  1  0.74560024  0.63098511  0.99482856  1
  O  O259  1  0.25510872  0.37126701  0.00224889  1
  O  O260  1  0.26302768  0.37551205  0.50282134  1
  O  O261  1  0.25715338  0.87425207  0.00598119  1
  O  O262  1  0.25684628  0.86125426  0.49696200  1
  O  O263  1  0.75771306  0.36938125  0.00222511  1
  O  O264  1  0.76254815  0.37568217  0.49270171  1
  O  O265  1  0.74504476  0.86625561  0.00857454  1
  O  O266  1  0.74571010  0.86486569  0.49764326  1
  O  O267  1  0.13219912  0.50045607  0.24268921  1
  O  O268  1  0.14164120  0.48035424  0.75753527  1
  O  O269  1  0.11776026  0.99564360  0.24052915  1
  O  O270  1  0.13200276  0.99260019  0.74534435  1
  O  O271  1  0.63859712  0.49208145  0.25174470  1
  O  O272  1  0.63690635  0.50472601  0.73476627  1
  O  O273  1  0.62768303  0.98485192  0.25710289  1
  O  O274  1  0.63060752  0.99745879  0.74132139  1
  O  O275  1  0.37345116  -0.00045679  0.26210003  1
  O  O276  1  0.36882894  0.00371482  0.75319763  1
  O  O277  1  0.36869767  0.51412987  0.25620591  1
  O  O278  1  0.36307625  0.48981867  0.74429441  1
  O  O279  1  0.87508229  0.01767567  0.24881908  1
  O  O280  1  0.86729986  -0.00143686  0.76066454  1
  O  O281  1  0.86783914  0.50584486  0.26040416  1
  O  O282  1  0.86359097  0.50783346  0.75419706  1
  O  O283  1  0.12052921  0.37190542  0.37457177  1
  O  O284  1  0.12325262  0.36597944  0.87117914  1
  O  O285  1  0.11797649  0.87221653  0.37169412  1
  O  O286  1  0.11558798  0.87406599  0.86103353  1
  O  O287  1  0.62589912  0.37731017  0.35557204  1
  O  O288  1  0.61010440  0.37434678  0.87821534  1
  O  O289  1  0.61546399  0.86949361  0.37109520  1
  O  O290  1  0.61233522  0.87125757  0.87371867  1
  O  O291  1  0.39350870  0.11358080  0.12638959  1
  O  O292  1  0.37892764  0.12370537  0.63374381  1
  O  O293  1  0.38069824  0.62953731  0.12949155  1
  O  O294  1  0.38757908  0.63229828  0.61480840  1
  O  O295  1  0.87812245  0.13866958  0.13331981  1
  O  O296  1  0.88929223  0.12814770  0.61562340  1
  O  O297  1  0.88418440  0.63366990  0.12869689  1
  O  O298  1  0.87607555  0.63235498  0.63249818  1
  O  O299  1  0.23984285  0.26592120  0.11193627  1
  O  O300  1  0.25652198  0.23206885  0.62875447  1
  O  O301  1  0.24893329  0.76254621  0.12639952  1
  O  O302  1  0.26024053  0.74317622  0.61727976  1
  O  O303  1  0.75820609  0.25296369  0.11947061  1
  O  O304  1  0.77050790  0.23674426  0.62397095  1
  O  O305  1  0.75658216  0.75801513  0.11907883  1
  O  O306  1  0.75607915  0.75326367  0.61500292  1
  O  O307  1  0.23658027  0.23857034  0.37837054  1
  O  O308  1  0.24399095  0.24419344  0.88546191  1
  O  O309  1  0.24115109  0.74597199  0.38223016  1
  O  O310  1  0.24955281  0.73693060  0.86564836  1
  O  O311  1  0.74850683  0.24018737  0.37906465  1
  O  O312  1  0.75452576  0.24026138  0.88421703  1
  O  O313  1  0.74531607  0.74596023  0.37986025  1
  O  O314  1  0.75161067  0.74631330  0.88242635  1
  O  O315  1  0.00871279  0.12100990  0.00211459  1
  O  O316  1  0.00754904  0.12296936  0.49623156  1
  O  O317  1  -0.00038846  0.61893978  0.00595273  1
  O  O318  1  0.01493149  0.62542566  0.49707915  1
  O  O319  1  0.50000404  0.11087031  0.00750780  1
  O  O320  1  0.50559355  0.11966119  0.50807322  1
  O  O321  1  0.51040557  0.62513967  0.00347325  1
  O  O322  1  0.51386364  0.63100537  0.50750497  1
  O  O323  1  0.46895066  0.38730997  0.54398517  1
  O  O324  1  0.49384373  0.37779796  0.99441158  1
  O  O325  1  0.49084095  0.87395019  0.48716690  1
  O  O326  1  0.49602903  0.88090421  0.99397461  1
  O  O327  1  0.99362235  0.37614024  0.49148033  1
  O  O328  1  0.99572328  0.38025940  0.99465580  1
  O  O329  1  1.00312907  0.87138295  0.48665958  1
  O  O330  1  1.00318239  0.88565019  0.99314366  1
  O  O331  1  0.49267731  0.51201578  0.37379760  1
  O  O332  1  0.49936711  0.48963471  0.87453640  1
  O  O333  1  0.48884615  0.99063229  0.37681381  1
  O  O334  1  0.49510258  0.99141467  0.88015187  1
  O  O335  1  0.99068360  0.49262257  0.36879622  1
  O  O336  1  0.99410843  0.49333012  0.87637560  1
  O  O337  1  0.99599863  0.98786281  0.37640271  1
  O  O338  1  0.99533185  0.99210912  0.88196184  1
  O  O339  1  0.00776896  0.00231209  0.11934084  1
  O  O340  1  0.00426817  0.00252237  0.62936763  1
  O  O341  1  0.00127231  0.50911533  0.11911739  1
  O  O342  1  0.00971389  0.52455527  0.68074808  1
  O  O343  1  0.50079930  -0.00733486  0.11354097  1
  O  O344  1  0.50431937  0.00751971  0.62351765  1
  O  O345  1  0.49628923  0.52200202  0.11614186  1
  O  O346  1  0.51648759  0.51398311  0.63597676  1
  O  O347  1  0.24296368  0.38847877  0.23680052  1
  O  O348  1  0.23996446  0.37671870  0.75276433  1
  O  O349  1  0.23449264  0.87459987  0.24285298  1
  O  O350  1  0.24356406  0.88318380  0.75654854  1
  O  O351  1  0.75442529  0.38917907  0.24897857  1
  O  O352  1  0.75350011  0.38380614  0.75407101  1
  O  O353  1  0.74206643  0.87955258  0.24202331  1
  O  O354  1  0.74672062  0.88690741  0.74756134  1
  O  O355  1  0.24167903  0.12183339  0.26475011  1
  O  O356  1  0.25515971  0.11279225  0.75988911  1
  O  O357  1  0.25590021  0.62135510  0.25101352  1
  O  O358  1  0.25006083  0.61088187  0.75197506  1
  O  O359  1  0.75483140  0.12693183  0.25569115  1
  O  O360  1  0.74776568  0.11028538  0.75995211  1
  O  O361  1  0.75321717  0.61661216  0.25404558  1
  O  O362  1  0.76024648  0.62526159  0.75429412  1
  O  O363  1  0.36229583  0.11170864  0.37621228  1
  O  O364  1  0.37447462  0.11889713  0.87170654  1
  O  O365  1  0.37002329  0.62307750  0.36482773  1
  O  O366  1  0.35926838  0.62184868  0.87505651  1
  O  O367  1  0.86767967  0.12778513  0.36958254  1
  O  O368  1  0.86340357  0.11298861  0.88098121  1
  O  O369  1  0.87234332  0.61955854  0.37076190  1
  O  O370  1  0.86642387  0.61832667  0.87056018  1
  O  O371  1  0.13321431  0.38678198  0.12679640  1
  O  O372  1  0.12828793  0.36397998  0.64060090  1
  O  O373  1  0.12779344  0.88335382  0.13384730  1
  O  O374  1  0.11737325  0.88304773  0.63959783  1
  O  O375  1  0.62654791  0.37627204  0.14194687  1
  O  O376  1  0.62294026  0.38833357  0.61578695  1
  O  O377  1  0.63384039  0.86629333  0.13453258  1
  O  O378  1  0.62319434  0.88785445  0.62110648  1
  O  O379  1  0.12832078  0.26379794  0.26110848  1
  O  O380  1  0.12380838  0.25378564  0.76370118  1
  O  O381  1  0.12318383  0.75767859  0.26424958  1
  O  O382  1  0.11443857  0.75546598  0.74254242  1
  O  O383  1  0.62494967  0.26712367  0.25415453  1
  O  O384  1  0.62086629  0.24193394  0.75590638  1
  O  O385  1  0.63186585  0.76018245  0.26360458  1
  O  O386  1  0.61741142  0.75370082  0.74983416  1
  O  O387  1  0.35322968  0.24223290  0.24857974  1
  O  O388  1  0.37481180  0.22987417  0.74973447  1
  O  O389  1  0.36912300  0.74021328  0.24901062  1
  O  O390  1  0.38486145  0.75467885  0.73278267  1
  O  O391  1  0.88037648  0.24535380  0.24574434  1
  O  O392  1  0.88747511  0.25361942  0.74336753  1
  O  O393  1  0.87250333  0.74220246  0.24246419  1
  O  O394  1  0.87726688  0.74503289  0.74178450  1
  O  O395  1  0.36945821  0.51316851  0.47714565  1
  O  O396  1  0.37506612  0.48749671  0.99352475  1
  O  O397  1  0.37318243  0.98827854  0.49391192  1
  O  O398  1  0.38493938  0.98785469  0.99517105  1
  O  O399  1  0.87038162  0.49840607  0.48955455  1
  O  O400  1  0.88116826  0.49510792  0.99491814  1
  O  O401  1  0.88368962  1.01355735  0.51148470  1
  O  O402  1  0.88980453  1.00625239  0.99519715  1
  O  O403  1  0.11277330  0.01066915  0.00840905  1
  O  O404  1  0.12585603  0.00325404  0.51628076  1
  O  O405  1  0.11642732  0.50245222  0.00376577  1
  O  O406  1  0.13020457  0.51389737  0.49132469  1
  O  O407  1  0.60904355  -0.00272991  -0.00296326  1
  O  O408  1  0.62222286  0.00932402  0.50682441  1
  O  O409  1  0.63007169  0.51362502  -0.00039634  1
  O  O410  1  0.63326865  0.50935260  0.51068437  1
  O  O411  1  0.36266270  0.38491137  0.11676933  1
  O  O412  1  0.35739311  0.34469450  0.64919934  1
  O  O413  1  0.36326254  0.87438890  0.11786185  1
  O  O414  1  0.38292236  0.86543740  0.61033119  1
  O  O415  1  0.87597399  0.36511171  0.12175531  1
  O  O416  1  0.88240395  0.37113065  0.61662716  1
  O  O417  1  0.86895419  0.86490354  0.13422067  1
  O  O418  1  0.87464649  0.86167902  0.62732064  1
  O  O419  1  0.12738006  0.13069784  0.38469150  1
  O  O420  1  0.13209715  0.12979563  0.88793162  1
  O  O421  1  0.12834301  0.63567346  0.38083576  1
  O  O422  1  0.14152125  0.61435269  0.86531004  1
  O  O423  1  0.62620402  0.12870698  0.38038702  1
  O  O424  1  0.64021070  0.12274650  0.88437339  1
  O  O425  1  0.62867852  0.63260727  0.37830525  1
  O  O426  1  0.63212644  0.62626255  0.88082322  1
