# generated using pymatgen
data_V85Zn86O256
_symmetry_space_group_name_H-M   'P 1'
_cell_length_a   16.94913712
_cell_length_b   16.94560380
_cell_length_c   16.95115658
_cell_angle_alpha   90.04857136
_cell_angle_beta   90.03400476
_cell_angle_gamma   90.01343294
_symmetry_Int_Tables_number   1
_chemical_formula_structural   V85Zn86O256
_chemical_formula_sum   'V85 Zn86 O256'
_cell_volume   4868.59593683
_cell_formula_units_Z   1
loop_
 _symmetry_equiv_pos_site_id
 _symmetry_equiv_pos_as_xyz
  1  'x, y, z'
loop_
 _atom_site_type_symbol
 _atom_site_label
 _atom_site_symmetry_multiplicity
 _atom_site_fract_x
 _atom_site_fract_y
 _atom_site_fract_z
 _atom_site_occupancy
  V  V0  1  0.74993908  0.25009788  -0.00331036  1
  V  V1  1  -0.00003948  0.86838482  0.86950367  1
  V  V2  1  0.12487170  0.62242579  0.00483599  1
  V  V3  1  0.37514242  0.87626066  0.49506776  1
  V  V4  1  0.87749041  0.49709029  0.86932618  1
  V  V5  1  0.37505971  0.75185010  0.62520994  1
  V  V6  1  0.00401782  0.49619706  0.00159559  1
  V  V7  1  -0.00047955  -0.01179692  0.49598719  1
  V  V8  1  0.12084859  0.39360871  0.24334369  1
  V  V9  1  -0.00273404  0.25024292  0.75083871  1
  V  V10  1  0.37505282  0.62656335  0.75371268  1
  V  V11  1  -0.00004345  0.25369376  0.24913839  1
  V  V12  1  0.87567120  0.62791493  0.25074914  1
  V  V13  1  0.86958652  0.12224799  0.24887867  1
  V  V14  1  0.50092312  0.12713232  0.62655317  1
  V  V15  1  0.11989079  0.37433850  0.74874092  1
  V  V16  1  0.50519994  0.49788399  0.01027933  1
  V  V17  1  0.12369424  0.74886846  0.87406484  1
  V  V18  1  0.24823712  0.49771307  0.75154023  1
  V  V19  1  0.87889428  0.37548470  -0.00583840  1
  V  V20  1  0.62644052  0.74710995  0.87432154  1
  V  V21  1  0.87605090  0.87193109  -0.00023784  1
  V  V22  1  0.50484125  0.74943848  0.25346304  1
  V  V23  1  0.37630281  0.74519231  0.12789816  1
  V  V24  1  0.62891400  0.87356632  0.24828843  1
  V  V25  1  0.63496324  0.13104348  0.50211741  1
  V  V26  1  0.86591210  0.37337146  0.49927161  1
  V  V27  1  0.50200257  0.00521308  0.00066380  1
  V  V28  1  0.24796058  0.12649659  0.87425366  1
  V  V29  1  0.00069760  0.12391012  0.62263691  1
  V  V30  1  0.75115949  0.74771636  0.00112096  1
  V  V31  1  0.37419560  0.87422031  0.00225782  1
  V  V32  1  0.12476709  0.12950279  0.49105017  1
  V  V33  1  0.36758151  0.62101937  0.26447172  1
  V  V34  1  -0.00479057  0.51298741  0.50279567  1
  V  V35  1  0.88096573  0.74601570  0.62418245  1
  V  V36  1  0.87478774  0.25287044  0.12213948  1
  V  V37  1  0.56567910  0.05955857  0.16987239  1
  V  V38  1  0.87288180  -0.00341335  0.37250923  1
  V  V39  1  0.00178580  -0.00260920  -0.00159325  1
  V  V40  1  0.63005321  0.61955881  0.01025265  1
  V  V41  1  0.49552375  0.48649920  0.49843194  1
  V  V42  1  0.18188898  0.57113425  0.44419988  1
  V  V43  1  0.24509424  0.38858131  0.12736536  1
  V  V44  1  0.00132808  0.12348952  0.12405951  1
  V  V45  1  0.89487421  0.62665180  0.74481853  1
  V  V46  1  0.25180230  0.36945897  0.61778369  1
  V  V47  1  0.62225874  0.26108403  0.37504972  1
  V  V48  1  0.75142947  0.62031092  0.86324847  1
  V  V49  1  0.12123598  0.25394549  0.87507189  1
  V  V50  1  0.24913231  0.00890988  0.25357031  1
  V  V51  1  0.50089890  0.87372194  0.87507741  1
  V  V52  1  0.24990770  0.75022316  0.00254090  1
  V  V53  1  0.50211964  -0.00024533  0.50169144  1
  V  V54  1  0.86571990  0.50004811  0.37443357  1
  V  V55  1  0.00045365  0.37757425  0.37613710  1
  V  V56  1  0.61540688  0.37906948  0.24057469  1
  V  V57  1  0.74906316  0.37939575  0.63982942  1
  V  V58  1  0.62849849  0.49725802  0.63674063  1
  V  V59  1  0.87880487  0.75153261  0.13040997  1
  V  V60  1  0.37543672  0.49811137  0.87794224  1
  V  V61  1  0.24831986  -0.00075810  0.74734184  1
  V  V62  1  0.24856312  0.24815839  0.00502368  1
  V  V63  1  0.11407076  0.87238791  0.25268285  1
  V  V64  1  0.62664749  0.12187414  -0.00244137  1
  V  V65  1  0.86862131  -0.00286395  0.86502237  1
  V  V66  1  0.74888804  0.88878607  0.12686335  1
  V  V67  1  0.37464379  0.00108128  0.87535560  1
  V  V68  1  0.25134769  0.74882437  0.48900371  1
  V  V69  1  0.00536416  0.62536954  0.12817667  1
  V  V70  1  0.38447952  0.23549910  0.13289473  1
  V  V71  1  0.12334033  0.86966679  0.74610450  1
  V  V72  1  0.63564321  -0.00093991  0.63255265  1
  V  V73  1  0.11315343  0.75644732  0.37902531  1
  V  V74  1  0.37038582  0.01431842  0.37270393  1
  V  V75  1  0.24998526  0.62403893  0.87775778  1
  V  V76  1  0.51009120  0.37421268  0.87108595  1
  V  V77  1  0.37448937  0.37375201  0.00245364  1
  V  V78  1  0.75342446  0.13282278  0.37553767  1
  V  V79  1  0.12175494  0.51321322  0.62730091  1
  V  V80  1  0.50225145  0.62314457  0.62505189  1
  V  V81  1  0.37509508  0.13111594  0.74879610  1
  V  V82  1  0.74168152  0.64140967  0.37813013  1
  V  V83  1  0.86696725  0.25017424  0.62072977  1
  V  V84  1  0.86186024  0.86857141  0.49746259  1
  Zn  Zn85  1  0.26795582  0.23387199  0.48092255  1
  Zn  Zn86  1  0.74731887  0.12011410  0.86465659  1
  Zn  Zn87  1  0.74242207  0.50200033  0.24212759  1
  Zn  Zn88  1  0.12663256  -0.00343866  0.12674016  1
  Zn  Zn89  1  0.50519523  0.61935453  0.13188497  1
  Zn  Zn90  1  0.12321735  0.12280428  -0.00170627  1
  Zn  Zn91  1  0.36868555  0.50192783  0.37765561  1
  Zn  Zn92  1  0.63176276  0.63322392  0.50284631  1
  Zn  Zn93  1  0.87110398  0.11862054  0.74377010  1
  Zn  Zn94  1  0.37989694  0.25862487  0.61833184  1
  Zn  Zn95  1  0.63459572  0.88146327  0.75814854  1
  Zn  Zn96  1  0.63125330  0.25214919  0.86688435  1
  Zn  Zn97  1  0.12424235  -0.00251352  0.62093621  1
  Zn  Zn98  1  0.75018245  0.86480748  0.63104349  1
  Zn  Zn99  1  0.47297016  0.36356806  0.37423710  1
  Zn  Zn100  1  0.74543391  0.38528532  0.12160391  1
  Zn  Zn101  1  0.12566621  0.24709016  0.36660753  1
  Zn  Zn102  1  0.50696266  0.25661808  0.74696100  1
  Zn  Zn103  1  0.50101952  0.75142595  0.75104954  1
  Zn  Zn104  1  0.51051773  0.87567659  0.37523831  1
  Zn  Zn105  1  0.24899252  0.87486690  0.62246507  1
  Zn  Zn106  1  0.24903182  0.87445847  0.13219999  1
  Zn  Zn107  1  0.18524938  0.18873395  0.18610690  1
  Zn  Zn108  1  0.18485745  0.18710062  0.68338112  1
  Zn  Zn109  1  0.18883191  0.68894902  0.19444687  1
  Zn  Zn110  1  0.19254711  0.69040285  0.68722831  1
  Zn  Zn111  1  0.68991911  0.19936836  0.19016079  1
  Zn  Zn112  1  0.69039496  0.18819907  0.69496089  1
  Zn  Zn113  1  0.69279096  0.69148731  0.19085128  1
  Zn  Zn114  1  0.69139663  0.69039951  0.68654703  1
  Zn  Zn115  1  0.31345028  0.30795036  0.29936683  1
  Zn  Zn116  1  0.31215586  0.31360321  0.81243471  1
  Zn  Zn117  1  0.31171130  0.81612903  0.31126724  1
  Zn  Zn118  1  0.31104164  0.81306073  0.81375685  1
  Zn  Zn119  1  0.80649389  0.31528741  0.30966404  1
  Zn  Zn120  1  0.81502502  0.31005950  0.81312296  1
  Zn  Zn121  1  0.81294445  0.81555836  0.30965241  1
  Zn  Zn122  1  0.81167088  0.80802694  0.80568853  1
  Zn  Zn123  1  0.22989763  0.38929526  0.40497772  1
  Zn  Zn124  1  0.18487990  0.43469416  0.93913249  1
  Zn  Zn125  1  0.18815718  0.93733075  0.43593759  1
  Zn  Zn126  1  0.18725631  0.93583327  0.93662300  1
  Zn  Zn127  1  0.68406492  0.44471272  0.44616725  1
  Zn  Zn128  1  0.69202315  0.44043421  0.93826096  1
  Zn  Zn129  1  0.69126879  0.94301678  0.43490281  1
  Zn  Zn130  1  0.68693129  0.93590134  0.94304668  1
  Zn  Zn131  1  0.30869605  0.06023145  0.06462172  1
  Zn  Zn132  1  0.31178871  0.06487588  0.56272833  1
  Zn  Zn133  1  0.31706014  0.56453338  0.06464943  1
  Zn  Zn134  1  0.31881903  0.55640159  0.56856569  1
  Zn  Zn135  1  0.81657956  0.06459378  0.05521301  1
  Zn  Zn136  1  0.81469040  0.06144589  0.55978704  1
  Zn  Zn137  1  0.81406520  0.56156647  0.06164009  1
  Zn  Zn138  1  0.80976365  0.56604397  0.56313023  1
  Zn  Zn139  1  0.43289677  0.43328102  0.19196224  1
  Zn  Zn140  1  0.43621000  0.44003229  0.68915189  1
  Zn  Zn141  1  0.43118347  0.93254763  0.19281097  1
  Zn  Zn142  1  0.43936698  0.93883272  0.68819544  1
  Zn  Zn143  1  0.93158541  0.44158304  0.18379406  1
  Zn  Zn144  1  0.93841434  0.43856873  0.68617731  1
  Zn  Zn145  1  0.93655173  0.93850110  0.18861419  1
  Zn  Zn146  1  0.93922431  0.93080681  0.68243339  1
  Zn  Zn147  1  0.05800994  0.05874611  0.31209438  1
  Zn  Zn148  1  0.06029753  0.06126319  0.81029286  1
  Zn  Zn149  1  0.05310212  0.56435167  0.31281417  1
  Zn  Zn150  1  0.06236568  0.55882415  0.81818523  1
  Zn  Zn151  1  0.56585397  0.05981056  0.32874562  1
  Zn  Zn152  1  0.56248691  0.06594745  0.81313842  1
  Zn  Zn153  1  0.55901227  0.56010960  0.31482423  1
  Zn  Zn154  1  0.56149829  0.56167795  0.81554421  1
  Zn  Zn155  1  0.44507607  0.18857256  0.44037341  1
  Zn  Zn156  1  0.43710430  0.18948223  0.94137648  1
  Zn  Zn157  1  0.47098326  0.70057584  0.45075136  1
  Zn  Zn158  1  0.44124900  0.68506782  0.94261530  1
  Zn  Zn159  1  0.94073178  0.18854605  0.43767450  1
  Zn  Zn160  1  0.93718948  0.18452864  0.93425429  1
  Zn  Zn161  1  0.93139426  0.68918418  0.43692641  1
  Zn  Zn162  1  0.93762063  0.68521957  0.93731737  1
  Zn  Zn163  1  0.06260402  0.31362399  0.06213918  1
  Zn  Zn164  1  0.06005554  0.31694161  0.56191441  1
  Zn  Zn165  1  0.06292372  0.81079173  0.06523874  1
  Zn  Zn166  1  0.06075665  0.80686159  0.56280571  1
  Zn  Zn167  1  0.56146380  0.30828207  0.05809153  1
  Zn  Zn168  1  0.56931008  0.31134409  0.56396027  1
  Zn  Zn169  1  0.56404680  0.81269256  0.06561174  1
  Zn  Zn170  1  0.56683167  0.81246943  0.56292187  1
  O  O171  1  0.11063673  0.12238918  0.12239787  1
  O  O172  1  0.11255971  0.12205394  0.61790878  1
  O  O173  1  0.11170205  0.63457257  0.12550922  1
  O  O174  1  0.12869526  0.61246726  0.63466440  1
  O  O175  1  0.62849914  0.12649773  0.11687987  1
  O  O176  1  0.62116064  0.11686487  0.61887256  1
  O  O177  1  0.62694468  0.63228779  0.11306890  1
  O  O178  1  0.61842557  0.61731811  0.62676717  1
  O  O179  1  0.36019273  0.38653984  0.36775718  1
  O  O180  1  0.37848386  0.38037097  0.88386186  1
  O  O181  1  0.37708418  0.88125883  0.38758233  1
  O  O182  1  0.38209753  0.87944432  0.88159460  1
  O  O183  1  0.87777489  0.38104919  0.38022676  1
  O  O184  1  0.87387858  0.38193734  0.88490383  1
  O  O185  1  0.86866471  0.88465970  0.38201020  1
  O  O186  1  0.88296367  0.87905616  0.87797343  1
  O  O187  1  0.26347518  -0.00065985  0.37289502  1
  O  O188  1  0.25350916  0.00486143  0.86539267  1
  O  O189  1  0.23974768  0.50625140  0.39203809  1
  O  O190  1  0.25366113  0.50335151  0.87130684  1
  O  O191  1  0.76341479  0.01697290  0.37783785  1
  O  O192  1  0.76688719  -0.00472523  0.88292852  1
  O  O193  1  0.76001445  0.50137966  0.37480635  1
  O  O194  1  0.76601241  0.50796514  0.88027715  1
  O  O195  1  0.25069848  0.48674005  0.11684147  1
  O  O196  1  0.24248332  0.49246746  0.63376951  1
  O  O197  1  0.24647304  0.99539672  0.13472131  1
  O  O198  1  0.24855256  0.99878809  0.63698955  1
  O  O199  1  0.75346111  0.49880006  0.12796330  1
  O  O200  1  0.73632593  0.49594843  0.62211775  1
  O  O201  1  0.76046748  0.98729519  0.11725828  1
  O  O202  1  0.73629816  1.00056645  0.61976485  1
  O  O203  1  0.00102864  0.37066043  0.25041356  1
  O  O204  1  0.01167092  0.36612720  0.74457304  1
  O  O205  1  0.01445525  0.87799642  0.24937601  1
  O  O206  1  0.01098465  0.87774952  0.75811485  1
  O  O207  1  0.51086164  0.37630826  0.25763538  1
  O  O208  1  0.49156795  0.37619537  0.76806244  1
  O  O209  1  0.51065186  0.86900555  0.24652312  1
  O  O210  1  0.50198899  0.87513169  0.76505416  1
  O  O211  1  0.51565872  0.11342388  0.23543270  1
  O  O212  1  0.49047022  0.12434804  0.74315985  1
  O  O213  1  0.49612360  0.63314340  0.24888636  1
  O  O214  1  0.49271321  0.62443747  0.74300108  1
  O  O215  1  0.99176632  0.13206855  0.24284676  1
  O  O216  1  0.99633173  0.13017607  0.73960031  1
  O  O217  1  0.98566386  0.62326645  0.24226233  1
  O  O218  1  0.99329895  0.62550793  0.75344391  1
  O  O219  1  0.36374080  0.25641553  0.00336073  1
  O  O220  1  0.37519837  0.24138764  0.50689922  1
  O  O221  1  0.37185329  0.75332489  0.00769749  1
  O  O222  1  0.37349328  0.75768846  0.50530341  1
  O  O223  1  0.87198531  0.25614790  0.00007229  1
  O  O224  1  0.88462649  0.26069119  0.50973111  1
  O  O225  1  0.87072655  0.75481279  0.00470558  1
  O  O226  1  0.87676449  0.76026126  0.50527420  1
  O  O227  1  0.11695212  0.23470955  0.49908976  1
  O  O228  1  0.12899535  0.24838913  0.99101573  1
  O  O229  1  0.13443327  0.75465136  0.48879076  1
  O  O230  1  0.13026373  0.74358859  0.99471843  1
  O  O231  1  0.62573353  0.24087456  0.49045708  1
  O  O232  1  0.63373386  0.24174608  0.99556365  1
  O  O233  1  0.58030403  0.73372110  0.48834993  1
  O  O234  1  0.62872549  0.74257399  0.99111156  1
  O  O235  1  0.48235800  0.25331192  0.11678976  1
  O  O236  1  0.50179290  0.23796218  0.62580186  1
  O  O237  1  0.49270287  0.74846078  0.13296845  1
  O  O238  1  0.48888233  0.74201529  0.63066197  1
  O  O239  1  0.99390655  0.24253597  0.12758990  1
  O  O240  1  0.99495385  0.24442950  0.63348088  1
  O  O241  1  0.98638401  0.74165615  0.11799722  1
  O  O242  1  0.98345899  0.74918648  0.62180686  1
  O  O243  1  -0.00015610  0.25828837  0.36404502  1
  O  O244  1  0.00628297  0.24303021  0.86059318  1
  O  O245  1  0.01530488  0.74485999  0.38006277  1
  O  O246  1  0.00508928  0.76172513  0.88053169  1
  O  O247  1  0.51696608  0.25202525  0.37726999  1
  O  O248  1  0.49897692  0.26627899  0.87908820  1
  O  O249  1  0.49001238  0.76061837  0.35564555  1
  O  O250  1  0.50729729  0.75693833  0.87750338  1
  O  O251  1  0.22952255  0.12432567  0.50709757  1
  O  O252  1  0.24511345  0.13134649  0.99300816  1
  O  O253  1  0.24746983  0.62733131  0.50247303  1
  O  O254  1  0.24395330  0.62862005  0.99748281  1
  O  O255  1  0.74206101  0.12346509  0.49344949  1
  O  O256  1  0.74373380  0.13083972  0.99539336  1
  O  O257  1  0.74947569  0.62340339  0.48334004  1
  O  O258  1  0.74626364  0.62983757  0.99083861  1
  O  O259  1  0.25131172  0.36697576  0.00834360  1
  O  O260  1  0.24239131  0.37751476  0.51884280  1
  O  O261  1  0.25685255  0.86910220  0.00149978  1
  O  O262  1  0.25815190  0.86731728  0.50211738  1
  O  O263  1  0.75812221  0.36701158  0.00022019  1
  O  O264  1  0.76321584  0.38121044  0.50780530  1
  O  O265  1  0.75646736  0.86667901  0.00634892  1
  O  O266  1  0.75904763  0.88017868  0.50420297  1
  O  O267  1  0.11303731  0.49290321  0.24557304  1
  O  O268  1  0.12623860  0.49173915  0.74660695  1
  O  O269  1  0.12807983  0.98746776  0.25385926  1
  O  O270  1  0.13252373  0.99028114  0.74949989  1
  O  O271  1  0.62418667  0.48248680  0.25743478  1
  O  O272  1  0.62020455  0.50203111  0.73589603  1
  O  O273  1  0.61866365  0.99975338  0.23515815  1
  O  O274  1  0.61894467  1.00110544  0.73536680  1
  O  O275  1  0.36716038  -0.00427193  0.26524323  1
  O  O276  1  0.36838935  0.00812679  0.75571922  1
  O  O277  1  0.38039362  0.51730898  0.25171875  1
  O  O278  1  0.36805562  0.50649228  0.75858185  1
  O  O279  1  0.88079990  0.01123877  0.25806115  1
  O  O280  1  0.88400728  -0.00452478  0.76320023  1
  O  O281  1  0.87296532  0.50810726  0.25953758  1
  O  O282  1  0.88372190  0.51105691  0.75789274  1
  O  O283  1  0.11412884  0.37791741  0.35931331  1
  O  O284  1  0.12799194  0.36153777  0.86647737  1
  O  O285  1  0.12407674  0.86494768  0.36923820  1
  O  O286  1  0.11841886  0.86925696  0.86845845  1
  O  O287  1  0.63144938  0.36406188  0.37771153  1
  O  O288  1  0.61250370  0.37692533  0.88040116  1
  O  O289  1  0.62759590  0.89183340  0.35470952  1
  O  O290  1  0.61780696  0.86661017  0.87869775  1
  O  O291  1  0.37409031  0.13700175  0.11470991  1
  O  O292  1  0.38444872  0.12237350  0.63397007  1
  O  O293  1  0.38076555  0.63573564  0.12856301  1
  O  O294  1  0.37956882  0.63169032  0.63432012  1
  O  O295  1  0.88336638  0.12931572  0.12960647  1
  O  O296  1  0.88494343  0.13286156  0.61971531  1
  O  O297  1  0.88122840  0.63284350  0.13164681  1
  O  O298  1  0.87431283  0.62535058  0.63891031  1
  O  O299  1  0.25141003  0.25274610  0.11344158  1
  O  O300  1  0.24802138  0.26313227  0.62623100  1
  O  O301  1  0.25818159  0.75034724  0.11955360  1
  O  O302  1  0.26222352  0.74992614  0.61426354  1
  O  O303  1  0.75775793  0.25211797  0.11158751  1
  O  O304  1  0.76264847  0.25846039  0.62647696  1
  O  O305  1  0.76272320  0.75421404  0.11843640  1
  O  O306  1  0.76660581  0.74689732  0.62503715  1
  O  O307  1  0.23684680  0.27358270  0.37917364  1
  O  O308  1  0.24322515  0.24691036  0.88455779  1
  O  O309  1  0.24719356  0.75078407  0.38621791  1
  O  O310  1  0.24587868  0.74418847  0.88326474  1
  O  O311  1  0.74338776  0.23992965  0.37421145  1
  O  O312  1  0.75260603  0.24688325  0.88606771  1
  O  O313  1  0.75074284  0.73991738  0.37263220  1
  O  O314  1  0.74404016  0.74186857  0.88125032  1
  O  O315  1  -0.00055709  0.11604411  0.00653498  1
  O  O316  1  0.00691592  0.11704474  0.50548057  1
  O  O317  1  0.00551910  0.61927530  0.00741313  1
  O  O318  1  -0.00858852  0.61232429  0.49794702  1
  O  O319  1  0.50731801  0.11334245  -0.00476681  1
  O  O320  1  0.51173073  0.11552752  0.50719108  1
  O  O321  1  0.51146023  0.61483825  0.00233250  1
  O  O322  1  0.49013056  0.60945079  0.52011655  1
  O  O323  1  0.50323208  0.38380852  0.50025900  1
  O  O324  1  0.49586692  0.38155927  0.99237901  1
  O  O325  1  0.49420146  0.88887128  0.50108623  1
  O  O326  1  0.49687994  0.88344466  0.99251735  1
  O  O327  1  0.99212610  0.38407152  0.49296211  1
  O  O328  1  0.99339979  0.38469171  1.00330357  1
  O  O329  1  0.99382370  0.88606004  0.50334313  1
  O  O330  1  0.99659529  0.88023600  0.99386758  1
  O  O331  1  0.49944814  0.49669711  0.39195976  1
  O  O332  1  0.49549823  0.49092419  0.88360620  1
  O  O333  1  0.48930534  0.99681788  0.38485521  1
  O  O334  1  0.49556487  0.99357550  0.88224042  1
  O  O335  1  0.98626391  0.49682878  0.38226970  1
  O  O336  1  0.98766875  0.50497119  0.88732813  1
  O  O337  1  0.98411435  1.00718851  0.38439970  1
  O  O338  1  0.99569094  0.98901979  0.88066171  1
  O  O339  1  0.00011136  0.00623781  0.11609749  1
  O  O340  1  -0.00068487  0.00798007  0.61563107  1
  O  O341  1  -0.00808292  0.51285712  0.11279416  1
  O  O342  1  0.01146331  0.49230357  0.61421209  1
  O  O343  1  0.49572487  -0.00077641  0.11743754  1
  O  O344  1  0.50618409  0.00949073  0.61950481  1
  O  O345  1  0.49499595  0.49768586  0.11322641  1
  O  O346  1  0.50800540  0.50153572  0.62201134  1
  O  O347  1  0.23681895  0.37462484  0.23374779  1
  O  O348  1  0.23767981  0.37843630  0.74576389  1
  O  O349  1  0.23988843  0.88513161  0.25248884  1
  O  O350  1  0.24443760  0.88397623  0.74924700  1
  O  O351  1  0.73557894  0.37645034  0.24493625  1
  O  O352  1  0.75937584  0.37775574  0.73896162  1
  O  O353  1  0.74353713  0.87288279  0.23789592  1
  O  O354  1  0.74628255  0.87305465  0.74571298  1
  O  O355  1  0.23531573  0.10886050  0.24980482  1
  O  O356  1  0.25499101  0.11974599  0.75269079  1
  O  O357  1  0.26847730  0.62972223  0.24976422  1
  O  O358  1  0.25539906  0.61905514  0.75859420  1
  O  O359  1  0.76347909  0.13298279  0.25451684  1
  O  O360  1  0.75911718  0.12211103  0.75202464  1
  O  O361  1  0.75894415  0.62374693  0.25975770  1
  O  O362  1  0.75442657  0.62518904  0.76206960  1
  O  O363  1  0.37986560  0.11231184  0.37837031  1
  O  O364  1  0.36934712  0.12115002  0.86854788  1
  O  O365  1  0.38046036  0.62436747  0.36565652  1
  O  O366  1  0.37058163  0.61928319  0.87433784  1
  O  O367  1  0.87070142  0.12439397  0.36770513  1
  O  O368  1  0.87816730  0.10525226  0.87463338  1
  O  O369  1  0.86672923  0.62001214  0.36782544  1
  O  O370  1  0.87120776  0.62016888  0.86456339  1
  O  O371  1  0.13591864  0.37337592  0.12738426  1
  O  O372  1  0.13213243  0.38192555  0.63275084  1
  O  O373  1  0.12616004  0.87225138  0.13958955  1
  O  O374  1  0.12716416  0.87547741  0.63224979  1
  O  O375  1  0.62210056  0.36666619  0.13813583  1
  O  O376  1  0.63473197  0.38715343  0.62179028  1
  O  O377  1  0.63716427  0.87320639  0.13202062  1
  O  O378  1  0.62322068  0.88884319  0.62548207  1
  O  O379  1  0.10927894  0.25587470  0.24459452  1
  O  O380  1  0.11889646  0.25516166  0.75440786  1
  O  O381  1  0.13096186  0.76127622  0.26620000  1
  O  O382  1  0.13485222  0.76261740  0.75666228  1
  O  O383  1  0.62845660  0.26211371  0.26535519  1
  O  O384  1  0.61942839  0.24890191  0.75465074  1
  O  O385  1  0.61750667  0.76034939  0.24524488  1
  O  O386  1  0.62203846  0.74762264  0.76500854  1
  O  O387  1  0.37208899  0.24164999  0.23306412  1
  O  O388  1  0.37685867  0.23897483  0.74783489  1
  O  O389  1  0.38040502  0.74435347  0.24332957  1
  O  O390  1  0.37444090  0.74619451  0.74283540  1
  O  O391  1  0.88379223  0.24679651  0.24373335  1
  O  O392  1  0.88451357  0.24965799  0.74117859  1
  O  O393  1  0.87278369  0.74254611  0.24154201  1
  O  O394  1  0.87744925  0.73332792  0.74517093  1
  O  O395  1  0.39058148  0.49724850  0.50301643  1
  O  O396  1  0.38318358  0.49467968  0.99578624  1
  O  O397  1  0.37980802  0.99662269  0.49415954  1
  O  O398  1  0.38053545  0.99517216  0.99415246  1
  O  O399  1  0.87914760  0.49428501  0.49560292  1
  O  O400  1  0.88301280  0.49290795  0.99229101  1
  O  O401  1  0.88084301  0.99213101  0.49356978  1
  O  O402  1  0.88704628  0.99203773  0.99104619  1
  O  O403  1  0.11325596  -0.00083969  0.00016455  1
  O  O404  1  0.11672127  0.00717978  0.49849859  1
  O  O405  1  0.11386208  0.50691962  -0.00645256  1
  O  O406  1  0.11967093  0.51233277  0.50480309  1
  O  O407  1  0.61616085  0.00770336  0.00128613  1
  O  O408  1  0.61839611  0.00723112  0.50620498  1
  O  O409  1  0.61824217  0.50872548  -0.00446585  1
  O  O410  1  0.61143391  0.50789925  0.51084441  1
  O  O411  1  0.36075902  0.36802739  0.12193755  1
  O  O412  1  0.35665843  0.37528709  0.63677253  1
  O  O413  1  0.37336889  0.86238241  0.11995644  1
  O  O414  1  0.37633008  0.86899416  0.61594965  1
  O  O415  1  0.87532298  0.36871641  0.11119151  1
  O  O416  1  0.87022600  0.37061340  0.61856457  1
  O  O417  1  0.87214971  0.86821206  0.12109091  1
  O  O418  1  0.87333162  0.86600441  0.61584906  1
  O  O419  1  0.11674328  0.12705902  0.38753443  1
  O  O420  1  0.13006902  0.13525850  0.87273942  1
  O  O421  1  0.12826706  0.62956266  0.37694223  1
  O  O422  1  0.13067623  0.63080020  0.88071108  1
  O  O423  1  0.63440029  0.13308128  0.38247399  1
  O  O424  1  0.62781835  0.12463127  0.88669065  1
  O  O425  1  0.64076383  0.62127890  0.37132034  1
  O  O426  1  0.63258621  0.62903247  0.88189174  1
