# generated using pymatgen
data_V85Zn86O256
_symmetry_space_group_name_H-M   'P 1'
_cell_length_a   16.96676346
_cell_length_b   16.98144626
_cell_length_c   16.95792171
_cell_angle_alpha   90.04280829
_cell_angle_beta   90.08461682
_cell_angle_gamma   89.99711951
_symmetry_Int_Tables_number   1
_chemical_formula_structural   V85Zn86O256
_chemical_formula_sum   'V85 Zn86 O256'
_cell_volume   4885.91279184
_cell_formula_units_Z   1
loop_
 _symmetry_equiv_pos_site_id
 _symmetry_equiv_pos_as_xyz
  1  'x, y, z'
loop_
 _atom_site_type_symbol
 _atom_site_label
 _atom_site_symmetry_multiplicity
 _atom_site_fract_x
 _atom_site_fract_y
 _atom_site_fract_z
 _atom_site_occupancy
  V  V0  1  0.62459199  0.12466803  0.50033230  1
  V  V1  1  0.62782907  0.87246603  0.75127030  1
  V  V2  1  0.38158466  0.13049168  0.23706654  1
  V  V3  1  0.62370611  -0.00048691  0.12346561  1
  V  V4  1  0.75372998  0.86145407  0.11728261  1
  V  V5  1  0.36960344  0.37337659  0.01387622  1
  V  V6  1  0.74862174  0.24625471  0.00514386  1
  V  V7  1  0.62416481  0.49843344  0.61970371  1
  V  V8  1  0.75086998  0.12180449  0.37258026  1
  V  V9  1  0.62425394  -0.00148486  0.62672538  1
  V  V10  1  0.49884057  0.50386703  0.00130873  1
  V  V11  1  0.87642408  0.62223853  0.75636818  1
  V  V12  1  0.24796239  0.49845127  0.74586701  1
  V  V13  1  0.87530965  0.63495577  0.24733497  1
  V  V14  1  0.00379442  0.88636321  0.87362022  1
  V  V15  1  0.75463852  0.62485513  0.88360484  1
  V  V16  1  0.25085736  0.75153548  0.00093436  1
  V  V17  1  0.24681296  0.62329935  0.37069247  1
  V  V18  1  0.12370872  0.49669024  0.62209622  1
  V  V19  1  0.25348914  0.49000120  0.24776667  1
  V  V20  1  0.62056820  0.24688063  0.87314497  1
  V  V21  1  0.62878125  0.74871421  0.88133291  1
  V  V22  1  0.75895029  0.37241993  0.12775051  1
  V  V23  1  0.49428433  0.13577211  0.62823949  1
  V  V24  1  0.62003380  0.74854609  0.37194388  1
  V  V25  1  0.88509958  0.00305798  0.37522027  1
  V  V26  1  0.87488860  0.24916200  0.62600966  1
  V  V27  1  0.37397852  0.50078109  0.87719284  1
  V  V28  1  0.37542722  0.62673409  0.75052087  1
  V  V29  1  0.49705992  0.00220108  -0.00009377  1
  V  V30  1  0.11246977  0.01020750  0.11332913  1
  V  V31  1  0.37699305  0.00283012  0.37170429  1
  V  V32  1  0.75128185  0.50001630  0.75709238  1
  V  V33  1  0.12814978  0.49738953  0.12298876  1
  V  V34  1  0.56705308  0.16879135  0.05844507  1
  V  V35  1  0.48238982  0.37249819  0.37496050  1
  V  V36  1  0.74520696  0.25257944  0.49695808  1
  V  V37  1  0.11764821  0.62684607  0.49417444  1
  V  V38  1  -0.00237600  0.63346056  0.12210367  1
  V  V39  1  0.75391883  0.49975378  0.25286921  1
  V  V40  1  0.00582103  0.86816283  0.37822184  1
  V  V41  1  0.24816065  0.62637242  0.87672444  1
  V  V42  1  0.74871861  0.75047541  0.50043821  1
  V  V43  1  0.50146497  0.74765052  0.74957187  1
  V  V44  1  0.24504759  0.00526610  0.24710757  1
  V  V45  1  0.25676651  -0.00560211  0.75641668  1
  V  V46  1  0.37521345  0.74936371  0.62168147  1
  V  V47  1  -0.00123889  0.62001157  0.62220970  1
  V  V48  1  0.13572516  0.24552088  0.86904983  1
  V  V49  1  0.87576585  0.74898153  0.62689190  1
  V  V50  1  0.00298106  0.37116123  0.87526175  1
  V  V51  1  0.87967986  0.88004644  0.50061855  1
  V  V52  1  0.48285981  0.49839443  0.49410745  1
  V  V53  1  0.37893978  0.75217469  0.13185408  1
  V  V54  1  0.37738504  0.62288170  0.25477805  1
  V  V55  1  0.93097793  0.19200167  0.06698536  1
  V  V56  1  -0.00266159  0.50294032  -0.00562414  1
  V  V57  1  0.89015116  0.49957782  0.37822102  1
  V  V58  1  -0.00466704  0.24051380  0.26211299  1
  V  V59  1  0.62814142  0.50362540  0.12781068  1
  V  V60  1  0.62279025  0.87302937  0.24851517  1
  V  V61  1  0.62673545  0.62712198  0.00219581  1
  V  V62  1  0.24569380  0.74769615  0.49433538  1
  V  V63  1  0.24988438  0.24826746  0.01855930  1
  V  V64  1  0.86857908  0.12175638  0.75003794  1
  V  V65  1  0.88447347  0.86868323  0.00430400  1
  V  V66  1  0.74983810  0.37570586  0.62653243  1
  V  V67  1  0.87541300  0.37873017  -0.00421249  1
  V  V68  1  0.74825460  0.12319791  0.88084108  1
  V  V69  1  0.88461603  0.38100223  0.49763476  1
  V  V70  1  0.62060427  0.37364774  0.75110048  1
  V  V71  1  0.37716902  0.87255576  0.49706027  1
  V  V72  1  0.50032549  -0.00048668  0.49993282  1
  V  V73  1  0.75148010  0.62436540  0.37543739  1
  V  V74  1  0.11171343  0.37308645  0.24763196  1
  V  V75  1  0.62730949  0.37425521  0.25698607  1
  V  V76  1  0.37828840  0.12952633  0.75666531  1
  V  V77  1  0.24978625  0.87875374  0.12415596  1
  V  V78  1  0.49299264  0.37391334  0.87251150  1
  V  V79  1  0.17820617  0.29510513  0.42825014  1
  V  V80  1  0.50107729  0.63018865  0.13136316  1
  V  V81  1  0.12614403  0.86839885  0.25143309  1
  V  V82  1  0.24351647  0.12267198  0.38673988  1
  V  V83  1  0.49594574  0.87822986  0.87671989  1
  V  V84  1  0.50126771  0.87276570  0.37062834  1
  Zn  Zn85  1  0.12341461  0.75240377  0.87422829  1
  Zn  Zn86  1  0.50032833  0.24869243  0.23633059  1
  Zn  Zn87  1  0.12243507  -0.00166166  0.60290009  1
  Zn  Zn88  1  0.37329224  0.88095786  -0.00268123  1
  Zn  Zn89  1  0.62100040  0.24840503  0.37385418  1
  Zn  Zn90  1  0.62423908  0.62267094  0.49972429  1
  Zn  Zn91  1  0.86907952  -0.00409197  0.87932277  1
  Zn  Zn92  1  0.30284511  0.30586053  0.57166911  1
  Zn  Zn93  1  0.00204478  0.75135275  0.24758277  1
  Zn  Zn94  1  0.25162744  0.11981278  0.87826652  1
  Zn  Zn95  1  -0.00139047  0.25227367  0.74494119  1
  Zn  Zn96  1  0.74636372  -0.00064592  0.75282903  1
  Zn  Zn97  1  0.75089590  0.87522894  0.62699913  1
  Zn  Zn98  1  -0.00392070  0.11390391  0.59750801  1
  Zn  Zn99  1  0.12451595  0.62578932  0.00037637  1
  Zn  Zn100  1  0.00481123  0.74855085  0.75638058  1
  Zn  Zn101  1  0.75316458  -0.00228386  0.24848815  1
  Zn  Zn102  1  0.50159639  0.62311399  0.62218138  1
  Zn  Zn103  1  0.24743039  0.87797597  0.62257455  1
  Zn  Zn104  1  0.12529878  0.37460021  0.74545579  1
  Zn  Zn105  1  0.12600077  0.87448400  0.74357309  1
  Zn  Zn106  1  0.87780208  0.12538190  0.24119292  1
  Zn  Zn107  1  0.17880289  0.18327152  0.19721565  1
  Zn  Zn108  1  0.18627646  0.17891386  0.67581273  1
  Zn  Zn109  1  0.18806451  0.68544928  0.18458514  1
  Zn  Zn110  1  0.18571727  0.68976019  0.68594086  1
  Zn  Zn111  1  0.69263623  0.19155193  0.19464160  1
  Zn  Zn112  1  0.68444689  0.18941564  0.68755678  1
  Zn  Zn113  1  0.68760362  0.68895117  0.19195993  1
  Zn  Zn114  1  0.68899184  0.68436175  0.68905526  1
  Zn  Zn115  1  0.31208033  0.30784110  0.29848728  1
  Zn  Zn116  1  0.29051928  0.29136189  0.75940775  1
  Zn  Zn117  1  0.31169846  0.81079100  0.31180398  1
  Zn  Zn118  1  0.31329939  0.81201851  0.81261721  1
  Zn  Zn119  1  0.82155493  0.31062049  0.31357549  1
  Zn  Zn120  1  0.81198294  0.31036475  0.81635977  1
  Zn  Zn121  1  0.80954402  0.81602378  0.31300756  1
  Zn  Zn122  1  0.81448627  0.80891165  0.81834942  1
  Zn  Zn123  1  0.18297100  0.45501210  0.43305394  1
  Zn  Zn124  1  0.18805902  0.43497909  0.93733009  1
  Zn  Zn125  1  0.19212219  0.93222318  0.43370205  1
  Zn  Zn126  1  0.18739768  0.94293224  0.93411982  1
  Zn  Zn127  1  0.69139272  0.43762075  0.43790764  1
  Zn  Zn128  1  0.68763009  0.43795181  0.93803775  1
  Zn  Zn129  1  0.69098795  0.93760163  0.43741898  1
  Zn  Zn130  1  0.68364984  0.93910462  0.94266458  1
  Zn  Zn131  1  0.31045566  0.06406537  0.05888087  1
  Zn  Zn132  1  0.31234652  0.06009889  0.56664280  1
  Zn  Zn133  1  0.31216705  0.56336153  0.06596405  1
  Zn  Zn134  1  0.30896279  0.56358589  0.56357998  1
  Zn  Zn135  1  0.80678632  0.05189576  0.05840190  1
  Zn  Zn136  1  0.81200820  0.06269406  0.56235169  1
  Zn  Zn137  1  0.81638375  0.56143612  0.06367241  1
  Zn  Zn138  1  0.81162838  0.56216044  0.56356292  1
  Zn  Zn139  1  0.44109979  0.44239784  0.19153406  1
  Zn  Zn140  1  0.43449664  0.43989365  0.68883581  1
  Zn  Zn141  1  0.43849473  0.94119030  0.18650220  1
  Zn  Zn142  1  0.43683709  0.93774903  0.68840623  1
  Zn  Zn143  1  0.93856177  0.44553950  0.18458942  1
  Zn  Zn144  1  0.93668711  0.43904529  0.68907370  1
  Zn  Zn145  1  0.93861826  0.93921599  0.18992591  1
  Zn  Zn146  1  0.93360382  0.93558998  0.69168007  1
  Zn  Zn147  1  0.06432294  0.06904807  0.43077907  1
  Zn  Zn148  1  0.05958312  0.05937652  0.73947867  1
  Zn  Zn149  1  0.06438789  0.56491296  0.30809665  1
  Zn  Zn150  1  0.06286679  0.56278497  0.81350959  1
  Zn  Zn151  1  0.56296403  0.06173308  0.30952763  1
  Zn  Zn152  1  0.56049015  0.06177517  0.81377628  1
  Zn  Zn153  1  0.56160057  0.56053032  0.31581267  1
  Zn  Zn154  1  0.56330892  0.56177241  0.81261135  1
  Zn  Zn155  1  0.42885754  0.18848952  0.43524088  1
  Zn  Zn156  1  0.42806436  0.19558911  0.93074443  1
  Zn  Zn157  1  0.43829524  0.68313188  0.43549800  1
  Zn  Zn158  1  0.43716516  0.69159974  0.94107218  1
  Zn  Zn159  1  0.93149514  0.19794400  0.43256301  1
  Zn  Zn160  1  0.98887951  0.14269257  0.89071167  1
  Zn  Zn161  1  0.93695369  0.69049753  0.43629402  1
  Zn  Zn162  1  0.93591353  0.69693079  0.94022885  1
  Zn  Zn163  1  0.07033815  0.31394277  0.05969851  1
  Zn  Zn164  1  0.05868483  0.31126507  0.56442954  1
  Zn  Zn165  1  0.06669881  0.81603335  0.06076073  1
  Zn  Zn166  1  0.06269829  0.81189852  0.56557019  1
  Zn  Zn167  1  0.56623177  0.33186367  0.06141482  1
  Zn  Zn168  1  0.46243581  0.31362639  0.56520947  1
  Zn  Zn169  1  0.56200664  0.81332606  0.06270247  1
  Zn  Zn170  1  0.56237651  0.81165403  0.56213186  1
  O  O171  1  0.12857818  0.10831438  0.12901978  1
  O  O172  1  0.10534307  0.11553579  0.64309322  1
  O  O173  1  0.11668983  0.61469730  0.12415342  1
  O  O174  1  0.11536982  0.62058289  0.61858591  1
  O  O175  1  0.62985499  0.11704360  0.12683009  1
  O  O176  1  0.61774067  0.11530891  0.62341988  1
  O  O177  1  0.62227424  0.62282497  0.12237521  1
  O  O178  1  0.62352363  0.61180832  0.62595140  1
  O  O179  1  0.38484871  0.37459945  0.36378859  1
  O  O180  1  0.38734554  0.38210920  0.88380619  1
  O  O181  1  0.38174965  0.88063009  0.37597433  1
  O  O182  1  0.39282416  0.86495687  0.87747461  1
  O  O183  1  0.86612301  0.38838062  0.38556787  1
  O  O184  1  0.88213255  0.36833596  0.88938023  1
  O  O185  1  0.87896858  0.88068172  0.38233681  1
  O  O186  1  0.88334063  0.87296421  0.88444878  1
  O  O187  1  0.25827083  0.00802712  0.36548417  1
  O  O188  1  0.25719083  0.00188407  0.86536594  1
  O  O189  1  0.24975267  0.51436188  0.36335599  1
  O  O190  1  0.25584857  0.51051866  0.87374122  1
  O  O191  1  0.75830616  0.00665200  0.37413400  1
  O  O192  1  0.74180439  0.01082529  0.87388543  1
  O  O193  1  0.75380157  0.50890801  0.36908983  1
  O  O194  1  0.74421406  0.50780467  0.86434740  1
  O  O195  1  0.23957442  0.50710953  0.13470227  1
  O  O196  1  0.23806552  0.50865069  0.63404729  1
  O  O197  1  0.25189200  0.99208684  0.12991217  1
  O  O198  1  0.24893046  0.99729899  0.63683429  1
  O  O199  1  0.74630146  0.49420795  0.13233854  1
  O  O200  1  0.74382253  0.49768121  0.63644479  1
  O  O201  1  0.73709481  0.98879049  0.12722799  1
  O  O202  1  0.73579620  0.99744250  0.62605678  1
  O  O203  1  0.00878299  0.37774410  0.24593544  1
  O  O204  1  -0.00309943  0.37391256  0.76180260  1
  O  O205  1  0.00896762  0.87220746  0.25619037  1
  O  O206  1  -0.00222065  0.87043595  0.76545162  1
  O  O207  1  0.50857157  0.37658011  0.26008851  1
  O  O208  1  0.51035277  0.38668145  0.76168029  1
  O  O209  1  0.51385772  0.87895960  0.25478053  1
  O  O210  1  0.51034063  0.86938838  0.75636456  1
  O  O211  1  0.48657178  0.12636220  0.25337648  1
  O  O212  1  0.49129508  0.11266416  0.73702007  1
  O  O213  1  0.49029662  0.61735346  0.24414972  1
  O  O214  1  0.49363087  0.62996843  0.74900495  1
  O  O215  1  0.99627148  0.14128734  0.25637738  1
  O  O216  1  0.97969152  0.13471606  0.77463797  1
  O  O217  1  0.99313721  0.62840950  0.24116114  1
  O  O218  1  0.99085534  0.62633027  0.74569973  1
  O  O219  1  0.36415612  0.26512849  -0.00196434  1
  O  O220  1  0.38303893  0.25242897  0.51040142  1
  O  O221  1  0.36616542  0.75202719  0.01237420  1
  O  O222  1  0.37141208  0.75075650  0.50506531  1
  O  O223  1  0.86918018  0.25953018  0.01223966  1
  O  O224  1  0.86230133  0.25972743  0.50631103  1
  O  O225  1  0.86684836  0.76885396  -0.00022923  1
  O  O226  1  0.86701799  0.75617578  0.50700716  1
  O  O227  1  0.11739679  0.24583073  0.49025850  1
  O  O228  1  0.14701343  0.26367801  0.98785397  1
  O  O229  1  0.13515581  0.73835287  0.50493416  1
  O  O230  1  0.14055490  0.74749047  1.00120182  1
  O  O231  1  0.63929704  0.24190891  0.49722770  1
  O  O232  1  0.62477230  0.24428754  0.99672862  1
  O  O233  1  0.63306930  0.74746483  0.49473641  1
  O  O234  1  0.61977423  0.74120720  0.99104614  1
  O  O235  1  0.51629894  0.24173590  0.11538455  1
  O  O236  1  0.51523124  0.23228376  0.62920309  1
  O  O237  1  0.49024319  0.74376978  0.12199713  1
  O  O238  1  0.49400898  0.74577373  0.62969603  1
  O  O239  1  0.99758209  0.24783553  0.12172444  1
  O  O240  1  0.98366546  0.24675494  0.62502822  1
  O  O241  1  1.00646687  0.73695769  0.12319332  1
  O  O242  1  0.98766296  0.74055066  0.62806053  1
  O  O243  1  -0.00622424  0.25988281  0.36062385  1
  O  O244  1  0.01222415  0.26442364  0.88289546  1
  O  O245  1  -0.00516680  0.76382800  0.36931296  1
  O  O246  1  0.00374024  0.76103437  0.87586723  1
  O  O247  1  0.50166105  0.26553291  0.37370736  1
  O  O248  1  0.51061300  0.26153644  0.88039282  1
  O  O249  1  0.51316035  0.75495634  0.38190227  1
  O  O250  1  0.51065047  0.75302695  0.87003817  1
  O  O251  1  0.25795793  0.12283227  0.48589085  1
  O  O252  1  0.26153970  0.14541628  0.99397167  1
  O  O253  1  0.24405502  0.62908250  0.48967284  1
  O  O254  1  0.25184917  0.63307785  0.99347084  1
  O  O255  1  0.74645354  0.13089322  0.49163683  1
  O  O256  1  0.75147640  0.13204516  0.99183402  1
  O  O257  1  0.74988029  0.63651260  0.49545979  1
  O  O258  1  0.74678972  0.61708127  0.98927427  1
  O  O259  1  0.26378879  0.36885142  -0.00075780  1
  O  O260  1  0.23161889  0.36019266  0.48728058  1
  O  O261  1  0.25408524  0.86941073  0.00657156  1
  O  O262  1  0.26078745  0.86268245  0.49658416  1
  O  O263  1  0.75675903  0.37107328  0.00593231  1
  O  O264  1  0.75221009  0.36771793  0.50863189  1
  O  O265  1  0.74594009  0.87169989  0.01452943  1
  O  O266  1  0.75561747  0.86237570  0.50178667  1
  O  O267  1  0.13051932  0.49355322  0.24336480  1
  O  O268  1  0.13186262  0.50431082  0.74070925  1
  O  O269  1  0.14159308  0.98716441  0.23860407  1
  O  O270  1  0.14787353  0.99233035  0.75929453  1
  O  O271  1  0.63310336  0.49432078  0.24754041  1
  O  O272  1  0.63170423  0.49320164  0.74599054  1
  O  O273  1  0.62776217  0.99139917  0.24312225  1
  O  O274  1  0.62402761  0.98946885  0.74311383  1
  O  O275  1  0.36756390  0.00545267  0.25407790  1
  O  O276  1  0.36638862  0.00564934  0.74528147  1
  O  O277  1  0.36375026  0.50935047  0.24240476  1
  O  O278  1  0.36957079  0.50992563  0.75709531  1
  O  O279  1  0.87256126  0.00290747  0.26018461  1
  O  O280  1  0.86475349  0.00777636  0.75535454  1
  O  O281  1  0.87075351  0.50808180  0.25846390  1
  O  O282  1  0.86558183  0.51364405  0.74639373  1
  O  O283  1  0.13091166  0.36703320  0.36875164  1
  O  O284  1  0.11880929  0.37007224  0.87145119  1
  O  O285  1  0.11718850  0.87677665  0.36444620  1
  O  O286  1  0.11109670  0.87474468  0.87941401  1
  O  O287  1  0.62658583  0.37533345  0.36352919  1
  O  O288  1  0.61707400  0.37012408  0.87162940  1
  O  O289  1  0.62333866  0.86846482  0.36819976  1
  O  O290  1  0.61980553  0.86552742  0.87063467  1
  O  O291  1  0.37442588  0.11794237  0.13944231  1
  O  O292  1  0.39009383  0.12069051  0.63086324  1
  O  O293  1  0.37946786  0.63278374  0.13398494  1
  O  O294  1  0.37743829  0.63514311  0.62873457  1
  O  O295  1  0.87108558  0.12657736  0.12166415  1
  O  O296  1  0.87401724  0.13133637  0.63331922  1
  O  O297  1  0.88435262  0.61929369  0.13538042  1
  O  O298  1  0.87961886  0.63025691  0.63099363  1
  O  O299  1  0.24248981  0.24715274  0.11628948  1
  O  O300  1  0.24211884  0.26952092  0.65744209  1
  O  O301  1  0.25683229  0.75684025  0.11923342  1
  O  O302  1  0.25945743  0.74749908  0.61171786  1
  O  O303  1  0.74101183  0.26307424  0.11886221  1
  O  O304  1  0.75697520  0.25325025  0.61808935  1
  O  O305  1  0.74614991  0.76336243  0.12796899  1
  O  O306  1  0.75931948  0.74811077  0.61870817  1
  O  O307  1  0.24937777  0.23976742  0.37210128  1
  O  O308  1  0.24060613  0.24803390  0.86364355  1
  O  O309  1  0.25543635  0.73953990  0.38569254  1
  O  O310  1  0.25215679  0.74385882  0.88426550  1
  O  O311  1  0.75125288  0.24162977  0.38139261  1
  O  O312  1  0.73814365  0.24744388  0.88506024  1
  O  O313  1  0.74171447  0.74611117  0.38250153  1
  O  O314  1  0.73670313  0.73909961  0.87064787  1
  O  O315  1  -0.01853838  0.13589272  0.00270925  1
  O  O316  1  -0.01808395  0.11739227  0.48749667  1
  O  O317  1  -0.00111394  0.61954945  0.00359928  1
  O  O318  1  0.00678945  0.63268101  0.50804665  1
  O  O319  1  0.49894260  0.12151996  -0.00641365  1
  O  O320  1  0.50550855  0.11861097  0.51029215  1
  O  O321  1  0.50428179  0.62069230  0.00832248  1
  O  O322  1  0.50389491  0.60975091  0.49703003  1
  O  O323  1  0.50301275  0.38725751  0.48340232  1
  O  O324  1  0.49153153  0.38465263  0.99311811  1
  O  O325  1  0.49623639  0.87935214  0.49222775  1
  O  O326  1  0.49990367  0.88237635  0.99278573  1
  O  O327  1  0.98315390  0.37458093  0.50340940  1
  O  O328  1  0.99321138  0.38303873  0.99764838  1
  O  O329  1  0.98922022  0.86598358  0.49301675  1
  O  O330  1  0.99046711  0.87206943  0.99421102  1
  O  O331  1  0.50300563  0.48911854  0.38559816  1
  O  O332  1  0.49436106  0.49706765  0.88260965  1
  O  O333  1  0.49626125  0.99385226  0.38039443  1
  O  O334  1  0.51033673  0.98848153  0.88552326  1
  O  O335  1  0.98914199  0.50613082  0.37325105  1
  O  O336  1  1.00755046  0.49022165  0.88757066  1
  O  O337  1  0.98776438  0.98621231  0.37538546  1
  O  O338  1  0.99337705  0.98685077  0.87394345  1
  O  O339  1  0.01374752  -0.00570801  0.12573520  1
  O  O340  1  0.00643638  0.00606031  0.64620752  1
  O  O341  1  0.00636535  0.51038737  0.11334157  1
  O  O342  1  0.00355188  0.51445781  0.62942314  1
  O  O343  1  0.51422119  -0.00448508  0.11872463  1
  O  O344  1  0.51070464  0.00031013  0.61841719  1
  O  O345  1  0.50859612  0.50805037  0.12049112  1
  O  O346  1  0.50775836  0.49981036  0.60927414  1
  O  O347  1  0.24050378  0.38607372  0.25368871  1
  O  O348  1  0.24765819  0.39780748  0.76350428  1
  O  O349  1  0.24747541  0.88110710  0.24374149  1
  O  O350  1  0.25618486  0.88343460  0.74732422  1
  O  O351  1  0.74666405  0.37736531  0.24436431  1
  O  O352  1  0.74594979  0.38391130  0.74944197  1
  O  O353  1  0.73991513  0.87551395  0.24114991  1
  O  O354  1  0.73771025  0.87245089  0.75135200  1
  O  O355  1  0.26037552  0.11930707  0.25526016  1
  O  O356  1  0.26566486  0.11518208  0.75118827  1
  O  O357  1  0.25416019  0.61952701  0.25520434  1
  O  O358  1  0.25576662  0.62030539  0.75822031  1
  O  O359  1  0.75384286  0.12372532  0.26218844  1
  O  O360  1  0.75623857  0.12642715  0.75550945  1
  O  O361  1  0.75780663  0.62008905  0.25436752  1
  O  O362  1  0.75477611  0.61824539  0.76074918  1
  O  O363  1  0.36881643  0.11765669  0.36526567  1
  O  O364  1  0.37896173  0.12140227  0.86041528  1
  O  O365  1  0.36813871  0.63002729  0.36057563  1
  O  O366  1  0.36636606  0.62310346  0.87305046  1
  O  O367  1  0.86472742  0.11675744  0.37331005  1
  O  O368  1  0.85826511  0.12348407  0.86911149  1
  O  O369  1  0.86988589  0.61955534  0.36948288  1
  O  O370  1  0.86613695  0.63179810  0.86869525  1
  O  O371  1  0.12079151  0.38928639  0.13234971  1
  O  O372  1  0.11174412  0.39314092  0.62595693  1
  O  O373  1  0.13774096  0.87992409  0.12899735  1
  O  O374  1  0.12968926  0.87849384  0.62533203  1
  O  O375  1  0.63503974  0.38515917  0.13648651  1
  O  O376  1  0.63253162  0.38688589  0.63737797  1
  O  O377  1  0.63127442  0.87796169  0.13154579  1
  O  O378  1  0.62576463  0.87926250  0.63405276  1
  O  O379  1  0.10779360  0.26059082  0.24110992  1
  O  O380  1  0.11681515  0.25534770  0.76207357  1
  O  O381  1  0.12811314  0.76425990  0.24307977  1
  O  O382  1  0.12465002  0.75534991  0.75406424  1
  O  O383  1  0.62002064  0.26024935  0.25294525  1
  O  O384  1  0.63149401  0.26610959  0.75855979  1
  O  O385  1  0.62734188  0.75808074  0.26164033  1
  O  O386  1  0.62007978  0.75412665  0.75565884  1
  O  O387  1  0.38076991  0.23670421  0.24385169  1
  O  O388  1  0.38592435  0.22946966  0.75177496  1
  O  O389  1  0.36931473  0.74132870  0.23843163  1
  O  O390  1  0.38040940  0.74542399  0.74135986  1
  O  O391  1  0.88885193  0.25179327  0.24316401  1
  O  O392  1  0.87033541  0.24452502  0.74052503  1
  O  O393  1  0.87361845  0.73751589  0.25496834  1
  O  O394  1  0.87166185  0.73817251  0.74214501  1
  O  O395  1  0.38464643  0.50503497  0.49831105  1
  O  O396  1  0.37656853  0.49205044  0.99699333  1
  O  O397  1  0.38071700  0.99247374  0.49310451  1
  O  O398  1  0.39184110  0.99836199  1.00850822  1
  O  O399  1  0.86727283  0.49295815  0.49126668  1
  O  O400  1  0.88474471  0.49093490  1.00103126  1
  O  O401  1  0.86499612  0.98461404  0.49525349  1
  O  O402  1  0.86209378  0.97552665  0.99507786  1
  O  O403  1  0.13056178  -0.00169870  0.01467402  1
  O  O404  1  0.13225500  0.00382555  0.49084663  1
  O  O405  1  0.11977310  0.50163520  0.00720621  1
  O  O406  1  0.12677961  0.51669598  0.50848661  1
  O  O407  1  0.61374681  0.00118749  0.01096371  1
  O  O408  1  0.62120243  0.00392274  0.50657846  1
  O  O409  1  0.62034275  0.50645776  0.00687530  1
  O  O410  1  0.62623512  0.50077038  0.50964105  1
  O  O411  1  0.38384970  0.37902276  0.11191476  1
  O  O412  1  0.38328072  0.37577083  0.61820922  1
  O  O413  1  0.36610684  0.86814719  0.12733039  1
  O  O414  1  0.37731705  0.86157104  0.61766549  1
  O  O415  1  0.86345841  0.38476156  0.11739333  1
  O  O416  1  0.86799113  0.36961497  0.62119211  1
  O  O417  1  0.86326698  0.87778558  0.11825989  1
  O  O418  1  0.87246185  0.86579622  0.61971954  1
  O  O419  1  0.14526350  0.12331468  0.36653019  1
  O  O420  1  0.11938810  0.14604972  0.87836070  1
  O  O421  1  0.13220173  0.62322720  0.38166359  1
  O  O422  1  0.13834111  0.62639710  0.87790817  1
  O  O423  1  0.63210065  0.12467548  0.38097363  1
  O  O424  1  0.63344161  0.13852871  0.86308958  1
  O  O425  1  0.63182841  0.63320091  0.37489855  1
  O  O426  1  0.63119590  0.63039670  0.88122821  1
