# generated using pymatgen
data_V85Zn86O256
_symmetry_space_group_name_H-M   'P 1'
_cell_length_a   16.96215327
_cell_length_b   16.97021705
_cell_length_c   16.96752795
_cell_angle_alpha   90.02220530
_cell_angle_beta   90.10396736
_cell_angle_gamma   90.05493995
_symmetry_Int_Tables_number   1
_chemical_formula_structural   V85Zn86O256
_chemical_formula_sum   'V85 Zn86 O256'
_cell_volume   4884.11640033
_cell_formula_units_Z   1
loop_
 _symmetry_equiv_pos_site_id
 _symmetry_equiv_pos_as_xyz
  1  'x, y, z'
loop_
 _atom_site_type_symbol
 _atom_site_label
 _atom_site_symmetry_multiplicity
 _atom_site_fract_x
 _atom_site_fract_y
 _atom_site_fract_z
 _atom_site_occupancy
  V  V0  1  0.49664448  0.75060493  0.75104681  1
  V  V1  1  -0.00122054  0.25262046  0.24525568  1
  V  V2  1  0.11622411  0.49915762  0.62085640  1
  V  V3  1  0.75300310  0.12485719  0.87629895  1
  V  V4  1  0.88427646  0.12840317  0.75203557  1
  V  V5  1  0.50077053  0.12347018  0.12807677  1
  V  V6  1  0.62844659  0.37370738  0.24965754  1
  V  V7  1  0.49802389  0.49994143  0.49938674  1
  V  V8  1  0.50037548  0.12697092  0.62890520  1
  V  V9  1  0.62697038  0.24976247  0.87865612  1
  V  V10  1  0.24731619  0.75506352  0.49223723  1
  V  V11  1  0.62290101  0.86715671  0.25491473  1
  V  V12  1  0.61895150  0.87240012  0.75714227  1
  V  V13  1  0.62830344  0.12390216  0.50162480  1
  V  V14  1  0.88313243  0.75083194  0.62850175  1
  V  V15  1  -0.00032904  -0.01064632  -0.00124759  1
  V  V16  1  0.49758138  0.62522249  0.12833245  1
  V  V17  1  0.63020006  0.37650131  0.75173722  1
  V  V18  1  0.62462719  0.50134612  0.62388095  1
  V  V19  1  0.80924985  -0.04744320  0.31106206  1
  V  V20  1  0.13392387  0.24345305  0.37244449  1
  V  V21  1  0.75844951  0.24939981  0.00527926  1
  V  V22  1  0.50530416  0.50431647  -0.00470680  1
  V  V23  1  0.37434218  0.24815118  0.12482606  1
  V  V24  1  0.75314823  0.37615588  0.62661886  1
  V  V25  1  0.00908876  0.50448636  0.00143965  1
  V  V26  1  0.00055366  0.37402912  0.87063845  1
  V  V27  1  0.74277858  0.74770794  0.50029003  1
  V  V28  1  0.88494892  0.37738938  0.50249113  1
  V  V29  1  0.24443260  0.62834316  0.86027689  1
  V  V30  1  0.34667608  0.00872355  0.84128417  1
  V  V31  1  0.75411944  0.25174930  0.50226417  1
  V  V32  1  0.37333788  0.36773209  0.50149925  1
  V  V33  1  0.36656254  0.49606352  0.86587700  1
  V  V34  1  0.87172241  0.75476644  0.11455266  1
  V  V35  1  0.88498707  0.25272705  0.63042177  1
  V  V36  1  0.74483686  0.63034594  0.88834463  1
  V  V37  1  -0.00277131  0.86757446  0.85951565  1
  V  V38  1  0.87408650  -0.00606005  0.87936799  1
  V  V39  1  0.37600395  0.37022395  -0.00418136  1
  V  V40  1  0.11588022  0.62337020  0.49450690  1
  V  V41  1  0.50127636  0.37384318  0.37472508  1
  V  V42  1  0.00210576  0.12397320  0.61849621  1
  V  V43  1  0.49791841  0.62397721  0.62403254  1
  V  V44  1  0.37293097  0.75095119  0.61725312  1
  V  V45  1  0.25336902  0.87902564  0.62820600  1
  V  V46  1  0.12627313  0.12341202  -0.00214008  1
  V  V47  1  0.75018194  0.87385630  0.10564093  1
  V  V48  1  0.25577926  0.01060263  0.24506751  1
  V  V49  1  0.25156730  0.38393708  0.62584193  1
  V  V50  1  0.49990073  0.37359556  0.87481012  1
  V  V51  1  0.12449535  -0.00269601  0.62980889  1
  V  V52  1  0.13321617  0.38377718  0.24886018  1
  V  V53  1  0.50629751  0.24924931  0.74772047  1
  V  V54  1  0.37074665  0.49878415  0.36348103  1
  V  V55  1  0.62933953  0.50349658  0.11965735  1
  V  V56  1  0.13007794  0.38045118  0.75193403  1
  V  V57  1  0.49347074  -0.00459170  -0.00542980  1
  V  V58  1  0.34088856  0.22502412  0.66073905  1
  V  V59  1  -0.00112501  0.63304551  0.12182124  1
  V  V60  1  0.18279952  0.67957152  0.04425726  1
  V  V61  1  0.88151855  0.37360421  0.00612679  1
  V  V62  1  0.75620841  0.37372540  0.12548968  1
  V  V63  1  -0.00153061  0.76167136  0.26274774  1
  V  V64  1  0.87944540  0.63066729  0.75268499  1
  V  V65  1  0.13757395  0.87562618  0.25822993  1
  V  V66  1  0.88255190  0.50099252  0.38191635  1
  V  V67  1  0.75413532  0.49926932  0.25027237  1
  V  V68  1  0.75020306  0.87212544  0.62665640  1
  V  V69  1  0.25025184  0.62245682  0.37477452  1
  V  V70  1  0.75100896  0.50545082  0.75211215  1
  V  V71  1  0.49712491  0.86891346  0.38360735  1
  V  V72  1  -0.00547990  0.12652849  0.12297444  1
  V  V73  1  0.24900448  0.24524564  -0.00390413  1
  V  V74  1  0.62411615  -0.00038613  0.62933264  1
  V  V75  1  0.87801778  0.62412655  0.25113140  1
  V  V76  1  0.86939864  0.13107735  0.24994624  1
  V  V77  1  0.62072195  0.74800675  0.89181386  1
  V  V78  1  0.37094180  0.00375068  0.38572408  1
  V  V79  1  0.74206144  0.62405341  0.37543870  1
  V  V80  1  0.63084503  -0.00168344  0.13562425  1
  V  V81  1  0.62669946  0.25037445  0.37573742  1
  V  V82  1  0.62720079  0.12398341  0.00309010  1
  V  V83  1  0.74981057  -0.00054510  0.75279273  1
  V  V84  1  0.12068635  0.24427787  0.86826431  1
  Zn  Zn85  1  0.00254124  0.37341230  0.37570042  1
  Zn  Zn86  1  0.25238321  0.38121918  0.12504885  1
  Zn  Zn87  1  0.44957396  0.84532773  0.91325168  1
  Zn  Zn88  1  0.37397237  0.13108420  0.25933934  1
  Zn  Zn89  1  0.49594476  0.74771069  0.25421336  1
  Zn  Zn90  1  0.13324407  0.11293383  0.49121930  1
  Zn  Zn91  1  0.30614377  0.83637805  0.05504257  1
  Zn  Zn92  1  0.12036001  0.86245111  0.74323051  1
  Zn  Zn93  1  0.74846892  0.12288039  0.36921614  1
  Zn  Zn94  1  0.00255052  0.62656020  0.62968904  1
  Zn  Zn95  1  0.87590967  0.50313084  0.87848499  1
  Zn  Zn96  1  0.25221959  0.24488321  0.49375232  1
  Zn  Zn97  1  0.13497286  0.50695863  0.12667463  1
  Zn  Zn98  1  0.50045828  0.24998018  0.24990061  1
  Zn  Zn99  1  0.13287370  -0.00242666  0.12230119  1
  Zn  Zn100  1  0.49688546  -0.00394538  0.50424733  1
  Zn  Zn101  1  0.36218666  0.62657174  0.23876488  1
  Zn  Zn102  1  0.11894368  0.74182643  0.86765496  1
  Zn  Zn103  1  0.61936913  0.62891355  0.49479228  1
  Zn  Zn104  1  -0.00102982  -0.02312627  0.47865682  1
  Zn  Zn105  1  0.37302406  0.61797266  0.74463316  1
  Zn  Zn106  1  0.87441202  0.87622830  0.48930833  1
  Zn  Zn107  1  0.18464841  0.18811072  0.18410091  1
  Zn  Zn108  1  0.17765342  0.19303496  0.68600051  1
  Zn  Zn109  1  0.18432430  0.69546591  0.20720388  1
  Zn  Zn110  1  0.18437652  0.68946855  0.68584355  1
  Zn  Zn111  1  0.68808145  0.18939512  0.18635278  1
  Zn  Zn112  1  0.69266749  0.18735191  0.68839597  1
  Zn  Zn113  1  0.68546898  0.68944153  0.18242417  1
  Zn  Zn114  1  0.68581946  0.68709452  0.68923657  1
  Zn  Zn115  1  0.31340222  0.31443545  0.30981185  1
  Zn  Zn116  1  0.30604080  0.29918936  0.81096561  1
  Zn  Zn117  1  0.32086789  0.81146525  0.30778362  1
  Zn  Zn118  1  0.30953246  0.81165774  0.80968085  1
  Zn  Zn119  1  0.81740187  0.30892671  0.31495092  1
  Zn  Zn120  1  0.81642466  0.31296965  0.81683490  1
  Zn  Zn121  1  0.80554458  0.79173934  0.30522380  1
  Zn  Zn122  1  0.80955037  0.81093675  0.81685198  1
  Zn  Zn123  1  0.18643833  0.43740447  0.43636040  1
  Zn  Zn124  1  0.19062489  0.43721152  0.94005160  1
  Zn  Zn125  1  0.18634057  0.93796078  0.43771979  1
  Zn  Zn126  1  0.18780249  0.94139782  0.92330845  1
  Zn  Zn127  1  0.69104886  0.43852273  0.43865336  1
  Zn  Zn128  1  0.69133801  0.43809421  0.93755466  1
  Zn  Zn129  1  0.67972773  0.93276377  0.44382698  1
  Zn  Zn130  1  0.67663627  0.93759847  0.93954367  1
  Zn  Zn131  1  0.31395283  0.06100640  0.06145264  1
  Zn  Zn132  1  0.30959528  0.06252806  0.56137473  1
  Zn  Zn133  1  0.31871596  0.55276663  0.05757735  1
  Zn  Zn134  1  0.30974610  0.56179120  0.55809376  1
  Zn  Zn135  1  0.81519393  0.05947708  0.06554645  1
  Zn  Zn136  1  0.81552070  0.06017911  0.55855643  1
  Zn  Zn137  1  0.81966378  0.56050232  0.06228724  1
  Zn  Zn138  1  0.81384083  0.56509972  0.56338709  1
  Zn  Zn139  1  0.44034803  0.43549979  0.18503382  1
  Zn  Zn140  1  0.43774924  0.43015027  0.68628950  1
  Zn  Zn141  1  0.43646022  0.93964875  0.19220673  1
  Zn  Zn142  1  0.43313205  0.93685322  0.68867694  1
  Zn  Zn143  1  0.94464326  0.44047232  0.18726614  1
  Zn  Zn144  1  0.93894550  0.44140568  0.69194898  1
  Zn  Zn145  1  0.94179480  0.93430418  0.17866707  1
  Zn  Zn146  1  0.93251304  0.94449199  0.67625629  1
  Zn  Zn147  1  0.06649410  0.05687102  0.30756471  1
  Zn  Zn148  1  0.06452702  0.05708937  0.80990251  1
  Zn  Zn149  1  0.06113322  0.56447358  0.31303639  1
  Zn  Zn150  1  0.06408973  0.55797809  0.81143417  1
  Zn  Zn151  1  0.55847243  0.05905547  0.31535581  1
  Zn  Zn152  1  0.56139812  0.06449963  0.81418025  1
  Zn  Zn153  1  0.56308612  0.55624500  0.30945019  1
  Zn  Zn154  1  0.56256922  0.56577393  0.81255297  1
  Zn  Zn155  1  0.44080937  0.18485691  0.44026503  1
  Zn  Zn156  1  0.43582253  0.17724034  0.93484704  1
  Zn  Zn157  1  0.43270246  0.68772619  0.43442499  1
  Zn  Zn158  1  0.42718265  0.67915581  0.94125651  1
  Zn  Zn159  1  0.96243693  0.15018833  0.41262770  1
  Zn  Zn160  1  0.94037796  0.18741679  0.93841240  1
  Zn  Zn161  1  0.93155601  0.69191149  0.44292054  1
  Zn  Zn162  1  0.93519380  0.68768020  0.93848551  1
  Zn  Zn163  1  0.06436854  0.31204769  0.06391346  1
  Zn  Zn164  1  0.06414810  0.30914462  0.56114896  1
  Zn  Zn165  1  0.11055840  0.84323628  0.04634338  1
  Zn  Zn166  1  0.06458995  0.81327420  0.55366367  1
  Zn  Zn167  1  0.56427604  0.31350525  0.06313506  1
  Zn  Zn168  1  0.56432563  0.31322888  0.56262186  1
  Zn  Zn169  1  0.46999655  0.81232039  0.07282268  1
  Zn  Zn170  1  0.56291437  0.81177958  0.56475038  1
  O  O171  1  0.11412746  0.12089415  0.11714946  1
  O  O172  1  0.11653817  0.11693931  0.63188214  1
  O  O173  1  0.12289476  0.63043554  0.11951170  1
  O  O174  1  0.12484126  0.61504284  0.61521839  1
  O  O175  1  0.61985096  0.11971779  0.12229586  1
  O  O176  1  0.62183249  0.12075787  0.62130681  1
  O  O177  1  0.62168289  0.60824262  0.12819714  1
  O  O178  1  0.61730730  0.61645996  0.62306441  1
  O  O179  1  0.38053245  0.38097493  0.38069286  1
  O  O180  1  0.37907276  0.37666783  0.87748803  1
  O  O181  1  0.39049695  0.88672059  0.37119668  1
  O  O182  1  0.36783931  0.90040883  0.85876909  1
  O  O183  1  0.87558542  0.38166625  0.38625360  1
  O  O184  1  0.88391136  0.37718942  0.88538925  1
  O  O185  1  0.85928647  0.88309280  0.36528825  1
  O  O186  1  0.88179446  0.88392167  0.87243275  1
  O  O187  1  0.26593053  -0.00653891  0.36774128  1
  O  O188  1  0.24669448  0.01000391  0.85644198  1
  O  O189  1  0.26191412  0.50657899  0.38269973  1
  O  O190  1  0.25899538  0.50774507  0.87914065  1
  O  O191  1  0.74937114  0.00331237  0.37734329  1
  O  O192  1  0.75551552  0.00378127  0.87355501  1
  O  O193  1  0.75985759  0.50387034  0.36946759  1
  O  O194  1  0.74967404  0.51095872  0.86816876  1
  O  O195  1  0.24738513  0.49499158  0.11792484  1
  O  O196  1  0.24085225  0.48902409  0.61974951  1
  O  O197  1  0.25392032  1.00139615  0.14079813  1
  O  O198  1  0.24447280  0.98390085  0.61739047  1
  O  O199  1  0.74680612  0.49445486  0.12836991  1
  O  O200  1  0.74560585  0.49617835  0.63307359  1
  O  O201  1  0.74197870  0.99029064  0.11948285  1
  O  O202  1  0.74337750  0.99183029  0.63361181  1
  O  O203  1  0.00774845  0.36703490  0.25078531  1
  O  O204  1  0.00504698  0.38053973  0.76519242  1
  O  O205  1  -0.00744673  0.86303634  0.25394230  1
  O  O206  1  -0.00834839  0.87927030  0.75854164  1
  O  O207  1  0.50939243  0.37372896  0.25693458  1
  O  O208  1  0.51401425  0.37121765  0.75564104  1
  O  O209  1  0.50935714  0.87342522  0.26057433  1
  O  O210  1  0.50774355  0.86621976  0.74329786  1
  O  O211  1  0.49955278  0.12699032  0.23821703  1
  O  O212  1  0.50844440  0.13449100  0.73898855  1
  O  O213  1  0.50243033  0.61808078  0.23568485  1
  O  O214  1  0.49769914  0.63249706  0.74201366  1
  O  O215  1  0.99290856  0.13147256  0.23945742  1
  O  O216  1  0.98786313  0.12195718  0.74364550  1
  O  O217  1  0.99747636  0.63197013  0.24289345  1
  O  O218  1  0.98296003  0.61649176  0.75270277  1
  O  O219  1  0.36804623  0.24812960  0.00207483  1
  O  O220  1  0.37742624  0.26304764  0.49643664  1
  O  O221  1  0.39208082  0.77403342  -0.01016624  1
  O  O222  1  0.36508519  0.74440710  0.51083768  1
  O  O223  1  0.86820850  0.25806794  -0.00347522  1
  O  O224  1  0.86667753  0.26057936  0.51417243  1
  O  O225  1  0.87500448  0.74618519  0.01566943  1
  O  O226  1  0.85962910  0.75075352  0.51165308  1
  O  O227  1  0.12485258  0.25824131  0.47843985  1
  O  O228  1  0.13080794  0.24408303  0.99383903  1
  O  O229  1  0.13616976  0.73288621  0.50603873  1
  O  O230  1  0.11895346  0.73849625  0.99030719  1
  O  O231  1  0.63302835  0.24439178  0.49674598  1
  O  O232  1  0.63362314  0.24452480  0.99647589  1
  O  O233  1  0.63741653  0.74617263  0.50696071  1
  O  O234  1  0.61179329  0.75340190  0.98667251  1
  O  O235  1  0.49461251  0.24156153  0.12369735  1
  O  O236  1  0.50838984  0.24319051  0.63499151  1
  O  O237  1  0.51815499  0.72568385  0.12727190  1
  O  O238  1  0.49170150  0.74498861  0.62801570  1
  O  O239  1  1.00706607  0.24125166  0.13550147  1
  O  O240  1  0.98967378  0.24926049  0.63032880  1
  O  O241  1  0.99217079  0.73929461  0.13499918  1
  O  O242  1  0.98503783  0.74822341  0.62333542  1
  O  O243  1  0.01112769  0.24848566  0.35975865  1
  O  O244  1  0.00979987  0.26201853  0.88356858  1
  O  O245  1  -0.00883835  0.74284023  0.35955685  1
  O  O246  1  -0.00724270  0.76606462  0.87812449  1
  O  O247  1  0.50999761  0.25570613  0.37537268  1
  O  O248  1  0.50687220  0.25125475  0.86950874  1
  O  O249  1  0.49852835  0.76416689  0.37844498  1
  O  O250  1  0.50275573  0.74796480  0.86479498  1
  O  O251  1  0.24289650  0.13357338  0.50992464  1
  O  O252  1  0.23534491  0.12930855  1.00670420  1
  O  O253  1  0.24270101  0.63105542  0.49184527  1
  O  O254  1  0.25028391  0.62442508  0.99047586  1
  O  O255  1  0.74084238  0.13182237  0.50380169  1
  O  O256  1  0.74914974  0.13289695  0.99718468  1
  O  O257  1  0.74644662  0.62918170  0.49302699  1
  O  O258  1  0.75247674  0.61718837  0.98631883  1
  O  O259  1  0.25894316  0.36344683  0.00063113  1
  O  O260  1  0.25975197  0.37515549  0.50516292  1
  O  O261  1  0.21481035  0.87861830  0.01044450  1
  O  O262  1  0.24222238  0.86056714  0.50730868  1
  O  O263  1  0.76132922  0.36911242  0.00307969  1
  O  O264  1  0.75717362  0.37073960  0.50880909  1
  O  O265  1  0.74412089  0.87353615  0.00694015  1
  O  O266  1  0.74922649  0.86671391  0.50999622  1
  O  O267  1  0.11831616  0.48618274  0.24867272  1
  O  O268  1  0.12381167  0.48722386  0.74073024  1
  O  O269  1  0.14249430  0.99791588  0.24972749  1
  O  O270  1  0.12028851  0.99125126  0.73427468  1
  O  O271  1  0.63488968  0.49127177  0.24225417  1
  O  O272  1  0.63511550  0.49765376  0.74616018  1
  O  O273  1  0.62137819  0.99642735  0.23985387  1
  O  O274  1  0.62794524  0.99175197  0.74892291  1
  O  O275  1  0.36713302  0.00487322  0.25950258  1
  O  O276  1  0.36666711  0.01151804  0.74252607  1
  O  O277  1  0.37993497  0.50049374  0.26084655  1
  O  O278  1  0.38409339  0.49646304  0.76268466  1
  O  O279  1  0.87295502  0.00654982  0.24978619  1
  O  O280  1  0.86856461  0.00877472  0.75862533  1
  O  O281  1  0.87136090  0.50488316  0.25640926  1
  O  O282  1  0.86288115  0.50618814  0.75367029  1
  O  O283  1  0.12234169  0.37092453  0.36267303  1
  O  O284  1  0.12079935  0.37133741  0.86854737  1
  O  O285  1  0.11821003  0.88901299  0.35644171  1
  O  O286  1  0.10601657  0.87541513  0.86559412  1
  O  O287  1  0.62216605  0.37040934  0.37112193  1
  O  O288  1  0.62232798  0.36856199  0.87109477  1
  O  O289  1  0.61017446  0.88473518  0.36720971  1
  O  O290  1  0.62899329  0.86474829  0.86320046  1
  O  O291  1  0.38333406  0.13542662  0.12429622  1
  O  O292  1  0.38634091  0.13717053  0.61790749  1
  O  O293  1  0.39340113  0.61490137  0.12307974  1
  O  O294  1  0.37930170  0.63019445  0.62491150  1
  O  O295  1  0.88698668  0.12275708  0.13035515  1
  O  O296  1  0.88119128  0.13423170  0.63233126  1
  O  O297  1  0.88117092  0.62955117  0.13201940  1
  O  O298  1  0.87558480  0.63249319  0.63401532  1
  O  O299  1  0.25808301  0.25130059  0.11490562  1
  O  O300  1  0.24692181  0.26628685  0.61457459  1
  O  O301  1  0.23659173  0.73782117  0.10892731  1
  O  O302  1  0.25693150  0.75484142  0.61636697  1
  O  O303  1  0.74637359  0.25767542  0.11194770  1
  O  O304  1  0.75810017  0.25802883  0.62265611  1
  O  O305  1  0.75837570  0.76245962  0.13359339  1
  O  O306  1  0.75279149  0.75576464  0.62155978  1
  O  O307  1  0.23808678  0.25620935  0.37300844  1
  O  O308  1  0.23737265  0.25052543  0.88938385  1
  O  O309  1  0.25764174  0.74206197  0.38659247  1
  O  O310  1  0.25118947  0.73179702  0.87125700  1
  O  O311  1  0.74154264  0.25130378  0.38461036  1
  O  O312  1  0.74674144  0.24636561  0.88596716  1
  O  O313  1  0.75167644  0.73604002  0.38613567  1
  O  O314  1  0.73890763  0.73736060  0.87388979  1
  O  O315  1  0.00712580  0.12054031  0.00568230  1
  O  O316  1  0.01122757  0.14279421  0.51788661  1
  O  O317  1  -0.00601681  0.61650072  0.00807065  1
  O  O318  1  0.01327184  0.63117687  0.50124250  1
  O  O319  1  0.50741678  0.11930560  0.01094515  1
  O  O320  1  0.51380260  0.12721228  0.51279524  1
  O  O321  1  0.49796544  0.60940924  0.00764144  1
  O  O322  1  0.49968665  0.61568512  0.50345027  1
  O  O323  1  0.49499982  0.38062838  0.49591106  1
  O  O324  1  0.49645445  0.37975377  0.99231273  1
  O  O325  1  0.50807688  0.87766779  0.48814915  1
  O  O326  1  0.51513566  0.89267047  0.99849078  1
  O  O327  1  0.98771108  0.37131329  0.49867498  1
  O  O328  1  0.99599229  0.37960760  0.99550711  1
  O  O329  1  0.98873755  0.86431858  0.49352561  1
  O  O330  1  1.00918622  0.88796180  0.99285813  1
  O  O331  1  0.49407350  0.49383725  0.38252407  1
  O  O332  1  0.49837574  0.49420841  0.88025251  1
  O  O333  1  0.48958466  0.99256457  0.37981199  1
  O  O334  1  0.50766795  1.00482006  0.89358808  1
  O  O335  1  0.98547003  0.49791061  0.37179890  1
  O  O336  1  0.99858972  0.49296807  0.88416715  1
  O  O337  1  0.99422981  1.04223875  0.38741181  1
  O  O338  1  0.99102578  0.99231319  0.87821437  1
  O  O339  1  -0.00086403  0.00814805  0.11320041  1
  O  O340  1  0.00777826  0.01151095  0.62425663  1
  O  O341  1  0.00544492  0.51550880  0.12046720  1
  O  O342  1  0.01196658  0.50184568  0.62651935  1
  O  O343  1  0.50913890  0.00799463  0.11968490  1
  O  O344  1  0.50528432  0.00858588  0.62529046  1
  O  O345  1  0.51018297  0.50209228  0.11651891  1
  O  O346  1  0.50336456  0.50157738  0.61790372  1
  O  O347  1  0.23661890  0.37403827  0.24706919  1
  O  O348  1  0.24111314  0.36996709  0.74062121  1
  O  O349  1  0.24202592  0.88052306  0.25420245  1
  O  O350  1  0.24582667  0.86652083  0.72999521  1
  O  O351  1  0.74991947  0.37849949  0.24440258  1
  O  O352  1  0.74873387  0.38408993  0.74861488  1
  O  O353  1  0.74671019  0.88586925  0.25809944  1
  O  O354  1  0.74061771  0.87938247  0.74626038  1
  O  O355  1  0.25296943  0.11409406  0.24774289  1
  O  O356  1  0.27861821  0.18841730  0.73890319  1
  O  O357  1  0.24590037  0.62474788  0.26787227  1
  O  O358  1  0.25385365  0.62130410  0.75745903  1
  O  O359  1  0.76311077  0.12866518  0.24495225  1
  O  O360  1  0.75753989  0.11849810  0.75716775  1
  O  O361  1  0.75607813  0.62059288  0.25689834  1
  O  O362  1  0.75529046  0.61841310  0.75659150  1
  O  O363  1  0.38356587  0.10951842  0.37525522  1
  O  O364  1  0.37944810  0.09978483  0.87583863  1
  O  O365  1  0.36711009  0.61212655  0.37785317  1
  O  O366  1  0.36409856  0.61321365  0.87072810  1
  O  O367  1  0.86349928  0.13674412  0.35753762  1
  O  O368  1  0.87179712  0.12041934  0.86860704  1
  O  O369  1  0.86617089  0.61728170  0.37336951  1
  O  O370  1  0.86186738  0.62655856  0.86953044  1
  O  O371  1  0.12536470  0.37380888  0.13982506  1
  O  O372  1  0.12886576  0.37971621  0.63031180  1
  O  O373  1  0.10861683  0.88596045  0.15238345  1
  O  O374  1  0.13388705  0.87853376  0.62369318  1
  O  O375  1  0.63352312  0.38251399  0.12964597  1
  O  O376  1  0.63244569  0.38167625  0.63177696  1
  O  O377  1  0.63891938  0.88432963  0.13961714  1
  O  O378  1  0.63330569  0.87761055  0.63537475  1
  O  O379  1  0.12193737  0.25815642  0.25636660  1
  O  O380  1  0.12168224  0.26194523  0.76262963  1
  O  O381  1  0.11183309  0.76611749  0.25475609  1
  O  O382  1  0.12029197  0.74808971  0.75397277  1
  O  O383  1  0.62572444  0.25618046  0.25814104  1
  O  O384  1  0.62277975  0.25499752  0.75714347  1
  O  O385  1  0.62523959  0.76402940  0.25031402  1
  O  O386  1  0.61268410  0.75546463  0.75128664  1
  O  O387  1  0.37800959  0.24913599  0.24000806  1
  O  O388  1  0.40036084  0.26993011  0.74563802  1
  O  O389  1  0.38250559  0.73691381  0.25483703  1
  O  O390  1  0.38463125  0.74885558  0.73942949  1
  O  O391  1  0.88605954  0.24497385  0.24757666  1
  O  O392  1  0.86689948  0.24039079  0.74292491  1
  O  O393  1  0.88439233  0.74149768  0.24186671  1
  O  O394  1  0.86431253  0.73993016  0.74215992  1
  O  O395  1  0.38556806  0.48912343  0.49693158  1
  O  O396  1  0.38700059  0.48975196  0.98605641  1
  O  O397  1  0.37702017  1.00006229  0.48942870  1
  O  O398  1  0.39230233  1.00041154  1.00443526  1
  O  O399  1  0.86804367  0.49050602  0.49361556  1
  O  O400  1  0.88724988  0.49069610  0.99856465  1
  O  O401  1  0.88503765  0.98699907  0.51855732  1
  O  O402  1  0.88392655  1.00805340  0.98605831  1
  O  O403  1  0.11570354  0.01069238  -0.00247043  1
  O  O404  1  0.11851711  -0.00192046  0.51081577  1
  O  O405  1  0.11197237  0.49200184  0.00383008  1
  O  O406  1  0.12760475  0.51180504  0.50659165  1
  O  O407  1  0.62020007  0.00921915  0.01174019  1
  O  O408  1  0.62363667  0.00958872  0.51068747  1
  O  O409  1  0.61747829  0.49063887  0.00782087  1
  O  O410  1  0.61271834  0.49790350  0.50470282  1
  O  O411  1  0.37951823  0.36185132  0.11638006  1
  O  O412  1  0.36606747  0.36845259  0.61905032  1
  O  O413  1  0.38669720  0.86687953  0.12580353  1
  O  O414  1  0.36271985  0.86696741  0.62365796  1
  O  O415  1  0.87356797  0.38056701  0.11356642  1
  O  O416  1  0.87324759  0.37176649  0.62322943  1
  O  O417  1  0.86188080  0.86825019  0.12821623  1
  O  O418  1  0.85884287  0.86569089  0.63592739  1
  O  O419  1  0.12916878  0.14096862  0.37099506  1
  O  O420  1  0.11354127  0.13461784  0.88186823  1
  O  O421  1  0.13147293  0.61721473  0.38770416  1
  O  O422  1  0.14056366  0.61876382  0.87221663  1
  O  O423  1  0.62625439  0.13032083  0.38442535  1
  O  O424  1  0.63413119  0.13055386  0.88170889  1
  O  O425  1  0.63784904  0.61360542  0.37547983  1
  O  O426  1  0.63613417  0.63261124  0.87203833  1
