# generated using pymatgen
data_V85Zn86O256
_symmetry_space_group_name_H-M   'P 1'
_cell_length_a   16.93058069
_cell_length_b   16.94411518
_cell_length_c   16.93534749
_cell_angle_alpha   90.06245934
_cell_angle_beta   90.04584086
_cell_angle_gamma   90.00565503
_symmetry_Int_Tables_number   1
_chemical_formula_structural   V85Zn86O256
_chemical_formula_sum   'V85 Zn86 O256'
_cell_volume   4858.30148563
_cell_formula_units_Z   1
loop_
 _symmetry_equiv_pos_site_id
 _symmetry_equiv_pos_as_xyz
  1  'x, y, z'
loop_
 _atom_site_type_symbol
 _atom_site_label
 _atom_site_symmetry_multiplicity
 _atom_site_fract_x
 _atom_site_fract_y
 _atom_site_fract_z
 _atom_site_occupancy
  V  V0  1  0.25711149  0.25423279  0.49343297  1
  V  V1  1  0.61728180  0.37643559  0.24956448  1
  V  V2  1  0.00334982  0.38194968  0.87911826  1
  V  V3  1  0.37752913  0.62201973  0.74849245  1
  V  V4  1  0.25786705  0.87042725  0.11625848  1
  V  V5  1  0.24884973  0.74216215  0.50056110  1
  V  V6  1  0.49827063  0.12265694  0.62108533  1
  V  V7  1  0.37847699  0.87633560  0.49757485  1
  V  V8  1  0.24958192  0.49898957  0.74920921  1
  V  V9  1  0.87702634  0.38397110  0.00188772  1
  V  V10  1  0.37943736  0.00182011  0.37585905  1
  V  V11  1  0.11274589  0.50188826  0.11840543  1
  V  V12  1  0.62324186  0.25997497  0.87693555  1
  V  V13  1  0.62663017  0.74713120  0.37753295  1
  V  V14  1  0.62862301  0.12480735  0.49987605  1
  V  V15  1  0.24549704  -0.00025560  0.24497366  1
  V  V16  1  0.37834324  0.12086555  0.23367569  1
  V  V17  1  0.87606316  0.87663002  0.50458809  1
  V  V18  1  0.74840069  0.49976770  0.73795676  1
  V  V19  1  0.86754096  0.38925803  0.49618133  1
  V  V20  1  0.12684962  0.12772995  0.49648926  1
  V  V21  1  0.62499528  0.75018572  0.87651240  1
  V  V22  1  0.87462353  0.13005289  0.75185972  1
  V  V23  1  0.50100166  0.25446865  0.75233329  1
  V  V24  1  0.62385995  0.87657489  0.75226857  1
  V  V25  1  0.49605525  0.87545401  0.88381727  1
  V  V26  1  0.87812953  0.74579683  0.12362141  1
  V  V27  1  0.37856668  0.48339666  0.37708192  1
  V  V28  1  0.50190073  0.24496763  0.25058787  1
  V  V29  1  0.75248926  0.75223328  0.00065563  1
  V  V30  1  0.50171425  0.87763035  0.37848176  1
  V  V31  1  0.75297044  0.87991644  0.12134056  1
  V  V32  1  0.88315478  0.25318571  0.13591621  1
  V  V33  1  0.50004687  0.48388465  0.50180271  1
  V  V34  1  0.86296655  0.25989395  0.61740103  1
  V  V35  1  0.50418291  0.74342634  0.24205067  1
  V  V36  1  0.37667688  0.75044661  0.62361177  1
  V  V37  1  0.87528486  0.00241788  0.37771676  1
  V  V38  1  0.75061652  0.49924341  0.25701224  1
  V  V39  1  0.74774146  0.62221369  0.87862039  1
  V  V40  1  0.37550449  -0.00048463  0.87245000  1
  V  V41  1  0.62795628  0.38113459  0.73671305  1
  V  V42  1  0.25194794  0.49757034  0.24396217  1
  V  V43  1  0.75011437  0.00495785  0.25263866  1
  V  V44  1  0.62700802  0.87618495  0.25169494  1
  V  V45  1  0.00269260  0.87410065  0.37646410  1
  V  V46  1  0.12683277  0.74060565  0.37950011  1
  V  V47  1  0.25101228  0.12416526  0.36812469  1
  V  V48  1  0.50027594  0.74889720  0.75104755  1
  V  V49  1  0.61927702  -0.00083368  0.62129586  1
  V  V50  1  0.87628101  0.62151151  0.25698449  1
  V  V51  1  0.12592021  0.50153767  0.61389651  1
  V  V52  1  0.25233110  0.88189242  0.62272195  1
  V  V53  1  0.11650057  0.37318491  0.24498304  1
  V  V54  1  0.62683460  0.25762672  0.38229118  1
  V  V55  1  0.36865362  0.12544894  0.74695197  1
  V  V56  1  0.00230420  0.11403708  0.12889638  1
  V  V57  1  0.12844004  -0.00101255  0.62401414  1
  V  V58  1  0.75053173  0.25380282  0.00579890  1
  V  V59  1  0.74985281  0.75005061  0.50262379  1
  V  V60  1  0.37572554  0.25234271  0.12091216  1
  V  V61  1  0.11684328  0.24948357  0.36368201  1
  V  V62  1  0.00686510  0.62707146  0.62009659  1
  V  V63  1  0.87890625  0.62591596  0.75223401  1
  V  V64  1  0.87946896  0.75343477  0.62997480  1
  V  V65  1  0.24753474  0.14683073  0.88069523  1
  V  V66  1  0.20171306  -0.05192290  0.79990318  1
  V  V67  1  0.50459306  0.50369252  0.00082810  1
  V  V68  1  0.74977411  0.00201979  0.75269365  1
  V  V69  1  0.12871883  0.87214426  0.24876664  1
  V  V70  1  0.12576431  0.37111392  0.75214513  1
  V  V71  1  0.62049578  0.62025239  0.50732481  1
  V  V72  1  0.37921808  0.37165550  -0.01075075  1
  V  V73  1  0.25608774  0.74473019  -0.00041681  1
  V  V74  1  0.75079637  0.87650893  0.62875701  1
  V  V75  1  0.00214430  0.74378321  0.24595639  1
  V  V76  1  0.01774055  0.76067473  0.76159213  1
  V  V77  1  0.24787146  0.62550109  0.87612340  1
  V  V78  1  -0.00125111  0.25644621  0.75123696  1
  V  V79  1  0.11341494  0.62073240  -0.00394487  1
  V  V80  1  0.25519965  0.37382277  0.61779855  1
  V  V81  1  0.49704261  0.00734973  0.00705467  1
  V  V82  1  0.38108365  0.62098728  0.24724855  1
  V  V83  1  0.74833152  0.12665366  0.87829521  1
  V  V84  1  0.00256809  0.00057484  0.50180878  1
  Zn  Zn85  1  0.08510309  -0.03615355  0.08184143  1
  Zn  Zn86  1  0.74660652  0.37815743  0.12701789  1
  Zn  Zn87  1  0.90198160  0.88676869  -0.00118139  1
  Zn  Zn88  1  0.11795389  0.12998653  -0.00609050  1
  Zn  Zn89  1  0.75213799  0.12910091  0.38360840  1
  Zn  Zn90  1  0.50367202  0.61860813  0.62624839  1
  Zn  Zn91  1  0.87699328  0.50303021  0.88081987  1
  Zn  Zn92  1  0.37989161  0.25421286  0.61669285  1
  Zn  Zn93  1  0.38246140  0.74271874  0.11978989  1
  Zn  Zn94  1  0.62065127  0.00733099  0.12839586  1
  Zn  Zn95  1  0.24878235  0.37346312  0.11363566  1
  Zn  Zn96  1  0.75527194  0.61735301  0.38170308  1
  Zn  Zn97  1  0.61817553  0.13311632  0.00970414  1
  Zn  Zn98  1  0.87630412  0.13618557  0.25813592  1
  Zn  Zn99  1  -0.00439941  0.38078972  0.37420604  1
  Zn  Zn100  1  0.61920829  0.51187517  0.13250829  1
  Zn  Zn101  1  0.61742085  0.63160641  0.01147133  1
  Zn  Zn102  1  0.89293119  -0.00556308  0.88113191  1
  Zn  Zn103  1  0.00010786  0.13118229  0.62403439  1
  Zn  Zn104  1  0.38476444  0.49413583  0.87066393  1
  Zn  Zn105  1  0.25211239  0.61951063  0.37839609  1
  Zn  Zn106  1  0.00177020  0.50689856  0.48788480  1
  Zn  Zn107  1  0.16963559  0.20767465  0.15047703  1
  Zn  Zn108  1  0.18837885  0.19041120  0.68448557  1
  Zn  Zn109  1  0.19011197  0.68029071  0.18489407  1
  Zn  Zn110  1  0.18958828  0.68750428  0.68578370  1
  Zn  Zn111  1  0.68729388  0.18674397  0.18775673  1
  Zn  Zn112  1  0.68664170  0.18992194  0.68813118  1
  Zn  Zn113  1  0.69227962  0.68584370  0.18861315  1
  Zn  Zn114  1  0.68939672  0.68659436  0.68927311  1
  Zn  Zn115  1  0.30717038  0.30924944  0.30293995  1
  Zn  Zn116  1  0.31769576  0.31454707  0.80644102  1
  Zn  Zn117  1  0.31509059  0.80835168  0.31033978  1
  Zn  Zn118  1  0.31451596  0.80701873  0.81767141  1
  Zn  Zn119  1  0.80496295  0.31809768  0.31920398  1
  Zn  Zn120  1  0.81176524  0.31623605  0.81436253  1
  Zn  Zn121  1  0.81348258  0.81349938  0.31315154  1
  Zn  Zn122  1  0.81903107  0.81325352  0.81718087  1
  Zn  Zn123  1  0.18679438  0.43550865  0.43087526  1
  Zn  Zn124  1  0.19175523  0.43493321  0.93584355  1
  Zn  Zn125  1  0.19100233  0.93460886  0.43533091  1
  Zn  Zn126  1  0.07011445  0.94758233  0.92714978  1
  Zn  Zn127  1  0.68775857  0.43671801  0.44120057  1
  Zn  Zn128  1  0.68549135  0.43834059  0.93562566  1
  Zn  Zn129  1  0.68727742  0.93921215  0.44110070  1
  Zn  Zn130  1  0.68910211  0.94219161  0.94048821  1
  Zn  Zn131  1  0.30140999  0.05297957  0.05334666  1
  Zn  Zn132  1  0.31455984  0.06437207  0.55712870  1
  Zn  Zn133  1  0.31729494  0.55673565  0.06245199  1
  Zn  Zn134  1  0.31813195  0.55854299  0.56125185  1
  Zn  Zn135  1  0.81767881  0.06692486  0.06262528  1
  Zn  Zn136  1  0.81216341  0.06596707  0.56805862  1
  Zn  Zn137  1  0.80571107  0.56404977  0.07088273  1
  Zn  Zn138  1  0.81523892  0.56644475  0.56352822  1
  Zn  Zn139  1  0.44094732  0.43413884  0.18403435  1
  Zn  Zn140  1  0.44063099  0.43499541  0.68494931  1
  Zn  Zn141  1  0.43514130  0.93094867  0.18985831  1
  Zn  Zn142  1  0.43739026  0.93834148  0.69152593  1
  Zn  Zn143  1  0.93602872  0.43952495  0.18906876  1
  Zn  Zn144  1  0.93698049  0.44061170  0.68311436  1
  Zn  Zn145  1  0.93218774  0.93150841  0.19318666  1
  Zn  Zn146  1  0.94396228  0.94412098  0.69958607  1
  Zn  Zn147  1  0.06023573  0.06489169  0.30407412  1
  Zn  Zn148  1  0.06650876  0.07911961  0.80948495  1
  Zn  Zn149  1  0.06379961  0.56141848  0.30773654  1
  Zn  Zn150  1  0.06277193  0.56091717  0.80935134  1
  Zn  Zn151  1  0.56197752  0.06508576  0.31276340  1
  Zn  Zn152  1  0.56196848  0.06759422  0.81347296  1
  Zn  Zn153  1  0.56198770  0.56066630  0.31980777  1
  Zn  Zn154  1  0.56313671  0.55839935  0.81847437  1
  Zn  Zn155  1  0.44228147  0.18554380  0.43341875  1
  Zn  Zn156  1  0.43560159  0.18790192  0.93398435  1
  Zn  Zn157  1  0.43800251  0.68252839  0.43229614  1
  Zn  Zn158  1  0.43605914  0.68207467  0.93561796  1
  Zn  Zn159  1  0.93892128  0.19065112  0.43994708  1
  Zn  Zn160  1  0.93762760  0.19216240  0.94119940  1
  Zn  Zn161  1  0.93908358  0.68937151  0.43874008  1
  Zn  Zn162  1  0.93659456  0.69412155  0.93470159  1
  Zn  Zn163  1  0.06189178  0.30977969  0.05636238  1
  Zn  Zn164  1  0.05910252  0.31586362  0.56024774  1
  Zn  Zn165  1  0.06846601  0.79594676  0.06015717  1
  Zn  Zn166  1  0.06551321  0.81267458  0.56746905  1
  Zn  Zn167  1  0.55708208  0.31665713  0.06597164  1
  Zn  Zn168  1  0.56584064  0.30971901  0.56539604  1
  Zn  Zn169  1  0.56714073  0.81858131  0.06308495  1
  Zn  Zn170  1  0.56091259  0.81111005  0.56303260  1
  O  O171  1  0.10428818  0.11279187  0.14182677  1
  O  O172  1  0.12901508  0.11648267  0.61444547  1
  O  O173  1  0.12939200  0.61086877  0.11204977  1
  O  O174  1  0.11872699  0.61499928  0.63051284  1
  O  O175  1  0.62779342  0.11967138  0.12232130  1
  O  O176  1  0.61847566  0.11914779  0.62228086  1
  O  O177  1  0.62624241  0.62628200  0.12431296  1
  O  O178  1  0.62411372  0.63137246  0.61158999  1
  O  O179  1  0.37118400  0.38524624  0.36824336  1
  O  O180  1  0.37771330  0.37394361  0.88429828  1
  O  O181  1  0.38290945  0.88042109  0.37588688  1
  O  O182  1  0.38424877  0.88548928  0.86702822  1
  O  O183  1  0.87754018  0.36635938  0.39265300  1
  O  O184  1  0.88130394  0.37904755  0.88455202  1
  O  O185  1  0.88110138  0.88092021  0.38500563  1
  O  O186  1  0.86874632  0.87973012  0.88729391  1
  O  O187  1  0.25811934  0.00123876  0.36436937  1
  O  O188  1  0.25968286  0.00931559  0.86069748  1
  O  O189  1  0.26129238  0.50006054  0.36888700  1
  O  O190  1  0.25352616  0.50605464  0.86108331  1
  O  O191  1  0.75839845  0.00001299  0.37196940  1
  O  O192  1  0.74108346  0.01739177  0.86934543  1
  O  O193  1  0.74493978  0.50100916  0.36344704  1
  O  O194  1  0.75050123  0.51287489  0.86977223  1
  O  O195  1  0.24575383  0.49594817  0.13145619  1
  O  O196  1  0.24616032  0.49557747  0.63103837  1
  O  O197  1  0.25536705  0.98307895  0.13209151  1
  O  O198  1  0.24777277  0.98948741  0.61707814  1
  O  O199  1  0.74347271  0.49770419  0.14142773  1
  O  O200  1  0.74970983  0.51035216  0.63898602  1
  O  O201  1  0.75482341  0.99374683  0.13687981  1
  O  O202  1  0.74240779  0.99523759  0.63304310  1
  O  O203  1  0.01282437  0.37813149  0.25008637  1
  O  O204  1  0.00702907  0.37409417  0.75316041  1
  O  O205  1  0.00884865  0.86577349  0.25636792  1
  O  O206  1  0.00082635  0.85860502  0.74445399  1
  O  O207  1  0.51017638  0.36621997  0.25114533  1
  O  O208  1  0.51387635  0.36846822  0.74450863  1
  O  O209  1  0.50571708  0.86717442  0.26118447  1
  O  O210  1  0.50636240  0.86962927  0.75922584  1
  O  O211  1  0.48962931  0.13027684  0.25131150  1
  O  O212  1  0.49426256  0.13306711  0.73995024  1
  O  O213  1  0.49583936  0.63365011  0.25782011  1
  O  O214  1  0.49371862  0.62716103  0.74906694  1
  O  O215  1  0.98922774  0.12487081  0.23848922  1
  O  O216  1  0.99124747  0.13970583  0.74585627  1
  O  O217  1  0.99435363  0.63744109  0.25199689  1
  O  O218  1  0.99429121  0.63159534  0.74292768  1
  O  O219  1  0.38649668  0.26161207  0.00663605  1
  O  O220  1  0.36148021  0.24118673  0.49607808  1
  O  O221  1  0.36270527  0.74087225  0.00219747  1
  O  O222  1  0.37077505  0.75552136  0.50351760  1
  O  O223  1  0.86735051  0.26071991  0.01032583  1
  O  O224  1  0.87669714  0.25167869  0.51459043  1
  O  O225  1  0.87053510  0.75228865  0.00929184  1
  O  O226  1  0.87060429  0.75728317  0.50870333  1
  O  O227  1  0.13245810  0.24247888  0.49138072  1
  O  O228  1  0.13918030  0.23310409  1.04065505  1
  O  O229  1  0.13572912  0.75792335  0.49149108  1
  O  O230  1  0.13991178  0.72699452  1.00462679  1
  O  O231  1  0.61976976  0.24269874  0.48931690  1
  O  O232  1  0.62989653  0.25438679  0.99399972  1
  O  O233  1  0.62914911  0.74458269  0.49489792  1
  O  O234  1  0.63161082  0.75221806  0.99200819  1
  O  O235  1  0.49022586  0.25196107  0.13956367  1
  O  O236  1  0.50005462  0.24246916  0.63386151  1
  O  O237  1  0.50160073  0.75969742  0.13875698  1
  O  O238  1  0.49263405  0.74798593  0.63281701  1
  O  O239  1  0.98470552  0.24816216  0.12897273  1
  O  O240  1  0.99170249  0.25231329  0.63559131  1
  O  O241  1  0.99217001  0.75233916  0.13536593  1
  O  O242  1  0.99751719  0.74436748  0.63253732  1
  O  O243  1  0.01468357  0.24979145  0.37577468  1
  O  O244  1  -0.00752448  0.26289312  0.86009396  1
  O  O245  1  0.00901875  0.75629109  0.37087928  1
  O  O246  1  0.00302237  0.74773450  0.86070013  1
  O  O247  1  0.51327340  0.24371292  0.36379333  1
  O  O248  1  0.50839274  0.24408179  0.86072496  1
  O  O249  1  0.51154050  0.75538705  0.36929950  1
  O  O250  1  0.50287220  0.75686715  0.87172162  1
  O  O251  1  0.24097545  0.12900358  0.49021680  1
  O  O252  1  0.25966334  0.12903522  0.98068278  1
  O  O253  1  0.25632239  0.63849954  0.50189985  1
  O  O254  1  0.24896381  0.62359988  0.99085673  1
  O  O255  1  0.73371408  0.12030372  0.50397061  1
  O  O256  1  0.74940792  0.13952833  0.99296010  1
  O  O257  1  0.74437304  0.63262684  0.49921945  1
  O  O258  1  0.75066161  0.63334050  0.99291621  1
  O  O259  1  0.27158935  0.38198332  -0.00147998  1
  O  O260  1  0.24454643  0.36519054  0.50489867  1
  O  O261  1  0.24498332  0.86120676  0.01573186  1
  O  O262  1  0.25847916  0.86690856  0.50603728  1
  O  O263  1  0.75581296  0.36672649  -0.00046866  1
  O  O264  1  0.76678126  0.38177050  0.50241407  1
  O  O265  1  0.74180222  0.87056128  0.01446831  1
  O  O266  1  0.75477191  0.87045664  0.50945334  1
  O  O267  1  0.13356874  0.49738307  0.23588708  1
  O  O268  1  0.13331632  0.49121255  0.74099946  1
  O  O269  1  0.13689443  0.98782977  0.25733707  1
  O  O270  1  0.13748831  1.00737218  0.73970323  1
  O  O271  1  0.62665840  0.49162319  0.25419423  1
  O  O272  1  0.63035891  0.48843320  0.75285459  1
  O  O273  1  0.63412224  0.99375201  0.25402762  1
  O  O274  1  0.62920712  0.99783725  0.74203424  1
  O  O275  1  0.36942625  0.00328880  0.25577475  1
  O  O276  1  0.38342952  0.01310052  0.76027548  1
  O  O277  1  0.37297970  0.50088761  0.25716045  1
  O  O278  1  0.36889505  0.50478089  0.74827243  1
  O  O279  1  0.86822467  -0.00407244  0.26695628  1
  O  O280  1  0.86672684  0.01418429  0.75038910  1
  O  O281  1  0.86720640  0.51112489  0.24604835  1
  O  O282  1  0.86893960  0.51211307  0.75008168  1
  O  O283  1  0.12703203  0.36418552  0.36259984  1
  O  O284  1  0.11868772  0.37929042  0.86497491  1
  O  O285  1  0.12434250  0.86509969  0.36515189  1
  O  O286  1  0.14989219  0.88979952  0.85929549  1
  O  O287  1  0.62573338  0.36149738  0.37302261  1
  O  O288  1  0.62995867  0.36327815  0.86521769  1
  O  O289  1  0.61918002  0.87003723  0.37367937  1
  O  O290  1  0.61897223  0.87040017  0.87052178  1
  O  O291  1  0.36886354  0.12607149  0.13102904  1
  O  O292  1  0.38147985  0.12551835  0.62880152  1
  O  O293  1  0.37230250  0.62374448  0.14162093  1
  O  O294  1  0.37382945  0.63023129  0.63612108  1
  O  O295  1  0.87786621  0.14022227  0.13036927  1
  O  O296  1  0.87551091  0.13624648  0.63578928  1
  O  O297  1  0.86751186  0.63948574  0.13799403  1
  O  O298  1  0.88352818  0.63295186  0.63389031  1
  O  O299  1  0.27297637  0.25691260  0.13986003  1
  O  O300  1  0.25058660  0.25764284  0.61198595  1
  O  O301  1  0.25298654  0.75439290  0.12097171  1
  O  O302  1  0.25509403  0.76168584  0.61959717  1
  O  O303  1  0.75742284  0.25359240  0.11790438  1
  O  O304  1  0.76477998  0.25116402  0.63021855  1
  O  O305  1  0.75778905  0.76110609  0.12313365  1
  O  O306  1  0.75763154  0.75732868  0.62315774  1
  O  O307  1  0.24226400  0.24313703  0.37672861  1
  O  O308  1  0.25700630  0.24499856  0.87375237  1
  O  O309  1  0.24471552  0.74957976  0.38370110  1
  O  O310  1  0.25281550  0.73445197  0.88175569  1
  O  O311  1  0.73122394  0.24454899  0.37172961  1
  O  O312  1  0.74443707  0.24438991  0.88160662  1
  O  O313  1  0.73815077  0.75501300  0.38209717  1
  O  O314  1  0.74495149  0.74046721  0.87859987  1
  O  O315  1  -0.00279883  0.13387013  0.02102309  1
  O  O316  1  0.01296500  0.12037189  0.50146426  1
  O  O317  1  0.01486932  0.62810342  -0.00663270  1
  O  O318  1  -0.00309663  0.62727031  0.51543663  1
  O  O319  1  0.49873821  0.11089844  -0.00559088  1
  O  O320  1  0.50823479  0.12868331  0.51394903  1
  O  O321  1  0.49920207  0.61079977  -0.00233451  1
  O  O322  1  0.50703621  0.61899970  0.50118559  1
  O  O323  1  0.50290944  0.38483669  0.50367221  1
  O  O324  1  0.48900447  0.38409718  1.00020161  1
  O  O325  1  0.49552417  0.86969467  0.48647811  1
  O  O326  1  0.50173464  0.88240551  0.98821255  1
  O  O327  1  0.98870570  0.37964292  0.49849475  1
  O  O328  1  0.99169047  0.36974035  0.99048304  1
  O  O329  1  0.99700840  0.88138750  0.49677098  1
  O  O330  1  1.01938011  0.88326472  1.01015904  1
  O  O331  1  0.48670423  0.49868015  0.38497609  1
  O  O332  1  0.49993229  0.49794338  0.88987263  1
  O  O333  1  0.49174950  0.98986185  0.36888642  1
  O  O334  1  0.49512934  0.99445573  0.88005557  1
  O  O335  1  1.01071972  0.49521792  0.37609889  1
  O  O336  1  0.99555879  0.48683348  0.86835947  1
  O  O337  1  0.99436126  0.99450636  0.38044216  1
  O  O338  1  1.00326220  1.00030212  0.85330406  1
  O  O339  1  -0.01074736  0.00883219  0.13086812  1
  O  O340  1  0.01106609  0.00482826  0.62103042  1
  O  O341  1  0.01419993  0.50061782  0.12616668  1
  O  O342  1  0.01061086  0.50975915  0.62454015  1
  O  O343  1  0.49368727  -0.01021947  0.10897233  1
  O  O344  1  0.50861928  0.00796910  0.63100531  1
  O  O345  1  0.50195477  0.49509195  0.10891364  1
  O  O346  1  0.49076382  0.50240574  0.60650522  1
  O  O347  1  0.24113751  0.38715546  0.24733156  1
  O  O348  1  0.24398865  0.38107666  0.74344536  1
  O  O349  1  0.24485668  0.87689967  0.24452863  1
  O  O350  1  0.25864633  0.88028713  0.74197099  1
  O  O351  1  0.73763214  0.38264915  0.25197482  1
  O  O352  1  0.73966084  0.38620524  0.75500861  1
  O  O353  1  0.74795085  0.88400242  0.24401629  1
  O  O354  1  0.74290346  0.87979848  0.74662424  1
  O  O355  1  0.25813107  0.11127225  0.25194890  1
  O  O356  1  0.26393371  0.13594105  0.75377524  1
  O  O357  1  0.25676073  0.61168341  0.25277794  1
  O  O358  1  0.25575144  0.61785558  0.75396950  1
  O  O359  1  0.75427684  0.11262154  0.25553036  1
  O  O360  1  0.75565131  0.12457609  0.75730055  1
  O  O361  1  0.75903867  0.61957615  0.25793006  1
  O  O362  1  0.75703631  0.62130364  0.75834266  1
  O  O363  1  0.37105692  0.11634225  0.36660345  1
  O  O364  1  0.36850976  0.12139003  0.86500963  1
  O  O365  1  0.37244642  0.61491790  0.36362073  1
  O  O366  1  0.36782951  0.62069142  0.86131004  1
  O  O367  1  0.87281283  0.11762502  0.37807092  1
  O  O368  1  0.86732838  0.13258705  0.86400031  1
  O  O369  1  0.87289969  0.63669602  0.36197840  1
  O  O370  1  0.86827999  0.62427351  0.86876525  1
  O  O371  1  0.12700337  0.38646174  0.12719075  1
  O  O372  1  0.13458462  0.38211602  0.63019888  1
  O  O373  1  0.13536097  0.87025192  0.13750255  1
  O  O374  1  0.13531276  0.89009735  0.61991219  1
  O  O375  1  0.62672291  0.37567597  0.13786665  1
  O  O376  1  0.63085688  0.37156533  0.63795952  1
  O  O377  1  0.63422050  0.88307678  0.13483896  1
  O  O378  1  0.62725016  0.88233941  0.63058250  1
  O  O379  1  0.13336050  0.26099127  0.25176596  1
  O  O380  1  0.11690439  0.26400739  0.74124364  1
  O  O381  1  0.12046763  0.75249396  0.25437670  1
  O  O382  1  0.11704240  0.74849788  0.74771608  1
  O  O383  1  0.61988659  0.25504939  0.25859433  1
  O  O384  1  0.62124302  0.26029951  0.75441827  1
  O  O385  1  0.62247730  0.75576378  0.25979418  1
  O  O386  1  0.61937377  0.75462346  0.75668726  1
  O  O387  1  0.38376140  0.23878673  0.24860892  1
  O  O388  1  0.38600571  0.24521357  0.74373826  1
  O  O389  1  0.38765949  0.73938320  0.25242502  1
  O  O390  1  0.38024558  0.74163028  0.74515407  1
  O  O391  1  0.86462973  0.25552749  0.23872470  1
  O  O392  1  0.87929056  0.25042057  0.74159320  1
  O  O393  1  0.88389704  0.74823829  0.24529870  1
  O  O394  1  0.87779506  0.73952897  0.74589519  1
  O  O395  1  0.38341616  0.50002239  0.48606169  1
  O  O396  1  0.38543958  0.49085195  0.99596620  1
  O  O397  1  0.37071694  0.99400684  0.48371926  1
  O  O398  1  0.38437011  1.00298120  0.98392911  1
  O  O399  1  0.87913401  0.49309059  0.50348097  1
  O  O400  1  0.86679271  0.48754282  1.00508941  1
  O  O401  1  0.87957796  0.99809669  0.49499492  1
  O  O402  1  0.86488247  0.99713638  0.99242134  1
  O  O403  1  0.13387505  0.01622721  -0.00262043  1
  O  O404  1  0.12396767  0.00673826  0.50312236  1
  O  O405  1  0.12971885  0.50624184  0.00978434  1
  O  O406  1  0.12858006  0.49731152  0.51119943  1
  O  O407  1  0.60755187  0.00227351  -0.00025788  1
  O  O408  1  0.62481652  0.00507727  0.51399348  1
  O  O409  1  0.61504276  0.49998802  0.00165930  1
  O  O410  1  0.60946602  0.50620520  0.49204209  1
  O  O411  1  0.37586049  0.36727246  0.11441643  1
  O  O412  1  0.35945510  0.37327411  0.62834711  1
  O  O413  1  0.36102849  0.86415427  0.13166003  1
  O  O414  1  0.37146361  0.87276446  0.61916273  1
  O  O415  1  0.87325011  0.36746791  0.12084509  1
  O  O416  1  0.87788655  0.36727836  0.61464516  1
  O  O417  1  0.86831707  0.86500467  0.12315781  1
  O  O418  1  0.87205903  0.87432854  0.62324948  1
  O  O419  1  0.13026648  0.12884636  0.37678379  1
  O  O420  1  0.14317366  0.13654279  0.87102216  1
  O  O421  1  0.13059331  0.63789034  0.37045576  1
  O  O422  1  0.13373607  0.61197576  0.88727162  1
  O  O423  1  0.62475926  0.13015333  0.38576132  1
  O  O424  1  0.63249473  0.13962046  0.87609772  1
  O  O425  1  0.62749337  0.63402809  0.38675811  1
  O  O426  1  0.63234968  0.63358788  0.87789169  1
