# generated using pymatgen
data_V85Zn86O256
_symmetry_space_group_name_H-M   'P 1'
_cell_length_a   16.91410779
_cell_length_b   16.91661124
_cell_length_c   16.91786750
_cell_angle_alpha   90.05269203
_cell_angle_beta   90.00143925
_cell_angle_gamma   89.98924209
_symmetry_Int_Tables_number   1
_chemical_formula_structural   V85Zn86O256
_chemical_formula_sum   'V85 Zn86 O256'
_cell_volume   4840.69690604
_cell_formula_units_Z   1
loop_
 _symmetry_equiv_pos_site_id
 _symmetry_equiv_pos_as_xyz
  1  'x, y, z'
loop_
 _atom_site_type_symbol
 _atom_site_label
 _atom_site_symmetry_multiplicity
 _atom_site_fract_x
 _atom_site_fract_y
 _atom_site_fract_z
 _atom_site_occupancy
  V  V0  1  0.37977590  0.63186302  0.75447154  1
  V  V1  1  0.25921636  0.49060541  0.25970150  1
  V  V2  1  0.11648623  0.37398660  0.24865725  1
  V  V3  1  0.50450218  0.87838360  0.37152695  1
  V  V4  1  0.74345068  0.24852670  -0.00450450  1
  V  V5  1  0.87623832  0.62808700  0.24893186  1
  V  V6  1  0.62684262  0.75336797  0.37484496  1
  V  V7  1  0.11862740  0.00076731  0.62105152  1
  V  V8  1  0.37018506  0.12057364  0.24234681  1
  V  V9  1  0.00000610  0.37519318  0.87361965  1
  V  V10  1  0.48909108  0.50148841  0.49601324  1
  V  V11  1  0.87013908  0.24707197  0.61814310  1
  V  V12  1  0.37857036  0.24679690  0.12349911  1
  V  V13  1  0.60909202  0.87399167  0.75146100  1
  V  V14  1  0.73931780  0.37903120  0.12282398  1
  V  V15  1  0.74774668  0.87573799  0.62681530  1
  V  V16  1  0.25352660  0.12131302  0.86979138  1
  V  V17  1  0.61890242  0.36336932  0.75767729  1
  V  V18  1  0.00541523  0.61763907  0.62655379  1
  V  V19  1  0.62226934  -0.00838081  0.12346492  1
  V  V20  1  0.75176085  0.75111061  0.50182859  1
  V  V21  1  0.37561897  0.37491948  0.00124845  1
  V  V22  1  0.00044186  0.75277508  0.25246512  1
  V  V23  1  0.48166581  0.13284150  0.62389353  1
  V  V24  1  0.11724335  0.25386822  0.37755700  1
  V  V25  1  0.62183168  0.49803350  0.62312171  1
  V  V26  1  0.87209687  0.12513168  0.75099891  1
  V  V27  1  0.13031519  0.74753490  0.37604224  1
  V  V28  1  0.37978430  0.75221376  0.63079859  1
  V  V29  1  0.12127246  0.12622557  -0.00162640  1
  V  V30  1  0.11880869  0.75651356  0.88520345  1
  V  V31  1  0.50668931  0.24259041  0.24444614  1
  V  V32  1  0.50196647  0.63138501  0.62827589  1
  V  V33  1  0.88434166  0.49648378  0.37378546  1
  V  V34  1  0.39087213  -0.00302841  0.87354556  1
  V  V35  1  0.00346849  0.88028696  0.38625207  1
  V  V36  1  0.38918997  0.87871213  0.00290726  1
  V  V37  1  0.74794296  0.12782739  0.37646539  1
  V  V38  1  0.50513855  0.61652260  0.12674951  1
  V  V39  1  0.12180740  0.37884902  0.73804383  1
  V  V40  1  0.13807700  0.49429367  0.12407453  1
  V  V41  1  0.24920190  0.62775372  0.87931693  1
  V  V42  1  0.74729406  -0.00110355  0.75053945  1
  V  V43  1  0.11851643  0.87374983  0.75410490  1
  V  V44  1  -0.00272389  0.24850306  0.74847687  1
  V  V45  1  0.00236330  0.49926096  0.00235692  1
  V  V46  1  0.36732176  -0.00074567  0.36723904  1
  V  V47  1  0.25360370  0.74676463  0.50165216  1
  V  V48  1  -0.00463638  0.12762414  0.12985914  1
  V  V49  1  0.37911106  0.87574657  0.50013200  1
  V  V50  1  0.49941623  0.75020267  0.24712444  1
  V  V51  1  0.88077957  0.01082739  0.37637764  1
  V  V52  1  0.74545564  0.36944766  0.61614290  1
  V  V53  1  0.74625459  0.49749888  0.74864933  1
  V  V54  1  0.62630914  0.24616244  0.39175321  1
  V  V55  1  0.87843539  0.37220387  0.49505393  1
  V  V56  1  -0.00326550  -0.00931687  -0.00691121  1
  V  V57  1  0.37969721  0.49469388  0.87512233  1
  V  V58  1  0.61298669  0.75381706  0.87352278  1
  V  V59  1  0.25175309  0.87571656  0.63099310  1
  V  V60  1  0.87517740  0.62371318  0.74936407  1
  V  V61  1  0.87506254  0.49904605  0.87446895  1
  V  V62  1  0.75226650  0.62400067  0.37505260  1
  V  V63  1  0.48453176  0.24904305  0.75679125  1
  V  V64  1  0.74239132  0.12674628  0.87552549  1
  V  V65  1  0.87325893  0.37314774  -0.00083804  1
  V  V66  1  0.25940062  0.36991857  0.62554467  1
  V  V67  1  0.24883475  0.25460125  0.00573249  1
  V  V68  1  0.50517782  0.00769431  0.49613328  1
  V  V69  1  0.61325325  0.12198772  0.00763365  1
  V  V70  1  0.00022051  0.62353611  0.12810095  1
  V  V71  1  0.50817153  0.49508442  0.00025327  1
  V  V72  1  0.12808007  0.61452169  0.50346085  1
  V  V73  1  0.62426416  0.01075607  0.62230642  1
  V  V74  1  0.74888709  0.62661327  0.87828443  1
  V  V75  1  0.74306380  0.50193709  0.24595784  1
  V  V76  1  0.87577715  -0.01101204  0.87647360  1
  V  V77  1  0.75977841  0.76489874  -0.00125549  1
  V  V78  1  0.12980632  -0.00180050  0.12979765  1
  V  V79  1  0.12420035  0.25133438  0.87366532  1
  V  V80  1  0.49312074  0.37502037  0.37245954  1
  V  V81  1  0.25715894  0.24483871  0.49944820  1
  V  V82  1  0.87102098  0.24793477  0.13194075  1
  V  V83  1  0.24573808  0.50141937  0.74592751  1
  V  V84  1  0.87641863  0.74860143  0.62555004  1
  Zn  Zn85  1  0.81415845  0.83166352  0.14917132  1
  Zn  Zn86  1  0.25251592  0.00478361  0.75122257  1
  Zn  Zn87  1  0.25158242  0.75645517  0.00458350  1
  Zn  Zn88  1  0.62353873  0.37492928  0.24890306  1
  Zn  Zn89  1  0.37851074  0.61751105  0.25539803  1
  Zn  Zn90  1  0.25556664  0.87293484  0.12992608  1
  Zn  Zn91  1  0.64044428  0.87167351  0.24120656  1
  Zn  Zn92  1  0.88210694  0.88370454  0.50596389  1
  Zn  Zn93  1  0.24704926  0.12391675  0.37015005  1
  Zn  Zn94  1  0.26125913  0.61711834  0.37868150  1
  Zn  Zn95  1  0.62501725  0.62491104  0.50093319  1
  Zn  Zn96  1  0.62659504  0.62445850  0.00303088  1
  Zn  Zn97  1  0.37411798  0.74773556  0.12438810  1
  Zn  Zn98  1  0.13504077  0.88435850  0.25772759  1
  Zn  Zn99  1  -0.00571725  0.11710543  0.62093455  1
  Zn  Zn100  1  0.00564676  0.49348039  0.50044131  1
  Zn  Zn101  1  0.75837392  0.00006390  0.24285172  1
  Zn  Zn102  1  -0.00212172  0.75089817  0.75532355  1
  Zn  Zn103  1  0.12771594  0.62623699  0.00451344  1
  Zn  Zn104  1  0.12043022  0.11839729  0.49330235  1
  Zn  Zn105  1  0.37362514  0.37255150  0.49753695  1
  Zn  Zn106  1  -0.00869314  0.25214143  0.25600696  1
  Zn  Zn107  1  0.18688328  0.18756408  0.18755838  1
  Zn  Zn108  1  0.18892855  0.18872470  0.68635543  1
  Zn  Zn109  1  0.19163140  0.68312821  0.18972860  1
  Zn  Zn110  1  0.18751522  0.68949018  0.69112216  1
  Zn  Zn111  1  0.69050333  0.18228488  0.18897732  1
  Zn  Zn112  1  0.68527014  0.18750386  0.68421646  1
  Zn  Zn113  1  0.68531769  0.68718306  0.18367404  1
  Zn  Zn114  1  0.68580033  0.68829645  0.69187483  1
  Zn  Zn115  1  0.30850990  0.30996161  0.30872958  1
  Zn  Zn116  1  0.30921221  0.31340587  0.81630552  1
  Zn  Zn117  1  0.31189865  0.81416860  0.30833372  1
  Zn  Zn118  1  0.31278367  0.81568423  0.81914755  1
  Zn  Zn119  1  0.80564717  0.31293729  0.31323338  1
  Zn  Zn120  1  0.80743098  0.31166309  0.80942361  1
  Zn  Zn121  1  0.81839123  0.81757928  0.32077094  1
  Zn  Zn122  1  0.80718022  0.81156836  0.81135601  1
  Zn  Zn123  1  0.18681558  0.43020725  0.43725562  1
  Zn  Zn124  1  0.18961679  0.43718237  0.93454151  1
  Zn  Zn125  1  0.19104634  0.93349114  0.44186300  1
  Zn  Zn126  1  0.19235684  0.93662152  0.94545962  1
  Zn  Zn127  1  0.68523018  0.43570979  0.43482559  1
  Zn  Zn128  1  0.68698816  0.43539080  0.93452912  1
  Zn  Zn129  1  0.69362222  0.94166170  0.43671414  1
  Zn  Zn130  1  0.68164705  0.93888274  0.93769530  1
  Zn  Zn131  1  0.31444361  0.06250300  0.05470569  1
  Zn  Zn132  1  0.30842387  0.05952888  0.55753478  1
  Zn  Zn133  1  0.31831774  0.56458618  0.06613551  1
  Zn  Zn134  1  0.31281137  0.56160710  0.56786448  1
  Zn  Zn135  1  0.81073369  0.05916721  0.06256734  1
  Zn  Zn136  1  0.80916561  0.06506112  0.55524364  1
  Zn  Zn137  1  0.81452264  0.56437088  0.06294008  1
  Zn  Zn138  1  0.81312966  0.56046816  0.56073131  1
  Zn  Zn139  1  0.43896336  0.42843242  0.18178943  1
  Zn  Zn140  1  0.43832011  0.43927024  0.69039476  1
  Zn  Zn141  1  0.44714456  0.93931320  0.18336851  1
  Zn  Zn142  1  0.43573086  0.94631079  0.68911137  1
  Zn  Zn143  1  0.93416872  0.43729207  0.18619205  1
  Zn  Zn144  1  0.93458901  0.43625388  0.68377925  1
  Zn  Zn145  1  0.94664522  0.94563918  0.19835616  1
  Zn  Zn146  1  0.93641766  0.93501930  0.69212903  1
  Zn  Zn147  1  0.05885784  0.06826831  0.31277034  1
  Zn  Zn148  1  0.06365789  0.06180150  0.80875763  1
  Zn  Zn149  1  0.06901394  0.56224900  0.31312905  1
  Zn  Zn150  1  0.06406648  0.56517911  0.81407352  1
  Zn  Zn151  1  0.56626904  0.06371209  0.30375369  1
  Zn  Zn152  1  0.56261667  0.07116349  0.80787264  1
  Zn  Zn153  1  0.56270329  0.56427648  0.31572966  1
  Zn  Zn154  1  0.56232940  0.56210221  0.81343669  1
  Zn  Zn155  1  0.43784554  0.18491315  0.43216323  1
  Zn  Zn156  1  0.43529735  0.18663704  0.93211747  1
  Zn  Zn157  1  0.43740079  0.68612813  0.43550342  1
  Zn  Zn158  1  0.43659547  0.68647984  0.94353758  1
  Zn  Zn159  1  0.93944926  0.18365288  0.44228636  1
  Zn  Zn160  1  0.93195514  0.18513247  0.93803110  1
  Zn  Zn161  1  0.94053272  0.68619241  0.43933119  1
  Zn  Zn162  1  0.93882960  0.68645019  0.94043406  1
  Zn  Zn163  1  0.06115642  0.31383032  0.06501373  1
  Zn  Zn164  1  0.05987473  0.30566553  0.56056119  1
  Zn  Zn165  1  0.01585574  0.83464605  0.08451400  1
  Zn  Zn166  1  0.06550420  0.80588072  0.56567921  1
  Zn  Zn167  1  0.55986662  0.30878471  0.05752695  1
  Zn  Zn168  1  0.55500939  0.31269260  0.56418597  1
  Zn  Zn169  1  0.56432526  0.80849283  0.05920349  1
  Zn  Zn170  1  0.56437216  0.81614140  0.56232334  1
  O  O171  1  0.11745850  0.12160654  0.11638039  1
  O  O172  1  0.12694709  0.10619561  0.63177543  1
  O  O173  1  0.11653541  0.61196913  0.12645972  1
  O  O174  1  0.11716332  0.63130110  0.61804050  1
  O  O175  1  0.62801868  0.12196325  0.11104767  1
  O  O176  1  0.61779764  0.11353353  0.62653066  1
  O  O177  1  0.61198400  0.62482655  0.12109448  1
  O  O178  1  0.61828824  0.61716930  0.62776525  1
  O  O179  1  0.38959834  0.36701537  0.37368869  1
  O  O180  1  0.37095254  0.38796113  0.88003975  1
  O  O181  1  0.38449500  0.88153916  0.37912251  1
  O  O182  1  0.37247069  0.88803064  0.88536491  1
  O  O183  1  0.86680114  0.38185749  0.38417363  1
  O  O184  1  0.87800986  0.37986557  0.87747462  1
  O  O185  1  0.88744269  0.88522497  0.38251386  1
  O  O186  1  0.87353963  0.88976366  0.86379410  1
  O  O187  1  0.26418614  -0.00059506  0.38073051  1
  O  O188  1  0.24861034  0.00973055  0.87498675  1
  O  O189  1  0.24876302  0.49482810  0.36337970  1
  O  O190  1  0.25643937  0.50754741  0.86577633  1
  O  O191  1  0.76127485  0.00610170  0.36962876  1
  O  O192  1  0.75592024  0.00603487  0.87064729  1
  O  O193  1  0.75634745  0.50654492  0.36913053  1
  O  O194  1  0.75300868  0.50618272  0.86808904  1
  O  O195  1  0.24095864  0.50237855  0.13055511  1
  O  O196  1  0.25178612  0.49389515  0.63991748  1
  O  O197  1  0.23094472  1.00520581  0.11585461  1
  O  O198  1  0.24409842  0.99071688  0.62927881  1
  O  O199  1  0.75651593  0.49186264  0.13271238  1
  O  O200  1  0.74131520  0.49426640  0.62994156  1
  O  O201  1  0.73656856  1.00625562  0.12683028  1
  O  O202  1  0.74148002  0.99724192  0.62810693  1
  O  O203  1  0.01111099  0.37362480  0.24559944  1
  O  O204  1  0.00481909  0.37206656  0.75361714  1
  O  O205  1  0.01226161  0.86625865  0.26609010  1
  O  O206  1  0.01393267  0.87077641  0.74892031  1
  O  O207  1  0.50341838  0.36553270  0.25565369  1
  O  O208  1  0.50945607  0.36234790  0.74045996  1
  O  O209  1  0.50739628  0.86735649  0.25707851  1
  O  O210  1  0.50997052  0.87563954  0.74184528  1
  O  O211  1  0.48885511  0.13722668  0.25415572  1
  O  O212  1  0.50139372  0.13839634  0.73612930  1
  O  O213  1  0.50279651  0.63037769  0.24426085  1
  O  O214  1  0.49064323  0.61909387  0.74127606  1
  O  O215  1  1.00080909  0.13146408  0.23378019  1
  O  O216  1  0.99146989  0.13099474  0.74504175  1
  O  O217  1  0.99692513  0.62892815  0.24725641  1
  O  O218  1  0.99384355  0.62566007  0.74417165  1
  O  O219  1  0.36956463  0.25452493  0.00214063  1
  O  O220  1  0.36131542  0.24924244  0.49348309  1
  O  O221  1  0.37427680  0.76396728  -0.00090231  1
  O  O222  1  0.37387707  0.75667335  0.50926353  1
  O  O223  1  0.86330749  0.25579065  0.00523068  1
  O  O224  1  0.87412645  0.25634261  0.51025393  1
  O  O225  1  0.85944199  0.74879554  -0.00826673  1
  O  O226  1  0.86806850  0.74993120  0.50865766  1
  O  O227  1  0.13280415  0.25415921  0.48798646  1
  O  O228  1  0.13035213  0.24743412  0.99512738  1
  O  O229  1  0.13250483  0.73996943  0.49366067  1
  O  O230  1  0.12637819  0.74884900  0.98822964  1
  O  O231  1  0.62104162  0.25147166  0.49004802  1
  O  O232  1  0.63560332  0.24010211  1.00230671  1
  O  O233  1  0.63378486  0.74952138  0.49373519  1
  O  O234  1  0.63476820  0.74774468  0.98650591  1
  O  O235  1  0.49186296  0.25249155  0.13264086  1
  O  O236  1  0.49685301  0.23770141  0.62828557  1
  O  O237  1  0.50152191  0.74177674  0.13294108  1
  O  O238  1  0.49861481  0.73845885  0.62140888  1
  O  O239  1  0.98846828  0.24496309  0.12285154  1
  O  O240  1  0.98741366  0.25266430  0.63472459  1
  O  O241  1  1.01594255  0.73703156  0.14443684  1
  O  O242  1  0.99189397  0.73908733  0.62781857  1
  O  O243  1  0.01237114  0.24755679  0.37336564  1
  O  O244  1  0.00161286  0.25518542  0.86823310  1
  O  O245  1  0.00901526  0.75397047  0.37093507  1
  O  O246  1  0.01529081  0.74358498  0.87439756  1
  O  O247  1  0.51061089  0.25423645  0.36914887  1
  O  O248  1  0.49888914  0.24462248  0.85613585  1
  O  O249  1  0.51153745  0.75603204  0.37143018  1
  O  O250  1  0.51482524  0.74137265  0.87652133  1
  O  O251  1  0.24189989  0.13149952  0.49695555  1
  O  O252  1  0.23721968  0.13210130  0.99174398  1
  O  O253  1  0.24519919  0.62887242  0.50313877  1
  O  O254  1  0.25069907  0.62305014  0.98849619  1
  O  O255  1  0.74344006  0.11803652  0.47909281  1
  O  O256  1  0.74558459  0.13270441  0.99219085  1
  O  O257  1  0.74848777  0.63559870  0.49698834  1
  O  O258  1  0.74872167  0.62386908  0.98754229  1
  O  O259  1  0.26208631  0.36706720  -0.00707370  1
  O  O260  1  0.25263843  0.36930908  0.50933186  1
  O  O261  1  0.26186205  0.87474208  0.00965730  1
  O  O262  1  0.25814731  0.86799535  0.51313558  1
  O  O263  1  0.75204496  0.36887301  0.00318923  1
  O  O264  1  0.75689995  0.38123596  0.51134072  1
  O  O265  1  0.75225708  0.86463627  -0.00606988  1
  O  O266  1  0.75180800  0.86401025  0.50667535  1
  O  O267  1  0.13136878  0.49127306  0.24420396  1
  O  O268  1  0.13345148  0.49103758  0.75721282  1
  O  O269  1  0.11775027  1.00508835  0.23339511  1
  O  O270  1  0.12969566  0.98988556  0.74411910  1
  O  O271  1  0.63957500  0.49864618  0.25631451  1
  O  O272  1  0.62410062  0.48996251  0.73945287  1
  O  O273  1  0.63077041  0.99448558  0.23836042  1
  O  O274  1  0.62753851  0.99459659  0.74290875  1
  O  O275  1  0.38498225  0.00796939  0.25616139  1
  O  O276  1  0.36924652  -0.00489479  0.76792332  1
  O  O277  1  0.36074812  0.49019844  0.24313966  1
  O  O278  1  0.36941700  0.50843859  0.75766415  1
  O  O279  1  0.87727534  -0.00014445  0.26915385  1
  O  O280  1  0.86873072  0.00756196  0.75437524  1
  O  O281  1  0.86680241  0.50512377  0.25723732  1
  O  O282  1  0.86676063  0.50247685  0.75470358  1
  O  O283  1  0.12409107  0.36220751  0.36716178  1
  O  O284  1  0.11994253  0.36919008  0.86572800  1
  O  O285  1  0.12245986  0.86675604  0.37867790  1
  O  O286  1  0.13402265  0.86234018  0.86972321  1
  O  O287  1  0.61870733  0.36152550  0.37358192  1
  O  O288  1  0.62695533  0.37625093  0.85582601  1
  O  O289  1  0.62580258  0.86502358  0.37418437  1
  O  O290  1  0.62583370  0.86351840  0.86749645  1
  O  O291  1  0.37136374  0.13500876  0.12629607  1
  O  O292  1  0.38353658  0.11830300  0.62577296  1
  O  O293  1  0.38906342  0.62633704  0.13266348  1
  O  O294  1  0.38244329  0.63057121  0.63473733  1
  O  O295  1  0.88252942  0.13645802  0.11462380  1
  O  O296  1  0.86952788  0.13200779  0.63051412  1
  O  O297  1  0.89117167  0.61905667  0.13227143  1
  O  O298  1  0.87956369  0.62913217  0.63030419  1
  O  O299  1  0.25400322  0.24546221  0.11029262  1
  O  O300  1  0.24344595  0.25846051  0.61447376  1
  O  O301  1  0.25506899  0.74766499  0.12292302  1
  O  O302  1  0.25739624  0.75574000  0.62137872  1
  O  O303  1  0.75459296  0.25648778  0.11772412  1
  O  O304  1  0.75634236  0.25828012  0.62761912  1
  O  O305  1  0.74821317  0.74693203  0.10571945  1
  O  O306  1  0.75436977  0.75259512  0.61968799  1
  O  O307  1  0.24007466  0.24953437  0.38218069  1
  O  O308  1  0.24469414  0.24432889  0.88492558  1
  O  O309  1  0.24581742  0.74906374  0.38492690  1
  O  O310  1  0.24125817  0.74174470  0.87735478  1
  O  O311  1  0.73533246  0.24428555  0.37349697  1
  O  O312  1  0.75324010  0.24138849  0.88324730  1
  O  O313  1  0.74728256  0.74611582  0.38360267  1
  O  O314  1  0.74386443  0.74264698  0.88139208  1
  O  O315  1  0.01041893  0.12785575  0.00464730  1
  O  O316  1  0.00973352  0.13286528  0.51106180  1
  O  O317  1  0.00305066  0.61839657  0.01028233  1
  O  O318  1  0.01021266  0.62250071  0.50810786  1
  O  O319  1  0.51591428  0.13308939  -0.00444897  1
  O  O320  1  0.49576207  0.11928019  0.51097528  1
  O  O321  1  0.50024599  0.61382255  0.00814721  1
  O  O322  1  0.50382679  0.61793515  0.50895730  1
  O  O323  1  0.49544731  0.38227463  0.49370279  1
  O  O324  1  0.48735210  0.37994058  1.00078486  1
  O  O325  1  0.49619301  0.88306404  0.49336449  1
  O  O326  1  0.48884125  0.87240362  0.99888999  1
  O  O327  1  0.98387694  0.37716145  0.50803085  1
  O  O328  1  0.99428580  0.37893570  0.99253573  1
  O  O329  1  1.00279829  0.86684383  0.49002257  1
  O  O330  1  1.00833754  0.89287549  0.98529118  1
  O  O331  1  0.51069173  0.48905597  0.38562452  1
  O  O332  1  0.48845549  0.50656281  0.88304974  1
  O  O333  1  0.49856006  0.99806799  0.38069378  1
  O  O334  1  0.48938642  1.00580157  0.86954592  1
  O  O335  1  0.98752901  0.50366865  0.37547131  1
  O  O336  1  0.99578214  0.49565223  0.88134940  1
  O  O337  1  0.99336475  0.99514948  0.37477536  1
  O  O338  1  0.99141636  1.01277745  0.88606813  1
  O  O339  1  0.00610025  0.01204610  0.11070194  1
  O  O340  1  0.01481262  -0.00441430  0.63015322  1
  O  O341  1  0.00742442  0.50383370  0.12029927  1
  O  O342  1  -0.00549448  0.51334816  0.62307674  1
  O  O343  1  0.52176868  0.00740629  0.12842012  1
  O  O344  1  0.50398383  0.01105316  0.61799590  1
  O  O345  1  0.49628255  0.50321688  0.11438736  1
  O  O346  1  0.50511694  0.50763901  0.61919552  1
  O  O347  1  0.23775399  0.38422434  0.25082596  1
  O  O348  1  0.24183217  0.38021784  0.74514540  1
  O  O349  1  0.24592544  0.87557634  0.24369437  1
  O  O350  1  0.24313812  0.87175716  0.74028890  1
  O  O351  1  0.74812633  0.38388623  0.23971782  1
  O  O352  1  0.73743548  0.37764593  0.73939355  1
  O  O353  1  0.75833347  0.87255645  0.24167323  1
  O  O354  1  0.74139214  0.88227508  0.74350054  1
  O  O355  1  0.26523180  0.12972591  0.25038312  1
  O  O356  1  0.24587838  0.12868579  0.76588124  1
  O  O357  1  0.24993080  0.60399851  0.25416714  1
  O  O358  1  0.25563130  0.61862070  0.75852780  1
  O  O359  1  0.74663943  0.12156360  0.26712691  1
  O  O360  1  0.75030622  0.11956432  0.75655010  1
  O  O361  1  0.75655279  0.62098557  0.25199161  1
  O  O362  1  0.75401210  0.61900284  0.75975894  1
  O  O363  1  0.37328511  0.11554859  0.36444573  1
  O  O364  1  0.36492974  0.10871178  0.88596948  1
  O  O365  1  0.37525455  0.62288216  0.37019112  1
  O  O366  1  0.36850223  0.61969305  0.87039612  1
  O  O367  1  0.86840904  0.11887803  0.37726749  1
  O  O368  1  0.86290314  0.11963228  0.86841363  1
  O  O369  1  0.87028283  0.61777993  0.37077992  1
  O  O370  1  0.86923047  0.61887802  0.86926905  1
  O  O371  1  0.12335960  0.38330938  0.13231457  1
  O  O372  1  0.12922012  0.37216179  0.63518371  1
  O  O373  1  0.11563051  0.89376212  0.12386621  1
  O  O374  1  0.13224936  0.87929364  0.63231194  1
  O  O375  1  0.63660181  0.37240433  0.12232294  1
  O  O376  1  0.62865767  0.38022175  0.62844128  1
  O  O377  1  0.62404136  0.88629965  0.12021630  1
  O  O378  1  0.62931755  0.88356055  0.63182535  1
  O  O379  1  0.12445045  0.25724808  0.25820341  1
  O  O380  1  0.11710896  0.25796120  0.75356038  1
  O  O381  1  0.12182379  0.74290094  0.26720258  1
  O  O382  1  0.12462105  0.75720284  0.76107107  1
  O  O383  1  0.61661096  0.25182437  0.24995868  1
  O  O384  1  0.61752851  0.26039634  0.74386710  1
  O  O385  1  0.61903391  0.75153491  0.25737236  1
  O  O386  1  0.63002925  0.75937308  0.76335970  1
  O  O387  1  0.38050989  0.24516315  0.24006040  1
  O  O388  1  0.38496903  0.25701215  0.75079631  1
  O  O389  1  0.39201581  0.75025962  0.25139157  1
  O  O390  1  0.37010374  0.73901163  0.74887543  1
  O  O391  1  0.87292065  0.25779371  0.23637715  1
  O  O392  1  0.87653864  0.24494072  0.74139874  1
  O  O393  1  0.88786925  0.74301739  0.25696268  1
  O  O394  1  0.87431554  0.74301271  0.74308409  1
  O  O395  1  0.38613340  0.49807686  0.50459678  1
  O  O396  1  0.37967155  0.49229011  0.99437233  1
  O  O397  1  0.38561016  0.99496201  0.49183421  1
  O  O398  1  0.37572039  0.98939537  0.98990984  1
  O  O399  1  0.87558882  0.49217078  0.49065388  1
  O  O400  1  0.88041620  0.49314439  0.99339822  1
  O  O401  1  0.87268716  0.99871019  0.48485090  1
  O  O402  1  0.88832462  1.00628582  0.99146388  1
  O  O403  1  0.11452633  0.01007091  0.00267505  1
  O  O404  1  0.13068405  -0.00289675  0.51752542  1
  O  O405  1  0.12179998  0.49872938  0.00746867  1
  O  O406  1  0.12538467  0.50992814  0.49627857  1
  O  O407  1  0.62831059  0.01251888  0.00765477  1
  O  O408  1  0.61283464  -0.00693685  0.50697156  1
  O  O409  1  0.61149395  0.49960185  -0.00858375  1
  O  O410  1  0.61940102  0.50011537  0.51203489  1
  O  O411  1  0.37292092  0.35912822  0.11457678  1
  O  O412  1  0.36218567  0.37848080  0.62620639  1
  O  O413  1  0.37966298  0.87651193  0.11393707  1
  O  O414  1  0.37008306  0.87228744  0.62355178  1
  O  O415  1  0.86613317  0.36861728  0.11636367  1
  O  O416  1  0.86384704  0.36779331  0.62031781  1
  O  O417  1  0.91221083  0.87201151  0.12180486  1
  O  O418  1  0.86834492  0.86804390  0.62523246  1
  O  O419  1  0.12825847  0.13761257  0.37221543  1
  O  O420  1  0.12756814  0.13271938  0.88081741  1
  O  O421  1  0.13081725  0.63047026  0.38624220  1
  O  O422  1  0.13352754  0.63523357  0.87687670  1
  O  O423  1  0.62786753  0.13921181  0.37232520  1
  O  O424  1  0.63648614  0.11801640  0.88449126  1
  O  O425  1  0.63267263  0.63785651  0.37753925  1
  O  O426  1  0.63334629  0.63451609  0.87285769  1
