# generated using pymatgen
data_V85Zn86O256
_symmetry_space_group_name_H-M   'P 1'
_cell_length_a   16.92801481
_cell_length_b   16.94472624
_cell_length_c   16.93922719
_cell_angle_alpha   89.99478787
_cell_angle_beta   90.02872926
_cell_angle_gamma   90.00861078
_symmetry_Int_Tables_number   1
_chemical_formula_structural   V85Zn86O256
_chemical_formula_sum   'V85 Zn86 O256'
_cell_volume   4858.85701268
_cell_formula_units_Z   1
loop_
 _symmetry_equiv_pos_site_id
 _symmetry_equiv_pos_as_xyz
  1  'x, y, z'
loop_
 _atom_site_type_symbol
 _atom_site_label
 _atom_site_symmetry_multiplicity
 _atom_site_fract_x
 _atom_site_fract_y
 _atom_site_fract_z
 _atom_site_occupancy
  V  V0  1  0.50387595  -0.00322713  0.49881288  1
  V  V1  1  0.24767894  0.24887674  -0.00476155  1
  V  V2  1  0.63231052  0.50177918  0.12820284  1
  V  V3  1  0.87224117  0.13288907  0.73995607  1
  V  V4  1  0.74682088  0.87963532  0.12437433  1
  V  V5  1  0.74066138  0.25259240  -0.00152680  1
  V  V6  1  0.25011264  0.74643872  -0.00232242  1
  V  V7  1  0.12621443  0.24966096  0.36487922  1
  V  V8  1  -0.00342348  0.00086527  0.00141555  1
  V  V9  1  -0.00081819  0.62585274  0.12988567  1
  V  V10  1  0.12232952  0.38526817  0.74315028  1
  V  V11  1  -0.00207643  0.87335147  0.38933025  1
  V  V12  1  0.37842716  0.24147544  0.12419568  1
  V  V13  1  0.77549618  0.86601459  0.62362691  1
  V  V14  1  0.87457285  0.25267544  0.12677426  1
  V  V15  1  0.48847860  0.24960579  0.74616216  1
  V  V16  1  -0.00116169  0.12995778  0.13044382  1
  V  V17  1  0.76044783  0.37166092  0.62253486  1
  V  V18  1  0.87338140  0.12871632  0.25515830  1
  V  V19  1  0.49840257  0.62303637  0.12478820  1
  V  V20  1  0.50778174  0.74959342  0.24928293  1
  V  V21  1  0.24924501  0.87377528  0.12614002  1
  V  V22  1  0.49789084  0.00580001  0.00414700  1
  V  V23  1  0.87421024  0.75144435  0.12454449  1
  V  V24  1  0.12233882  -0.00079536  0.12705739  1
  V  V25  1  0.25031016  0.37429955  0.62499525  1
  V  V26  1  0.87555459  -0.00065802  0.38048702  1
  V  V27  1  0.12678434  0.74846367  0.37820697  1
  V  V28  1  0.36616319  0.50191732  0.87095241  1
  V  V29  1  0.49828679  0.49958756  -0.00051139  1
  V  V30  1  0.50287465  0.36922925  0.87491426  1
  V  V31  1  0.62190804  0.86835358  0.74472039  1
  V  V32  1  0.25545051  0.62433772  0.37875878  1
  V  V33  1  0.63174320  0.24613820  0.37458001  1
  V  V34  1  -0.01069957  0.48770938  0.50109208  1
  V  V35  1  0.49514395  0.13022016  0.62409106  1
  V  V36  1  0.63369133  0.12403131  0.49650508  1
  V  V37  1  0.62175117  0.01129129  0.12731917  1
  V  V38  1  0.25098271  0.10848696  0.86875909  1
  V  V39  1  0.61960995  0.74967779  0.87065576  1
  V  V40  1  0.62298627  0.49843928  0.62740780  1
  V  V41  1  0.37473895  0.35883552  0.50636787  1
  V  V42  1  0.87332205  0.00607387  0.87436010  1
  V  V43  1  0.49844183  0.37200296  0.37581352  1
  V  V44  1  0.49678827  0.87627423  0.87132103  1
  V  V45  1  0.50149674  0.24157723  0.24742177  1
  V  V46  1  0.87328250  0.50310729  0.87340309  1
  V  V47  1  0.12473518  0.61202593  0.50639408  1
  V  V48  1  0.00562853  0.37803588  0.34779279  1
  V  V49  1  0.49737034  0.49823055  0.50431546  1
  V  V50  1  0.12148781  0.12495420  -0.00146879  1
  V  V51  1  0.74978849  0.00397350  0.25722896  1
  V  V52  1  0.49614400  0.63671916  0.62934032  1
  V  V53  1  0.12555026  0.75102923  0.86897615  1
  V  V54  1  0.37442819  -0.00088943  0.37821429  1
  V  V55  1  0.73434852  0.12938915  0.87443912  1
  V  V56  1  0.62601471  0.36640707  0.75116377  1
  V  V57  1  -0.00053250  0.50148658  0.00025396  1
  V  V58  1  0.24356061  0.37212015  0.12883143  1
  V  V59  1  0.12739058  0.62481301  -0.00144385  1
  V  V60  1  -0.00016031  0.37447633  0.87575352  1
  V  V61  1  0.76084296  0.74431017  0.48448400  1
  V  V62  1  0.37723174  0.86142332  0.50490347  1
  V  V63  1  0.85427527  0.62053651  0.25745585  1
  V  V64  1  0.62809927  -0.00234358  0.62465568  1
  V  V65  1  -0.00723453  0.25608964  0.74358990  1
  V  V66  1  0.00300128  0.87725915  0.87243749  1
  V  V67  1  -0.00654767  0.74920950  0.74343938  1
  V  V68  1  0.25302121  0.88222161  0.64157230  1
  V  V69  1  0.37491067  0.87970794  -0.00128082  1
  V  V70  1  0.25435262  0.74929056  0.51159620  1
  V  V71  1  0.76151230  0.25094560  0.50121687  1
  V  V72  1  0.00974225  0.13488187  0.61202851  1
  V  V73  1  0.74719297  0.62612648  0.87131975  1
  V  V74  1  0.74729810  0.75339268  -0.00291215  1
  V  V75  1  0.37373664  0.37447276  -0.00042716  1
  V  V76  1  0.63153342  0.38192564  0.25323672  1
  V  V77  1  0.25030730  0.00001554  0.25290365  1
  V  V78  1  0.12321107  0.87278122  0.25391126  1
  V  V79  1  0.37156990  0.63659656  0.75048135  1
  V  V80  1  0.37573654  0.62409630  0.24946707  1
  V  V81  1  0.74919285  0.00148844  0.74927304  1
  V  V82  1  0.37566932  0.49396436  0.37617470  1
  V  V83  1  0.50797945  0.86908751  0.37566543  1
  V  V84  1  0.24444420  0.49565015  0.25093804  1
  Zn  Zn85  1  0.23839362  0.12095863  0.38363734  1
  Zn  Zn86  1  0.37461114  0.74961369  0.12442961  1
  Zn  Zn87  1  -0.00094467  0.62050201  0.62380495  1
  Zn  Zn88  1  0.62856850  0.87343897  0.25569854  1
  Zn  Zn89  1  0.63409520  0.63120700  0.49669311  1
  Zn  Zn90  1  0.87182314  0.37561097  0.00115235  1
  Zn  Zn91  1  0.62165910  0.62564278  -0.00212152  1
  Zn  Zn92  1  0.86779498  0.63131078  0.74187045  1
  Zn  Zn93  1  0.13499503  0.00318220  0.62943535  1
  Zn  Zn94  1  0.36132236  0.11134728  0.74455545  1
  Zn  Zn95  1  0.23658820  0.23546295  0.50984926  1
  Zn  Zn96  1  0.85756100  0.49069962  0.37364991  1
  Zn  Zn97  1  -0.00350266  0.74901398  0.25487693  1
  Zn  Zn98  1  0.24567397  0.50688364  0.74608987  1
  Zn  Zn99  1  0.12235531  0.24892948  0.87260065  1
  Zn  Zn100  1  0.61478210  0.13133656  -0.00200037  1
  Zn  Zn101  1  0.12079193  0.49481289  0.12970658  1
  Zn  Zn102  1  0.75116378  0.37911845  0.12577841  1
  Zn  Zn103  1  0.87251098  0.87831159  -0.00112994  1
  Zn  Zn104  1  0.74940708  0.50041297  0.74706099  1
  Zn  Zn105  1  0.37747973  0.12044699  0.24757092  1
  Zn  Zn106  1  0.00800324  0.00907873  0.49825134  1
  Zn  Zn107  1  0.18728406  0.18646995  0.19168679  1
  Zn  Zn108  1  0.18357468  0.19705295  0.69187073  1
  Zn  Zn109  1  0.18742213  0.68547588  0.18763652  1
  Zn  Zn110  1  0.18777560  0.68880913  0.68743636  1
  Zn  Zn111  1  0.69097439  0.18931637  0.18870687  1
  Zn  Zn112  1  0.68366910  0.18888338  0.68550467  1
  Zn  Zn113  1  0.68466504  0.69082744  0.18257440  1
  Zn  Zn114  1  0.68722566  0.68934182  0.68063924  1
  Zn  Zn115  1  0.30927015  0.30749291  0.31304145  1
  Zn  Zn116  1  0.31164857  0.31138168  0.81041056  1
  Zn  Zn117  1  0.31681249  0.81046710  0.31716920  1
  Zn  Zn118  1  0.31503141  0.80929540  0.81889709  1
  Zn  Zn119  1  0.81417834  0.31492092  0.31428507  1
  Zn  Zn120  1  0.81027262  0.31465277  0.81504028  1
  Zn  Zn121  1  0.81582243  0.81526366  0.31037283  1
  Zn  Zn122  1  0.81270201  0.81738588  0.80952157  1
  Zn  Zn123  1  0.18602186  0.42733716  0.43731127  1
  Zn  Zn124  1  0.18480306  0.43721911  0.93769299  1
  Zn  Zn125  1  0.18596070  0.93967255  0.44757858  1
  Zn  Zn126  1  0.18453468  0.93470316  0.93857063  1
  Zn  Zn127  1  0.68571604  0.43473157  0.44385766  1
  Zn  Zn128  1  0.68489547  0.43835400  0.93895876  1
  Zn  Zn129  1  0.69568758  0.92877966  0.44244213  1
  Zn  Zn130  1  0.68242475  0.94105695  0.93689043  1
  Zn  Zn131  1  0.30990214  0.06186633  0.05992265  1
  Zn  Zn132  1  0.31281885  0.05691385  0.56084384  1
  Zn  Zn133  1  0.31063039  0.56017665  0.06265832  1
  Zn  Zn134  1  0.31452389  0.55724931  0.56752657  1
  Zn  Zn135  1  0.80892270  0.06746105  0.06222721  1
  Zn  Zn136  1  0.81433741  0.06307958  0.56416800  1
  Zn  Zn137  1  0.81214752  0.56726754  0.05794195  1
  Zn  Zn138  1  0.81487035  0.56650788  0.56118186  1
  Zn  Zn139  1  0.43754429  0.43300945  0.18820087  1
  Zn  Zn140  1  0.43266115  0.43703201  0.68815060  1
  Zn  Zn141  1  0.43736581  0.93510212  0.18654119  1
  Zn  Zn142  1  0.43507221  0.93611388  0.68657327  1
  Zn  Zn143  1  0.93114078  0.44292189  0.18627168  1
  Zn  Zn144  1  0.93699269  0.44829933  0.68453874  1
  Zn  Zn145  1  0.93711543  0.93677316  0.19337624  1
  Zn  Zn146  1  0.96585259  0.95436257  0.69687311  1
  Zn  Zn147  1  0.06021145  0.06358114  0.31393515  1
  Zn  Zn148  1  0.06553309  0.06478672  0.80510168  1
  Zn  Zn149  1  0.06183166  0.56243342  0.31713293  1
  Zn  Zn150  1  0.06235507  0.56618597  0.81480907  1
  Zn  Zn151  1  0.56359585  0.06171589  0.31430843  1
  Zn  Zn152  1  0.52956772  0.04538669  0.79723894  1
  Zn  Zn153  1  0.67061965  0.56656510  0.32562661  1
  Zn  Zn154  1  0.55761154  0.55911395  0.80966378  1
  Zn  Zn155  1  0.43949915  0.18194587  0.43592417  1
  Zn  Zn156  1  0.43317772  0.18732949  0.93182783  1
  Zn  Zn157  1  0.48891916  0.65294041  0.40510621  1
  Zn  Zn158  1  0.43516107  0.68861096  0.93475471  1
  Zn  Zn159  1  0.94486628  0.19985249  0.42719456  1
  Zn  Zn160  1  0.93134849  0.18939642  0.93790372  1
  Zn  Zn161  1  0.93698339  0.68589950  0.44142163  1
  Zn  Zn162  1  0.93707762  0.68828888  0.93722342  1
  Zn  Zn163  1  0.06067469  0.31185456  0.06361605  1
  Zn  Zn164  1  0.06468802  0.31334570  0.55836337  1
  Zn  Zn165  1  0.06080252  0.81262222  0.06015963  1
  Zn  Zn166  1  0.07154573  0.81535580  0.56434701  1
  Zn  Zn167  1  0.56248209  0.31453954  0.06542358  1
  Zn  Zn168  1  0.56659398  0.31099039  0.56341533  1
  Zn  Zn169  1  0.56276539  0.81415362  0.06242178  1
  Zn  Zn170  1  0.57029223  0.80944684  0.55855235  1
  O  O171  1  0.11692767  0.12053040  0.12182816  1
  O  O172  1  0.11112353  0.12890573  0.62891963  1
  O  O173  1  0.11570872  0.62619210  0.11609921  1
  O  O174  1  0.12179782  0.63026331  0.60942898  1
  O  O175  1  0.62803327  0.11398304  0.12360022  1
  O  O176  1  0.62169615  0.11571367  0.61668770  1
  O  O177  1  0.61525851  0.61902574  0.12275887  1
  O  O178  1  0.61409384  0.61605682  0.62444350  1
  O  O179  1  0.37904298  0.37576550  0.38245229  1
  O  O180  1  0.38071652  0.38063279  0.87965061  1
  O  O181  1  0.38447104  0.88255765  0.38128684  1
  O  O182  1  0.38598301  0.87040343  0.88514900  1
  O  O183  1  0.89582137  0.37853075  0.35945052  1
  O  O184  1  0.88364056  0.38412999  0.87735233  1
  O  O185  1  0.88819223  0.88606949  0.36556706  1
  O  O186  1  0.87763414  0.89075143  0.87607372  1
  O  O187  1  0.25745526  -0.00470272  0.36913290  1
  O  O188  1  0.24374500  0.00950037  0.87549717  1
  O  O189  1  0.25649498  0.50309600  0.36954239  1
  O  O190  1  0.26303407  0.49544938  0.87525316  1
  O  O191  1  0.75717539  -0.00894148  0.36439112  1
  O  O192  1  0.75541718  0.00666151  0.86931082  1
  O  O193  1  0.74417304  0.49473582  0.37258958  1
  O  O194  1  0.75486081  0.50915002  0.87554954  1
  O  O195  1  0.24983382  0.48977896  0.13259214  1
  O  O196  1  0.25217731  0.48281945  0.62909664  1
  O  O197  1  0.24345329  0.99417074  0.13242199  1
  O  O198  1  0.25528792  0.98787295  0.63391117  1
  O  O199  1  0.73593503  0.50202345  0.11646278  1
  O  O200  1  0.74031160  0.48958789  0.62339024  1
  O  O201  1  0.74450964  0.99541976  0.13205456  1
  O  O202  1  0.74272990  0.99288143  0.62822973  1
  O  O203  1  0.00996850  0.38841896  0.24917980  1
  O  O204  1  0.00252732  0.37500376  0.75428082  1
  O  O205  1  0.00926009  0.87057582  0.25752067  1
  O  O206  1  -0.00725969  0.86163619  0.76663563  1
  O  O207  1  0.50745032  0.36532508  0.25646778  1
  O  O208  1  0.50338474  0.36758091  0.75501115  1
  O  O209  1  0.49999757  0.86632069  0.25712785  1
  O  O210  1  0.51034320  0.87475386  0.75921390  1
  O  O211  1  0.50007119  0.13754537  0.25207953  1
  O  O212  1  0.51900009  0.14199781  0.73672712  1
  O  O213  1  0.49105083  0.63244612  0.23631260  1
  O  O214  1  0.49197836  0.62071923  0.73620465  1
  O  O215  1  0.99173650  0.11883999  0.23582072  1
  O  O216  1  0.98963183  0.13991648  0.74111769  1
  O  O217  1  1.00090445  0.62730810  0.23779586  1
  O  O218  1  1.00126741  0.63981601  0.75133715  1
  O  O219  1  0.36795181  0.25358444  0.00552145  1
  O  O220  1  0.37687812  0.25811880  0.49532977  1
  O  O221  1  0.36611552  0.75729493  0.00048845  1
  O  O222  1  0.36827593  0.75949534  0.49284409  1
  O  O223  1  0.86409968  0.24996121  0.01133779  1
  O  O224  1  0.85980458  0.24605121  0.48841221  1
  O  O225  1  0.86817959  0.75139269  0.01095682  1
  O  O226  1  0.86282058  0.74814032  0.49959638  1
  O  O227  1  0.12723360  0.26360185  0.47821375  1
  O  O228  1  0.13140436  0.24272238  0.99854150  1
  O  O229  1  0.13388778  0.74230464  0.49201634  1
  O  O230  1  0.13029153  0.74425532  0.99482880  1
  O  O231  1  0.63063411  0.24198863  0.49213647  1
  O  O232  1  0.63461034  0.24812880  1.00566857  1
  O  O233  1  0.65204118  0.74787334  0.51444821  1
  O  O234  1  0.63078828  0.74974340  0.99081803  1
  O  O235  1  0.49017659  0.25571614  0.13353982  1
  O  O236  1  0.50361053  0.24208890  0.63125545  1
  O  O237  1  0.49731016  0.74260767  0.12910341  1
  O  O238  1  0.50338687  0.73457940  0.62013401  1
  O  O239  1  0.98962249  0.24081857  0.11992483  1
  O  O240  1  0.99824518  0.24652574  0.63084098  1
  O  O241  1  0.98990878  0.74514147  0.12598804  1
  O  O242  1  1.00831331  0.75543351  0.64268761  1
  O  O243  1  0.01058363  0.26801428  0.36524860  1
  O  O244  1  -0.00228713  0.26019627  0.87031800  1
  O  O245  1  0.00920305  0.75482722  0.37579032  1
  O  O246  1  0.00622473  0.75764037  0.87342907  1
  O  O247  1  0.50842167  0.25356726  0.36861630  1
  O  O248  1  0.49615299  0.26201087  0.86810038  1
  O  O249  1  0.49020086  0.75913300  0.36079506  1
  O  O250  1  0.51280628  0.75958846  0.88226137  1
  O  O251  1  0.26019253  0.12605659  0.49464826  1
  O  O252  1  0.24149578  0.12967671  0.99160267  1
  O  O253  1  0.24468671  0.62771388  0.49826793  1
  O  O254  1  0.24058921  0.63384883  1.00688219  1
  O  O255  1  0.73934920  0.13310431  0.50686065  1
  O  O256  1  0.74503322  0.13322597  0.99129729  1
  O  O257  1  0.75145607  0.63710438  0.49756470  1
  O  O258  1  0.74544508  0.63367685  0.98729566  1
  O  O259  1  0.25376520  0.36666998  0.00492932  1
  O  O260  1  0.25838633  0.37337331  0.51024614  1
  O  O261  1  0.25680004  0.87007120  0.00496186  1
  O  O262  1  0.26062731  0.86552030  0.50350170  1
  O  O263  1  0.75045114  0.36693351  0.00118374  1
  O  O264  1  0.74499063  0.36558425  0.51487166  1
  O  O265  1  0.75096076  0.87273382  0.00661300  1
  O  O266  1  0.75617050  0.86667292  0.51755799  1
  O  O267  1  0.14158768  0.51099456  0.24790166  1
  O  O268  1  0.12628676  0.48998837  0.75795598  1
  O  O269  1  0.13104518  0.99364132  0.24694340  1
  O  O270  1  0.07646387  0.98888924  0.72659955  1
  O  O271  1  0.62137362  0.49280899  0.24071622  1
  O  O272  1  0.62360961  0.49092700  0.74005692  1
  O  O273  1  0.63244535  0.99861592  0.24521463  1
  O  O274  1  0.62788063  0.99144146  0.74093789  1
  O  O275  1  0.36727701  -0.00308175  0.25659185  1
  O  O276  1  0.42045233  0.01662449  0.76101891  1
  O  O277  1  0.36912333  0.50740317  0.25241444  1
  O  O278  1  0.37235227  0.50635184  0.75821993  1
  O  O279  1  0.86765347  0.00790250  0.25611476  1
  O  O280  1  0.87128627  0.01308270  0.75776420  1
  O  O281  1  0.86925637  0.51855430  0.24646473  1
  O  O282  1  0.87208672  0.50181002  0.76475725  1
  O  O283  1  0.11384595  0.37278192  0.36858840  1
  O  O284  1  0.11118734  0.37555228  0.87062705  1
  O  O285  1  0.12012164  0.86634392  0.37335334  1
  O  O286  1  0.11414322  0.86491304  0.88232072  1
  O  O287  1  0.61602421  0.36672639  0.37036742  1
  O  O288  1  0.61391924  0.38354574  0.86481436  1
  O  O289  1  0.61211468  0.87953737  0.37634562  1
  O  O290  1  0.62264232  0.86705047  0.86614935  1
  O  O291  1  0.36832432  0.13751076  0.12584301  1
  O  O292  1  0.39259445  0.11636023  0.62591894  1
  O  O293  1  0.37978851  0.62447802  0.13208599  1
  O  O294  1  0.38607066  0.62051468  0.63730687  1
  O  O295  1  0.88050198  0.13066738  0.13188462  1
  O  O296  1  0.86552451  0.13557404  0.63875980  1
  O  O297  1  0.87762832  0.63250077  0.13290706  1
  O  O298  1  0.88586423  0.61204626  0.63306658  1
  O  O299  1  0.25475018  0.25339815  0.11556977  1
  O  O300  1  0.24582174  0.26522334  0.62483704  1
  O  O301  1  0.24830202  0.75618447  0.11512586  1
  O  O302  1  0.25301496  0.75304879  0.61451077  1
  O  O303  1  0.75597851  0.25140758  0.11575219  1
  O  O304  1  0.74435064  0.26329542  0.61821247  1
  O  O305  1  0.75423153  0.75903959  0.11936436  1
  O  O306  1  0.76243865  0.76492064  0.63591321  1
  O  O307  1  0.23942008  0.24649857  0.37665474  1
  O  O308  1  0.24612031  0.24982818  0.88690651  1
  O  O309  1  0.24645680  0.74234783  0.38432423  1
  O  O310  1  0.24054301  0.75501272  0.88916336  1
  O  O311  1  0.73740117  0.25754124  0.38220099  1
  O  O312  1  0.75381501  0.24178934  0.88531934  1
  O  O313  1  0.75064052  0.76093280  0.38558463  1
  O  O314  1  0.74112343  0.74627269  0.87603274  1
  O  O315  1  0.00225915  0.12095669  0.00804426  1
  O  O316  1  -0.00139628  0.13991299  0.51005283  1
  O  O317  1  0.00367871  0.62273311  0.01094853  1
  O  O318  1  0.01339046  0.61451497  0.49485181  1
  O  O319  1  0.49606685  0.11023300  -0.00833357  1
  O  O320  1  0.51143794  0.11890599  0.50600312  1
  O  O321  1  0.49647805  0.62112450  0.01070390  1
  O  O322  1  0.49283488  0.61028819  0.51637334  1
  O  O323  1  0.49324765  0.37673395  0.49842737  1
  O  O324  1  0.49479881  0.37818264  0.99250988  1
  O  O325  1  0.49651908  0.87464324  0.49452910  1
  O  O326  1  0.49134692  0.88003234  0.99738925  1
  O  O327  1  1.00124798  0.38736210  0.49354270  1
  O  O328  1  0.99816739  0.38210469  0.99239596  1
  O  O329  1  1.00248520  0.87363361  0.49169016  1
  O  O330  1  0.99423122  0.88090006  0.99101855  1
  O  O331  1  0.49121000  0.48591706  0.38909452  1
  O  O332  1  0.49085306  0.48979428  0.87980211  1
  O  O333  1  0.49507431  0.99043181  0.37944032  1
  O  O334  1  0.51484519  0.98059767  0.89186521  1
  O  O335  1  1.00193709  0.48943087  0.38104693  1
  O  O336  1  0.99199867  0.49639341  0.88054894  1
  O  O337  1  0.99444593  0.99208416  0.37782959  1
  O  O338  1  0.99265353  0.99581018  0.88119158  1
  O  O339  1  0.00231204  0.00522945  0.12033001  1
  O  O340  1  -0.02501667  0.03321978  0.61103263  1
  O  O341  1  0.00035204  0.50925367  0.11817323  1
  O  O342  1  0.00389811  0.49744572  0.60564024  1
  O  O343  1  0.50977842  -0.00624630  0.11796169  1
  O  O344  1  0.51495351  0.00270555  0.61537115  1
  O  O345  1  0.50408254  0.50639950  0.12069212  1
  O  O346  1  0.50466541  0.50001878  0.62086533  1
  O  O347  1  0.26005459  0.38451480  0.24037415  1
  O  O348  1  0.24073785  0.37444895  0.74323097  1
  O  O349  1  0.24501423  0.88173952  0.24825436  1
  O  O350  1  0.26080668  0.86904444  0.73975078  1
  O  O351  1  0.73425635  0.36775698  0.24641799  1
  O  O352  1  0.74208698  0.37624613  0.74237420  1
  O  O353  1  0.74900052  0.88390212  0.24112890  1
  O  O354  1  0.74362549  0.88371086  0.74182462  1
  O  O355  1  0.25184652  0.10915695  0.25434719  1
  O  O356  1  0.24499478  0.12828728  0.76342791  1
  O  O357  1  0.25949868  0.61991398  0.25621464  1
  O  O358  1  0.26535495  0.62467264  0.74401951  1
  O  O359  1  0.75897072  0.11453998  0.24675791  1
  O  O360  1  0.75225624  0.12270222  0.75602828  1
  O  O361  1  0.75045546  0.62924956  0.25404475  1
  O  O362  1  0.74682432  0.62321902  0.76026688  1
  O  O363  1  0.38036153  0.10668378  0.37091968  1
  O  O364  1  0.35273450  0.12608648  0.87693147  1
  O  O365  1  0.37914979  0.61404661  0.36575952  1
  O  O366  1  0.38471733  0.61590330  0.86041107  1
  O  O367  1  0.88663146  0.12078967  0.35932819  1
  O  O368  1  0.86776647  0.11764420  0.86840875  1
  O  O369  1  0.88068500  0.62583910  0.35554248  1
  O  O370  1  0.86461090  0.62030949  0.87382321  1
  O  O371  1  0.13930731  0.37542668  0.11922811  1
  O  O372  1  0.13332170  0.37475436  0.63318515  1
  O  O373  1  0.12860015  0.87872942  0.13174874  1
  O  O374  1  0.15114114  0.86973451  0.62514973  1
  O  O375  1  0.62328666  0.38585408  0.13448410  1
  O  O376  1  0.63004880  0.38090840  0.63349399  1
  O  O377  1  0.63637348  0.88224143  0.12669641  1
  O  O378  1  0.62815117  0.88150799  0.63209060  1
  O  O379  1  0.13511199  0.25724660  0.26240171  1
  O  O380  1  0.10911390  0.26422074  0.75426746  1
  O  O381  1  0.12802137  0.75230434  0.26426478  1
  O  O382  1  0.11918411  0.74411924  0.76486321  1
  O  O383  1  0.61962677  0.25405148  0.25602306  1
  O  O384  1  0.61833581  0.26340830  0.74800743  1
  O  O385  1  0.61181408  0.75369045  0.24554541  1
  O  O386  1  0.62938068  0.76017163  0.75562308  1
  O  O387  1  0.38291867  0.24773346  0.24223482  1
  O  O388  1  0.38598609  0.23992589  0.75360799  1
  O  O389  1  0.37861073  0.73794744  0.24736921  1
  O  O390  1  0.37873649  0.73502079  0.75744398  1
  O  O391  1  0.86538130  0.24136254  0.23698805  1
  O  O392  1  0.88488914  0.24741559  0.75766824  1
  O  O393  1  0.87313110  0.73957354  0.23887676  1
  O  O394  1  0.88978751  0.74789390  0.75895330  1
  O  O395  1  0.38259464  0.48877588  0.49875455  1
  O  O396  1  0.37952551  0.49471995  0.99398223  1
  O  O397  1  0.38480246  0.98739029  0.49331551  1
  O  O398  1  0.38122415  0.98806311  1.00665281  1
  O  O399  1  0.88723449  0.50347752  0.49028512  1
  O  O400  1  0.87992449  0.50095162  0.99013526  1
  O  O401  1  0.87356264  1.01054378  0.48203989  1
  O  O402  1  0.87837561  1.00334710  0.99249867  1
  O  O403  1  0.11778094  0.00489128  0.00847784  1
  O  O404  1  0.11973196  -0.00372829  0.51480922  1
  O  O405  1  0.11914779  0.50881461  0.00257939  1
  O  O406  1  0.12348614  0.51055506  0.49361862  1
  O  O407  1  0.61681201  0.00202685  0.01133889  1
  O  O408  1  0.62615591  0.00478909  0.50416614  1
  O  O409  1  0.61426117  0.50263056  0.00751042  1
  O  O410  1  0.61195468  0.49491569  0.51408351  1
  O  O411  1  0.36611647  0.36546109  0.11777058  1
  O  O412  1  0.36462920  0.37279631  0.61922834  1
  O  O413  1  0.36690166  0.87110927  0.11776390  1
  O  O414  1  0.36804418  0.87569875  0.61618484  1
  O  O415  1  0.87158024  0.36762985  0.12348082  1
  O  O416  1  0.85857725  0.37998537  0.63171540  1
  O  O417  1  0.86466679  0.86914882  0.12593587  1
  O  O418  1  0.87085636  0.88722792  0.63721325  1
  O  O419  1  0.12000842  0.14182458  0.36869775  1
  O  O420  1  0.13064491  0.12626602  0.87857838  1
  O  O421  1  0.13308084  0.63155046  0.38426143  1
  O  O422  1  0.11840141  0.63403071  0.89124799  1
  O  O423  1  0.62199873  0.13328012  0.38392520  1
  O  O424  1  0.63440682  0.11780889  0.87490636  1
  O  O425  1  0.59721669  0.62105218  0.38874319  1
  O  O426  1  0.62703555  0.63210281  0.87347576  1
