# generated using pymatgen
data_V85Zn86O256
_symmetry_space_group_name_H-M   'P 1'
_cell_length_a   17.00870666
_cell_length_b   16.98627758
_cell_length_c   17.00116895
_cell_angle_alpha   90.18962673
_cell_angle_beta   90.09221989
_cell_angle_gamma   90.03950111
_symmetry_Int_Tables_number   1
_chemical_formula_structural   V85Zn86O256
_chemical_formula_sum   'V85 Zn86 O256'
_cell_volume   4911.85169395
_cell_formula_units_Z   1
loop_
 _symmetry_equiv_pos_site_id
 _symmetry_equiv_pos_as_xyz
  1  'x, y, z'
loop_
 _atom_site_type_symbol
 _atom_site_label
 _atom_site_symmetry_multiplicity
 _atom_site_fract_x
 _atom_site_fract_y
 _atom_site_fract_z
 _atom_site_occupancy
  V  V0  1  0.87447765  0.00291626  0.37144547  1
  V  V1  1  0.12070927  0.00711135  0.12572864  1
  V  V2  1  0.85387837  0.21583605  0.60700708  1
  V  V3  1  0.49556257  0.87074203  0.87695756  1
  V  V4  1  0.24491261  0.74788236  -0.00147492  1
  V  V5  1  0.63006804  0.00081611  0.12831914  1
  V  V6  1  0.24702060  0.61677463  0.36904398  1
  V  V7  1  0.75256089  0.88026997  0.12967936  1
  V  V8  1  0.11822340  0.75135332  0.87455649  1
  V  V9  1  0.75432187  0.12065440  0.87456177  1
  V  V10  1  0.37556803  0.12467318  0.24892052  1
  V  V11  1  0.00849789  0.62635961  0.62512071  1
  V  V12  1  0.62821306  0.50436529  0.61306827  1
  V  V13  1  0.24888918  0.87227457  0.62705840  1
  V  V14  1  -0.00138491  0.74984489  0.25044483  1
  V  V15  1  0.63423346  0.74933837  0.37244712  1
  V  V16  1  0.12585109  0.74972541  0.37667527  1
  V  V17  1  0.12840399  0.25533923  0.37747310  1
  V  V18  1  0.75132151  0.75105859  0.00287716  1
  V  V19  1  0.62845667  0.87278393  0.75257840  1
  V  V20  1  0.12886722  -0.00018792  0.62517792  1
  V  V21  1  0.87517239  0.38557387  -0.00110188  1
  V  V22  1  0.58136974  0.57860505  -0.04643239  1
  V  V23  1  0.36981661  0.61875888  0.24584562  1
  V  V24  1  -0.00188317  0.61930847  0.11735245  1
  V  V25  1  -0.00122641  0.25238101  0.74693467  1
  V  V26  1  0.62258221  0.49891960  0.13227438  1
  V  V27  1  0.49844948  -0.00100690  0.00188288  1
  V  V28  1  -0.00187417  0.75641735  0.74637154  1
  V  V29  1  0.88223220  0.12315947  0.24704100  1
  V  V30  1  0.76739703  0.38465436  0.62668445  1
  V  V31  1  0.89006761  0.24753175  0.12277797  1
  V  V32  1  0.50100913  0.12343113  0.12856676  1
  V  V33  1  0.25125038  0.13288471  0.37626980  1
  V  V34  1  0.24952705  0.00077458  0.24805993  1
  V  V35  1  0.24527429  0.61204046  0.86490155  1
  V  V36  1  0.00472642  0.38057145  0.37186963  1
  V  V37  1  0.62732973  0.12481241  -0.00013949  1
  V  V38  1  0.00326274  0.50012631  0.50314148  1
  V  V39  1  0.63041022  0.63077008  0.49573605  1
  V  V40  1  0.00725896  0.37695602  0.87678821  1
  V  V41  1  0.49905381  0.62437690  0.61693974  1
  V  V42  1  0.00332647  0.00302639  -0.00540863  1
  V  V43  1  0.37326529  0.74815306  0.62957407  1
  V  V44  1  0.74859347  0.37465809  0.12728778  1
  V  V45  1  0.37306923  -0.00030729  0.87685508  1
  V  V46  1  0.75912203  0.62797513  0.88013154  1
  V  V47  1  0.24950026  0.00170241  0.75290039  1
  V  V48  1  0.25276771  0.25899346  -0.00149744  1
  V  V49  1  0.87018071  0.51096108  0.37572017  1
  V  V50  1  0.37474235  -0.00316818  0.38022919  1
  V  V51  1  0.87592548  0.63330289  0.73832200  1
  V  V52  1  0.88106736  0.12400914  0.75182442  1
  V  V53  1  0.74741568  0.51296764  0.74801490  1
  V  V54  1  0.75107174  0.24865528  0.00172194  1
  V  V55  1  0.38683255  0.50208029  0.37880554  1
  V  V56  1  0.88206756  0.87845820  -0.00422275  1
  V  V57  1  0.85636058  0.35611394  0.47732320  1
  V  V58  1  0.87128651  0.87443728  0.50988276  1
  V  V59  1  0.12406324  0.37980566  0.73480392  1
  V  V60  1  0.60606095  -0.00840257  0.62347968  1
  V  V61  1  0.62327856  0.75409792  0.88348245  1
  V  V62  1  0.25026116  0.74969693  0.49985827  1
  V  V63  1  0.87524390  0.75442034  0.12732328  1
  V  V64  1  0.62412988  0.87581536  0.24965236  1
  V  V65  1  0.36314807  0.24491208  0.61688583  1
  V  V66  1  0.50459178  0.62258762  0.13045473  1
  V  V67  1  0.12590347  0.87684360  0.24921807  1
  V  V68  1  0.75233881  0.75887387  0.51611317  1
  V  V69  1  0.12189690  0.13525423  0.00341303  1
  V  V70  1  0.75450558  0.50461756  0.24888809  1
  V  V71  1  0.37318455  0.74991118  0.12457298  1
  V  V72  1  0.24557083  0.13076602  0.87721159  1
  V  V73  1  0.38217563  0.87594075  0.50211212  1
  V  V74  1  0.36817189  0.60654046  0.74513399  1
  V  V75  1  0.37625025  0.25429217  0.12296729  1
  V  V76  1  0.75200007  -0.00497401  0.74171134  1
  V  V77  1  0.12058720  0.87647612  0.75755540  1
  V  V78  1  0.00089140  0.87421426  0.37762313  1
  V  V79  1  0.25307500  0.38245114  0.13271880  1
  V  V80  1  0.38496575  0.13521978  0.75211191  1
  V  V81  1  0.51313811  0.25975757  0.25417087  1
  V  V82  1  0.55071138  0.16943034  0.57093477  1
  V  V83  1  0.00396226  -0.00151352  0.50013660  1
  V  V84  1  0.13185863  0.12889933  0.50110875  1
  Zn  Zn85  1  0.61926894  0.23766271  0.84979968  1
  Zn  Zn86  1  0.41585967  0.43493866  -0.03736324  1
  Zn  Zn87  1  0.71523813  0.06228039  0.30729609  1
  Zn  Zn88  1  0.00818318  0.25023889  0.24626972  1
  Zn  Zn89  1  0.37209472  0.87092360  -0.00084686  1
  Zn  Zn90  1  0.13327469  0.38804952  0.25508674  1
  Zn  Zn91  1  0.24746771  0.38298390  0.61714598  1
  Zn  Zn92  1  0.12341526  0.49967493  0.12637952  1
  Zn  Zn93  1  0.49838603  0.75060730  0.25388063  1
  Zn  Zn94  1  0.01058708  0.12675418  0.62751395  1
  Zn  Zn95  1  0.62205436  0.35698294  0.73821234  1
  Zn  Zn96  1  0.88227832  -0.00489310  0.87227580  1
  Zn  Zn97  1  0.37116330  0.37398142  0.49792331  1
  Zn  Zn98  1  0.46945242  0.33596037  0.83453618  1
  Zn  Zn99  1  0.12670887  0.62149896  0.50268179  1
  Zn  Zn100  1  0.11748566  0.61439475  -0.00582710  1
  Zn  Zn101  1  0.50317485  0.87422272  0.37973204  1
  Zn  Zn102  1  0.49850392  0.74072172  0.75669414  1
  Zn  Zn103  1  0.87127968  0.63273806  0.25406424  1
  Zn  Zn104  1  0.24886955  0.87500174  0.12258482  1
  Zn  Zn105  1  0.50775258  0.36777872  0.38944767  1
  Zn  Zn106  1  0.87643773  0.50375365  0.87604377  1
  Zn  Zn107  1  0.18877382  0.19223063  0.18856375  1
  Zn  Zn108  1  0.18540104  0.19218582  0.69411660  1
  Zn  Zn109  1  0.18380357  0.68652921  0.18702347  1
  Zn  Zn110  1  0.18299807  0.55444300  0.68593745  1
  Zn  Zn111  1  0.69241028  0.19120158  0.18506419  1
  Zn  Zn112  1  0.69746906  0.17950617  0.67092561  1
  Zn  Zn113  1  0.68702890  0.68565962  0.18817813  1
  Zn  Zn114  1  0.68421099  0.69135044  0.68910332  1
  Zn  Zn115  1  0.31894218  0.31366661  0.31117790  1
  Zn  Zn116  1  0.30172859  0.31888723  0.81424591  1
  Zn  Zn117  1  0.31120415  0.81041540  0.31127137  1
  Zn  Zn118  1  0.30737171  0.80661083  0.81318952  1
  Zn  Zn119  1  0.82003803  0.31353251  0.30411184  1
  Zn  Zn120  1  0.77261719  0.33982594  0.83925956  1
  Zn  Zn121  1  0.81086537  0.81949876  0.31745417  1
  Zn  Zn122  1  0.81384185  0.81253871  0.81375048  1
  Zn  Zn123  1  0.19302704  0.43896928  0.44563756  1
  Zn  Zn124  1  0.17952523  0.43758145  0.94383664  1
  Zn  Zn125  1  0.19261679  0.93809315  0.43716247  1
  Zn  Zn126  1  0.18712216  0.93784829  0.93945409  1
  Zn  Zn127  1  0.69594443  0.37399786  0.42193376  1
  Zn  Zn128  1  0.60817421  0.41007797  0.93870359  1
  Zn  Zn129  1  0.67704295  0.95525680  0.43027871  1
  Zn  Zn130  1  0.69082643  0.93865742  0.94018633  1
  Zn  Zn131  1  0.31019219  0.06446398  0.06227918  1
  Zn  Zn132  1  0.31499983  0.06400817  0.56485364  1
  Zn  Zn133  1  0.30467930  0.56367100  0.05857745  1
  Zn  Zn134  1  0.31166315  0.56250078  0.55593350  1
  Zn  Zn135  1  0.81750844  0.06415944  0.06648304  1
  Zn  Zn136  1  0.81392244  0.04858839  0.56732929  1
  Zn  Zn137  1  0.81284295  0.56535343  0.06608619  1
  Zn  Zn138  1  0.81464570  0.56850468  0.55585046  1
  Zn  Zn139  1  0.43648958  0.43921243  0.18684461  1
  Zn  Zn140  1  0.43969624  0.43140781  0.67171522  1
  Zn  Zn141  1  0.43718618  0.93513899  0.18805166  1
  Zn  Zn142  1  0.43306903  0.93285384  0.69688172  1
  Zn  Zn143  1  0.93744151  0.43603096  0.19114470  1
  Zn  Zn144  1  0.93690451  0.44447511  0.68988010  1
  Zn  Zn145  1  0.94261239  0.94077787  0.18550271  1
  Zn  Zn146  1  0.94158926  0.94047772  0.68613682  1
  Zn  Zn147  1  0.06028830  0.06608302  0.31299901  1
  Zn  Zn148  1  0.06530958  0.06480969  0.81793131  1
  Zn  Zn149  1  0.06308932  0.56311640  0.30775464  1
  Zn  Zn150  1  0.05546100  0.56107992  0.81550389  1
  Zn  Zn151  1  0.55160191  0.06711254  0.32365344  1
  Zn  Zn152  1  0.56434058  0.05996011  0.81376212  1
  Zn  Zn153  1  0.59850842  0.52136812  0.34673589  1
  Zn  Zn154  1  0.53281392  0.52050398  0.77404041  1
  Zn  Zn155  1  0.43634367  0.18919326  0.43439632  1
  Zn  Zn156  1  0.43794382  0.18833084  0.93929060  1
  Zn  Zn157  1  0.44117268  0.68852533  0.43345532  1
  Zn  Zn158  1  0.41066176  0.64493673  0.95470016  1
  Zn  Zn159  1  0.94575605  0.18354844  0.43150888  1
  Zn  Zn160  1  0.93925159  0.19169546  0.93453588  1
  Zn  Zn161  1  0.93530071  0.69011319  0.44249866  1
  Zn  Zn162  1  0.93629341  0.69341871  0.93645476  1
  Zn  Zn163  1  0.06775232  0.32052054  0.05849255  1
  Zn  Zn164  1  0.05106799  0.30933535  0.55878200  1
  Zn  Zn165  1  0.06308264  0.81413874  0.06360341  1
  Zn  Zn166  1  0.06335034  0.81096032  0.56656145  1
  Zn  Zn167  1  0.56050875  0.31162013  0.06493564  1
  Zn  Zn168  1  0.55876653  0.33007952  0.56548542  1
  Zn  Zn169  1  0.55954620  0.81067845  0.06334752  1
  Zn  Zn170  1  0.56214518  0.81029720  0.56626529  1
  O  O171  1  0.13193368  0.11905786  0.11618342  1
  O  O172  1  0.12934810  0.12056315  0.61756253  1
  O  O173  1  0.10596513  0.63199783  0.12298743  1
  O  O174  1  0.11170511  0.62349954  0.62397411  1
  O  O175  1  0.62358065  0.11670671  0.12125274  1
  O  O176  1  0.61370230  0.10365495  0.62851027  1
  O  O177  1  0.61516724  0.61743756  0.12690191  1
  O  O178  1  0.61718168  0.62885010  0.61675563  1
  O  O179  1  0.37868874  0.39409715  0.36760832  1
  O  O180  1  0.37436115  0.37802860  0.87400840  1
  O  O181  1  0.37046955  0.87955271  0.38526488  1
  O  O182  1  0.38105515  0.87666581  0.87564932  1
  O  O183  1  0.88967296  0.39009342  0.37280317  1
  O  O184  1  0.87125842  0.37937387  0.88530570  1
  O  O185  1  0.88782959  0.87925778  0.38204807  1
  O  O186  1  0.87022494  0.87790273  0.89234125  1
  O  O187  1  0.25563957  0.00870409  0.36692777  1
  O  O188  1  0.25573729  0.00696926  0.87395887  1
  O  O189  1  0.25708475  0.51483803  0.37695857  1
  O  O190  1  0.24058944  0.51457843  0.87930079  1
  O  O191  1  0.77408518  -0.02016212  0.36849460  1
  O  O192  1  0.75403927  0.00934931  0.87149578  1
  O  O193  1  0.76768470  0.49372008  0.36484138  1
  O  O194  1  0.75209526  0.52222842  0.86489974  1
  O  O195  1  0.25556066  0.48393887  0.12127477  1
  O  O196  1  0.25144336  0.49831667  0.62084501  1
  O  O197  1  0.24024426  0.99850262  0.13006703  1
  O  O198  1  0.24568543  0.99334863  0.63217367  1
  O  O199  1  0.74733294  0.49378333  0.12968384  1
  O  O200  1  0.74981033  0.50493725  0.62978993  1
  O  O201  1  0.74242105  0.99179826  0.11948953  1
  O  O202  1  0.73970107  0.99505568  0.64011923  1
  O  O203  1  0.00470828  0.37386132  0.26222679  1
  O  O204  1  0.00142360  0.37035873  0.75398232  1
  O  O205  1  0.00569787  0.86679045  0.25531530  1
  O  O206  1  0.00889009  0.87022530  0.74618483  1
  O  O207  1  0.49841259  0.35980662  0.24487763  1
  O  O208  1  0.51588489  0.40344731  0.75478143  1
  O  O209  1  0.51450493  0.87192524  0.24605419  1
  O  O210  1  0.50471171  0.87075954  0.76624083  1
  O  O211  1  0.49452184  0.13030778  0.24709304  1
  O  O212  1  0.48163437  0.11748772  0.75827128  1
  O  O213  1  0.48753272  0.63209005  0.23493901  1
  O  O214  1  0.48668274  0.62397278  0.73834923  1
  O  O215  1  0.98952990  0.13303461  0.25427190  1
  O  O216  1  0.99787235  0.13286589  0.75460525  1
  O  O217  1  0.99689755  0.64059770  0.24313434  1
  O  O218  1  0.99419896  0.63270414  0.74359658  1
  O  O219  1  0.36704478  0.24031908  0.01551926  1
  O  O220  1  0.36972646  0.23754226  0.51544924  1
  O  O221  1  0.36359512  0.74379204  0.00772408  1
  O  O222  1  0.36878794  0.75478836  0.50723052  1
  O  O223  1  0.86818280  0.25156313  0.00746478  1
  O  O224  1  0.89007844  0.25323884  0.51098727  1
  O  O225  1  0.87257335  0.76223784  0.00751812  1
  O  O226  1  0.86085989  0.75902588  0.49677900  1
  O  O227  1  0.12036741  0.24137263  0.48863838  1
  O  O228  1  0.13517925  0.24106058  1.00542391  1
  O  O229  1  0.13374586  0.74984671  0.49480307  1
  O  O230  1  0.12792575  0.74981263  0.99156993  1
  O  O231  1  0.61330541  0.23412376  0.52645559  1
  O  O232  1  0.64231597  0.24062662  1.00893353  1
  O  O233  1  0.63535002  0.75142565  0.49500554  1
  O  O234  1  0.63478075  0.76216628  0.99026529  1
  O  O235  1  0.49457172  0.24283203  0.13227686  1
  O  O236  1  0.48820610  0.23523687  0.62203211  1
  O  O237  1  0.49000764  0.74322640  0.12452532  1
  O  O238  1  0.49060706  0.74356876  0.63143313  1
  O  O239  1  0.99239840  0.25872735  0.12299433  1
  O  O240  1  0.98882098  0.24648707  0.63460712  1
  O  O241  1  0.99315434  0.74968958  0.13418362  1
  O  O242  1  1.00239030  0.74223034  0.63538707  1
  O  O243  1  0.01097908  0.26230610  0.37477890  1
  O  O244  1  -0.01589574  0.26608552  0.85714310  1
  O  O245  1  0.00498277  0.75406396  0.36980780  1
  O  O246  1  0.01193054  0.74704507  0.86834291  1
  O  O247  1  0.49418001  0.25253855  0.35891567  1
  O  O248  1  0.50984846  0.24299953  0.87708624  1
  O  O249  1  0.51454310  0.75466264  0.37325947  1
  O  O250  1  0.51035585  0.75676995  0.87693881  1
  O  O251  1  0.23923958  0.11819581  0.49037136  1
  O  O252  1  0.24405005  0.13431490  0.99537766  1
  O  O253  1  0.24818007  0.63732122  0.48981376  1
  O  O254  1  0.24160525  0.63608262  0.98766847  1
  O  O255  1  0.76999693  0.15370471  0.57567216  1
  O  O256  1  0.74907283  0.12719753  0.99473640  1
  O  O257  1  0.74362066  0.64541173  0.50486786  1
  O  O258  1  0.76203778  0.63757808  0.99229691  1
  O  O259  1  0.24632596  0.36280412  0.00736699  1
  O  O260  1  0.25912976  0.37366805  0.50301654  1
  O  O261  1  0.25063748  0.86113573  -0.00056018  1
  O  O262  1  0.25636791  0.86482079  0.50395534  1
  O  O263  1  0.76131555  0.36244551  0.00995894  1
  O  O264  1  0.76034359  0.39631316  0.51669422  1
  O  O265  1  0.75832460  0.87187883  0.01146097  1
  O  O266  1  0.75803734  0.86531739  0.49405332  1
  O  O267  1  0.12318253  0.50052363  0.23984425  1
  O  O268  1  0.11358189  0.48481535  0.74840542  1
  O  O269  1  0.12866735  0.99933198  0.24362395  1
  O  O270  1  0.12952672  0.99523567  0.74661352  1
  O  O271  1  0.63899345  0.50443210  0.23749064  1
  O  O272  1  0.64238314  0.51975252  0.73345917  1
  O  O273  1  0.62625352  0.99376828  0.23620788  1
  O  O274  1  0.63148545  0.99098829  0.74777684  1
  O  O275  1  0.36630614  0.00352285  0.25341108  1
  O  O276  1  0.36565471  0.00673791  0.75786771  1
  O  O277  1  0.37446887  0.51497579  0.25299972  1
  O  O278  1  0.37936836  0.50806870  0.74147985  1
  O  O279  1  0.88583644  0.00970886  0.25663752  1
  O  O280  1  0.87018982  0.00366480  0.75223128  1
  O  O281  1  0.87312390  0.50507438  0.25957134  1
  O  O282  1  0.86551558  0.51701953  0.75091935  1
  O  O283  1  0.12296910  0.37018810  0.37614586  1
  O  O284  1  0.10913759  0.37513783  0.86866291  1
  O  O285  1  0.12016253  0.87038749  0.37033186  1
  O  O286  1  0.12958488  0.86988895  0.86403637  1
  O  O287  1  0.60990591  0.41138156  0.37361795  1
  O  O288  1  0.65788461  0.35696699  0.85672391  1
  O  O289  1  0.62419583  0.87091083  0.36391437  1
  O  O290  1  0.61833378  0.87243131  0.87183204  1
  O  O291  1  0.38094644  0.12915346  0.13170617  1
  O  O292  1  0.36701721  0.13089613  0.64282698  1
  O  O293  1  0.37626507  0.63416942  0.13022502  1
  O  O294  1  0.37961995  0.63188327  0.62638962  1
  O  O295  1  0.87783815  0.13605998  0.13162083  1
  O  O296  1  0.89454191  0.11163211  0.63418168  1
  O  O297  1  0.88415140  0.63705356  0.12804061  1
  O  O298  1  0.88205770  0.62845346  0.63473073  1
  O  O299  1  0.25951213  0.25658674  0.11971091  1
  O  O300  1  0.26152940  0.24765214  0.62925114  1
  O  O301  1  0.25366697  0.74921803  0.11551272  1
  O  O302  1  0.25900934  0.75636324  0.61340496  1
  O  O303  1  0.76093840  0.25797473  0.12008399  1
  O  O304  1  0.76368011  0.28194213  0.63541752  1
  O  O305  1  0.75628766  0.75723874  0.12163733  1
  O  O306  1  0.74428593  0.75865796  0.61472422  1
  O  O307  1  0.24870586  0.23879754  0.37088439  1
  O  O308  1  0.25328463  0.24140768  0.88641401  1
  O  O309  1  0.24469184  0.74515174  0.38200250  1
  O  O310  1  0.23552769  0.74353027  0.87900211  1
  O  O311  1  0.78105707  0.30034426  0.40969219  1
  O  O312  1  0.75669704  0.23177096  0.88699926  1
  O  O313  1  0.73745995  0.75473781  0.37960711  1
  O  O314  1  0.74513164  0.74462913  0.88114963  1
  O  O315  1  0.01279371  0.12143404  -0.00625587  1
  O  O316  1  0.01694462  0.11595436  0.49815598  1
  O  O317  1  -0.00324271  0.63327946  0.01425958  1
  O  O318  1  -0.00107558  0.62057309  0.50895738  1
  O  O319  1  0.50670601  0.11735876  0.00945934  1
  O  O320  1  0.49979226  0.12032768  0.49973592  1
  O  O321  1  0.51569327  0.63682145  0.00770173  1
  O  O322  1  0.50979563  0.63609469  0.51139743  1
  O  O323  1  0.48353372  0.37533449  0.50041966  1
  O  O324  1  0.51311010  0.37908420  0.98984668  1
  O  O325  1  0.48465608  0.86816922  0.50139190  1
  O  O326  1  0.49699863  0.87975262  0.99108039  1
  O  O327  1  0.98871256  0.38197398  0.48805736  1
  O  O328  1  0.99106794  0.36504763  0.98306386  1
  O  O329  1  0.99605544  0.87864670  0.49597891  1
  O  O330  1  0.99156492  0.88621778  1.00797054  1
  O  O331  1  0.48438144  0.51444566  0.36664180  1
  O  O332  1  0.52853357  0.51972102  0.89028151  1
  O  O333  1  0.47730874  0.99057127  0.36799321  1
  O  O334  1  0.49326131  0.99179532  0.88178017  1
  O  O335  1  0.99251952  0.49790766  0.37899906  1
  O  O336  1  0.99175253  0.48202512  0.86977757  1
  O  O337  1  0.99677280  0.99318080  0.38152787  1
  O  O338  1  1.00258879  0.99947573  0.88988678  1
  O  O339  1  0.01489829  0.00045839  0.11635122  1
  O  O340  1  0.01522547  0.00007096  0.61808565  1
  O  O341  1  -0.00918242  0.51870099  0.12953255  1
  O  O342  1  -0.00964874  0.51170711  0.61333971  1
  O  O343  1  0.50719496  0.00372103  0.12123124  1
  O  O344  1  0.50700099  -0.00890709  0.63375436  1
  O  O345  1  0.51090410  0.50801900  0.12976470  1
  O  O346  1  0.51391300  0.51197553  0.62651335  1
  O  O347  1  0.25215899  0.37031268  0.23581396  1
  O  O348  1  0.22602121  0.36910914  0.74411001  1
  O  O349  1  0.24292554  0.88340996  0.24933549  1
  O  O350  1  0.24222133  0.88059896  0.74682319  1
  O  O351  1  0.76034675  0.38567136  0.23429961  1
  O  O352  1  0.75829901  0.39939947  0.73796151  1
  O  O353  1  0.74026331  0.87102634  0.23667987  1
  O  O354  1  0.74032380  0.88322560  0.76250166  1
  O  O355  1  0.25536122  0.11970824  0.25690304  1
  O  O356  1  0.25135919  0.12074431  0.76170755  1
  O  O357  1  0.25741898  0.63488183  0.25826116  1
  O  O358  1  0.24988211  0.61979043  0.75763676  1
  O  O359  1  0.76997670  0.13317235  0.24604584  1
  O  O360  1  0.76122231  0.11300821  0.75715019  1
  O  O361  1  0.75560529  0.61093347  0.24280351  1
  O  O362  1  0.76007812  0.63322910  0.75554226  1
  O  O363  1  0.36678805  0.11743017  0.37056406  1
  O  O364  1  0.36464902  0.12107967  0.86802193  1
  O  O365  1  0.36752235  0.62429286  0.36493289  1
  O  O366  1  0.35297094  0.63489227  0.85660192  1
  O  O367  1  0.87861156  0.11436528  0.36858098  1
  O  O368  1  0.87257419  0.11947621  0.86775538  1
  O  O369  1  0.87981782  0.61437316  0.37342238  1
  O  O370  1  0.87206217  0.62800087  0.86553283  1
  O  O371  1  0.14221391  0.37085429  0.12960590  1
  O  O372  1  0.11728538  0.37210357  0.63284645  1
  O  O373  1  0.12737195  0.88443306  0.13277239  1
  O  O374  1  0.13192200  0.87936080  0.63551018  1
  O  O375  1  0.63785871  0.38560993  0.11855765  1
  O  O376  1  0.64034397  0.39137991  0.62426878  1
  O  O377  1  0.63237464  0.88093497  0.12802754  1
  O  O378  1  0.61531585  0.87522379  0.64731456  1
  O  O379  1  0.12657043  0.25150852  0.26583828  1
  O  O380  1  0.10915734  0.26222953  0.74687948  1
  O  O381  1  0.11714202  0.75701480  0.25602772  1
  O  O382  1  0.11226636  0.76149459  0.75858681  1
  O  O383  1  0.61185969  0.24524034  0.24628339  1
  O  O384  1  0.63644208  0.24418740  0.73726312  1
  O  O385  1  0.62534971  0.75691128  0.25593120  1
  O  O386  1  0.62439122  0.75591057  0.76586440  1
  O  O387  1  0.38104580  0.24276752  0.23861551  1
  O  O388  1  0.37225443  0.23849334  0.74863591  1
  O  O389  1  0.37520092  0.74431668  0.24083372  1
  O  O390  1  0.37139905  0.74539547  0.73690181  1
  O  O391  1  0.88290993  0.24593264  0.23867559  1
  O  O392  1  0.87543272  0.22731442  0.73064285  1
  O  O393  1  0.88187490  0.75451197  0.24763858  1
  O  O394  1  0.88933163  0.74913574  0.75660495  1
  O  O395  1  0.37895005  0.50975844  0.48006507  1
  O  O396  1  0.38933334  0.53660613  0.99339732  1
  O  O397  1  0.36332704  0.98848470  0.49213659  1
  O  O398  1  0.37930150  0.99761801  0.99489838  1
  O  O399  1  0.88017940  0.49803591  0.48505501  1
  O  O400  1  0.87023542  0.48789193  1.00099138  1
  O  O401  1  0.88175155  0.99497953  0.49194623  1
  O  O402  1  0.88736021  0.99588523  1.00271451  1
  O  O403  1  0.12159292  0.00799181  0.00755950  1
  O  O404  1  0.12522411  0.00447230  0.50594965  1
  O  O405  1  0.12197451  0.50269758  0.01274470  1
  O  O406  1  0.10711513  0.50286669  0.49157115  1
  O  O407  1  0.62014945  0.00355721  0.01001013  1
  O  O408  1  0.62248206  -0.02829008  0.52830879  1
  O  O409  1  0.63483314  0.50917749  0.00752192  1
  O  O410  1  0.63606523  0.51855316  0.51113511  1
  O  O411  1  0.36647077  0.36699627  0.12547321  1
  O  O412  1  0.37230520  0.35279140  0.63012953  1
  O  O413  1  0.37218096  0.86208493  0.12249319  1
  O  O414  1  0.36904084  0.86824630  0.62129036  1
  O  O415  1  0.87318246  0.36886184  0.11730436  1
  O  O416  1  0.87013256  0.38542405  0.61280299  1
  O  O417  1  0.86855801  0.87452923  0.12086597  1
  O  O418  1  0.87766854  0.88504098  0.60897189  1
  O  O419  1  0.13347180  0.13111308  0.38102370  1
  O  O420  1  0.13864738  0.12087497  0.88703521  1
  O  O421  1  0.13171898  0.63347372  0.37572738  1
  O  O422  1  0.12979889  0.63212517  0.87204605  1
  O  O423  1  0.64043988  0.06102577  0.38716607  1
  O  O424  1  0.63639154  0.12129364  0.88260382  1
  O  O425  1  0.62296832  0.62992233  0.38931069  1
  O  O426  1  0.63650009  0.63706955  0.88642185  1
