# generated using pymatgen
data_V85Zn86O256
_symmetry_space_group_name_H-M   'P 1'
_cell_length_a   16.93200282
_cell_length_b   16.94037095
_cell_length_c   16.93899934
_cell_angle_alpha   90.03006642
_cell_angle_beta   90.07942902
_cell_angle_gamma   89.96601079
_symmetry_Int_Tables_number   1
_chemical_formula_structural   V85Zn86O256
_chemical_formula_sum   'V85 Zn86 O256'
_cell_volume   4858.68167069
_cell_formula_units_Z   1
loop_
 _symmetry_equiv_pos_site_id
 _symmetry_equiv_pos_as_xyz
  1  'x, y, z'
loop_
 _atom_site_type_symbol
 _atom_site_label
 _atom_site_symmetry_multiplicity
 _atom_site_fract_x
 _atom_site_fract_y
 _atom_site_fract_z
 _atom_site_occupancy
  V  V0  1  0.10839782  0.25148776  0.87332498  1
  V  V1  1  0.87301222  0.12671379  0.75745267  1
  V  V2  1  0.37604875  0.37074710  0.49291337  1
  V  V3  1  0.62606475  0.49811363  0.62721334  1
  V  V4  1  0.37654733  0.12769870  0.23420313  1
  V  V5  1  0.87757826  0.37478358  -0.00257031  1
  V  V6  1  0.62385616  0.62512705  0.50007587  1
  V  V7  1  -0.00295002  -0.00054543  0.50581868  1
  V  V8  1  0.00163247  0.13003635  0.63211959  1
  V  V9  1  0.25517326  0.00461602  0.75033221  1
  V  V10  1  0.37141181  0.00138730  0.37277252  1
  V  V11  1  0.88297608  0.50021698  0.87599909  1
  V  V12  1  0.25248029  0.49300108  0.24529728  1
  V  V13  1  0.87846824  0.25270043  0.62804894  1
  V  V14  1  0.12566994  0.87242397  0.75058789  1
  V  V15  1  0.49954053  0.87216625  0.87489918  1
  V  V16  1  0.37745092  0.62275020  0.74963536  1
  V  V17  1  0.00462684  0.61377713  0.62237760  1
  V  V18  1  0.62573475  0.36172498  0.75625061  1
  V  V19  1  0.74833695  0.12609313  0.37325332  1
  V  V20  1  0.49973779  0.87668180  0.37420484  1
  V  V21  1  0.87412171  0.12608459  0.25030887  1
  V  V22  1  -0.00402327  0.37308696  0.38761142  1
  V  V23  1  0.74805939  0.00055404  0.76097092  1
  V  V24  1  0.62268782  0.37990386  0.26161110  1
  V  V25  1  0.37925423  0.88107546  -0.00029360  1
  V  V26  1  0.50174271  0.49399215  0.49574256  1
  V  V27  1  0.62392086  0.75254352  0.37355392  1
  V  V28  1  0.24993631  0.49697262  0.74401297  1
  V  V29  1  0.50858230  0.49986558  0.00249767  1
  V  V30  1  0.60727766  0.00135425  0.11559294  1
  V  V31  1  0.24562020  0.74919633  0.49896263  1
  V  V32  1  0.74923517  0.75242150  0.50293801  1
  V  V33  1  0.24985526  0.74763812  -0.00084014  1
  V  V34  1  0.50981611  0.62381642  0.12536313  1
  V  V35  1  0.00327200  0.48903970  0.00152800  1
  V  V36  1  0.38931588  0.13315887  0.74689171  1
  V  V37  1  0.87915747  0.49826437  0.38516731  1
  V  V38  1  0.38059332  0.74970679  0.62693439  1
  V  V39  1  0.60774584  0.12779868  -0.00345960  1
  V  V40  1  0.61965241  0.00234307  0.62767462  1
  V  V41  1  0.23883655  -0.00344752  0.25016994  1
  V  V42  1  0.87715955  0.76136944  0.11656560  1
  V  V43  1  0.37843899  0.49551027  0.87365117  1
  V  V44  1  0.87239768  0.89447588  -0.01189782  1
  V  V45  1  0.25146247  0.62241345  0.87483222  1
  V  V46  1  0.87213693  0.00047299  0.37700523  1
  V  V47  1  0.87456223  0.25224520  0.12479177  1
  V  V48  1  0.49721385  0.00678261  0.50144192  1
  V  V49  1  0.24633808  0.87247457  0.12391015  1
  V  V50  1  0.88657072  0.63546166  0.25130194  1
  V  V51  1  0.75138526  0.49934939  0.75270309  1
  V  V52  1  0.00021709  0.86989268  0.37211632  1
  V  V53  1  0.74132325  0.37908154  0.12355640  1
  V  V54  1  0.24767274  0.13245133  0.87761128  1
  V  V55  1  0.24134900  0.12825849  0.37476806  1
  V  V56  1  0.74774249  0.00295427  0.23864807  1
  V  V57  1  0.75405772  0.37557011  0.62189603  1
  V  V58  1  0.12330867  0.62375796  -0.00011310  1
  V  V59  1  0.37520137  0.62580326  0.24911318  1
  V  V60  1  0.11301369  0.37296223  0.74931774  1
  V  V61  1  0.62217615  0.12683068  0.50253209  1
  V  V62  1  0.75437954  0.50377854  0.24423476  1
  V  V63  1  0.75160854  0.62618222  0.37441225  1
  V  V64  1  0.75528874  0.25329529  0.49785520  1
  V  V65  1  0.50501766  0.36229015  0.87521934  1
  V  V66  1  0.11613548  -0.00158406  0.10582136  1
  V  V67  1  0.12784977  0.00300297  0.62352042  1
  V  V68  1  0.50080026  0.62399606  0.63001445  1
  V  V69  1  0.62866076  0.87810311  0.24454670  1
  V  V70  1  0.12710543  0.49534499  0.12706202  1
  V  V71  1  0.00053850  0.12117238  0.11248069  1
  V  V72  1  0.74364557  0.24909221  -0.00696081  1
  V  V73  1  0.37552030  0.74860624  0.12390038  1
  V  V74  1  0.87778183  0.62898728  0.75089839  1
  V  V75  1  0.00319951  0.24814701  0.25531380  1
  V  V76  1  0.24904514  0.37449001  0.62515237  1
  V  V77  1  0.61980286  0.86397651  0.74971986  1
  V  V78  1  0.25324565  0.87572628  0.62339846  1
  V  V79  1  0.12430403  0.60879862  0.50236716  1
  V  V80  1  0.38038993  0.49799218  0.37237081  1
  V  V81  1  0.36720976  0.36930521  0.01301391  1
  V  V82  1  0.12500702  0.37001790  0.25601674  1
  V  V83  1  0.75562458  0.87767974  0.62790621  1
  V  V84  1  0.24335722  0.24953384  0.49811281  1
  Zn  Zn85  1  0.74539753  0.12646774  0.87693928  1
  Zn  Zn86  1  0.74899262  0.62744915  0.88034613  1
  Zn  Zn87  1  0.38934778  0.24059671  0.61948583  1
  Zn  Zn88  1  0.50024067  0.75143097  0.25018258  1
  Zn  Zn89  1  0.11726972  0.74321532  0.37241621  1
  Zn  Zn90  1  0.00462000  0.62978366  0.13097977  1
  Zn  Zn91  1  0.48753488  0.25761736  0.24620647  1
  Zn  Zn92  1  0.00534182  0.74717169  0.74869937  1
  Zn  Zn93  1  0.24768187  0.24619744  0.00833422  1
  Zn  Zn94  1  0.37586185  0.87381274  0.49893952  1
  Zn  Zn95  1  0.61404747  0.25533882  0.37667403  1
  Zn  Zn96  1  0.88034511  0.75144505  0.62589711  1
  Zn  Zn97  1  0.24862215  0.62489793  0.37456427  1
  Zn  Zn98  1  0.62988796  0.62531830  0.00053330  1
  Zn  Zn99  1  0.11486972  0.86237339  0.24316132  1
  Zn  Zn100  1  0.12049071  0.12965664  0.49671516  1
  Zn  Zn101  1  0.62164242  0.74382765  0.87892102  1
  Zn  Zn102  1  0.12394619  0.74937233  0.87361528  1
  Zn  Zn103  1  0.87459706  0.87505838  0.50236861  1
  Zn  Zn104  1  0.37857881  0.00482404  0.87935912  1
  Zn  Zn105  1  0.74705287  0.75155430  0.00126305  1
  Zn  Zn106  1  0.00325195  0.88188638  0.88460352  1
  Zn  Zn107  1  0.18726961  0.18104478  0.18753379  1
  Zn  Zn108  1  0.19151421  0.19192221  0.68847343  1
  Zn  Zn109  1  0.18682613  0.68537567  0.18990638  1
  Zn  Zn110  1  0.18974455  0.68510376  0.68328851  1
  Zn  Zn111  1  0.64880218  0.20786361  0.16699826  1
  Zn  Zn112  1  0.68776666  0.18592411  0.68530012  1
  Zn  Zn113  1  0.69327849  0.69199423  0.18651666  1
  Zn  Zn114  1  0.69072043  0.68587874  0.68933772  1
  Zn  Zn115  1  0.31155311  0.30884923  0.31136400  1
  Zn  Zn116  1  0.31463076  0.31028159  0.81446815  1
  Zn  Zn117  1  0.30820298  0.81185659  0.31206702  1
  Zn  Zn118  1  0.31331229  0.81000741  0.81138823  1
  Zn  Zn119  1  0.81280409  0.31406556  0.31223011  1
  Zn  Zn120  1  0.81655755  0.31339269  0.81325823  1
  Zn  Zn121  1  0.81234099  0.81537563  0.31287766  1
  Zn  Zn122  1  0.81032558  0.81131082  0.81822459  1
  Zn  Zn123  1  0.19050747  0.43489410  0.42981340  1
  Zn  Zn124  1  0.18724675  0.43266168  0.93197563  1
  Zn  Zn125  1  0.18389767  0.93661990  0.43986444  1
  Zn  Zn126  1  0.19285043  0.93724655  0.93291007  1
  Zn  Zn127  1  0.69489385  0.44113265  0.43773976  1
  Zn  Zn128  1  0.69000134  0.44041938  0.93605455  1
  Zn  Zn129  1  0.68661206  0.93949241  0.43695875  1
  Zn  Zn130  1  0.68772685  0.93089517  0.94266056  1
  Zn  Zn131  1  0.30295139  0.05957101  0.06044105  1
  Zn  Zn132  1  0.31534922  0.06677383  0.56351093  1
  Zn  Zn133  1  0.31547226  0.55686901  0.06276657  1
  Zn  Zn134  1  0.31223318  0.55986610  0.56207168  1
  Zn  Zn135  1  0.80802332  0.06766582  0.06311079  1
  Zn  Zn136  1  0.81132992  0.06446723  0.56765905  1
  Zn  Zn137  1  0.81590770  0.56801989  0.06468619  1
  Zn  Zn138  1  0.81406929  0.56526150  0.56538988  1
  Zn  Zn139  1  0.44222373  0.43921944  0.18474815  1
  Zn  Zn140  1  0.45342795  0.40268576  0.67193362  1
  Zn  Zn141  1  0.43435182  0.93859039  0.18928438  1
  Zn  Zn142  1  0.43904856  0.93864226  0.69062417  1
  Zn  Zn143  1  0.93838075  0.43885099  0.18880738  1
  Zn  Zn144  1  0.93536215  0.44041969  0.68314843  1
  Zn  Zn145  1  0.93515352  0.93766697  0.18672663  1
  Zn  Zn146  1  0.95297583  0.95724333  0.72487564  1
  Zn  Zn147  1  0.05916551  0.05861246  0.31248198  1
  Zn  Zn148  1  0.06577513  0.06383695  0.81686028  1
  Zn  Zn149  1  0.06368152  0.55746361  0.31920578  1
  Zn  Zn150  1  0.06421845  0.55770137  0.81186532  1
  Zn  Zn151  1  0.56045281  0.06678798  0.31235287  1
  Zn  Zn152  1  0.56126672  0.05555932  0.82011051  1
  Zn  Zn153  1  0.56489544  0.56081406  0.30984679  1
  Zn  Zn154  1  0.56400016  0.55836435  0.81369000  1
  Zn  Zn155  1  0.43566134  0.18897660  0.42665109  1
  Zn  Zn156  1  0.43073865  0.18965023  0.93659856  1
  Zn  Zn157  1  0.43701649  0.68578830  0.43913082  1
  Zn  Zn158  1  0.44186417  0.68950910  0.93767258  1
  Zn  Zn159  1  0.93653167  0.18836396  0.44103072  1
  Zn  Zn160  1  0.93688245  0.19065990  0.93623893  1
  Zn  Zn161  1  0.93683377  0.68507664  0.44407174  1
  Zn  Zn162  1  0.94389695  0.69146531  0.93394298  1
  Zn  Zn163  1  0.09353834  0.29103780  0.08259364  1
  Zn  Zn164  1  0.06566805  0.31435410  0.56729277  1
  Zn  Zn165  1  0.05378822  0.81123372  0.06111173  1
  Zn  Zn166  1  0.06266256  0.80959044  0.56612067  1
  Zn  Zn167  1  0.55454742  0.31232383  0.06479005  1
  Zn  Zn168  1  0.56562672  0.31063972  0.56167151  1
  Zn  Zn169  1  0.56260985  0.81259159  0.06277047  1
  Zn  Zn170  1  0.56155525  0.81546056  0.56317924  1
  O  O171  1  0.11443332  0.10453204  0.13079084  1
  O  O172  1  0.11788623  0.12259247  0.62577872  1
  O  O173  1  0.12590247  0.61290786  0.11897821  1
  O  O174  1  0.11742097  0.62406573  0.61411478  1
  O  O175  1  0.62984553  0.10853153  0.10982787  1
  O  O176  1  0.62776618  0.11789775  0.61183527  1
  O  O177  1  0.61220206  0.62924328  0.13147379  1
  O  O178  1  0.61932954  0.61925471  0.62036920  1
  O  O179  1  0.37044265  0.38246758  0.38417321  1
  O  O180  1  0.38703507  0.38025211  0.87920264  1
  O  O181  1  0.37975707  0.88619473  0.37351304  1
  O  O182  1  0.38121266  0.87323232  0.88163569  1
  O  O183  1  0.88606275  0.38344227  0.37296509  1
  O  O184  1  0.87410069  0.38202624  0.88923862  1
  O  O185  1  0.88214058  0.88257528  0.37959259  1
  O  O186  1  0.87576674  0.87927968  0.88429574  1
  O  O187  1  0.25404328  0.00118226  0.36879631  1
  O  O188  1  0.25280869  0.00888441  0.86475329  1
  O  O189  1  0.26221981  0.50252754  0.36418535  1
  O  O190  1  0.26177423  0.50180281  0.86862762  1
  O  O191  1  0.75386634  0.00776737  0.37036012  1
  O  O192  1  0.74377368  -0.00094031  0.86298737  1
  O  O193  1  0.75922512  0.50795594  0.36676506  1
  O  O194  1  0.76454295  0.50080016  0.86888433  1
  O  O195  1  0.24467466  0.50006321  0.13722470  1
  O  O196  1  0.25218551  0.49498344  0.63692488  1
  O  O197  1  0.23369120  0.99359363  0.12988561  1
  O  O198  1  0.24837555  0.99615026  0.62890374  1
  O  O199  1  0.76077312  0.49439953  0.13689763  1
  O  O200  1  0.74821617  0.49316880  0.63034249  1
  O  O201  1  0.74447754  1.00232514  0.13702110  1
  O  O202  1  0.73617126  0.99363640  0.62748685  1
  O  O203  1  0.00368687  0.36617859  0.25693552  1
  O  O204  1  0.01488928  0.38051314  0.74100430  1
  O  O205  1  -0.00272401  0.88180816  0.26854294  1
  O  O206  1  0.02285187  0.86612408  0.72756214  1
  O  O207  1  0.52017425  0.38269014  0.24743407  1
  O  O208  1  0.51232802  0.38672705  0.76950320  1
  O  O209  1  0.50907664  0.87699378  0.25750959  1
  O  O210  1  0.50805844  0.87596039  0.75821752  1
  O  O211  1  0.47656395  0.11397503  0.24999287  1
  O  O212  1  0.48744087  0.11882842  0.75664282  1
  O  O213  1  0.49017483  0.62378737  0.24377650  1
  O  O214  1  0.49539172  0.61492484  0.73577234  1
  O  O215  1  0.99275177  0.13131452  0.24961385  1
  O  O216  1  0.98998923  0.12452344  0.73701031  1
  O  O217  1  0.98874939  0.62191412  0.25574492  1
  O  O218  1  0.99687542  0.62248324  0.74048697  1
  O  O219  1  0.36989048  0.26456581  -0.00055962  1
  O  O220  1  0.36923368  0.25675511  0.49893549  1
  O  O221  1  0.36862648  0.75573516  0.00601006  1
  O  O222  1  0.36939429  0.74891499  0.51109870  1
  O  O223  1  0.86915402  0.25866629  0.00524076  1
  O  O224  1  0.86227202  0.24463129  0.51157849  1
  O  O225  1  0.87584556  0.74822757  0.01080784  1
  O  O226  1  0.86055700  0.75122519  0.50335974  1
  O  O227  1  0.13891081  0.24849891  0.50409172  1
  O  O228  1  0.12076910  0.26089718  0.97462952  1
  O  O229  1  0.13345020  0.74276426  0.49738979  1
  O  O230  1  0.13029637  0.73919279  1.00166127  1
  O  O231  1  0.63287081  0.24348149  0.49785679  1
  O  O232  1  0.62926473  0.23590259  1.00459550  1
  O  O233  1  0.63286634  0.74712501  0.49594854  1
  O  O234  1  0.62750025  0.74604820  1.00114089  1
  O  O235  1  0.53730230  0.24173292  0.14680925  1
  O  O236  1  0.48650165  0.29511626  0.63565277  1
  O  O237  1  0.49067520  0.74274986  0.12838308  1
  O  O238  1  0.49306855  0.73744788  0.61709866  1
  O  O239  1  0.99827380  0.24012490  0.13502606  1
  O  O240  1  0.98977040  0.24374112  0.61776351  1
  O  O241  1  0.98470389  0.74565562  0.12785580  1
  O  O242  1  0.99793470  0.73560459  0.62640435  1
  O  O243  1  -0.00904599  0.26137584  0.36913137  1
  O  O244  1  0.00904447  0.24728982  0.86653354  1
  O  O245  1  -0.00413615  0.76728649  0.38656591  1
  O  O246  1  0.00653284  0.75860862  0.86663993  1
  O  O247  1  0.50263388  0.24476528  0.35884714  1
  O  O248  1  0.49874356  0.26421965  0.87707216  1
  O  O249  1  0.50549689  0.75685269  0.37489292  1
  O  O250  1  0.50034814  0.76376061  0.87331091  1
  O  O251  1  0.24985780  0.13201777  0.49246640  1
  O  O252  1  0.25219951  0.12539296  0.98233936  1
  O  O253  1  0.23939832  0.63004697  0.50251486  1
  O  O254  1  0.24178015  0.62478178  0.99709079  1
  O  O255  1  0.74236102  0.13143130  0.49495579  1
  O  O256  1  0.74474536  0.13583684  0.99711933  1
  O  O257  1  0.74299374  0.63292849  0.49683723  1
  O  O258  1  0.74797143  0.62632524  0.99978562  1
  O  O259  1  0.26605318  0.37981021  -0.00306756  1
  O  O260  1  0.25411581  0.36810579  0.50127264  1
  O  O261  1  0.25481985  0.86661271  0.00471861  1
  O  O262  1  0.25334983  0.86770633  0.50501331  1
  O  O263  1  0.75608916  0.37398870  0.00719470  1
  O  O264  1  0.74577063  0.36641173  0.50962223  1
  O  O265  1  0.76691565  0.87133017  -0.00031248  1
  O  O266  1  0.74737475  0.86884960  0.50816546  1
  O  O267  1  0.13389626  0.49657762  0.24640751  1
  O  O268  1  0.13822593  0.48509055  0.75832005  1
  O  O269  1  0.13294559  0.99205609  0.25012319  1
  O  O270  1  0.14088579  0.99434121  0.74131947  1
  O  O271  1  0.64080147  0.49255525  0.25506489  1
  O  O272  1  0.63455709  0.49296517  0.74439557  1
  O  O273  1  0.62801375  0.99844129  0.24084993  1
  O  O274  1  0.62929478  0.99500007  0.74201803  1
  O  O275  1  0.36020693  0.00418587  0.25455378  1
  O  O276  1  0.36553804  0.00742767  0.74899535  1
  O  O277  1  0.37165593  0.50207114  0.25419478  1
  O  O278  1  0.36857189  0.50386308  0.75882988  1
  O  O279  1  0.86569828  0.00453884  0.25506119  1
  O  O280  1  0.85614689  0.01593807  0.73303859  1
  O  O281  1  0.87048896  0.51087867  0.25829126  1
  O  O282  1  0.87282127  0.50627811  0.75794596  1
  O  O283  1  0.11140436  0.38060178  0.36397091  1
  O  O284  1  0.12784144  0.36587274  0.85840577  1
  O  O285  1  0.10742338  0.87581620  0.37788479  1
  O  O286  1  0.12802072  0.87319079  0.86304618  1
  O  O287  1  0.62965244  0.37967438  0.36557701  1
  O  O288  1  0.61481387  0.37832017  0.87139761  1
  O  O289  1  0.61826321  0.87250842  0.36867616  1
  O  O290  1  0.61462528  0.87466127  0.86755081  1
  O  O291  1  0.36407833  0.11915109  0.13586799  1
  O  O292  1  0.37721402  0.12547191  0.64010610  1
  O  O293  1  0.38061167  0.62907752  0.13179480  1
  O  O294  1  0.38297962  0.62842201  0.62742655  1
  O  O295  1  0.88048878  0.13156813  0.13223905  1
  O  O296  1  0.88032664  0.13493019  0.63085421  1
  O  O297  1  0.88109482  0.62918192  0.14131939  1
  O  O298  1  0.88557187  0.62557792  0.63236116  1
  O  O299  1  0.20231166  0.25688670  0.11090133  1
  O  O300  1  0.25937142  0.25857510  0.61645955  1
  O  O301  1  0.25585411  0.75328095  0.11847831  1
  O  O302  1  0.25767831  0.75388099  0.61427668  1
  O  O303  1  0.75259312  0.26098226  0.11441618  1
  O  O304  1  0.75474565  0.25723733  0.61761715  1
  O  O305  1  0.77229357  0.74581669  0.12624065  1
  O  O306  1  0.74907691  0.75844559  0.61795679  1
  O  O307  1  0.25357720  0.23881036  0.38349684  1
  O  O308  1  0.24370536  0.24415259  0.87620643  1
  O  O309  1  0.25476344  0.74647409  0.38998061  1
  O  O310  1  0.25039059  0.74026262  0.88337788  1
  O  O311  1  0.75302821  0.24343216  0.38439051  1
  O  O312  1  0.75211822  0.25502686  0.88998134  1
  O  O313  1  0.74418017  0.74688620  0.38276129  1
  O  O314  1  0.74245873  0.74555101  0.87738498  1
  O  O315  1  -0.00596278  0.12855857  0.01314707  1
  O  O316  1  -0.00053608  0.11574713  0.50896642  1
  O  O317  1  0.01398263  0.61630606  -0.00051802  1
  O  O318  1  0.01400138  0.62538601  0.50760173  1
  O  O319  1  0.50853074  0.12832556  -0.00370322  1
  O  O320  1  0.50572139  0.11509424  0.49474848  1
  O  O321  1  0.49920599  0.61663368  0.00913159  1
  O  O322  1  0.50395395  0.61387872  0.50821954  1
  O  O323  1  0.49329867  0.38789937  0.49655272  1
  O  O324  1  0.49492478  0.38018108  0.99293392  1
  O  O325  1  0.49973022  0.88765513  0.49205634  1
  O  O326  1  0.48976246  0.87043102  0.99024193  1
  O  O327  1  1.00523940  0.36960363  0.48628797  1
  O  O328  1  0.99320677  0.38598125  1.00835452  1
  O  O329  1  0.99720442  0.88651570  0.49886587  1
  O  O330  1  0.98032529  0.87449837  0.99968064  1
  O  O331  1  0.48899837  0.50622292  0.38033951  1
  O  O332  1  0.48982016  0.49630251  0.88386601  1
  O  O333  1  0.49106895  0.99728222  0.38062887  1
  O  O334  1  0.49297813  0.98049438  0.87333769  1
  O  O335  1  0.99201439  0.48448130  0.37182349  1
  O  O336  1  0.99089936  0.50074992  0.88390910  1
  O  O337  1  0.99240784  0.99436977  0.38655869  1
  O  O338  1  0.99477345  0.98351222  0.83207893  1
  O  O339  1  0.00952873  0.00456900  0.12913379  1
  O  O340  1  0.00549336  0.00869114  0.62190194  1
  O  O341  1  0.00774189  0.50632219  0.11886711  1
  O  O342  1  -0.00253501  0.51363104  0.62180078  1
  O  O343  1  0.50900427  -0.00023686  0.12503057  1
  O  O344  1  0.51125649  -0.00557287  0.61628159  1
  O  O345  1  0.49508379  0.51131092  0.11437568  1
  O  O346  1  0.50634302  0.50147833  0.61550112  1
  O  O347  1  0.23889063  0.38109715  0.25771054  1
  O  O348  1  0.25399994  0.37995769  0.73996578  1
  O  O349  1  0.24999890  0.88225796  0.24058364  1
  O  O350  1  0.24727963  0.88244680  0.74342058  1
  O  O351  1  0.75149732  0.38740129  0.24366544  1
  O  O352  1  0.74593292  0.38195452  0.74639672  1
  O  O353  1  0.73614193  0.88684844  0.25883824  1
  O  O354  1  0.74246934  0.88236371  0.74421563  1
  O  O355  1  0.25314541  0.11589258  0.25631997  1
  O  O356  1  0.25632813  0.11934386  0.75614205  1
  O  O357  1  0.26308297  0.61506190  0.25006711  1
  O  O358  1  0.25496072  0.61511996  0.75345766  1
  O  O359  1  0.75438344  0.11848556  0.25910097  1
  O  O360  1  0.75223147  0.11887131  0.75359167  1
  O  O361  1  0.75906475  0.62072140  0.25625251  1
  O  O362  1  0.76124580  0.61427807  0.74691822  1
  O  O363  1  0.36211988  0.11215951  0.36926964  1
  O  O364  1  0.36740290  0.12426034  0.86476258  1
  O  O365  1  0.37449113  0.61773138  0.36612289  1
  O  O366  1  0.37234000  0.61709319  0.87102228  1
  O  O367  1  0.86921061  0.11935360  0.37099214  1
  O  O368  1  0.87080454  0.13276882  0.86066310  1
  O  O369  1  0.87257820  0.62254827  0.36753793  1
  O  O370  1  0.87830020  0.61750870  0.86643976  1
  O  O371  1  0.11357960  0.39059992  0.14219774  1
  O  O372  1  0.13845212  0.37269297  0.63529624  1
  O  O373  1  0.12439798  0.88376668  0.12433982  1
  O  O374  1  0.13768174  0.88174925  0.62564388  1
  O  O375  1  0.63928832  0.37983939  0.13340301  1
  O  O376  1  0.63805516  0.38055538  0.63273774  1
  O  O377  1  0.62071959  0.88860517  0.13289336  1
  O  O378  1  0.63088745  0.88186084  0.63160027  1
  O  O379  1  0.11123552  0.25576702  0.25286680  1
  O  O380  1  0.12963737  0.26592669  0.75399859  1
  O  O381  1  0.13379363  0.75209730  0.26017743  1
  O  O382  1  0.13418988  0.75886522  0.75040981  1
  O  O383  1  0.64815687  0.27540062  0.26112129  1
  O  O384  1  0.63124837  0.26256078  0.74801647  1
  O  O385  1  0.62498285  0.76116274  0.25402498  1
  O  O386  1  0.62700313  0.76214409  0.74660519  1
  O  O387  1  0.36905256  0.23337018  0.24668423  1
  O  O388  1  0.37424769  0.23557608  0.74893494  1
  O  O389  1  0.37507680  0.74094150  0.24483415  1
  O  O390  1  0.36807827  0.73972762  0.73465264  1
  O  O391  1  0.88233156  0.24721017  0.24354297  1
  O  O392  1  0.86667468  0.24289516  0.73650870  1
  O  O393  1  0.87179849  0.73917884  0.24822900  1
  O  O394  1  0.87444164  0.73728662  0.74851059  1
  O  O395  1  0.38113259  0.49656274  0.48974243  1
  O  O396  1  0.38240276  0.49001608  0.99263815  1
  O  O397  1  0.38156646  1.00004601  0.49226244  1
  O  O398  1  0.36555857  0.98443557  0.99929955  1
  O  O399  1  0.86919408  0.50760660  0.48440537  1
  O  O400  1  0.88348111  0.49577717  0.99533026  1
  O  O401  1  0.88027667  0.99991498  0.49764887  1
  O  O402  1  0.87034368  0.99305826  1.00240916  1
  O  O403  1  0.12419270  -0.00350509  0.00733709  1
  O  O404  1  0.11595948  0.00422238  0.50752368  1
  O  O405  1  0.12212464  0.50010548  0.00672858  1
  O  O406  1  0.13395002  0.51051729  0.49853116  1
  O  O407  1  0.62529922  0.00433314  0.01030734  1
  O  O408  1  0.61774649  0.00729387  0.50559118  1
  O  O409  1  0.61185578  0.49957574  -0.00193610  1
  O  O410  1  0.61914570  0.50419972  0.50382709  1
  O  O411  1  0.37978266  0.37607324  0.11199932  1
  O  O412  1  0.35984380  0.38739078  0.60448221  1
  O  O413  1  0.36993258  0.86894330  0.11863069  1
  O  O414  1  0.37256982  0.86638556  0.62400812  1
  O  O415  1  0.86969392  0.37164735  0.11619445  1
  O  O416  1  0.86327496  0.36903128  0.62987410  1
  O  O417  1  0.87683099  0.86528399  0.12021042  1
  O  O418  1  0.85993111  0.87506234  0.62649352  1
  O  O419  1  0.13698386  0.11716818  0.37617497  1
  O  O420  1  0.13224740  0.14217888  0.86140304  1
  O  O421  1  0.12693135  0.62393063  0.38895900  1
  O  O422  1  0.13353704  0.62179223  0.88324583  1
  O  O423  1  0.63168620  0.12465402  0.38548600  1
  O  O424  1  0.62622788  0.11671199  0.89263265  1
  O  O425  1  0.62962593  0.63183148  0.38001120  1
  O  O426  1  0.62719124  0.62442200  0.87721545  1
