# generated using pymatgen
data_V85Zn86O256
_symmetry_space_group_name_H-M   'P 1'
_cell_length_a   16.92713137
_cell_length_b   16.91784544
_cell_length_c   16.91750423
_cell_angle_alpha   89.94427468
_cell_angle_beta   90.06714245
_cell_angle_gamma   89.99441586
_symmetry_Int_Tables_number   1
_chemical_formula_structural   V85Zn86O256
_chemical_formula_sum   'V85 Zn86 O256'
_cell_volume   4844.67006453
_cell_formula_units_Z   1
loop_
 _symmetry_equiv_pos_site_id
 _symmetry_equiv_pos_as_xyz
  1  'x, y, z'
loop_
 _atom_site_type_symbol
 _atom_site_label
 _atom_site_symmetry_multiplicity
 _atom_site_fract_x
 _atom_site_fract_y
 _atom_site_fract_z
 _atom_site_occupancy
  V  V0  1  0.73103827  0.37754500  0.62844523  1
  V  V1  1  0.24738447  0.12406824  0.87472415  1
  V  V2  1  0.68988443  0.18671246  0.32272258  1
  V  V3  1  0.24777321  0.50162897  0.74640661  1
  V  V4  1  0.24972703  -0.00352773  0.74767903  1
  V  V5  1  0.62521409  0.62575612  0.00382584  1
  V  V6  1  0.62619764  0.49222711  0.12878107  1
  V  V7  1  0.88118743  0.38230637  0.00502689  1
  V  V8  1  0.74556586  -0.00643696  0.74738428  1
  V  V9  1  0.50123064  0.87867494  0.88117041  1
  V  V10  1  0.63244031  0.12815090  0.50371193  1
  V  V11  1  0.64054505  0.62326630  0.50192423  1
  V  V12  1  0.74805713  0.12903694  0.87533589  1
  V  V13  1  0.61209711  0.12191659  -0.00356042  1
  V  V14  1  0.64140467  0.74585086  0.37983732  1
  V  V15  1  0.75954920  0.24889257  -0.00108757  1
  V  V16  1  0.24470833  0.25042183  0.49373005  1
  V  V17  1  -0.00416204  0.62042707  0.12471936  1
  V  V18  1  0.39678004  0.24700522  0.12727410  1
  V  V19  1  0.24304540  0.12746550  0.37081840  1
  V  V20  1  0.60852731  -0.00219088  0.11790189  1
  V  V21  1  0.37665716  0.62545960  0.75134743  1
  V  V22  1  0.24707071  0.62260695  0.38167798  1
  V  V23  1  0.11942515  -0.00508149  0.12708174  1
  V  V24  1  0.25177412  0.49859220  0.25411021  1
  V  V25  1  0.50483244  0.25866202  0.76243316  1
  V  V26  1  0.88494724  0.88076984  0.00260207  1
  V  V27  1  0.24804847  0.24836293  0.00402343  1
  V  V28  1  0.50391822  -0.00164359  0.50645602  1
  V  V29  1  0.37816941  0.37524825  -0.00130609  1
  V  V30  1  0.00130981  0.38442973  0.87869910  1
  V  V31  1  0.50543803  0.12291686  0.62676133  1
  V  V32  1  0.12589557  0.36898137  0.25741630  1
  V  V33  1  0.50161341  0.74987694  0.75103667  1
  V  V34  1  0.87479316  0.51278951  0.37562216  1
  V  V35  1  0.38639023  0.12655801  0.24684118  1
  V  V36  1  0.01236694  0.50433771  0.50439555  1
  V  V37  1  0.75247272  0.62412520  0.87283370  1
  V  V38  1  0.24633225  -0.00682916  0.24944505  1
  V  V39  1  0.37914136  0.49760169  0.87592806  1
  V  V40  1  0.50537443  0.61641592  0.62415030  1
  V  V41  1  0.75020602  0.88069305  0.12434972  1
  V  V42  1  0.87381704  0.12543760  0.74800546  1
  V  V43  1  0.87405070  0.13229124  0.25172303  1
  V  V44  1  0.00355669  0.24796663  0.25763929  1
  V  V45  1  0.62481156  0.87324755  0.25002129  1
  V  V46  1  0.00374110  0.75156919  0.24985147  1
  V  V47  1  0.88387652  0.00101618  0.87958293  1
  V  V48  1  0.24076532  0.75131890  -0.00070577  1
  V  V49  1  0.37763587  0.00035793  0.88439328  1
  V  V50  1  0.24811145  0.38053155  0.62271736  1
  V  V51  1  0.12483116  0.25012072  0.87579832  1
  V  V52  1  0.12412349  0.74726005  0.37771153  1
  V  V53  1  0.37540061  0.12456704  0.74938360  1
  V  V54  1  0.87399529  0.74821514  0.61525083  1
  V  V55  1  0.12204535  0.00210020  0.62090578  1
  V  V56  1  0.87870844  0.62521273  0.74662865  1
  V  V57  1  0.12136194  0.49870183  0.11888798  1
  V  V58  1  0.49978491  0.62185174  0.12689421  1
  V  V59  1  0.01383775  0.62959357  0.62422116  1
  V  V60  1  0.11584772  0.86520108  0.75106464  1
  V  V61  1  0.24274585  0.62966867  0.87619686  1
  V  V62  1  0.00487299  0.87843911  0.37322692  1
  V  V63  1  0.37230690  0.74903625  0.12495505  1
  V  V64  1  0.75726380  0.37102330  0.12905673  1
  V  V65  1  0.24917791  0.37081979  0.12758261  1
  V  V66  1  0.37583263  0.25124352  0.62367101  1
  V  V67  1  0.62734785  0.75193057  0.87474957  1
  V  V68  1  0.75498960  0.51025898  0.25485295  1
  V  V69  1  0.50181849  0.50327533  0.48691269  1
  V  V70  1  0.11810326  0.11630524  -0.00108233  1
  V  V71  1  0.87249960  0.74544155  0.13355007  1
  V  V72  1  0.87394784  0.37488439  0.50333956  1
  V  V73  1  0.12608419  0.37714468  0.74806753  1
  V  V74  1  0.37651423  0.38129909  0.49134511  1
  V  V75  1  0.86497727  0.00276272  0.37611219  1
  V  V76  1  0.37528830  0.61891691  0.25533967  1
  V  V77  1  0.50710897  0.35977736  0.37063209  1
  V  V78  1  0.49977939  0.86910507  0.37850583  1
  V  V79  1  0.37439291  -0.00065409  0.37456922  1
  V  V80  1  -0.00666497  0.12723162  0.12201370  1
  V  V81  1  -0.00142506  0.25248581  0.74746082  1
  V  V82  1  0.37619928  0.75164731  0.62101715  1
  V  V83  1  0.75118472  0.75065457  0.00257815  1
  V  V84  1  0.74377431  0.87193652  0.61863861  1
  Zn  Zn85  1  0.00217914  0.37384714  0.37919055  1
  Zn  Zn86  1  0.74552230  0.00611717  0.24928463  1
  Zn  Zn87  1  -0.00286908  0.00316892  0.49880544  1
  Zn  Zn88  1  0.74006424  0.50160622  0.74351054  1
  Zn  Zn89  1  0.62505420  0.87843167  0.74847870  1
  Zn  Zn90  1  0.24883195  0.87393835  0.62080173  1
  Zn  Zn91  1  -0.00068995  0.12718206  0.62027054  1
  Zn  Zn92  1  0.62691460  0.36643704  0.25542657  1
  Zn  Zn93  1  0.24558195  0.87292619  0.12713678  1
  Zn  Zn94  1  0.50002793  0.74667622  0.25252047  1
  Zn  Zn95  1  0.87089953  0.25278186  0.62423921  1
  Zn  Zn96  1  0.87864574  0.50214773  0.87438153  1
  Zn  Zn97  1  0.12046309  0.13052417  0.49645499  1
  Zn  Zn98  1  0.00994823  0.86354067  0.87867966  1
  Zn  Zn99  1  0.37486621  0.87859882  0.00490526  1
  Zn  Zn100  1  0.61832683  0.37710401  0.79062566  1
  Zn  Zn101  1  0.37248250  0.87538509  0.50142861  1
  Zn  Zn102  1  0.50330873  0.49744524  -0.00280600  1
  Zn  Zn103  1  0.24358421  0.74913375  0.50189383  1
  Zn  Zn104  1  0.11698676  0.62321267  -0.00493533  1
  Zn  Zn105  1  0.74830179  0.24949380  0.49910231  1
  Zn  Zn106  1  0.87329255  0.87345920  0.49714050  1
  Zn  Zn107  1  0.18685736  0.18276913  0.18778050  1
  Zn  Zn108  1  0.18728743  0.18754403  0.68483443  1
  Zn  Zn109  1  0.18338011  0.68568369  0.19057693  1
  Zn  Zn110  1  0.19049452  0.68955021  0.68818266  1
  Zn  Zn111  1  0.67345987  0.19510041  0.15667795  1
  Zn  Zn112  1  0.68570169  0.19439405  0.68878759  1
  Zn  Zn113  1  0.68710339  0.68782829  0.19141013  1
  Zn  Zn114  1  0.69002804  0.69091887  0.68708698  1
  Zn  Zn115  1  0.31930660  0.31050123  0.31124434  1
  Zn  Zn116  1  0.31475366  0.31249477  0.81239675  1
  Zn  Zn117  1  0.31215404  0.80977951  0.31291934  1
  Zn  Zn118  1  0.31195128  0.81372586  0.81220808  1
  Zn  Zn119  1  0.82207915  0.32216140  0.31159065  1
  Zn  Zn120  1  0.81198586  0.31516187  0.81269897  1
  Zn  Zn121  1  0.81576498  0.81716953  0.31066317  1
  Zn  Zn122  1  0.84691417  0.79827643  0.82284765  1
  Zn  Zn123  1  0.18860988  0.43813191  0.43498625  1
  Zn  Zn124  1  0.19194697  0.43815032  0.93681464  1
  Zn  Zn125  1  0.18687759  0.93399042  0.43721041  1
  Zn  Zn126  1  0.18835768  0.93526833  0.93647658  1
  Zn  Zn127  1  0.68910851  0.43843925  0.43939680  1
  Zn  Zn128  1  0.69406804  0.44193563  0.94067393  1
  Zn  Zn129  1  0.68458783  0.94013236  0.43985200  1
  Zn  Zn130  1  0.69253046  0.94065298  0.93570952  1
  Zn  Zn131  1  0.31050439  0.06581513  0.06635058  1
  Zn  Zn132  1  0.31306893  0.06266549  0.56042817  1
  Zn  Zn133  1  0.30845843  0.56248067  0.06447930  1
  Zn  Zn134  1  0.31765355  0.56285680  0.56214344  1
  Zn  Zn135  1  0.81280224  0.06208432  0.06435087  1
  Zn  Zn136  1  0.81326667  0.05861155  0.56522805  1
  Zn  Zn137  1  0.81347148  0.56065018  0.06440219  1
  Zn  Zn138  1  0.81665262  0.55539001  0.56525442  1
  Zn  Zn139  1  0.43919720  0.43362849  0.18979675  1
  Zn  Zn140  1  0.43898288  0.43816690  0.68475610  1
  Zn  Zn141  1  0.43393433  0.93298254  0.19213841  1
  Zn  Zn142  1  0.43848833  0.93636477  0.69136105  1
  Zn  Zn143  1  0.93881482  0.43745468  0.19100792  1
  Zn  Zn144  1  0.93521549  0.44289303  0.68567898  1
  Zn  Zn145  1  0.93667756  0.94178195  0.19245374  1
  Zn  Zn146  1  0.93475211  0.93728685  0.68581810  1
  Zn  Zn147  1  0.06082429  0.06078560  0.31151650  1
  Zn  Zn148  1  0.06122126  0.05927946  0.80776009  1
  Zn  Zn149  1  0.06117655  0.56315418  0.30899514  1
  Zn  Zn150  1  0.06417488  0.56445141  0.80624998  1
  Zn  Zn151  1  0.56004531  0.05300009  0.31139441  1
  Zn  Zn152  1  0.56286405  0.06384381  0.81289861  1
  Zn  Zn153  1  0.56750879  0.56169425  0.31331105  1
  Zn  Zn154  1  0.56607746  0.56035271  0.81288108  1
  Zn  Zn155  1  0.43362519  0.18423598  0.43905872  1
  Zn  Zn156  1  0.43215389  0.18748647  0.93888836  1
  Zn  Zn157  1  0.43799802  0.68543080  0.43696078  1
  Zn  Zn158  1  0.43515167  0.68677569  0.93949251  1
  Zn  Zn159  1  0.93494362  0.18687877  0.43693662  1
  Zn  Zn160  1  0.93790435  0.19179053  0.93471948  1
  Zn  Zn161  1  0.93998737  0.68722634  0.44030275  1
  Zn  Zn162  1  0.93874557  0.68944606  0.94166287  1
  Zn  Zn163  1  0.06079023  0.30781177  0.06709239  1
  Zn  Zn164  1  0.06280370  0.31669305  0.56318127  1
  Zn  Zn165  1  0.06166988  0.81021087  0.06507522  1
  Zn  Zn166  1  0.06091196  0.81469603  0.56020603  1
  Zn  Zn167  1  0.58165757  0.32490282  0.00367385  1
  Zn  Zn168  1  0.55960894  0.30709485  0.55704313  1
  Zn  Zn169  1  0.55890641  0.81079757  0.06246422  1
  Zn  Zn170  1  0.56534276  0.80759431  0.56226783  1
  O  O171  1  0.11794918  0.11710023  0.11604631  1
  O  O172  1  0.12363354  0.11722468  0.62195853  1
  O  O173  1  0.11747017  0.61474406  0.12442653  1
  O  O174  1  0.11296467  0.62898192  0.62855668  1
  O  O175  1  0.62220527  0.10658858  0.11228700  1
  O  O176  1  0.61258627  0.13024930  0.62018932  1
  O  O177  1  0.61956607  0.61831776  0.12354964  1
  O  O178  1  0.61858162  0.63416522  0.61057957  1
  O  O179  1  0.38570627  0.37216076  0.38482720  1
  O  O180  1  0.36659448  0.38414970  0.88602740  1
  O  O181  1  0.38388456  0.87900015  0.37589840  1
  O  O182  1  0.38169360  0.88424635  0.87526451  1
  O  O183  1  0.88064427  0.38358228  0.38892026  1
  O  O184  1  0.88429559  0.37773249  0.88184161  1
  O  O185  1  0.88372345  0.88360453  0.37466429  1
  O  O186  1  0.85948135  0.89089329  0.89084405  1
  O  O187  1  0.25462551  0.00601597  0.36863232  1
  O  O188  1  0.25618492  0.00523046  0.86658207  1
  O  O189  1  0.24666434  0.50618626  0.36275631  1
  O  O190  1  0.25907386  0.50714503  0.86776721  1
  O  O191  1  0.75992336  -0.00725698  0.36929229  1
  O  O192  1  0.75854589  0.01267695  0.86922970  1
  O  O193  1  0.76432086  0.49535692  0.36968599  1
  O  O194  1  0.75440167  0.51583179  0.87845727  1
  O  O195  1  0.24363037  0.49249920  0.13537559  1
  O  O196  1  0.25825680  0.49272037  0.63305164  1
  O  O197  1  0.24163932  1.00042719  0.13304934  1
  O  O198  1  0.24537601  1.00040158  0.63266237  1
  O  O199  1  0.74657192  0.49091604  0.13213366  1
  O  O200  1  0.75071296  0.48190869  0.62502336  1
  O  O201  1  0.74099926  0.99214385  0.12624625  1
  O  O202  1  0.75755660  0.98507986  0.63597990  1
  O  O203  1  0.00875219  0.36524237  0.24972680  1
  O  O204  1  0.00494208  0.37176165  0.75447362  1
  O  O205  1  -0.00698384  0.86211198  0.25641112  1
  O  O206  1  0.01341315  0.87850981  0.74849001  1
  O  O207  1  0.50360937  0.37556468  0.26606521  1
  O  O208  1  0.49548555  0.36159039  0.74852286  1
  O  O209  1  0.50681019  0.87179189  0.26076315  1
  O  O210  1  0.50353800  0.86784236  0.76035447  1
  O  O211  1  0.48585974  0.11882269  0.25469502  1
  O  O212  1  0.49611216  0.13319177  0.74364420  1
  O  O213  1  0.49257897  0.62318643  0.24610946  1
  O  O214  1  0.49766236  0.62959051  0.74294433  1
  O  O215  1  0.99223511  0.13051222  0.24536030  1
  O  O216  1  0.99132111  0.13479749  0.75086660  1
  O  O217  1  1.00242279  0.63738993  0.23769418  1
  O  O218  1  0.99389027  0.61797048  0.73356963  1
  O  O219  1  0.36934172  0.25422313  0.01017990  1
  O  O220  1  0.36799984  0.25742672  0.50738897  1
  O  O221  1  0.36556639  0.74575077  0.01376884  1
  O  O222  1  0.37839431  0.74916158  0.51287594  1
  O  O223  1  0.86548375  0.25788319  -0.00371289  1
  O  O224  1  0.87215724  0.25925465  0.50236308  1
  O  O225  1  0.86693895  0.75964817  0.01548396  1
  O  O226  1  0.87389227  0.75018100  0.50996247  1
  O  O227  1  0.14108102  0.25318614  0.50436351  1
  O  O228  1  0.12922728  0.24109468  0.99435537  1
  O  O229  1  0.12380313  0.75274819  0.48370207  1
  O  O230  1  0.13637795  0.74717026  1.00343404  1
  O  O231  1  0.62473188  0.23499104  0.49692920  1
  O  O232  1  0.64115019  0.22828904  1.01456950  1
  O  O233  1  0.62399336  0.73874387  0.48815713  1
  O  O234  1  0.63166401  0.74509891  0.99672625  1
  O  O235  1  0.49217410  0.25357912  0.11938739  1
  O  O236  1  0.48899691  0.24441544  0.62957383  1
  O  O237  1  0.49148231  0.74151513  0.12834500  1
  O  O238  1  0.49578048  0.74144482  0.63142687  1
  O  O239  1  1.00420357  0.23456628  0.13712736  1
  O  O240  1  1.00009918  0.25169142  0.63798074  1
  O  O241  1  0.99219084  0.74619319  0.13213441  1
  O  O242  1  0.99364446  0.73607530  0.61756721  1
  O  O243  1  -0.00036651  0.25133411  0.36238818  1
  O  O244  1  0.00544455  0.25990195  0.86387537  1
  O  O245  1  0.00393050  0.75372005  0.36841112  1
  O  O246  1  -0.04531756  0.76663581  0.86465161  1
  O  O247  1  0.49753983  0.26124267  0.38043795  1
  O  O248  1  0.48957588  0.24810212  0.86057784  1
  O  O249  1  0.50458717  0.75990049  0.37613463  1
  O  O250  1  0.50372841  0.75435974  0.86948042  1
  O  O251  1  0.25148334  0.13446969  0.49035630  1
  O  O252  1  0.24090081  0.13007973  0.99423234  1
  O  O253  1  0.25745260  0.62448657  0.48523463  1
  O  O254  1  0.24739386  0.63126799  0.99213707  1
  O  O255  1  0.73688002  0.12414713  0.50881906  1
  O  O256  1  0.75007466  0.13049106  0.99304009  1
  O  O257  1  0.73875812  0.62008383  0.50565072  1
  O  O258  1  0.74605023  0.63153622  0.99649718  1
  O  O259  1  0.25815820  0.36839442  0.00675994  1
  O  O260  1  0.25796499  0.37263038  0.50312031  1
  O  O261  1  0.25387825  0.86563821  0.00167513  1
  O  O262  1  0.25484329  0.86924498  0.50175798  1
  O  O263  1  0.76217806  0.36805577  0.00748931  1
  O  O264  1  0.75549715  0.37328310  0.50918359  1
  O  O265  1  0.75406186  0.87066699  0.01054635  1
  O  O266  1  0.75072346  0.88150813  0.51511780  1
  O  O267  1  0.13145764  0.49155301  0.24110454  1
  O  O268  1  0.14052502  0.49349114  0.75293558  1
  O  O269  1  0.13432978  1.00795241  0.23938938  1
  O  O270  1  0.13297767  0.99719807  0.73920694  1
  O  O271  1  0.63435177  0.49552150  0.24377322  1
  O  O272  1  0.62743415  0.48681575  0.75978958  1
  O  O273  1  0.62534364  0.99298858  0.23620739  1
  O  O274  1  0.64123252  1.00065105  0.75571406  1
  O  O275  1  0.36777438  0.00680688  0.25375634  1
  O  O276  1  0.36685914  0.00586977  0.75622011  1
  O  O277  1  0.36464617  0.50645111  0.24355758  1
  O  O278  1  0.36767573  0.50354935  0.75605218  1
  O  O279  1  0.86784542  0.01334461  0.25502150  1
  O  O280  1  0.86685651  0.00784890  0.75715929  1
  O  O281  1  0.87132581  0.49397880  0.26715114  1
  O  O282  1  0.86801692  0.51181702  0.75055921  1
  O  O283  1  0.12315958  0.37770050  0.36149582  1
  O  O284  1  0.12113505  0.37010585  0.87046324  1
  O  O285  1  0.11163836  0.87023402  0.37302547  1
  O  O286  1  0.12340273  0.88309917  0.85799253  1
  O  O287  1  0.61180651  0.37505913  0.37736061  1
  O  O288  1  0.62160884  0.36663494  0.90456074  1
  O  O289  1  0.62010989  0.86470512  0.37422316  1
  O  O290  1  0.61941071  0.87020959  0.87590860  1
  O  O291  1  0.37471122  0.13843665  0.12992192  1
  O  O292  1  0.38209601  0.13281413  0.62873843  1
  O  O293  1  0.37908731  0.62790911  0.13413920  1
  O  O294  1  0.38455707  0.63125131  0.63203202  1
  O  O295  1  0.88244140  0.12052389  0.13530777  1
  O  O296  1  0.87496202  0.12788058  0.63814842  1
  O  O297  1  0.88082231  0.63407550  0.12209442  1
  O  O298  1  0.88105131  0.62894604  0.62757694  1
  O  O299  1  0.24912326  0.25439419  0.11808098  1
  O  O300  1  0.26100362  0.25621208  0.61995734  1
  O  O301  1  0.25411371  0.74922405  0.11990077  1
  O  O302  1  0.26137467  0.74915341  0.62195991  1
  O  O303  1  0.75478878  0.26280106  0.11745323  1
  O  O304  1  0.75084361  0.26340976  0.62301597  1
  O  O305  1  0.75430799  0.75724304  0.12364939  1
  O  O306  1  0.75640680  0.76422997  0.62625369  1
  O  O307  1  0.25844592  0.24160267  0.38227157  1
  O  O308  1  0.24574420  0.24386008  0.88135180  1
  O  O309  1  0.24153783  0.74106053  0.37290137  1
  O  O310  1  0.25811427  0.74082983  0.88488610  1
  O  O311  1  0.75033302  0.24952012  0.37569323  1
  O  O312  1  0.75469064  0.23720104  0.88060868  1
  O  O313  1  0.73962006  0.75482528  0.37349887  1
  O  O314  1  0.75027527  0.74045086  0.88156808  1
  O  O315  1  0.00703681  0.13223450  0.00699310  1
  O  O316  1  0.00387103  0.12320155  0.50167502  1
  O  O317  1  0.00177610  0.63086357  0.01565358  1
  O  O318  1  -0.00007205  0.61381558  0.51004645  1
  O  O319  1  0.51366794  0.12770327  -0.00702437  1
  O  O320  1  0.50441738  0.11867525  0.50809397  1
  O  O321  1  0.50618435  0.62270065  0.00904957  1
  O  O322  1  0.50444736  0.61808701  0.50521388  1
  O  O323  1  0.49515328  0.38199613  0.49293228  1
  O  O324  1  0.48210968  0.37932946  1.00797598  1
  O  O325  1  0.50054685  0.88129250  0.49673868  1
  O  O326  1  0.49411409  0.86785786  0.98550734  1
  O  O327  1  0.99475299  0.38649384  0.50159582  1
  O  O328  1  0.99350398  0.36450655  0.99144835  1
  O  O329  1  0.99572246  0.87960627  0.48853565  1
  O  O330  1  0.98832493  0.87255964  0.99954650  1
  O  O331  1  0.50130576  0.49493389  0.38402073  1
  O  O332  1  0.48283816  0.50987691  0.87877658  1
  O  O333  1  0.49629547  0.98683989  0.38255454  1
  O  O334  1  0.49000640  0.99170805  0.86772111  1
  O  O335  1  0.99255335  0.50135587  0.38403705  1
  O  O336  1  1.00313362  0.48798809  0.87131593  1
  O  O337  1  0.99076941  0.99212862  0.37105433  1
  O  O338  1  0.98624655  0.99537052  0.87012157  1
  O  O339  1  0.00730828  0.01357640  0.13256053  1
  O  O340  1  0.00833703  0.00378053  0.62493348  1
  O  O341  1  0.00810587  0.50805076  0.13187409  1
  O  O342  1  -0.00164702  0.51059609  0.61200614  1
  O  O343  1  0.50995958  -0.01180600  0.12183211  1
  O  O344  1  0.49462291  0.00983536  0.61956838  1
  O  O345  1  0.51004370  0.50293821  0.12606605  1
  O  O346  1  0.49709046  0.51226903  0.61655517  1
  O  O347  1  0.24597663  0.37916432  0.24805401  1
  O  O348  1  0.24941418  0.38176144  0.74178065  1
  O  O349  1  0.25398290  0.88919508  0.24979850  1
  O  O350  1  0.24409719  0.88649231  0.74829575  1
  O  O351  1  0.74819525  0.38041308  0.24310719  1
  O  O352  1  0.74450269  0.37230166  0.73851277  1
  O  O353  1  0.74328891  0.87541504  0.23757048  1
  O  O354  1  0.75167555  0.88297755  0.74413784  1
  O  O355  1  0.25883119  0.11777912  0.25524073  1
  O  O356  1  0.25383426  0.11711127  0.75474875  1
  O  O357  1  0.25593603  0.61582387  0.25505495  1
  O  O358  1  0.25539160  0.61891105  0.75541726  1
  O  O359  1  0.74804838  0.13280460  0.25229921  1
  O  O360  1  0.75503939  0.12282422  0.75559121  1
  O  O361  1  0.75050008  0.60970770  0.24544333  1
  O  O362  1  0.75408816  0.62333594  0.75754674  1
  O  O363  1  0.36756818  0.11866666  0.36768290  1
  O  O364  1  0.36851995  0.11867223  0.86948496  1
  O  O365  1  0.36772122  0.63101213  0.36122172  1
  O  O366  1  0.36538496  0.61958760  0.86940472  1
  O  O367  1  0.87608707  0.11565532  0.36476384  1
  O  O368  1  0.87038733  0.12057124  0.86652778  1
  O  O369  1  0.87673458  0.61187634  0.37888173  1
  O  O370  1  0.86941958  0.62301612  0.86685605  1
  O  O371  1  0.12983103  0.37925582  0.13305860  1
  O  O372  1  0.14128580  0.37149119  0.63072971  1
  O  O373  1  0.12414861  0.89062583  0.11922961  1
  O  O374  1  0.12672647  0.88207017  0.63386360  1
  O  O375  1  0.63472073  0.38336952  0.12078216  1
  O  O376  1  0.63215281  0.37313798  0.61814133  1
  O  O377  1  0.62963470  0.88177609  0.12511625  1
  O  O378  1  0.63865467  0.86941170  0.62837860  1
  O  O379  1  0.11881121  0.25716109  0.24554449  1
  O  O380  1  0.12044637  0.25604721  0.75591694  1
  O  O381  1  0.11540346  0.75061901  0.25954891  1
  O  O382  1  0.13035669  0.76675223  0.74832394  1
  O  O383  1  0.63355184  0.24269996  0.25659409  1
  O  O384  1  0.60840276  0.25518120  0.75228175  1
  O  O385  1  0.62277650  0.75363050  0.26309594  1
  O  O386  1  0.61870816  0.75093870  0.75870248  1
  O  O387  1  0.37525452  0.24312946  0.23503645  1
  O  O388  1  0.37929731  0.24434884  0.74169639  1
  O  O389  1  0.37424111  0.74060938  0.23945261  1
  O  O390  1  0.38105738  0.74477976  0.74238889  1
  O  O391  1  0.88235126  0.23962932  0.25416950  1
  O  O392  1  0.88293703  0.24401571  0.75037676  1
  O  O393  1  0.87932564  0.75254169  0.23893783  1
  O  O394  1  0.86703264  0.73154956  0.73155151  1
  O  O395  1  0.38588541  0.49057305  0.50268491  1
  O  O396  1  0.37076172  0.49214564  0.99434697  1
  O  O397  1  0.38676942  1.00062931  0.49296383  1
  O  O398  1  0.36859103  1.00174368  0.98811705  1
  O  O399  1  0.88311799  0.49524839  0.49114951  1
  O  O400  1  0.87420001  0.48637341  0.99753687  1
  O  O401  1  0.87593735  0.99928433  0.48953055  1
  O  O402  1  0.87242534  0.99352332  0.99363524  1
  O  O403  1  0.12946704  0.01139463  0.00485078  1
  O  O404  1  0.12657470  0.00060414  0.51244816  1
  O  O405  1  0.13217046  0.49889327  0.01493335  1
  O  O406  1  0.11101628  0.49580342  0.49678806  1
  O  O407  1  0.62722872  0.00790504  0.00786001  1
  O  O408  1  0.61085510  0.01034992  0.49548244  1
  O  O409  1  0.62653880  0.50964562  0.01310184  1
  O  O410  1  0.61902686  0.51631686  0.49384102  1
  O  O411  1  0.36919418  0.36302068  0.12282186  1
  O  O412  1  0.36836636  0.36914887  0.61587036  1
  O  O413  1  0.37146584  0.86372262  0.12445879  1
  O  O414  1  0.37501602  0.86485823  0.62600000  1
  O  O415  1  0.86993089  0.37875571  0.11893354  1
  O  O416  1  0.87284317  0.37605639  0.61394336  1
  O  O417  1  0.86750214  0.87374025  0.12103353  1
  O  O418  1  0.86823804  0.86502405  0.62381085  1
  O  O419  1  0.13913827  0.12115249  0.37490210  1
  O  O420  1  0.12627338  0.12759781  0.88031531  1
  O  O421  1  0.13516038  0.63237519  0.36760366  1
  O  O422  1  0.13738894  0.62035126  0.87551247  1
  O  O423  1  0.62946803  0.12278920  0.37765933  1
  O  O424  1  0.63321742  0.11898753  0.88851861  1
  O  O425  1  0.62370988  0.63772923  0.38456144  1
  O  O426  1  0.63211157  0.63225562  0.88347554  1
