# generated using pymatgen
data_V85Zn86O256
_symmetry_space_group_name_H-M   'P 1'
_cell_length_a   16.94102900
_cell_length_b   16.93769861
_cell_length_c   16.92732952
_cell_angle_alpha   89.95395605
_cell_angle_beta   90.01165567
_cell_angle_gamma   90.00809538
_symmetry_Int_Tables_number   1
_chemical_formula_structural   V85Zn86O256
_chemical_formula_sum   'V85 Zn86 O256'
_cell_volume   4857.16080231
_cell_formula_units_Z   1
loop_
 _symmetry_equiv_pos_site_id
 _symmetry_equiv_pos_as_xyz
  1  'x, y, z'
loop_
 _atom_site_type_symbol
 _atom_site_label
 _atom_site_symmetry_multiplicity
 _atom_site_fract_x
 _atom_site_fract_y
 _atom_site_fract_z
 _atom_site_occupancy
  V  V0  1  0.50527498  0.76739986  0.25081244  1
  V  V1  1  0.74414025  0.37922299  0.12592560  1
  V  V2  1  0.38013577  0.49346343  0.38479129  1
  V  V3  1  0.74916138  0.24957464  -0.00116297  1
  V  V4  1  0.25896389  0.75659182  0.49930037  1
  V  V5  1  0.37644777  0.62591066  0.74754739  1
  V  V6  1  0.87563718  0.12934863  0.74846074  1
  V  V7  1  0.37547444  0.12223627  0.73948930  1
  V  V8  1  0.74812175  0.37562598  0.62001470  1
  V  V9  1  -0.00453851  -0.00375673  0.00393045  1
  V  V10  1  0.62768994  0.63833553  -0.01058138  1
  V  V11  1  0.12706363  0.62249945  0.49975306  1
  V  V12  1  0.61770009  0.00322072  0.62253046  1
  V  V13  1  0.62595440  0.76437753  0.37402619  1
  V  V14  1  0.23682786  0.87818695  0.62734388  1
  V  V15  1  -0.00089134  0.50165721  -0.00084012  1
  V  V16  1  0.12314322  0.49788412  0.13258210  1
  V  V17  1  0.74931022  0.12836170  0.87546285  1
  V  V18  1  0.37485499  0.12578040  0.26187380  1
  V  V19  1  0.87399380  0.24991945  0.12486492  1
  V  V20  1  0.63038077  0.61963610  0.49067239  1
  V  V21  1  0.62330329  0.87529148  0.74995226  1
  V  V22  1  0.24753617  0.48955342  0.75129213  1
  V  V23  1  0.12453206  0.74953908  0.37374739  1
  V  V24  1  0.26113747  0.37037194  0.61382570  1
  V  V25  1  0.24994277  0.12415048  0.87348657  1
  V  V26  1  0.12889544  0.12044787  0.49331491  1
  V  V27  1  0.00804147  0.37746708  0.86932930  1
  V  V28  1  0.25058973  0.87360700  0.12808110  1
  V  V29  1  0.38004393  -0.01710856  0.37664779  1
  V  V30  1  0.74375125  0.50246235  0.74507401  1
  V  V31  1  0.12305833  0.12676729  0.00077512  1
  V  V32  1  0.87379373  0.25097581  0.61942649  1
  V  V33  1  0.87508130  0.00358235  0.87835861  1
  V  V34  1  0.61954576  0.12215685  0.00006565  1
  V  V35  1  0.87226873  0.75663215  0.12501066  1
  V  V36  1  0.38002824  0.76122592  0.62281617  1
  V  V37  1  0.24915859  0.25001180  0.00131991  1
  V  V38  1  0.24927043  0.00331475  0.25931770  1
  V  V39  1  0.00898021  0.25371407  0.74682323  1
  V  V40  1  0.37632076  0.24852772  0.12615432  1
  V  V41  1  0.74955113  0.87143584  0.12638397  1
  V  V42  1  0.74460987  0.13856043  0.37872576  1
  V  V43  1  -0.00655299  0.87421383  0.38058422  1
  V  V44  1  0.25397292  0.75171708  0.00124843  1
  V  V45  1  0.81730790  0.81877094  -0.05775542  1
  V  V46  1  0.37548665  0.49961796  0.87658843  1
  V  V47  1  0.87041243  -0.00529634  0.38804673  1
  V  V48  1  0.50173438  0.50550144  0.00409802  1
  V  V49  1  0.50856263  0.36584558  0.38240764  1
  V  V50  1  0.50631326  0.75002376  0.75487329  1
  V  V51  1  -0.00310860  0.62980112  0.13036116  1
  V  V52  1  0.74744136  0.00408283  0.74674423  1
  V  V53  1  0.87643701  0.12286370  0.25306682  1
  V  V54  1  0.62241333  0.37702293  0.74703011  1
  V  V55  1  0.24674442  0.37582745  0.13146861  1
  V  V56  1  0.50775632  0.62105053  0.62307431  1
  V  V57  1  0.62021179  0.13663359  0.49970279  1
  V  V58  1  0.87311183  0.37716365  -0.00308746  1
  V  V59  1  0.61981287  -0.00534396  0.12545940  1
  V  V60  1  0.62437786  0.51074945  0.12419438  1
  V  V61  1  0.87668274  0.62425130  0.73834564  1
  V  V62  1  0.25517225  0.62492955  0.37526001  1
  V  V63  1  0.00265028  0.75116351  0.74154688  1
  V  V64  1  0.49726810  0.12091441  0.12263218  1
  V  V65  1  0.87152065  0.50212578  0.87248314  1
  V  V66  1  0.75974429  0.75335308  0.50023486  1
  V  V67  1  0.00075896  0.26699693  0.25613326  1
  V  V68  1  0.50170548  0.87657436  0.88393418  1
  V  V69  1  0.00224856  0.49180727  0.49328771  1
  V  V70  1  0.50028672  -0.01386866  0.49446002  1
  V  V71  1  0.37716468  0.00052310  0.87934831  1
  V  V72  1  0.00777023  0.87512027  0.87386601  1
  V  V73  1  0.87611488  0.36977454  0.49139444  1
  V  V74  1  0.49974459  0.24413871  0.74458967  1
  V  V75  1  0.12601187  0.62593317  0.00100664  1
  V  V76  1  0.12985018  0.75394650  0.86787868  1
  V  V77  1  0.37799768  0.37531970  0.00203352  1
  V  V78  1  0.86841644  0.50831896  0.37449175  1
  V  V79  1  0.12427027  0.48864721  0.62710377  1
  V  V80  1  0.74557851  -0.00449394  0.25159793  1
  V  V81  1  0.23708706  -0.00311340  0.74706676  1
  V  V82  1  0.12460627  0.00058619  0.12820149  1
  V  V83  1  0.39008256  0.62180207  0.24757411  1
  V  V84  1  0.25132187  0.62528052  0.87273047  1
  Zn  Zn85  1  0.86406318  0.63181265  0.25387178  1
  Zn  Zn86  1  0.37776646  0.24867465  0.61546058  1
  Zn  Zn87  1  0.50308065  0.49563317  0.50791794  1
  Zn  Zn88  1  0.12829879  0.25550942  0.87159038  1
  Zn  Zn89  1  0.00700429  0.11628557  0.62416268  1
  Zn  Zn90  1  0.38316040  0.74583410  0.12405627  1
  Zn  Zn91  1  0.50793888  0.24820929  0.25340664  1
  Zn  Zn92  1  0.74168222  0.50646754  0.25780384  1
  Zn  Zn93  1  0.62211233  0.25019323  0.87361794  1
  Zn  Zn94  1  0.25953589  0.23349361  0.46847032  1
  Zn  Zn95  1  -0.00220995  0.75264199  0.25086836  1
  Zn  Zn96  1  0.00323052  -0.00428821  0.51022955  1
  Zn  Zn97  1  0.24862222  0.50021039  0.25387110  1
  Zn  Zn98  1  0.50136122  0.37286233  0.87534684  1
  Zn  Zn99  1  0.12913637  0.26339996  0.37190557  1
  Zn  Zn100  1  0.62537554  0.37153085  0.25394756  1
  Zn  Zn101  1  0.00030949  0.62515839  0.62168169  1
  Zn  Zn102  1  0.12325269  0.87646492  0.25339560  1
  Zn  Zn103  1  0.75963540  0.88107801  0.60917634  1
  Zn  Zn104  1  0.74829247  0.64173069  0.87120472  1
  Zn  Zn105  1  0.00056446  0.12647687  0.12872767  1
  Zn  Zn106  1  0.37800317  0.87982601  0.00357012  1
  Zn  Zn107  1  0.18834607  0.18856650  0.19623100  1
  Zn  Zn108  1  0.18730232  0.18394404  0.68014691  1
  Zn  Zn109  1  0.18900172  0.68435384  0.19054083  1
  Zn  Zn110  1  0.18995334  0.68535394  0.68497557  1
  Zn  Zn111  1  0.68632957  0.18585899  0.19028058  1
  Zn  Zn112  1  0.68602293  0.19096818  0.68168988  1
  Zn  Zn113  1  0.68450210  0.68794181  0.18828300  1
  Zn  Zn114  1  0.68810324  0.68886788  0.68154389  1
  Zn  Zn115  1  0.31667279  0.31390350  0.31181246  1
  Zn  Zn116  1  0.31551929  0.30941806  0.81214521  1
  Zn  Zn117  1  0.31455279  0.80957350  0.30907976  1
  Zn  Zn118  1  0.31635971  0.81594279  0.80845968  1
  Zn  Zn119  1  0.81158300  0.31686248  0.30928512  1
  Zn  Zn120  1  0.81286903  0.31476745  0.80973300  1
  Zn  Zn121  1  0.80758548  0.81072725  0.31340856  1
  Zn  Zn122  1  0.82066742  0.81961271  0.76474030  1
  Zn  Zn123  1  0.19251255  0.43526131  0.43824907  1
  Zn  Zn124  1  0.18864542  0.43873312  0.94350808  1
  Zn  Zn125  1  0.18732685  0.93703148  0.43921681  1
  Zn  Zn126  1  0.18793478  0.93893906  0.93814311  1
  Zn  Zn127  1  0.68737776  0.43672952  0.44131222  1
  Zn  Zn128  1  0.68558887  0.43972379  0.93399557  1
  Zn  Zn129  1  0.68651573  0.93793796  0.43725391  1
  Zn  Zn130  1  0.68024706  0.94419436  0.93418448  1
  Zn  Zn131  1  0.31103342  0.06129046  0.06466500  1
  Zn  Zn132  1  0.31153700  0.05928693  0.55616173  1
  Zn  Zn133  1  0.31322967  0.56348474  0.06528205  1
  Zn  Zn134  1  0.31444407  0.56531986  0.56608523  1
  Zn  Zn135  1  0.81064010  0.06189077  0.06466363  1
  Zn  Zn136  1  0.80790393  0.06768016  0.56318786  1
  Zn  Zn137  1  0.80621352  0.57061270  0.06140281  1
  Zn  Zn138  1  0.80864989  0.56137883  0.55874604  1
  Zn  Zn139  1  0.44122054  0.43700926  0.19180355  1
  Zn  Zn140  1  0.43806874  0.43806449  0.68976046  1
  Zn  Zn141  1  0.43447738  0.93871272  0.18626775  1
  Zn  Zn142  1  0.43742823  0.94151471  0.68732656  1
  Zn  Zn143  1  0.92793036  0.44361209  0.18235664  1
  Zn  Zn144  1  0.93735725  0.43698379  0.68375712  1
  Zn  Zn145  1  0.93571097  0.93445005  0.19309969  1
  Zn  Zn146  1  0.93830824  0.93665453  0.68479162  1
  Zn  Zn147  1  0.05995663  0.06325914  0.32040816  1
  Zn  Zn148  1  0.06025280  0.06577758  0.81249943  1
  Zn  Zn149  1  0.05879444  0.44391519  0.31143374  1
  Zn  Zn150  1  0.06460246  0.56397268  0.81004426  1
  Zn  Zn151  1  0.56256064  0.06101710  0.31355894  1
  Zn  Zn152  1  0.55851664  0.06241594  0.81354493  1
  Zn  Zn153  1  0.56430051  0.55891655  0.31525083  1
  Zn  Zn154  1  0.56298631  0.56179616  0.81584947  1
  Zn  Zn155  1  0.43950389  0.18310334  0.44288474  1
  Zn  Zn156  1  0.43781068  0.18731762  0.93401706  1
  Zn  Zn157  1  0.44364874  0.68959778  0.43555498  1
  Zn  Zn158  1  0.44041739  0.68774363  0.93734310  1
  Zn  Zn159  1  0.94202799  0.18394875  0.43674356  1
  Zn  Zn160  1  0.94057276  0.18964751  0.93692226  1
  Zn  Zn161  1  0.94165363  0.68326502  0.43814508  1
  Zn  Zn162  1  0.94257148  0.68243755  0.93066859  1
  Zn  Zn163  1  0.06050434  0.31375598  0.06362256  1
  Zn  Zn164  1  0.06720463  0.30536087  0.55705832  1
  Zn  Zn165  1  0.06457742  0.81402159  0.05982432  1
  Zn  Zn166  1  0.06348015  0.81271240  0.55777978  1
  Zn  Zn167  1  0.56225902  0.31079369  0.06554691  1
  Zn  Zn168  1  0.55938483  0.31425145  0.56475800  1
  Zn  Zn169  1  0.56163376  0.81100398  0.06736467  1
  Zn  Zn170  1  0.57016890  0.80977408  0.56474982  1
  O  O171  1  0.12380945  0.11981004  0.11615206  1
  O  O172  1  0.12081426  0.13464009  0.60510212  1
  O  O173  1  0.11741476  0.62179116  0.11982901  1
  O  O174  1  0.13146687  0.61559693  0.61149314  1
  O  O175  1  0.61840403  0.11603055  0.11924527  1
  O  O176  1  0.63313967  0.11759569  0.60859822  1
  O  O177  1  0.62841570  0.61449179  0.11057658  1
  O  O178  1  0.61575891  0.63344199  0.61121230  1
  O  O179  1  0.38210646  0.38999649  0.37194530  1
  O  O180  1  0.37351642  0.38241137  0.88465438  1
  O  O181  1  0.37381197  0.88355662  0.37336342  1
  O  O182  1  0.38271146  0.88310562  0.87523017  1
  O  O183  1  0.86978211  0.38108604  0.38769497  1
  O  O184  1  0.88240655  0.38565812  0.87685377  1
  O  O185  1  0.88007250  0.88367777  0.36845328  1
  O  O186  1  0.87922693  0.87953761  0.88087322  1
  O  O187  1  0.25827023  -0.00602810  0.36445336  1
  O  O188  1  0.25461505  0.00361064  0.86664814  1
  O  O189  1  0.26389430  0.50800149  0.37572015  1
  O  O190  1  0.25333599  0.50488852  0.86983675  1
  O  O191  1  0.75347781  0.00419597  0.36684220  1
  O  O192  1  0.75619128  0.01026313  0.87105143  1
  O  O193  1  0.76419382  0.49669248  0.37748397  1
  O  O194  1  0.75845274  0.49802297  0.86167896  1
  O  O195  1  0.23983319  0.49473655  0.12417619  1
  O  O196  1  0.24727111  0.49088988  0.63158368  1
  O  O197  1  0.24509014  0.99097649  0.13290746  1
  O  O198  1  0.25582133  0.98432599  0.63027832  1
  O  O199  1  0.74202969  0.49199450  0.11818033  1
  O  O200  1  0.75567531  0.49220239  0.63721903  1
  O  O201  1  0.74549205  0.99111691  0.13024265  1
  O  O202  1  0.73934287  0.99969026  0.62991768  1
  O  O203  1  -0.00493236  0.37071025  0.24357105  1
  O  O204  1  -0.00569127  0.36786831  0.75841833  1
  O  O205  1  0.00421269  0.87213890  0.26248860  1
  O  O206  1  -0.00334812  0.86469065  0.76634740  1
  O  O207  1  0.50060518  0.37370567  0.26631792  1
  O  O208  1  0.50818847  0.37043993  0.75166869  1
  O  O209  1  0.49763696  0.86570887  0.25082382  1
  O  O210  1  0.50717434  0.87029149  0.75443835  1
  O  O211  1  0.49323855  0.12314190  0.23925748  1
  O  O212  1  0.48909617  0.13175248  0.75364991  1
  O  O213  1  0.49113409  0.62641475  0.25241663  1
  O  O214  1  0.49930611  0.63332416  0.74491634  1
  O  O215  1  0.98452524  0.12637023  0.24954878  1
  O  O216  1  0.99106883  0.13491619  0.74966275  1
  O  O217  1  0.99017414  0.62850118  0.23191368  1
  O  O218  1  0.99493250  0.63025146  0.74588172  1
  O  O219  1  0.36855441  0.25415485  0.00553914  1
  O  O220  1  0.36624645  0.23730099  0.50424608  1
  O  O221  1  0.36425494  0.74895284  0.00255089  1
  O  O222  1  0.36691841  0.74467661  0.50670969  1
  O  O223  1  0.87151065  0.25531591  0.00711432  1
  O  O224  1  0.88119147  0.25707008  0.50752413  1
  O  O225  1  0.87546359  0.75468016  -0.00194140  1
  O  O226  1  0.85812332  0.74032162  0.49224318  1
  O  O227  1  0.13355926  0.24278532  0.49169311  1
  O  O228  1  0.12914498  0.24264668  1.00013405  1
  O  O229  1  0.13502557  0.74248314  0.49259736  1
  O  O230  1  0.13665460  0.74619525  0.99103809  1
  O  O231  1  0.62042892  0.23565825  0.50440314  1
  O  O232  1  0.63034282  0.23889922  1.00011719  1
  O  O233  1  0.62730884  0.74375184  0.48693865  1
  O  O234  1  0.61969542  0.73637958  1.00142998  1
  O  O235  1  0.49103719  0.24002685  0.12352498  1
  O  O236  1  0.49532163  0.25466793  0.63935294  1
  O  O237  1  0.50049017  0.75178252  0.14390506  1
  O  O238  1  0.49538815  0.74532714  0.63264255  1
  O  O239  1  0.98647703  0.25173134  0.13164407  1
  O  O240  1  0.98937277  0.25367698  0.63346970  1
  O  O241  1  0.99283974  0.74712493  0.12210715  1
  O  O242  1  1.00954050  0.74804651  0.63775534  1
  O  O243  1  -0.00698578  0.25358957  0.35697151  1
  O  O244  1  0.00062170  0.26094796  0.86701732  1
  O  O245  1  0.00820341  0.75338201  0.37522109  1
  O  O246  1  0.01253941  0.75583296  0.87186532  1
  O  O247  1  0.49465321  0.26390763  0.37604550  1
  O  O248  1  0.50084574  0.25297888  0.86291865  1
  O  O249  1  0.51213267  0.74784370  0.36343738  1
  O  O250  1  0.49247949  0.75946982  0.86092586  1
  O  O251  1  0.23562971  0.11983694  0.49906482  1
  O  O252  1  0.24188006  0.12949416  0.99669395  1
  O  O253  1  0.24914518  0.63244648  0.49306223  1
  O  O254  1  0.24683755  0.63235317  0.99443616  1
  O  O255  1  0.73931578  0.12201992  0.48553671  1
  O  O256  1  0.74362886  0.13121556  0.99633588  1
  O  O257  1  0.73591017  0.63357428  0.50358209  1
  O  O258  1  0.73435999  0.62459349  0.98946946  1
  O  O259  1  0.25783340  0.37044659  0.00911549  1
  O  O260  1  0.25550964  0.37485290  0.51319256  1
  O  O261  1  0.25079438  0.86750620  0.00776016  1
  O  O262  1  0.24844671  0.86639855  0.51171296  1
  O  O263  1  0.75446304  0.36909528  0.00261298  1
  O  O264  1  0.75723293  0.37962618  0.51300496  1
  O  O265  1  0.75315516  0.87666723  -0.00053837  1
  O  O266  1  0.74936900  0.86067365  0.49499338  1
  O  O267  1  0.12518457  0.50581432  0.23606475  1
  O  O268  1  0.13564741  0.50712717  0.73927145  1
  O  O269  1  0.13233402  1.00255926  0.24723128  1
  O  O270  1  0.13784434  1.00563698  0.75431070  1
  O  O271  1  0.62279876  0.49605204  0.23782466  1
  O  O272  1  0.63314925  0.49303604  0.75276765  1
  O  O273  1  0.63713323  1.00699619  0.24032055  1
  O  O274  1  0.62445175  0.99898911  0.74011361  1
  O  O275  1  0.36926333  0.00397330  0.25737063  1
  O  O276  1  0.36812154  0.00588693  0.75855272  1
  O  O277  1  0.37589304  0.51106681  0.25940476  1
  O  O278  1  0.36811296  0.50652090  0.75668013  1
  O  O279  1  0.86393891  0.00808750  0.25358745  1
  O  O280  1  0.87006731  0.01650598  0.75928878  1
  O  O281  1  0.87655262  0.49913221  0.26743519  1
  O  O282  1  0.87013867  0.50592442  0.75533236  1
  O  O283  1  0.12510209  0.37942956  0.37203061  1
  O  O284  1  0.11179287  0.37706220  0.88180532  1
  O  O285  1  0.11927237  0.86443151  0.37538085  1
  O  O286  1  0.12026175  0.86617651  0.87736223  1
  O  O287  1  0.61245671  0.37981878  0.37535871  1
  O  O288  1  0.62616632  0.37176965  0.86081432  1
  O  O289  1  0.62393335  0.86311612  0.37410026  1
  O  O290  1  0.61041192  0.88394994  0.86720203  1
  O  O291  1  0.38303172  0.12576340  0.12942067  1
  O  O292  1  0.36909549  0.12090504  0.63727851  1
  O  O293  1  0.36810639  0.62719117  0.14410351  1
  O  O294  1  0.38144432  0.63688772  0.63072851  1
  O  O295  1  0.87305817  0.13441332  0.13378381  1
  O  O296  1  0.87347591  0.13440256  0.63262678  1
  O  O297  1  0.88084855  0.64192162  0.11404631  1
  O  O298  1  0.87722668  0.61941471  0.63478813  1
  O  O299  1  0.25432692  0.25709438  0.12238293  1
  O  O300  1  0.25267733  0.26909368  0.63707490  1
  O  O301  1  0.24904571  0.75595298  0.11816415  1
  O  O302  1  0.25778145  0.75835813  0.61981284  1
  O  O303  1  0.75952283  0.25650698  0.12051692  1
  O  O304  1  0.76501592  0.26084519  0.63192976  1
  O  O305  1  0.75341231  0.76400810  0.12440755  1
  O  O306  1  0.74341837  0.75467914  0.60462064  1
  O  O307  1  0.24352010  0.24541388  0.35577442  1
  O  O308  1  0.24763394  0.24359350  0.88180812  1
  O  O309  1  0.24766317  0.74598365  0.38259626  1
  O  O310  1  0.24710136  0.74811621  0.87929507  1
  O  O311  1  0.75408600  0.23647367  0.36998237  1
  O  O312  1  0.74940926  0.24485349  0.88023631  1
  O  O313  1  0.73478308  0.74998592  0.38061117  1
  O  O314  1  0.76784894  0.76410519  0.87316997  1
  O  O315  1  0.00760890  0.11946031  0.00316580  1
  O  O316  1  0.00723498  0.12068697  0.50277593  1
  O  O317  1  0.00634754  0.61967839  0.00520899  1
  O  O318  1  0.01135613  0.61602483  0.50223743  1
  O  O319  1  0.50642954  0.12827433  0.01050887  1
  O  O320  1  0.51782423  0.11316407  0.49230207  1
  O  O321  1  0.51130190  0.61651984  -0.00571922  1
  O  O322  1  0.51106639  0.62615779  0.50747687  1
  O  O323  1  0.50234350  0.37911878  0.48906064  1
  O  O324  1  0.49305128  0.38069554  0.99810831  1
  O  O325  1  0.50591314  0.88718182  0.50410061  1
  O  O326  1  0.49672080  0.86694239  0.98830829  1
  O  O327  1  0.99002651  0.38278053  0.50916408  1
  O  O328  1  0.99178265  0.38188070  0.99335088  1
  O  O329  1  1.00091567  0.87511339  0.48670979  1
  O  O330  1  1.00473188  0.88478845  0.98840522  1
  O  O331  1  0.49103124  0.49324335  0.37904478  1
  O  O332  1  0.49300435  0.49690638  0.88497776  1
  O  O333  1  0.49709165  0.99616348  0.38505556  1
  O  O334  1  0.48900346  0.99041244  0.87176805  1
  O  O335  1  0.98787900  0.49765471  0.38742222  1
  O  O336  1  0.99408627  0.49578287  0.87720623  1
  O  O337  1  0.98575643  0.99137786  0.37539178  1
  O  O338  1  0.99517157  0.99336183  0.88023975  1
  O  O339  1  0.00410601  -0.00073165  0.11913969  1
  O  O340  1  -0.00194915  0.00194429  0.62421136  1
  O  O341  1  0.00305657  0.50791649  0.11837195  1
  O  O342  1  0.00970097  0.50137717  0.61788288  1
  O  O343  1  0.50873323  0.00539517  0.12750503  1
  O  O344  1  0.50980863  -0.00093869  0.61440750  1
  O  O345  1  0.50798209  0.49489542  0.11259793  1
  O  O346  1  0.49311647  0.51637130  0.62614302  1
  O  O347  1  0.25939421  0.38235209  0.23397840  1
  O  O348  1  0.25301526  0.38724261  0.74950103  1
  O  O349  1  0.24710152  0.88024004  0.24290007  1
  O  O350  1  0.25198422  0.88113339  0.73748579  1
  O  O351  1  0.74909617  0.38346820  0.23877687  1
  O  O352  1  0.74491128  0.38252933  0.74168894  1
  O  O353  1  0.75218388  0.88423990  0.23909633  1
  O  O354  1  0.72973102  0.88996599  0.76481189  1
  O  O355  1  0.26259715  0.11237968  0.23974156  1
  O  O356  1  0.25488650  0.11824309  0.75389742  1
  O  O357  1  0.25918873  0.62584951  0.26446810  1
  O  O358  1  0.25687749  0.61769283  0.75459834  1
  O  O359  1  0.75761734  0.11941291  0.25831191  1
  O  O360  1  0.75486607  0.12375346  0.75459131  1
  O  O361  1  0.75458860  0.61637763  0.23505138  1
  O  O362  1  0.75598985  0.62118769  0.75104810  1
  O  O363  1  0.38439775  0.11304608  0.36317953  1
  O  O364  1  0.36756971  0.11810698  0.86872896  1
  O  O365  1  0.37403224  0.61885169  0.36758294  1
  O  O366  1  0.37025903  0.61978493  0.86913329  1
  O  O367  1  0.86358351  0.11769220  0.37044448  1
  O  O368  1  0.87030338  0.12483589  0.86866251  1
  O  O369  1  0.87702509  0.61138872  0.37443910  1
  O  O370  1  0.87248306  0.61243637  0.86851930  1
  O  O371  1  0.13358488  0.38548730  0.11732954  1
  O  O372  1  0.13589044  0.38543348  0.62085667  1
  O  O373  1  0.13449458  0.88045603  0.12747197  1
  O  O374  1  0.13853459  0.86891360  0.62558417  1
  O  O375  1  0.63551211  0.38492939  0.11758716  1
  O  O376  1  0.63436576  0.37028303  0.63584786  1
  O  O377  1  0.63341585  0.88720214  0.11608231  1
  O  O378  1  0.62923626  0.88502584  0.63340790  1
  O  O379  1  0.10123846  0.24574346  0.24408104  1
  O  O380  1  0.11196718  0.24425232  0.75179606  1
  O  O381  1  0.12465500  0.74661370  0.26469458  1
  O  O382  1  0.12107606  0.74128031  0.76176034  1
  O  O383  1  0.62032062  0.25837133  0.23854981  1
  O  O384  1  0.61764791  0.25538930  0.75016156  1
  O  O385  1  0.61460347  0.74721310  0.26027854  1
  O  O386  1  0.61729983  0.76055971  0.74458801  1
  O  O387  1  0.38131192  0.24018009  0.24212531  1
  O  O388  1  0.38096507  0.23850957  0.74886570  1
  O  O389  1  0.38911631  0.73962348  0.25341692  1
  O  O390  1  0.38356196  0.74528916  0.74204939  1
  O  O391  1  0.88163001  0.24667458  0.24312734  1
  O  O392  1  0.88160745  0.24273311  0.74585859  1
  O  O393  1  0.87654305  0.75006962  0.23921413  1
  O  O394  1  0.89266778  0.73230593  0.76443116  1
  O  O395  1  0.37916687  0.50930414  0.48707373  1
  O  O396  1  0.38194458  0.49726905  0.99808975  1
  O  O397  1  0.39182445  1.00489168  0.49183468  1
  O  O398  1  0.36631830  0.99901494  0.98471823  1
  O  O399  1  0.88127557  0.49545959  0.49226802  1
  O  O400  1  0.87793663  0.49792166  0.99157837  1
  O  O401  1  0.87018586  1.00207432  0.49008952  1
  O  O402  1  0.88822455  1.00883705  0.99565765  1
  O  O403  1  0.11574891  0.00713128  0.00510432  1
  O  O404  1  0.12078369  0.01324009  0.48957822  1
  O  O405  1  0.11911304  0.50761735  0.00870615  1
  O  O406  1  0.11962186  0.50434131  0.50535807  1
  O  O407  1  0.62957342  0.01459542  0.00964909  1
  O  O408  1  0.61753493  0.00374013  0.50414979  1
  O  O409  1  0.61740249  0.50593283  0.00183634  1
  O  O410  1  0.62417569  0.51570812  0.49869024  1
  O  O411  1  0.37078432  0.37107065  0.11865696  1
  O  O412  1  0.36382372  0.37636278  0.62807106  1
  O  O413  1  0.36326948  0.87129771  0.12311868  1
  O  O414  1  0.37093400  0.86367270  0.62981519  1
  O  O415  1  0.86340660  0.37140384  0.11740018  1
  O  O416  1  0.86825438  0.37006085  0.61645814  1
  O  O417  1  0.86926485  0.86553591  0.12264588  1
  O  O418  1  0.85516034  0.86777492  0.66691908  1
  O  O419  1  0.11508295  0.13577874  0.38704944  1
  O  O420  1  0.12936631  0.12642064  0.88760588  1
  O  O421  1  0.13917910  0.63035992  0.38820379  1
  O  O422  1  0.13205170  0.63182644  0.88110878  1
  O  O423  1  0.63706168  0.12203780  0.38236842  1
  O  O424  1  0.62951042  0.12495403  0.88374032  1
  O  O425  1  0.62072729  0.63065652  0.38767499  1
  O  O426  1  0.62844940  0.62807437  0.88321291  1
