# generated using pymatgen
data_V85Zn86O256
_symmetry_space_group_name_H-M   'P 1'
_cell_length_a   16.91865929
_cell_length_b   16.91881266
_cell_length_c   16.92751813
_cell_angle_alpha   90.04050342
_cell_angle_beta   89.96376265
_cell_angle_gamma   89.97530391
_symmetry_Int_Tables_number   1
_chemical_formula_structural   V85Zn86O256
_chemical_formula_sum   'V85 Zn86 O256'
_cell_volume   4845.39155423
_cell_formula_units_Z   1
loop_
 _symmetry_equiv_pos_site_id
 _symmetry_equiv_pos_as_xyz
  1  'x, y, z'
loop_
 _atom_site_type_symbol
 _atom_site_label
 _atom_site_symmetry_multiplicity
 _atom_site_fract_x
 _atom_site_fract_y
 _atom_site_fract_z
 _atom_site_occupancy
  V  V0  1  0.12533106  0.87417956  0.26156547  1
  V  V1  1  0.75658590  0.62299747  0.37572197  1
  V  V2  1  0.88364894  0.50004665  0.88039902  1
  V  V3  1  0.37737517  0.87059435  0.00347084  1
  V  V4  1  0.00653786  0.62662604  0.11278755  1
  V  V5  1  0.49702255  0.87435933  0.37036424  1
  V  V6  1  0.37360198  -0.00093124  0.87602550  1
  V  V7  1  0.00393392  0.25467819  0.75129786  1
  V  V8  1  0.48859934  0.38107455  0.87137957  1
  V  V9  1  0.38814936  0.74160275  0.12946917  1
  V  V10  1  0.00090145  0.87736427  0.87860030  1
  V  V11  1  0.11928857  0.49708568  0.11247752  1
  V  V12  1  0.37488094  0.74775925  0.62279360  1
  V  V13  1  0.12558991  0.73151260  0.37993189  1
  V  V14  1  0.62496980  0.87551539  0.74811019  1
  V  V15  1  0.87300053  0.26623918  0.62159151  1
  V  V16  1  0.87998218  0.00048416  0.36900146  1
  V  V17  1  0.00170177  0.49377020  0.49204761  1
  V  V18  1  0.12579668  0.37876545  0.74985343  1
  V  V19  1  0.49910691  0.37778420  0.37565992  1
  V  V20  1  0.62243287  0.37545766  0.25068270  1
  V  V21  1  0.24504125  0.37483956  0.62263475  1
  V  V22  1  0.62674787  0.49256474  0.61356355  1
  V  V23  1  0.75032490  0.12683615  0.87553227  1
  V  V24  1  0.36817203  0.01306199  0.37570087  1
  V  V25  1  0.12419389  0.00208164  0.62240622  1
  V  V26  1  0.25054039  0.87277436  0.13270080  1
  V  V27  1  0.12711432  0.12773678  0.48247688  1
  V  V28  1  0.39017364  0.62461408  0.24960221  1
  V  V29  1  0.88277800  0.87756556  0.49617883  1
  V  V30  1  0.24189785  0.51046575  0.25283284  1
  V  V31  1  0.00146340  0.74748997  0.74767220  1
  V  V32  1  0.75306105  0.26644580  0.50154976  1
  V  V33  1  0.49887491  0.74858789  0.74843209  1
  V  V34  1  0.49733626  0.24283907  0.23637880  1
  V  V35  1  0.38399583  0.12225387  0.74606089  1
  V  V36  1  0.62164760  0.25051110  0.37661394  1
  V  V37  1  0.62206523  0.87198725  0.24896770  1
  V  V38  1  0.37260500  0.87414047  0.49664107  1
  V  V39  1  0.00341187  0.12023522  0.11151436  1
  V  V40  1  0.75173483  0.25241000  -0.00011344  1
  V  V41  1  0.37664688  0.37908523  0.49935772  1
  V  V42  1  0.49873716  0.00913366  0.00407085  1
  V  V43  1  0.74921433  0.37685344  0.12420873  1
  V  V44  1  0.37739357  0.61714404  0.75366102  1
  V  V45  1  0.75163271  0.87619480  0.12556270  1
  V  V46  1  0.25089871  0.49920263  0.74647249  1
  V  V47  1  0.62213820  0.25239093  0.87429949  1
  V  V48  1  0.87509866  0.74789118  0.62338986  1
  V  V49  1  0.12720896  0.74368809  0.87816675  1
  V  V50  1  0.87926114  0.00209887  0.88131518  1
  V  V51  1  0.24841623  0.73496659  0.49568174  1
  V  V52  1  0.37091300  0.37403840  0.01600163  1
  V  V53  1  0.12630558  0.87485640  0.74834225  1
  V  V54  1  0.62106295  0.74900570  0.37246247  1
  V  V55  1  0.50057695  0.87540673  0.87530025  1
  V  V56  1  0.62330715  0.12817916  0.50842260  1
  V  V57  1  0.75096922  0.00191135  0.74891638  1
  V  V58  1  0.61843134  0.62316790  0.49998142  1
  V  V59  1  0.62653514  0.75011206  0.87448550  1
  V  V60  1  0.74932605  0.12337795  0.37265321  1
  V  V61  1  0.87585029  0.24404487  0.13024618  1
  V  V62  1  0.36806598  0.50353399  0.37745510  1
  V  V63  1  0.61829519  0.50517589  0.12592110  1
  V  V64  1  0.00027735  0.24040857  0.25995702  1
  V  V65  1  0.12052092  0.37483699  0.26442401  1
  V  V66  1  0.25224749  0.61637358  0.88120265  1
  V  V67  1  0.37834073  0.24538847  0.62260913  1
  V  V68  1  0.87664341  0.12717713  0.74765217  1
  V  V69  1  0.49850637  0.00635036  0.50443225  1
  V  V70  1  0.62097917  0.00719818  0.12751540  1
  V  V71  1  0.24471274  0.24892307  0.48550747  1
  V  V72  1  0.75010402  0.62293332  0.87271615  1
  V  V73  1  0.74947647  0.87737868  0.62248183  1
  V  V74  1  0.75821982  0.49821185  0.25484528  1
  V  V75  1  0.24947232  0.00147810  0.74847573  1
  V  V76  1  0.36668366  0.12911714  0.23665734  1
  V  V77  1  0.24823903  0.74324135  0.00499855  1
  V  V78  1  0.00209869  0.12864641  0.62076337  1
  V  V79  1  0.00093645  0.75068759  0.25452165  1
  V  V80  1  0.61823615  0.62617271  0.00284415  1
  V  V81  1  0.87822673  0.74869891  0.12449878  1
  V  V82  1  0.01599564  0.61804544  0.61674289  1
  V  V83  1  0.12986269  0.24457031  0.88741643  1
  V  V84  1  0.63168922  0.37651067  0.74785840  1
  Zn  Zn85  1  0.24351382  0.00524973  0.25548786  1
  Zn  Zn86  1  0.87400506  0.87889865  0.00218034  1
  Zn  Zn87  1  0.75119500  0.00561187  0.24849108  1
  Zn  Zn88  1  0.75311622  0.49582301  0.74607104  1
  Zn  Zn89  1  0.87852840  0.62103591  0.25157673  1
  Zn  Zn90  1  0.49825984  0.61718245  0.61997918  1
  Zn  Zn91  1  0.61918461  0.13070275  0.00570481  1
  Zn  Zn92  1  0.24652865  0.12203959  0.88226157  1
  Zn  Zn93  1  0.00384410  -0.00143929  0.49487361  1
  Zn  Zn94  1  0.12909226  0.00858468  0.11617181  1
  Zn  Zn95  1  0.24817430  0.87354874  0.62071976  1
  Zn  Zn96  1  0.26098463  0.23078323  0.02225141  1
  Zn  Zn97  1  0.61967399  0.00507870  0.62768938  1
  Zn  Zn98  1  0.74895888  0.75042669  0.49816802  1
  Zn  Zn99  1  0.87544500  0.62343437  0.74937052  1
  Zn  Zn100  1  0.24522239  0.37103768  0.13137552  1
  Zn  Zn101  1  -0.01679599  0.37383265  0.37666421  1
  Zn  Zn102  1  0.50214719  0.24703583  0.74372102  1
  Zn  Zn103  1  0.88186006  0.38218289  0.00551284  1
  Zn  Zn104  1  0.00899025  0.38186290  0.88918960  1
  Zn  Zn105  1  0.49267221  0.50406498  -0.00117040  1
  Zn  Zn106  1  0.74989965  0.75040097  0.00092864  1
  Zn  Zn107  1  0.18174393  0.19028457  0.18962794  1
  Zn  Zn108  1  0.18997092  0.18862837  0.68579611  1
  Zn  Zn109  1  0.18694403  0.68607721  0.18824756  1
  Zn  Zn110  1  0.19156161  0.68686251  0.68812201  1
  Zn  Zn111  1  0.68593919  0.18852269  0.18927725  1
  Zn  Zn112  1  0.69018019  0.19235702  0.68618440  1
  Zn  Zn113  1  0.68726032  0.68773324  0.18919081  1
  Zn  Zn114  1  0.68741979  0.68562233  0.68534396  1
  Zn  Zn115  1  0.31166396  0.31488295  0.30432493  1
  Zn  Zn116  1  0.31127754  0.30764569  0.81138975  1
  Zn  Zn117  1  0.31147009  0.80598428  0.31443735  1
  Zn  Zn118  1  0.31178643  0.81100337  0.81228654  1
  Zn  Zn119  1  0.81016519  0.30646249  0.30959772  1
  Zn  Zn120  1  0.81616670  0.31565423  0.81337628  1
  Zn  Zn121  1  0.81071318  0.81366485  0.31105447  1
  Zn  Zn122  1  0.81310540  0.81221490  0.81130449  1
  Zn  Zn123  1  0.18196383  0.44698423  0.44087267  1
  Zn  Zn124  1  0.19247662  0.43297080  0.93609790  1
  Zn  Zn125  1  0.18868120  0.93362365  0.43831063  1
  Zn  Zn126  1  0.18896827  0.93843475  0.94078946  1
  Zn  Zn127  1  0.81764297  0.44357672  0.44124630  1
  Zn  Zn128  1  0.68796984  0.43981595  0.93678585  1
  Zn  Zn129  1  0.68753560  0.93975131  0.43865585  1
  Zn  Zn130  1  0.68773644  0.93988906  0.93968006  1
  Zn  Zn131  1  0.31053352  0.05760358  0.06469340  1
  Zn  Zn132  1  0.30925767  0.06547745  0.56053401  1
  Zn  Zn133  1  0.31278800  0.55581476  0.06655111  1
  Zn  Zn134  1  0.31231050  0.55973437  0.56594501  1
  Zn  Zn135  1  0.81099224  0.06554654  0.06294687  1
  Zn  Zn136  1  0.81270301  0.06662001  0.55862758  1
  Zn  Zn137  1  0.80911965  0.56591493  0.06236741  1
  Zn  Zn138  1  0.80975951  0.56497060  0.56530301  1
  Zn  Zn139  1  0.43803294  0.44050664  0.19154291  1
  Zn  Zn140  1  0.44181063  0.43612632  0.68492698  1
  Zn  Zn141  1  0.43468307  0.94011099  0.18947825  1
  Zn  Zn142  1  0.43562925  0.93490541  0.68463728  1
  Zn  Zn143  1  0.94001612  0.43334616  0.18611384  1
  Zn  Zn144  1  0.93874737  0.44337508  0.69130532  1
  Zn  Zn145  1  0.94012490  0.93621129  0.19040806  1
  Zn  Zn146  1  0.93825624  0.93821216  0.68805389  1
  Zn  Zn147  1  0.05896433  0.05869645  0.30499984  1
  Zn  Zn148  1  0.06180850  0.06499813  0.81239964  1
  Zn  Zn149  1  0.05646696  0.56257049  0.31153924  1
  Zn  Zn150  1  0.06479784  0.56454512  0.80964507  1
  Zn  Zn151  1  0.55932848  0.06307226  0.31568656  1
  Zn  Zn152  1  0.56301491  0.06304142  0.81497250  1
  Zn  Zn153  1  0.56513771  0.55681172  0.31775772  1
  Zn  Zn154  1  0.56492253  0.55989186  0.80977100  1
  Zn  Zn155  1  0.43663827  0.19061055  0.43645289  1
  Zn  Zn156  1  0.43286655  0.19024313  0.93446751  1
  Zn  Zn157  1  0.43781631  0.68591462  0.43311198  1
  Zn  Zn158  1  0.43645066  0.68670066  0.93647151  1
  Zn  Zn159  1  0.93269468  0.18612533  0.43865914  1
  Zn  Zn160  1  0.93913702  0.19428867  0.93758682  1
  Zn  Zn161  1  0.93927422  0.68793902  0.43952247  1
  Zn  Zn162  1  0.93607076  0.68948838  0.93884218  1
  Zn  Zn163  1  0.06071454  0.31260515  0.06778393  1
  Zn  Zn164  1  0.06327193  0.31617999  0.55877728  1
  Zn  Zn165  1  0.07843531  0.84329644  0.05142623  1
  Zn  Zn166  1  0.06364566  0.81050197  0.55995509  1
  Zn  Zn167  1  0.56093170  0.31842354  0.05867289  1
  Zn  Zn168  1  0.56156423  0.31618484  0.56062616  1
  Zn  Zn169  1  0.56443250  0.81503979  0.06197014  1
  Zn  Zn170  1  0.56071959  0.81259408  0.55888724  1
  O  O171  1  0.10879380  0.12317990  0.12735575  1
  O  O172  1  0.11596751  0.12290959  0.62022005  1
  O  O173  1  0.11415724  0.61535533  0.12805927  1
  O  O174  1  0.11406578  0.62989061  0.62558392  1
  O  O175  1  0.62761081  0.11137174  0.12554284  1
  O  O176  1  0.62805624  0.12542972  0.61303285  1
  O  O177  1  0.63117651  0.61863562  0.11527474  1
  O  O178  1  0.62139750  0.62113723  0.61570176  1
  O  O179  1  0.37773092  0.38083591  0.38085144  1
  O  O180  1  0.38739061  0.37340106  0.86928769  1
  O  O181  1  0.38237783  0.87843090  0.37759089  1
  O  O182  1  0.38005048  0.87885518  0.88041232  1
  O  O183  1  0.87002002  0.37545749  0.37099819  1
  O  O184  1  0.87738845  0.39044650  0.87580005  1
  O  O185  1  0.86434947  0.88745598  0.38513260  1
  O  O186  1  0.88160806  0.88467792  0.87190025  1
  O  O187  1  0.26444458  -0.00570679  0.37417551  1
  O  O188  1  0.25529538  -0.00382887  0.86691027  1
  O  O189  1  0.26007786  0.49654506  0.36960764  1
  O  O190  1  0.24590142  0.50967779  0.86505955  1
  O  O191  1  0.75544930  0.00744551  0.37448847  1
  O  O192  1  0.75612229  0.00620363  0.86863475  1
  O  O193  1  0.74888305  0.51057002  0.36713631  1
  O  O194  1  0.75666248  0.50821938  0.87104039  1
  O  O195  1  0.23402929  0.49789959  0.13378797  1
  O  O196  1  0.25178670  0.49156378  0.63747800  1
  O  O197  1  0.24939516  0.98519150  0.13235582  1
  O  O198  1  0.24275896  0.99835814  0.63097787  1
  O  O199  1  0.74147936  0.49532089  0.13059762  1
  O  O200  1  0.73291815  0.50791160  0.63041324  1
  O  O201  1  0.74288377  0.99415148  0.12711010  1
  O  O202  1  0.75015804  0.99415245  0.63060752  1
  O  O203  1  0.00471040  0.36586728  0.25324652  1
  O  O204  1  0.00913399  0.36747881  0.75064950  1
  O  O205  1  0.01035067  0.85965580  0.24285604  1
  O  O206  1  0.00436027  0.86390753  0.75531657  1
  O  O207  1  0.49972454  0.36363390  0.25532360  1
  O  O208  1  0.50865304  0.37223798  0.75912053  1
  O  O209  1  0.50530993  0.88071336  0.26272040  1
  O  O210  1  0.50414635  0.86965703  0.75457359  1
  O  O211  1  0.49349683  0.13807446  0.25424322  1
  O  O212  1  0.48830218  0.12337889  0.74963607  1
  O  O213  1  0.48910643  0.61802631  0.25182455  1
  O  O214  1  0.49241517  0.63130241  0.75168606  1
  O  O215  1  1.00015471  0.13804831  0.24503922  1
  O  O216  1  0.99881301  0.13763387  0.74171726  1
  O  O217  1  0.99741026  0.63608847  0.24286631  1
  O  O218  1  1.00055900  0.63489543  0.73940904  1
  O  O219  1  0.37316742  0.26790366  -0.00735859  1
  O  O220  1  0.36355648  0.25670331  0.50398452  1
  O  O221  1  0.36922236  0.75138043  0.00796208  1
  O  O222  1  0.37015549  0.75149165  0.50416301  1
  O  O223  1  0.86184996  0.25190105  0.00462669  1
  O  O224  1  0.86538793  0.24664640  0.50984819  1
  O  O225  1  0.87101770  0.75153433  0.01324956  1
  O  O226  1  0.87170451  0.75899795  0.50643174  1
  O  O227  1  0.13686618  0.24443350  0.50158752  1
  O  O228  1  0.12843367  0.25544560  0.98797767  1
  O  O229  1  0.13197732  0.75310181  0.48741143  1
  O  O230  1  0.13951844  0.75523425  0.99189975  1
  O  O231  1  0.63003199  0.24568136  0.49657278  1
  O  O232  1  0.63279816  0.25142801  0.99327778  1
  O  O233  1  0.62742199  0.74373848  0.49164216  1
  O  O234  1  0.62660248  0.74405857  0.99392785  1
  O  O235  1  0.50605235  0.25204649  0.13789737  1
  O  O236  1  0.48333048  0.25719342  0.62419517  1
  O  O237  1  0.48700232  0.75447253  0.12133212  1
  O  O238  1  0.48884902  0.74813378  0.62813423  1
  O  O239  1  0.99270948  0.24029066  0.13301324  1
  O  O240  1  0.99558513  0.24618290  0.62978801  1
  O  O241  1  0.99602653  0.73974326  0.13075211  1
  O  O242  1  0.99508895  0.74375462  0.62912274  1
  O  O243  1  -0.00708899  0.24855373  0.36321183  1
  O  O244  1  0.01109660  0.25293515  0.86598276  1
  O  O245  1  0.01260570  0.74559378  0.36942966  1
  O  O246  1  0.00742329  0.75028499  0.86550861  1
  O  O247  1  0.50240341  0.25964361  0.36879392  1
  O  O248  1  0.50805506  0.25900147  0.87177835  1
  O  O249  1  0.51198825  0.75899495  0.37805623  1
  O  O250  1  0.50569992  0.75626342  0.86871247  1
  O  O251  1  0.24241918  0.14037613  0.50148200  1
  O  O252  1  0.25334034  0.12117593  0.99550467  1
  O  O253  1  0.25387216  0.63555843  0.50406573  1
  O  O254  1  0.25810963  0.62996521  0.99206538  1
  O  O255  1  0.74034773  0.13006355  0.49130388  1
  O  O256  1  0.74479934  0.13409560  0.99283046  1
  O  O257  1  0.73865450  0.62756846  0.49154959  1
  O  O258  1  0.73913937  0.62747558  0.98851989  1
  O  O259  1  0.26437774  0.37510459  0.00380906  1
  O  O260  1  0.25209067  0.36851608  0.50551247  1
  O  O261  1  0.26082261  0.86243350  0.00999904  1
  O  O262  1  0.25835513  0.86412582  0.50092385  1
  O  O263  1  0.75119651  0.36846819  0.00661036  1
  O  O264  1  0.74609278  0.36501147  0.49652094  1
  O  O265  1  0.74960170  0.87394183  0.01344038  1
  O  O266  1  0.75600389  0.87620049  0.51168827  1
  O  O267  1  0.12743567  0.49550101  0.24797472  1
  O  O268  1  0.13254048  0.48694494  0.75399434  1
  O  O269  1  0.12463996  0.98767193  0.24312003  1
  O  O270  1  0.13174440  0.99656779  0.74475811  1
  O  O271  1  0.63318053  0.49505954  0.24420985  1
  O  O272  1  0.62915781  0.49110769  0.74303010  1
  O  O273  1  0.62296421  0.99060368  0.24489341  1
  O  O274  1  0.63093200  0.99447431  0.74839008  1
  O  O275  1  0.37735613  0.01499623  0.25816673  1
  O  O276  1  0.36813925  0.00309078  0.75197778  1
  O  O277  1  0.36686549  0.50802546  0.25534752  1
  O  O278  1  0.36979211  0.50989664  0.74504936  1
  O  O279  1  0.87060683  -0.00708621  0.26552649  1
  O  O280  1  0.87048326  0.00741529  0.75682288  1
  O  O281  1  0.86128272  0.50092822  0.24070594  1
  O  O282  1  0.87098729  0.50474528  0.76175354  1
  O  O283  1  0.11757599  0.38148671  0.36641055  1
  O  O284  1  0.12673131  0.36511532  0.86661485  1
  O  O285  1  0.12751687  0.86762126  0.36494681  1
  O  O286  1  0.11917115  0.86363000  0.86672428  1
  O  O287  1  0.61245196  0.36740605  0.36547873  1
  O  O288  1  0.61889489  0.36658667  0.87000337  1
  O  O289  1  0.61995934  0.87015563  0.36915386  1
  O  O290  1  0.62198627  0.87078365  0.86862997  1
  O  O291  1  0.37875593  0.11896810  0.13892611  1
  O  O292  1  0.36919949  0.13323188  0.63206372  1
  O  O293  1  0.37472798  0.62671876  0.13891519  1
  O  O294  1  0.37861238  0.63041394  0.63273352  1
  O  O295  1  0.87937361  0.13733720  0.12147605  1
  O  O296  1  0.88728367  0.12945778  0.62889251  1
  O  O297  1  0.88430732  0.63131600  0.12652567  1
  O  O298  1  0.87773390  0.63992630  0.62753592  1
  O  O299  1  0.24557145  0.25829036  0.13009091  1
  O  O300  1  0.25962747  0.25814458  0.61920976  1
  O  O301  1  0.25999404  0.74801701  0.11895009  1
  O  O302  1  0.26109178  0.75031721  0.61965864  1
  O  O303  1  0.75406414  0.25390608  0.11961040  1
  O  O304  1  0.76134545  0.24631077  0.61447560  1
  O  O305  1  0.75914435  0.75758066  0.12709385  1
  O  O306  1  0.75834909  0.75865712  0.62463302  1
  O  O307  1  0.25308871  0.25615477  0.38764942  1
  O  O308  1  0.23600143  0.24658473  0.87208675  1
  O  O309  1  0.23705389  0.74819718  0.38227313  1
  O  O310  1  0.24516640  0.74159696  0.88170044  1
  O  O311  1  0.74165090  0.24197345  0.38196268  1
  O  O312  1  0.74471758  0.24818272  0.88201527  1
  O  O313  1  0.73683644  0.74571606  0.37373416  1
  O  O314  1  0.74428512  0.74502629  0.87652903  1
  O  O315  1  -0.00251821  0.12905944  0.01213749  1
  O  O316  1  0.00844454  0.12561005  0.50657983  1
  O  O317  1  0.00197129  0.63076201  0.01404744  1
  O  O318  1  -0.00255126  0.62176517  0.51338110  1
  O  O319  1  0.49871632  0.11312163  -0.00620419  1
  O  O320  1  0.50815122  0.11835865  0.49463451  1
  O  O321  1  0.51305254  0.62216503  -0.00801090  1
  O  O322  1  0.51357408  0.62662001  0.49683993  1
  O  O323  1  0.48550260  0.36959027  0.49067414  1
  O  O324  1  0.48934425  0.37612498  0.98805309  1
  O  O325  1  0.49422824  0.88153435  0.48864742  1
  O  O326  1  0.49608975  0.88161100  0.99306376  1
  O  O327  1  0.99833411  0.38721094  0.49811401  1
  O  O328  1  0.99443305  0.37169546  1.00050778  1
  O  O329  1  0.98656529  0.87801037  0.50559586  1
  O  O330  1  0.98947634  0.85872618  0.98005665  1
  O  O331  1  0.48732071  0.48544858  0.36763581  1
  O  O332  1  0.50680705  0.48374631  0.87633551  1
  O  O333  1  0.49139945  0.99361918  0.38453812  1
  O  O334  1  0.49426884  0.99403862  0.88170556  1
  O  O335  1  0.99480050  0.50287860  0.38804032  1
  O  O336  1  0.98775204  0.50338198  0.87055290  1
  O  O337  1  0.98416104  1.00225383  0.37570054  1
  O  O338  1  0.99262980  0.98965144  0.86578511  1
  O  O339  1  -0.00865873  0.01894089  0.13035590  1
  O  O340  1  0.00664344  0.01026352  0.62472444  1
  O  O341  1  0.00918727  0.51329782  0.13015540  1
  O  O342  1  -0.00144930  0.51533086  0.62423098  1
  O  O343  1  0.50827571  -0.00892679  0.11522349  1
  O  O344  1  0.49957317  -0.00633403  0.60885219  1
  O  O345  1  0.51471025  0.49506162  0.12410520  1
  O  O346  1  0.51813604  0.50211772  0.63039082  1
  O  O347  1  0.23929478  0.38709321  0.25179468  1
  O  O348  1  0.24679673  0.38025535  0.74378112  1
  O  O349  1  0.24670828  0.87510889  0.24784084  1
  O  O350  1  0.24637178  0.88489588  0.74686475  1
  O  O351  1  0.74085496  0.37971116  0.24376515  1
  O  O352  1  0.73551537  0.37237283  0.75451712  1
  O  O353  1  0.74102712  0.87832464  0.23976279  1
  O  O354  1  0.74686424  0.88002688  0.73938998  1
  O  O355  1  0.26232294  0.12482609  0.24862879  1
  O  O356  1  0.25583110  0.11187008  0.75074744  1
  O  O357  1  0.25597098  0.61313771  0.24867671  1
  O  O358  1  0.25663356  0.61667092  0.75492199  1
  O  O359  1  0.74291408  0.12512505  0.26663175  1
  O  O360  1  0.75596023  0.12271323  0.75580594  1
  O  O361  1  0.74933932  0.61616601  0.25800772  1
  O  O362  1  0.75107996  0.62814517  0.76313871  1
  O  O363  1  0.37887679  0.11706717  0.36858168  1
  O  O364  1  0.37262309  0.11619899  0.86389801  1
  O  O365  1  0.37847627  0.61582388  0.36388438  1
  O  O366  1  0.36478428  0.63094323  0.86431350  1
  O  O367  1  0.86444838  0.10962667  0.38230898  1
  O  O368  1  0.87300901  0.12110508  0.86833846  1
  O  O369  1  0.86023043  0.63639138  0.37238398  1
  O  O370  1  0.86861135  0.61879909  0.87483456  1
  O  O371  1  0.11893609  0.38905533  0.13707162  1
  O  O372  1  0.13794740  0.36816992  0.63279821  1
  O  O373  1  0.14418127  0.85241080  0.14537400  1
  O  O374  1  0.12491158  0.88158635  0.63053989  1
  O  O375  1  0.63071471  0.38177213  0.12972508  1
  O  O376  1  0.62237492  0.38427726  0.63076943  1
  O  O377  1  0.63071233  0.88165154  0.13223718  1
  O  O378  1  0.63295648  0.87637257  0.62877351  1
  O  O379  1  0.10824466  0.25957225  0.24982234  1
  O  O380  1  0.12045965  0.25888495  0.75291052  1
  O  O381  1  0.12119415  0.74923184  0.26385537  1
  O  O382  1  0.12155838  0.75456187  0.75563109  1
  O  O383  1  0.61307379  0.25315689  0.25501326  1
  O  O384  1  0.62201787  0.25581512  0.75539321  1
  O  O385  1  0.62531366  0.76333248  0.25503683  1
  O  O386  1  0.61874702  0.75607162  0.75304825  1
  O  O387  1  0.38473060  0.23865887  0.25346022  1
  O  O388  1  0.37479455  0.23885766  0.74141553  1
  O  O389  1  0.37253352  0.73239948  0.24608473  1
  O  O390  1  0.37726059  0.74216476  0.74135283  1
  O  O391  1  0.88664672  0.25099928  0.24088501  1
  O  O392  1  0.88412014  0.24627920  0.74548264  1
  O  O393  1  0.88289852  0.75161853  0.24143560  1
  O  O394  1  0.88564700  0.75040382  0.74222278  1
  O  O395  1  0.36857120  0.48997229  0.49245080  1
  O  O396  1  0.37742069  0.48374550  1.00249193  1
  O  O397  1  0.37901285  0.99773565  0.49340957  1
  O  O398  1  0.38254543  0.98990188  0.99747848  1
  O  O399  1  0.88761396  0.50538378  0.50869807  1
  O  O400  1  0.86786028  0.50221244  0.98453580  1
  O  O401  1  0.87628990  0.99341121  0.49231083  1
  O  O402  1  0.86912543  0.99996427  0.98481296  1
  O  O403  1  0.11445967  -0.04784260  0.02004866  1
  O  O404  1  0.12571481  0.00742191  0.50536131  1
  O  O405  1  0.12860271  0.49409983  0.01407352  1
  O  O406  1  0.10374811  0.50198898  0.50337117  1
  O  O407  1  0.61591975  0.00177401  0.00805705  1
  O  O408  1  0.61610344  0.00926660  0.50065445  1
  O  O409  1  0.62383678  0.50775671  0.00822819  1
  O  O410  1  0.62670304  0.50626491  0.51285746  1
  O  O411  1  0.37611996  0.37528042  0.11801717  1
  O  O412  1  0.36627471  0.37168184  0.61697483  1
  O  O413  1  0.36715314  0.86462058  0.12723152  1
  O  O414  1  0.37378862  0.86458916  0.61597327  1
  O  O415  1  0.86593717  0.36434705  0.12530631  1
  O  O416  1  0.87748727  0.36483015  0.63331958  1
  O  O417  1  0.86864737  0.86990334  0.12461527  1
  O  O418  1  0.86940922  0.86804994  0.62053331  1
  O  O419  1  0.12123517  0.11719827  0.38381843  1
  O  O420  1  0.12473693  0.14034469  0.87036947  1
  O  O421  1  0.12536109  0.63301458  0.37562042  1
  O  O422  1  0.13493726  0.63617518  0.86956363  1
  O  O423  1  0.62858565  0.13050823  0.38485899  1
  O  O424  1  0.62932404  0.13861860  0.87511666  1
  O  O425  1  0.63004738  0.63155839  0.37900371  1
  O  O426  1  0.63127385  0.62995248  0.87899865  1
