# generated using pymatgen
data_V85Zn86O256
_symmetry_space_group_name_H-M   'P 1'
_cell_length_a   16.93044713
_cell_length_b   16.93819865
_cell_length_c   16.94431667
_cell_angle_alpha   89.98523173
_cell_angle_beta   90.00228318
_cell_angle_gamma   90.01111886
_symmetry_Int_Tables_number   1
_chemical_formula_structural   V85Zn86O256
_chemical_formula_sum   'V85 Zn86 O256'
_cell_volume   4859.14306715
_cell_formula_units_Z   1
loop_
 _symmetry_equiv_pos_site_id
 _symmetry_equiv_pos_as_xyz
  1  'x, y, z'
loop_
 _atom_site_type_symbol
 _atom_site_label
 _atom_site_symmetry_multiplicity
 _atom_site_fract_x
 _atom_site_fract_y
 _atom_site_fract_z
 _atom_site_occupancy
  V  V0  1  0.37390461  0.23941170  0.63101961  1
  V  V1  1  0.74671569  0.50083702  0.74282746  1
  V  V2  1  0.74962802  0.13016263  0.87682530  1
  V  V3  1  0.00116336  0.38349784  0.37465350  1
  V  V4  1  0.12324454  -0.00706290  0.63182096  1
  V  V5  1  0.00381501  0.25519575  0.24939430  1
  V  V6  1  0.87583945  0.87473512  0.49907240  1
  V  V7  1  0.88337497  0.62244642  0.74699929  1
  V  V8  1  0.37904425  0.74452246  0.62414831  1
  V  V9  1  0.24676584  0.74012115  0.49844779  1
  V  V10  1  0.87340388  0.00011760  0.37793683  1
  V  V11  1  0.37252585  0.73910149  0.12681499  1
  V  V12  1  0.01308404  0.75009862  0.74948137  1
  V  V13  1  0.73964862  0.38252502  0.13172500  1
  V  V14  1  0.05829191  0.56858118  0.55732985  1
  V  V15  1  0.75372404  0.87424558  0.62828223  1
  V  V16  1  0.38747322  0.00798521  0.86670372  1
  V  V17  1  0.12786129  0.62496687  -0.00130276  1
  V  V18  1  0.49213227  0.73344275  0.25266229  1
  V  V19  1  0.50782201  0.25297131  0.26553899  1
  V  V20  1  0.87756503  -0.00066469  0.87777867  1
  V  V21  1  0.62470016  0.87400630  0.75393259  1
  V  V22  1  0.36974331  0.13127561  0.25165492  1
  V  V23  1  0.50036059  0.74604497  0.74712586  1
  V  V24  1  0.14180759  0.88918646  0.23867424  1
  V  V25  1  0.37705722  0.49899427  0.88278506  1
  V  V26  1  0.74413776  0.24802177  0.00185589  1
  V  V27  1  0.86680035  0.61971935  0.24742843  1
  V  V28  1  0.88256904  0.74465216  0.62490286  1
  V  V29  1  0.50741566  0.49392352  0.51207673  1
  V  V30  1  0.74489454  0.75256748  0.00165366  1
  V  V31  1  0.87743225  0.87482127  0.00015182  1
  V  V32  1  0.61877849  0.37956596  0.74329161  1
  V  V33  1  0.12358608  0.12425145  0.50042845  1
  V  V34  1  0.12890852  0.37857958  0.73486970  1
  V  V35  1  0.00129558  0.75515290  0.24751568  1
  V  V36  1  0.87646524  0.49668412  0.87370664  1
  V  V37  1  0.74027649  0.13216606  0.37383679  1
  V  V38  1  0.87429005  0.37205148  0.00059404  1
  V  V39  1  0.87797744  0.38171502  0.50071153  1
  V  V40  1  0.74504391  0.61724837  0.37273137  1
  V  V41  1  -0.00100103  0.49903203  0.00119660  1
  V  V42  1  0.50551942  0.60989967  0.12103450  1
  V  V43  1  0.62167598  0.74815434  0.88029556  1
  V  V44  1  0.24956767  0.25984963  0.50615149  1
  V  V45  1  0.62416699  0.38440353  0.26705888  1
  V  V46  1  0.61754261  0.12366032  -0.00220656  1
  V  V47  1  0.25368013  0.75622837  0.00238230  1
  V  V48  1  0.50502007  0.37560393  0.87912752  1
  V  V49  1  -0.00526453  0.12340007  0.62534915  1
  V  V50  1  0.37244855  0.90072078  0.02069645  1
  V  V51  1  0.24529018  0.86733457  0.63657490  1
  V  V52  1  0.13138598  0.12344043  0.00551794  1
  V  V53  1  0.74823867  0.74873650  0.50037319  1
  V  V54  1  0.87545202  0.24764233  0.12548193  1
  V  V55  1  0.50384251  0.24027069  0.74602658  1
  V  V56  1  0.49895423  0.12667095  0.12601340  1
  V  V57  1  0.61631038  0.62934193  0.51816866  1
  V  V58  1  -0.00254212  -0.00104951  0.50083020  1
  V  V59  1  0.61737781  -0.00211727  0.12144806  1
  V  V60  1  0.75233296  -0.00091339  0.75452836  1
  V  V61  1  0.87155186  0.74811849  0.12398520  1
  V  V62  1  0.74741568  0.62166259  0.87742080  1
  V  V63  1  0.74798943  -0.00291550  0.24856418  1
  V  V64  1  0.12402848  0.49502706  0.13282213  1
  V  V65  1  0.74821345  0.37394363  0.62417000  1
  V  V66  1  -0.00499272  0.62426814  0.12360362  1
  V  V67  1  0.37337937  0.62303995  0.75024247  1
  V  V68  1  0.24707866  0.12268547  0.37555140  1
  V  V69  1  0.49523740  0.87512991  0.37073332  1
  V  V70  1  0.01281032  0.87508217  0.87224961  1
  V  V71  1  0.61862319  0.87358954  0.24945739  1
  V  V72  1  0.87581940  0.12418621  0.24984995  1
  V  V73  1  0.26032997  0.50322776  0.25212392  1
  V  V74  1  0.00883523  -0.00069350  0.00750841  1
  V  V75  1  0.12958085  0.25140599  0.87584820  1
  V  V76  1  0.36852888  0.87526071  0.49964720  1
  V  V77  1  0.25275711  0.00861739  0.74821895  1
  V  V78  1  0.37630264  0.37780256  0.50263678  1
  V  V79  1  -0.00156968  0.24998231  0.75110080  1
  V  V80  1  0.12546315  0.25616750  0.37289236  1
  V  V81  1  0.24910830  0.37090504  0.12823026  1
  V  V82  1  0.36945569  0.00138874  0.37166796  1
  V  V83  1  0.12688993  0.74775264  0.37206107  1
  V  V84  1  0.62219887  0.74950052  0.37872391  1
  Zn  Zn85  1  0.74533114  0.87447198  0.12548163  1
  Zn  Zn86  1  0.37918343  0.37495296  0.00195638  1
  Zn  Zn87  1  0.37930529  0.25392142  0.12273465  1
  Zn  Zn88  1  0.00393331  0.87702839  0.37247137  1
  Zn  Zn89  1  0.87470900  0.12602427  0.75157813  1
  Zn  Zn90  1  0.87812562  0.50482393  0.37638458  1
  Zn  Zn91  1  0.38423634  0.50264569  0.37784672  1
  Zn  Zn92  1  0.87558467  0.25091567  0.62026399  1
  Zn  Zn93  1  0.49518542  0.87524319  0.88557139  1
  Zn  Zn94  1  0.49937628  0.00678118  0.50421261  1
  Zn  Zn95  1  0.25619761  0.25188213  -0.00274664  1
  Zn  Zn96  1  0.00720270  0.12170297  0.12801617  1
  Zn  Zn97  1  0.61478055  0.00961998  0.62645039  1
  Zn  Zn98  1  0.00273901  0.37360856  0.87444981  1
  Zn  Zn99  1  0.25463071  0.62517741  0.36922015  1
  Zn  Zn100  1  0.13219284  0.75013031  0.87070295  1
  Zn  Zn101  1  0.25751247  0.12744013  0.87163958  1
  Zn  Zn102  1  0.74369625  0.25893067  0.48770899  1
  Zn  Zn103  1  0.61162448  0.60023890  -0.00288911  1
  Zn  Zn104  1  0.61465003  0.13279922  0.51001994  1
  Zn  Zn105  1  0.25476642  0.48751587  0.74287107  1
  Zn  Zn106  1  0.25209382  0.62266503  0.87701429  1
  Zn  Zn107  1  0.18700918  0.18795213  0.18861266  1
  Zn  Zn108  1  0.18407875  0.18978874  0.68456209  1
  Zn  Zn109  1  0.18523979  0.68679600  0.18470161  1
  Zn  Zn110  1  0.19674654  0.64821764  0.66828045  1
  Zn  Zn111  1  0.68521892  0.18885965  0.19043824  1
  Zn  Zn112  1  0.68512173  0.19240092  0.68838838  1
  Zn  Zn113  1  0.67974649  0.68521099  0.18718089  1
  Zn  Zn114  1  0.69408328  0.69148479  0.69246060  1
  Zn  Zn115  1  0.31437533  0.31761850  0.31399654  1
  Zn  Zn116  1  0.31475457  0.31334689  0.81030600  1
  Zn  Zn117  1  0.31079172  0.81072441  0.30694348  1
  Zn  Zn118  1  0.31588255  0.81664672  0.81948336  1
  Zn  Zn119  1  0.81443928  0.31649170  0.31022733  1
  Zn  Zn120  1  0.81135058  0.31223603  0.81108209  1
  Zn  Zn121  1  0.81000998  0.81050140  0.31203086  1
  Zn  Zn122  1  0.81740544  0.80973948  0.81512959  1
  Zn  Zn123  1  0.18264559  0.44050795  0.44067282  1
  Zn  Zn124  1  0.19181860  0.43789242  0.93665974  1
  Zn  Zn125  1  0.18413690  0.93266650  0.43573602  1
  Zn  Zn126  1  0.19511016  0.93927691  0.93690754  1
  Zn  Zn127  1  0.68391373  0.44366247  0.44374866  1
  Zn  Zn128  1  0.68653999  0.43003703  0.93055550  1
  Zn  Zn129  1  0.68486994  0.94173892  0.44006657  1
  Zn  Zn130  1  0.68576702  0.93902621  0.93935235  1
  Zn  Zn131  1  0.32016348  0.06900514  0.05699289  1
  Zn  Zn132  1  0.31157968  0.06284346  0.56050684  1
  Zn  Zn133  1  0.31336651  0.56195080  0.06467979  1
  Zn  Zn134  1  0.31068609  0.55616735  0.56554766  1
  Zn  Zn135  1  0.81120715  0.06068767  0.06382385  1
  Zn  Zn136  1  0.78502101  0.07671731  0.57537577  1
  Zn  Zn137  1  0.78412702  0.54916672  0.04966822  1
  Zn  Zn138  1  0.81515196  0.56256424  0.56010077  1
  Zn  Zn139  1  0.43876125  0.43180509  0.19078398  1
  Zn  Zn140  1  0.43454144  0.43593781  0.68105029  1
  Zn  Zn141  1  0.42058131  0.94116133  0.18491891  1
  Zn  Zn142  1  0.43635737  0.93296472  0.69000252  1
  Zn  Zn143  1  0.93380009  0.43585158  0.18787020  1
  Zn  Zn144  1  0.94488311  0.43874737  0.68206303  1
  Zn  Zn145  1  0.93674796  0.93543399  0.18621562  1
  Zn  Zn146  1  0.93736260  0.93442465  0.69096886  1
  Zn  Zn147  1  0.06158554  0.06362473  0.31120607  1
  Zn  Zn148  1  0.06631363  0.06401949  0.81473133  1
  Zn  Zn149  1  0.06432950  0.56824064  0.31105596  1
  Zn  Zn150  1  0.06312088  0.56077457  0.81184792  1
  Zn  Zn151  1  0.55707581  0.06059512  0.31217850  1
  Zn  Zn152  1  0.56851748  0.06392055  0.81102597  1
  Zn  Zn153  1  0.55941551  0.55863516  0.32186776  1
  Zn  Zn154  1  0.55950277  0.56134243  0.80904833  1
  Zn  Zn155  1  0.43847021  0.18730258  0.44490297  1
  Zn  Zn156  1  0.43726678  0.19168284  0.93268098  1
  Zn  Zn157  1  0.43342892  0.67960052  0.43772563  1
  Zn  Zn158  1  0.43689849  0.68591191  0.94088023  1
  Zn  Zn159  1  0.93142744  0.19179749  0.43776147  1
  Zn  Zn160  1  0.94048188  0.18513630  0.93859782  1
  Zn  Zn161  1  0.93803153  0.68857796  0.43287615  1
  Zn  Zn162  1  0.93770554  0.68750153  0.93498127  1
  Zn  Zn163  1  0.06516816  0.31218074  0.06131553  1
  Zn  Zn164  1  0.05901687  0.31275789  0.55920491  1
  Zn  Zn165  1  0.06645716  0.81292509  0.06404425  1
  Zn  Zn166  1  0.06465129  0.80442009  0.56178065  1
  Zn  Zn167  1  0.56342850  0.30995073  0.06599016  1
  Zn  Zn168  1  0.56310523  0.30889435  0.56172258  1
  Zn  Zn169  1  0.54919304  0.81122123  0.06522274  1
  Zn  Zn170  1  0.55009586  0.84121634  0.57329108  1
  O  O171  1  0.12572620  0.12856876  0.11117318  1
  O  O172  1  0.11224638  0.11727933  0.61970071  1
  O  O173  1  0.11624360  0.61845335  0.11416243  1
  O  O174  1  0.10385221  0.64894985  0.60451953  1
  O  O175  1  0.61913544  0.11816530  0.12026925  1
  O  O176  1  0.67218556  0.10969074  0.61516091  1
  O  O177  1  0.61107341  0.62347841  0.12049894  1
  O  O178  1  0.63196189  0.63355393  0.61575763  1
  O  O179  1  0.36820353  0.37869987  0.39506559  1
  O  O180  1  0.38636132  0.38238788  0.87302861  1
  O  O181  1  0.37403348  0.88288690  0.37783804  1
  O  O182  1  0.37500992  0.88957376  0.88646384  1
  O  O183  1  0.88228095  0.37969217  0.37861539  1
  O  O184  1  0.87628127  0.38077474  0.88092603  1
  O  O185  1  0.87440039  0.88283451  0.38009506  1
  O  O186  1  0.88397487  0.87938612  0.88333263  1
  O  O187  1  0.25269621  0.01481531  0.38339894  1
  O  O188  1  0.25843089  0.00282883  0.86229502  1
  O  O189  1  0.24072207  0.49734601  0.35640736  1
  O  O190  1  0.26095382  0.50117772  0.86615959  1
  O  O191  1  0.75905630  0.00450096  0.36854144  1
  O  O192  1  0.75630759  0.00688223  0.87352525  1
  O  O193  1  0.74994985  0.51489983  0.37745907  1
  O  O194  1  0.76358293  0.49912719  0.85950302  1
  O  O195  1  0.24437841  0.49242413  0.13252246  1
  O  O196  1  0.23641468  0.53998948  0.64510291  1
  O  O197  1  0.33632797  0.96630745  0.10144194  1
  O  O198  1  0.24288697  0.99152767  0.62881570  1
  O  O199  1  0.76355471  0.47856186  0.13841057  1
  O  O200  1  0.75905118  0.49177238  0.63699818  1
  O  O201  1  0.73960165  0.99736779  0.13149517  1
  O  O202  1  0.76313708  0.98094123  0.63714803  1
  O  O203  1  -0.00678991  0.36168968  0.25625200  1
  O  O204  1  0.00847889  0.36525606  0.75148084  1
  O  O205  1  -0.00123203  0.86300983  0.25014057  1
  O  O206  1  -0.00419880  0.86436381  0.76155100  1
  O  O207  1  0.51214662  0.36301436  0.24844377  1
  O  O208  1  0.50644596  0.37286548  0.75243857  1
  O  O209  1  0.49677974  0.86859755  0.25925905  1
  O  O210  1  0.51034200  0.86222778  0.75713663  1
  O  O211  1  0.49218651  0.13508780  0.24742027  1
  O  O212  1  0.51131274  0.14094976  0.74840711  1
  O  O213  1  0.50665481  0.62983843  0.24446995  1
  O  O214  1  0.49229653  0.63847666  0.75391999  1
  O  O215  1  0.99334178  0.13472503  0.24778856  1
  O  O216  1  1.00005178  0.13062168  0.74254917  1
  O  O217  1  0.99303417  0.63716203  0.24332701  1
  O  O218  1  0.98851675  0.63229843  0.75842537  1
  O  O219  1  0.37409154  0.25426918  0.00340768  1
  O  O220  1  0.36759987  0.25588778  0.50908700  1
  O  O221  1  0.36673102  0.75022805  0.00737444  1
  O  O222  1  0.36864615  0.75618749  0.50673635  1
  O  O223  1  0.86802469  0.25074410  0.00757012  1
  O  O224  1  0.86560364  0.26427415  0.49928352  1
  O  O225  1  0.87086077  0.75857383  0.00336683  1
  O  O226  1  0.87084125  0.75384987  0.50723871  1
  O  O227  1  0.13040747  0.24353968  0.49475974  1
  O  O228  1  0.12750569  0.24230544  0.99162956  1
  O  O229  1  0.13572837  0.76265202  0.48391904  1
  O  O230  1  0.13331613  0.74240866  1.00057124  1
  O  O231  1  0.63381543  0.24573139  0.50648771  1
  O  O232  1  0.63745469  0.23997439  1.00609492  1
  O  O233  1  0.62787204  0.74341523  0.49818292  1
  O  O234  1  0.63017204  0.75451791  0.99371801  1
  O  O235  1  0.50156306  0.23916804  0.13495087  1
  O  O236  1  0.48763005  0.25561222  0.63737339  1
  O  O237  1  0.49665599  0.73421768  0.13602235  1
  O  O238  1  0.49087039  0.75983816  0.63509485  1
  O  O239  1  0.99345873  0.24906561  0.13149953  1
  O  O240  1  0.99856905  0.23964406  0.63158876  1
  O  O241  1  0.99274710  0.74473464  0.12902247  1
  O  O242  1  0.98783975  0.76008102  0.63451967  1
  O  O243  1  0.00590734  0.25543930  0.36799505  1
  O  O244  1  0.00744954  0.24873988  0.86699171  1
  O  O245  1  0.00721357  0.75285690  0.36462733  1
  O  O246  1  0.00259647  0.75831512  0.86804086  1
  O  O247  1  0.49677830  0.24725375  0.36327482  1
  O  O248  1  0.49252442  0.26367690  0.85604601  1
  O  O249  1  0.50171415  0.75296739  0.36816077  1
  O  O250  1  0.50945551  0.75180280  0.87280252  1
  O  O251  1  0.24389399  0.13498859  0.49366751  1
  O  O252  1  0.24493856  0.12732512  0.99651223  1
  O  O253  1  0.25356134  0.63862388  0.49791924  1
  O  O254  1  0.24198281  0.63033468  0.99945172  1
  O  O255  1  0.75901294  0.12800858  0.47658377  1
  O  O256  1  0.74238827  0.12937730  0.99699841  1
  O  O257  1  0.74158900  0.63063439  0.49441068  1
  O  O258  1  0.76345195  0.64718776  0.99084792  1
  O  O259  1  0.25202251  0.37546257  0.01434532  1
  O  O260  1  0.25108684  0.36415007  0.49883333  1
  O  O261  1  0.26358693  0.86882282  0.00038172  1
  O  O262  1  0.25782945  0.86920452  0.50473690  1
  O  O263  1  0.75416709  0.36335764  0.01075227  1
  O  O264  1  0.75435605  0.37878728  0.50948982  1
  O  O265  1  0.75613036  0.86609931  -0.00078555  1
  O  O266  1  0.75458130  0.86906670  0.50960482  1
  O  O267  1  0.12714007  0.50354557  0.23494695  1
  O  O268  1  0.12161368  0.47939132  0.75827334  1
  O  O269  1  0.12116791  0.98794984  0.25220390  1
  O  O270  1  0.13004109  1.00055988  0.73753555  1
  O  O271  1  0.61861099  0.48346135  0.25556903  1
  O  O272  1  0.63585143  0.49488440  0.75322929  1
  O  O273  1  0.62596350  0.99349419  0.24119129  1
  O  O274  1  0.63316083  0.98976839  0.74705600  1
  O  O275  1  0.37654332  0.01320743  0.26541514  1
  O  O276  1  0.36607995  -0.00686326  0.75575775  1
  O  O277  1  0.36304445  0.49279200  0.25488416  1
  O  O278  1  0.37637079  0.50932773  0.75431085  1
  O  O279  1  0.87023798  0.00319576  0.25588690  1
  O  O280  1  0.87101770  0.00092725  0.76145427  1
  O  O281  1  0.88141684  0.51701821  0.25192284  1
  O  O282  1  0.87435337  0.50534094  0.75492761  1
  O  O283  1  0.11792619  0.36235700  0.38052611  1
  O  O284  1  0.12346381  0.36129351  0.87553984  1
  O  O285  1  0.12399082  0.86704034  0.36015361  1
  O  O286  1  0.11590940  0.87320307  0.87877795  1
  O  O287  1  0.63390315  0.37510724  0.36579697  1
  O  O288  1  0.61414457  0.37557415  0.86247796  1
  O  O289  1  0.61345397  0.87002570  0.37212024  1
  O  O290  1  0.62402402  0.86898451  0.86824549  1
  O  O291  1  0.38153406  0.13047502  0.13548316  1
  O  O292  1  0.37237181  0.13996942  0.62147238  1
  O  O293  1  0.38700366  0.63106800  0.12181283  1
  O  O294  1  0.37625801  0.63993016  0.63226926  1
  O  O295  1  0.87566884  0.13430441  0.12973408  1
  O  O296  1  0.88326443  0.12450416  0.62649080  1
  O  O297  1  0.87554900  0.63179758  0.12967359  1
  O  O298  1  0.86865003  0.63375561  0.63453871  1
  O  O299  1  0.25000012  0.26292447  0.12662581  1
  O  O300  1  0.25945868  0.24592712  0.61817667  1
  O  O301  1  0.25948723  0.74143575  0.11488011  1
  O  O302  1  0.25500755  0.75367148  0.61761613  1
  O  O303  1  0.75709934  0.25275598  0.12003725  1
  O  O304  1  0.75778895  0.26788737  0.63391539  1
  O  O305  1  0.75136989  0.75202355  0.11706590  1
  O  O306  1  0.76309085  0.75783416  0.62357706  1
  O  O307  1  0.24234814  0.24346250  0.38077650  1
  O  O308  1  0.24399654  0.24658234  0.87383172  1
  O  O309  1  0.24439207  0.75177034  0.38092855  1
  O  O310  1  0.25013658  0.74891815  0.88912582  1
  O  O311  1  0.75369943  0.23489094  0.36588686  1
  O  O312  1  0.75636011  0.23911273  0.88584285  1
  O  O313  1  0.74183341  0.74571521  0.38298151  1
  O  O314  1  0.73910355  0.74645671  0.87948513  1
  O  O315  1  0.00979247  0.11536598  0.00110435  1
  O  O316  1  0.00125533  0.12021564  0.50662043  1
  O  O317  1  0.00371291  0.61934431  0.00519074  1
  O  O318  1  -0.00919674  0.61148790  0.49318723  1
  O  O319  1  0.51098351  0.13264893  0.00722869  1
  O  O320  1  0.50051292  0.12025673  0.50477698  1
  O  O321  1  0.50157664  0.62384886  0.01411356  1
  O  O322  1  0.51345909  0.62630140  0.50599345  1
  O  O323  1  0.49522718  0.38693062  0.50759964  1
  O  O324  1  0.50540762  0.36714017  0.98278906  1
  O  O325  1  0.48238949  0.86677818  0.48197831  1
  O  O326  1  0.47769248  0.87863111  1.00295690  1
  O  O327  1  0.99079392  0.36922351  0.48740339  1
  O  O328  1  0.99155855  0.38082094  0.99971779  1
  O  O329  1  0.99319887  0.88109630  0.49744522  1
  O  O330  1  0.99773688  0.88067780  0.99366797  1
  O  O331  1  0.49912864  0.50796757  0.40222812  1
  O  O332  1  0.49468736  0.48506034  0.87000319  1
  O  O333  1  0.48877483  0.99029862  0.37578303  1
  O  O334  1  0.49038794  0.99560822  0.86001966  1
  O  O335  1  1.00389262  0.48613495  0.36391860  1
  O  O336  1  0.98879487  0.49827497  0.88057747  1
  O  O337  1  0.98762043  1.00018483  0.37894958  1
  O  O338  1  0.99710110  0.99338163  0.88210113  1
  O  O339  1  -0.00551263  0.00115157  0.11067414  1
  O  O340  1  0.00482630  0.00335496  0.62314981  1
  O  O341  1  0.00490644  0.50214041  0.12032482  1
  O  O342  1  0.00711609  0.51312994  0.62687277  1
  O  O343  1  0.50555793  0.01619664  0.13468775  1
  O  O344  1  0.51218012  -0.04356116  0.61202134  1
  O  O345  1  0.49489813  0.51138537  0.13050708  1
  O  O346  1  0.49530822  0.50741363  0.61213330  1
  O  O347  1  0.25016969  0.38434316  0.23692650  1
  O  O348  1  0.23368427  0.37059550  0.74905719  1
  O  O349  1  0.24188719  0.87960764  0.24698695  1
  O  O350  1  0.25228742  0.87920699  0.73903314  1
  O  O351  1  0.73490263  0.36376333  0.24039151  1
  O  O352  1  0.74271315  0.38222339  0.74671615  1
  O  O353  1  0.73895538  0.87960662  0.24911563  1
  O  O354  1  0.74674433  0.87580506  0.74878218  1
  O  O355  1  0.26126201  0.13262344  0.25865608  1
  O  O356  1  0.24418820  0.11146327  0.74611994  1
  O  O357  1  0.24683019  0.60630884  0.24268841  1
  O  O358  1  0.26993373  0.64347195  0.76040840  1
  O  O359  1  0.75539182  0.11760978  0.25597974  1
  O  O360  1  0.75231273  0.12228225  0.76347961  1
  O  O361  1  0.75554451  0.63482147  0.25898158  1
  O  O362  1  0.75899305  0.61839422  0.75719919  1
  O  O363  1  0.36563010  0.12148017  0.37181057  1
  O  O364  1  0.37764004  0.11342642  0.86805670  1
  O  O365  1  0.36755722  0.61685934  0.37601642  1
  O  O366  1  0.37983520  0.61514667  0.86890127  1
  O  O367  1  0.87086250  0.11689616  0.36655719  1
  O  O368  1  0.86738191  0.11662172  0.87821763  1
  O  O369  1  0.86350220  0.62815083  0.36514697  1
  O  O370  1  0.86944484  0.61679489  0.86801968  1
  O  O371  1  0.13562538  0.38309202  0.12082089  1
  O  O372  1  0.12135190  0.37041128  0.63618004  1
  O  O373  1  0.12231626  0.87488764  0.13991461  1
  O  O374  1  0.13362531  0.88191545  0.61852038  1
  O  O375  1  0.63637577  0.37446000  0.12862490  1
  O  O376  1  0.63338412  0.37780076  0.63534347  1
  O  O377  1  0.61880375  0.88220817  0.12927193  1
  O  O378  1  0.64105216  0.86274484  0.64264008  1
  O  O379  1  0.11547355  0.24441581  0.26009981  1
  O  O380  1  0.11618187  0.25567268  0.75526314  1
  O  O381  1  0.11802967  0.75741074  0.25106016  1
  O  O382  1  0.11331324  0.73827374  0.75047494  1
  O  O383  1  0.61248236  0.25479378  0.25015356  1
  O  O384  1  0.61126005  0.26090663  0.74405134  1
  O  O385  1  0.61327896  0.75634624  0.25691331  1
  O  O386  1  0.62130963  0.75317308  0.76075712  1
  O  O387  1  0.38524239  0.24658705  0.24996060  1
  O  O388  1  0.38299456  0.25317491  0.73761627  1
  O  O389  1  0.38308399  0.74721073  0.24329930  1
  O  O390  1  0.38442237  0.75068835  0.74534331  1
  O  O391  1  0.88108610  0.24460053  0.24245785  1
  O  O392  1  0.88844007  0.24849042  0.75046708  1
  O  O393  1  0.88062916  0.74416253  0.24358129  1
  O  O394  1  0.88123432  0.74077855  0.74410389  1
  O  O395  1  0.38212420  0.49300265  0.50490911  1
  O  O396  1  0.37193607  0.49768012  0.98646890  1
  O  O397  1  0.37288940  0.99112518  0.49063166  1
  O  O398  1  0.37841804  1.00512733  0.97426752  1
  O  O399  1  0.87051227  0.48738420  0.49433291  1
  O  O400  1  0.87543661  0.49364530  0.99115144  1
  O  O401  1  0.87756088  0.99512850  0.49171173  1
  O  O402  1  0.88180080  0.99354938  0.99570192  1
  O  O403  1  0.11968465  0.00834277  -0.00650250  1
  O  O404  1  0.11772297  0.00407326  0.50776095  1
  O  O405  1  0.11989691  0.50628554  0.00671538  1
  O  O406  1  0.12396818  0.51073763  0.50402427  1
  O  O407  1  0.62648789  0.00688331  0.01315232  1
  O  O408  1  0.62128889  0.00451069  0.50568228  1
  O  O409  1  0.68283834  0.51610901  -0.00208754  1
  O  O410  1  0.61725901  0.51495525  0.50614195  1
  O  O411  1  0.36430132  0.37489533  0.12304416  1
  O  O412  1  0.37167101  0.36444805  0.61259307  1
  O  O413  1  0.39290409  0.84485168  0.12068662  1
  O  O414  1  0.36414576  0.86585993  0.61641032  1
  O  O415  1  0.86708357  0.36190217  0.12325116  1
  O  O416  1  0.87185435  0.37533389  0.61723451  1
  O  O417  1  0.87113457  0.86701654  0.11700154  1
  O  O418  1  0.87121147  0.86608986  0.62059732  1
  O  O419  1  0.12913299  0.13281656  0.38024678  1
  O  O420  1  0.12798151  0.13571795  0.88296762  1
  O  O421  1  0.13262741  0.64263771  0.36473198  1
  O  O422  1  0.12462126  0.62495844  0.88833676  1
  O  O423  1  0.63964819  0.11706556  0.37005871  1
  O  O424  1  0.63564285  0.11756566  0.88758512  1
  O  O425  1  0.62986219  0.63342291  0.38291247  1
  O  O426  1  0.62867395  0.63176902  0.87848495  1
