# generated using pymatgen
data_V85Zn86O256
_symmetry_space_group_name_H-M   'P 1'
_cell_length_a   16.94205091
_cell_length_b   16.93938137
_cell_length_c   16.95014662
_cell_angle_alpha   89.92190841
_cell_angle_beta   89.98403923
_cell_angle_gamma   90.06604230
_symmetry_Int_Tables_number   1
_chemical_formula_structural   V85Zn86O256
_chemical_formula_sum   'V85 Zn86 O256'
_cell_volume   4864.47839232
_cell_formula_units_Z   1
loop_
 _symmetry_equiv_pos_site_id
 _symmetry_equiv_pos_as_xyz
  1  'x, y, z'
loop_
 _atom_site_type_symbol
 _atom_site_label
 _atom_site_symmetry_multiplicity
 _atom_site_fract_x
 _atom_site_fract_y
 _atom_site_fract_z
 _atom_site_occupancy
  V  V0  1  0.11029718  0.49350819  0.12412305  1
  V  V1  1  0.00144842  0.24607033  0.74502845  1
  V  V2  1  0.24541790  0.86448170  0.62626580  1
  V  V3  1  0.87616793  0.87460605  -0.00007121  1
  V  V4  1  0.87992361  0.88416711  0.49723843  1
  V  V5  1  0.37879180  0.12193304  0.25700655  1
  V  V6  1  0.12649428  0.64419687  0.49546079  1
  V  V7  1  0.62188351  0.62435211  0.49732024  1
  V  V8  1  0.77350205  0.04611380  0.21237744  1
  V  V9  1  0.61413121  0.25105850  0.37238669  1
  V  V10  1  0.12405894  0.24836150  0.87546051  1
  V  V11  1  0.88563204  0.74397988  0.12410611  1
  V  V12  1  0.88785621  0.61853852  0.24561088  1
  V  V13  1  0.75054727  0.75240908  0.50155967  1
  V  V14  1  0.49659942  0.62403486  0.12280637  1
  V  V15  1  0.74961906  0.62449291  0.87431785  1
  V  V16  1  0.74991159  0.74777522  0.00038009  1
  V  V17  1  0.74945761  0.37493149  0.12714526  1
  V  V18  1  0.75201839  0.62380512  0.37471714  1
  V  V19  1  0.74794155  0.86588002  0.13778283  1
  V  V20  1  0.24849923  0.62513733  0.88298442  1
  V  V21  1  0.62143969  0.62313041  -0.00115519  1
  V  V22  1  0.25667045  -0.00273695  0.26088971  1
  V  V23  1  0.62034338  0.25762634  0.87425055  1
  V  V24  1  0.12181194  0.12395568  0.00960588  1
  V  V25  1  0.74903848  0.50108430  0.74949676  1
  V  V26  1  0.10472545  0.62351147  0.00722498  1
  V  V27  1  -0.00080014  -0.00080474  0.00774097  1
  V  V28  1  0.88067462  0.37748541  0.00156692  1
  V  V29  1  0.25717896  0.37656634  0.61296345  1
  V  V30  1  0.49650553  0.25826428  0.75253412  1
  V  V31  1  0.37245453  0.62968512  0.74918038  1
  V  V32  1  0.24784799  0.87686859  0.12515108  1
  V  V33  1  0.24688476  0.12220277  0.87458052  1
  V  V34  1  0.87720150  0.50065503  0.87586815  1
  V  V35  1  0.62363249  0.12481079  -0.00090361  1
  V  V36  1  0.49489536  0.48620441  -0.00306516  1
  V  V37  1  0.50192280  0.87870685  0.37364448  1
  V  V38  1  0.48868636  0.38394699  0.38182623  1
  V  V39  1  0.37140277  0.87203380  -0.00072241  1
  V  V40  1  0.62645579  0.87876962  0.74793204  1
  V  V41  1  0.88083253  0.37695389  0.50120177  1
  V  V42  1  0.24727119  0.49293200  0.25165538  1
  V  V43  1  0.74832132  0.25215341  0.50119606  1
  V  V44  1  0.37411706  0.85630162  0.50575145  1
  V  V45  1  0.62170047  0.12344289  0.49926569  1
  V  V46  1  0.87896116  0.24505626  0.62412927  1
  V  V47  1  0.49885063  0.12668627  0.13009495  1
  V  V48  1  0.61507051  0.37481606  0.25083747  1
  V  V49  1  0.37306795  -0.00109488  0.86790731  1
  V  V50  1  0.49705780  0.12693745  0.62683757  1
  V  V51  1  0.87720508  0.49635397  0.37329125  1
  V  V52  1  0.12526410  0.50121104  0.61589660  1
  V  V53  1  0.87726112  0.62781434  0.74792457  1
  V  V54  1  0.37324064  0.62090902  0.25491048  1
  V  V55  1  0.50641166  0.75204209  0.25075347  1
  V  V56  1  0.00019222  0.37984653  0.87518966  1
  V  V57  1  0.25414975  0.25709084  -0.00069145  1
  V  V58  1  0.87969362  0.75383787  0.62820761  1
  V  V59  1  0.62603168  -0.00801370  0.12983725  1
  V  V60  1  0.75151449  0.11951374  0.87194368  1
  V  V61  1  0.23162619  -0.00421332  0.74245464  1
  V  V62  1  0.12803746  0.86965803  0.26182987  1
  V  V63  1  0.11299263  0.10836267  0.51162098  1
  V  V64  1  0.37740415  0.25521500  0.12408408  1
  V  V65  1  0.62393783  0.74949113  0.87373286  1
  V  V66  1  0.49493405  0.75122437  0.74146961  1
  V  V67  1  0.12470394  0.37668816  0.74710657  1
  V  V68  1  0.37518087  0.48729674  0.87920696  1
  V  V69  1  0.49906667  -0.00147701  0.00047864  1
  V  V70  1  0.00728387  0.75080709  0.25931077  1
  V  V71  1  0.11767140  0.75214171  0.86601372  1
  V  V72  1  0.75001111  0.49948090  0.24940589  1
  V  V73  1  0.75390703  0.25196157  -0.00240562  1
  V  V74  1  0.24607775  0.63824906  0.37654114  1
  V  V75  1  0.62056130  0.50344035  0.62484230  1
  V  V76  1  -0.00328152  0.87718675  0.86451491  1
  V  V77  1  0.00402822  0.63145002  0.62929103  1
  V  V78  1  0.24837983  0.50022960  0.75254284  1
  V  V79  1  0.87737509  0.11856321  0.75180413  1
  V  V80  1  0.74976364  0.37730126  0.62587294  1
  V  V81  1  0.01931142  0.37375810  0.36739428  1
  V  V82  1  0.75692522  0.12580215  0.37804935  1
  V  V83  1  0.48697023  0.00320015  0.49489749  1
  V  V84  1  0.49863696  0.87370403  0.87356771  1
  Zn  Zn85  1  0.87512594  0.00775784  0.37718601  1
  Zn  Zn86  1  0.25015196  0.37641158  0.12452673  1
  Zn  Zn87  1  0.25098339  0.24341629  0.49589880  1
  Zn  Zn88  1  0.62566445  0.00036926  0.62489652  1
  Zn  Zn89  1  0.48284523  0.50130783  0.50101357  1
  Zn  Zn90  1  0.25201453  0.12131345  0.38400415  1
  Zn  Zn91  1  0.37346542  0.75031233  0.12590894  1
  Zn  Zn92  1  0.62908947  0.75556411  0.37012701  1
  Zn  Zn93  1  0.00866903  0.88194558  0.37958353  1
  Zn  Zn94  1  0.13301564  0.24558288  0.37269928  1
  Zn  Zn95  1  0.75092742  0.88117484  0.62467158  1
  Zn  Zn96  1  0.12220832  0.00197196  0.13163985  1
  Zn  Zn97  1  0.48865311  0.62823278  0.61889674  1
  Zn  Zn98  1  0.24357095  0.75010107  0.00239611  1
  Zn  Zn99  1  0.62074352  0.37915480  0.75304604  1
  Zn  Zn100  1  0.87443720  0.21643338  0.14217270  1
  Zn  Zn101  1  0.37214837  0.12649454  0.74901627  1
  Zn  Zn102  1  0.37627583  0.25672847  0.62207102  1
  Zn  Zn103  1  0.62081474  0.49832253  0.12382231  1
  Zn  Zn104  1  0.00856888  0.22329016  0.24047985  1
  Zn  Zn105  1  0.00166704  0.50406161  0.50047623  1
  Zn  Zn106  1  0.75562393  -0.00245203  0.75070828  1
  Zn  Zn107  1  0.19012431  0.18935994  0.19426350  1
  Zn  Zn108  1  0.18602121  0.18555321  0.68262016  1
  Zn  Zn109  1  0.18764477  0.68553979  0.18467218  1
  Zn  Zn110  1  0.18853989  0.68935185  0.68925920  1
  Zn  Zn111  1  0.67969420  0.19632098  0.18488304  1
  Zn  Zn112  1  0.68575220  0.18831375  0.68797516  1
  Zn  Zn113  1  0.68811095  0.68298041  0.18722255  1
  Zn  Zn114  1  0.68695370  0.68980479  0.68557940  1
  Zn  Zn115  1  0.31256770  0.30424565  0.30727536  1
  Zn  Zn116  1  0.30977075  0.31106959  0.80810220  1
  Zn  Zn117  1  0.32297086  0.81312593  0.31436503  1
  Zn  Zn118  1  0.30609938  0.81191887  0.81078477  1
  Zn  Zn119  1  0.80990034  0.30803775  0.31472921  1
  Zn  Zn120  1  0.81163175  0.31092397  0.81089472  1
  Zn  Zn121  1  0.81911103  0.80826953  0.31397417  1
  Zn  Zn122  1  0.81420986  0.81308988  0.81219521  1
  Zn  Zn123  1  0.30857054  0.44419913  0.43167450  1
  Zn  Zn124  1  0.18295983  0.44001325  0.94195807  1
  Zn  Zn125  1  0.19231070  0.93762961  0.44487673  1
  Zn  Zn126  1  0.18318016  0.93664298  0.93551658  1
  Zn  Zn127  1  0.68596767  0.43778924  0.43811312  1
  Zn  Zn128  1  0.68627365  0.43888539  0.93865608  1
  Zn  Zn129  1  0.68671308  0.93970382  0.43606133  1
  Zn  Zn130  1  0.68785339  0.93601865  0.93880856  1
  Zn  Zn131  1  0.31112869  0.06266123  0.06279138  1
  Zn  Zn132  1  0.30910554  0.06301408  0.56509449  1
  Zn  Zn133  1  0.31198892  0.55951686  0.06443483  1
  Zn  Zn134  1  0.30756831  0.57125083  0.56332169  1
  Zn  Zn135  1  0.81154925  0.05503743  0.04397074  1
  Zn  Zn136  1  0.81096593  0.06336411  0.56662806  1
  Zn  Zn137  1  0.81525801  0.55813706  0.06311665  1
  Zn  Zn138  1  0.81254962  0.56455963  0.56225669  1
  Zn  Zn139  1  0.43467381  0.43889589  0.18870594  1
  Zn  Zn140  1  0.43679475  0.44336488  0.69070051  1
  Zn  Zn141  1  0.43752826  0.93521311  0.18801930  1
  Zn  Zn142  1  0.43778549  0.93847706  0.68147006  1
  Zn  Zn143  1  0.94198672  0.36662418  0.18826833  1
  Zn  Zn144  1  0.93941459  0.43897169  0.68705576  1
  Zn  Zn145  1  0.95934956  1.00676045  0.22114030  1
  Zn  Zn146  1  0.94779404  0.94270130  0.67669581  1
  Zn  Zn147  1  0.06648141  0.06739642  0.32392796  1
  Zn  Zn148  1  0.05833820  0.06000169  0.81477952  1
  Zn  Zn149  1  0.06734023  0.55366148  0.31408062  1
  Zn  Zn150  1  0.06347317  0.56493264  0.81104190  1
  Zn  Zn151  1  0.57187239  0.05772725  0.30992541  1
  Zn  Zn152  1  0.56101324  0.06609906  0.81249413  1
  Zn  Zn153  1  0.56333805  0.56241538  0.31208039  1
  Zn  Zn154  1  0.55736939  0.56221797  0.81300057  1
  Zn  Zn155  1  0.43075414  0.19585476  0.44053437  1
  Zn  Zn156  1  0.43596989  0.18663004  0.93767709  1
  Zn  Zn157  1  0.43663266  0.68442425  0.43162986  1
  Zn  Zn158  1  0.43527198  0.68605898  0.93432637  1
  Zn  Zn159  1  0.94671133  0.19131830  0.43733298  1
  Zn  Zn160  1  0.93853843  0.18740688  0.93611657  1
  Zn  Zn161  1  0.93872223  0.68857109  0.44033916  1
  Zn  Zn162  1  0.93745954  0.68994056  0.93420143  1
  Zn  Zn163  1  0.06306612  0.30959392  0.06431692  1
  Zn  Zn164  1  0.06901547  0.30701211  0.55633933  1
  Zn  Zn165  1  0.06340673  0.81291332  0.06563932  1
  Zn  Zn166  1  0.06055477  0.82120446  0.56663479  1
  Zn  Zn167  1  0.56225074  0.30955187  0.06321316  1
  Zn  Zn168  1  0.55968503  0.31395880  0.56215259  1
  Zn  Zn169  1  0.56113055  0.81051675  0.06283111  1
  Zn  Zn170  1  0.56270899  0.81375482  0.56085257  1
  O  O171  1  0.13361016  0.12254272  0.11138163  1
  O  O172  1  0.12476054  0.12469921  0.61286566  1
  O  O173  1  0.12505847  0.61795764  0.11142437  1
  O  O174  1  0.12021272  0.62409617  0.62173452  1
  O  O175  1  0.61818583  0.12144560  0.11704099  1
  O  O176  1  0.61423712  0.12786947  0.61694418  1
  O  O177  1  0.61243919  0.62243840  0.11891847  1
  O  O178  1  0.62530834  0.61591554  0.61818531  1
  O  O179  1  0.38592518  0.37551548  0.36847766  1
  O  O180  1  0.36798488  0.38839037  0.87079037  1
  O  O181  1  0.38772997  0.87021595  0.39195074  1
  O  O182  1  0.37730940  0.88057598  0.87991914  1
  O  O183  1  0.87438900  0.38588499  0.38408075  1
  O  O184  1  0.87999523  0.37876094  0.87996735  1
  O  O185  1  0.87027631  0.87450660  0.39184125  1
  O  O186  1  0.88755847  0.86175876  0.88724449  1
  O  O187  1  0.25704644  -0.00399506  0.36278977  1
  O  O188  1  0.25459000  -0.00054463  0.86344176  1
  O  O189  1  0.24758131  0.51023010  0.35590490  1
  O  O190  1  0.25244993  0.50763882  0.87353044  1
  O  O191  1  0.74925036  0.01731274  0.37807118  1
  O  O192  1  0.74438482  0.01489383  0.87386811  1
  O  O193  1  0.75730720  0.50357303  0.37091264  1
  O  O194  1  0.75412558  0.50577566  0.86846075  1
  O  O195  1  0.24627392  0.49863709  0.13437498  1
  O  O196  1  0.24222737  0.49382604  0.63256301  1
  O  O197  1  0.25075044  0.98768578  0.13006712  1
  O  O198  1  0.25629795  0.99152513  0.64084637  1
  O  O199  1  0.74313520  0.48979142  0.12774487  1
  O  O200  1  0.74339521  0.49761295  0.63054319  1
  O  O201  1  0.74409615  0.98511853  0.11794965  1
  O  O202  1  0.74305015  0.99975950  0.63237864  1
  O  O203  1  0.01520144  0.39455844  0.26839772  1
  O  O204  1  0.00432668  0.36707819  0.75533188  1
  O  O205  1  0.01668771  0.86332081  0.24829845  1
  O  O206  1  -0.01300985  0.87827376  0.76619677  1
  O  O207  1  0.50967142  0.38304731  0.25982920  1
  O  O208  1  0.50156089  0.36297423  0.74572665  1
  O  O209  1  0.49409433  0.86558757  0.25955375  1
  O  O210  1  0.50426652  0.86893929  0.75439155  1
  O  O211  1  0.49662848  0.11208072  0.23651059  1
  O  O212  1  0.50075849  0.13508513  0.74184215  1
  O  O213  1  0.49268877  0.62616754  0.24341684  1
  O  O214  1  0.48971368  0.63418990  0.75095819  1
  O  O215  1  1.00013108  0.11044209  0.24232331  1
  O  O216  1  0.99257968  0.13841992  0.76111382  1
  O  O217  1  0.99114868  0.62695282  0.25658206  1
  O  O218  1  0.99369473  0.62205622  0.73734326  1
  O  O219  1  0.36458246  0.24065025  0.00880420  1
  O  O220  1  0.36592368  0.25012253  0.51009892  1
  O  O221  1  0.37278189  0.76311500  -0.00328143  1
  O  O222  1  0.38247246  0.75793737  0.50488152  1
  O  O223  1  0.86328062  0.25565792  -0.00065631  1
  O  O224  1  0.87186121  0.25814858  0.50767411  1
  O  O225  1  0.87008894  0.74913220  0.00741549  1
  O  O226  1  0.86822018  0.75621216  0.50901525  1
  O  O227  1  0.13169062  0.23944489  0.49538788  1
  O  O228  1  0.12982832  0.24213489  0.99405021  1
  O  O229  1  0.11992625  0.74288087  0.50304266  1
  O  O230  1  0.12245116  0.73612390  0.99602001  1
  O  O231  1  0.62624624  0.24175157  0.49470542  1
  O  O232  1  0.63437234  0.24567157  0.99426727  1
  O  O233  1  0.63283344  0.73942525  0.50159509  1
  O  O234  1  0.62853386  0.74265784  0.99365393  1
  O  O235  1  0.49262897  0.23658869  0.11739457  1
  O  O236  1  0.49983437  0.24492071  0.63351902  1
  O  O237  1  0.49741840  0.74213236  0.13067664  1
  O  O238  1  0.50482713  0.74694214  0.63834451  1
  O  O239  1  0.98325023  0.26701599  0.12954440  1
  O  O240  1  0.99168840  0.26053412  0.63590442  1
  O  O241  1  0.98838788  0.75140006  0.13272527  1
  O  O242  1  0.99138274  0.74481455  0.62392500  1
  O  O243  1  -0.00159301  0.26803117  0.37045826  1
  O  O244  1  0.00320012  0.26162914  0.86746230  1
  O  O245  1  -0.00826020  0.75481509  0.36184322  1
  O  O246  1  0.00946352  0.75972639  0.87814400  1
  O  O247  1  0.50928696  0.26295545  0.37901382  1
  O  O248  1  0.50831823  0.24276637  0.86723233  1
  O  O249  1  0.50326573  0.75565576  0.36670700  1
  O  O250  1  0.50604842  0.75533818  0.86757363  1
  O  O251  1  0.24049889  0.12129775  0.50158483  1
  O  O252  1  0.24163032  0.12831818  0.99180627  1
  O  O253  1  0.24197146  0.62833919  0.48502989  1
  O  O254  1  0.24765613  0.62703019  0.99036592  1
  O  O255  1  0.74038974  0.13333214  0.49740492  1
  O  O256  1  0.74529530  0.13397668  0.99057956  1
  O  O257  1  0.74501798  0.63227818  0.49470121  1
  O  O258  1  0.74270827  0.62790576  0.99482989  1
  O  O259  1  0.24707565  0.35983829  -0.00358194  1
  O  O260  1  0.24811584  0.37970442  0.51248467  1
  O  O261  1  0.25502212  0.87488573  0.00580951  1
  O  O262  1  0.26579122  0.87661245  0.51160689  1
  O  O263  1  0.75422174  0.36886616  0.00478813  1
  O  O264  1  0.75939823  0.37157714  0.50542869  1
  O  O265  1  0.75707735  0.86474794  -0.00005428  1
  O  O266  1  0.75607590  0.86724986  0.50213055  1
  O  O267  1  0.13869798  0.50996861  0.23427454  1
  O  O268  1  0.12971359  0.49775695  0.74159340  1
  O  O269  1  0.14319911  0.98900902  0.24835679  1
  O  O270  1  0.13347435  0.99738248  0.75284345  1
  O  O271  1  0.63234408  0.49319882  0.24828419  1
  O  O272  1  0.62816645  0.50055463  0.74279883  1
  O  O273  1  0.65116943  1.01424835  0.23041106  1
  O  O274  1  0.62111350  0.98659665  0.75335988  1
  O  O275  1  0.36464039  0.00514559  0.24261487  1
  O  O276  1  0.37845025  0.00039441  0.76195752  1
  O  O277  1  0.36359356  0.51306819  0.24260988  1
  O  O278  1  0.36907389  0.50914775  0.76058216  1
  O  O279  1  0.84702497  -0.01187291  0.25113725  1
  O  O280  1  0.87755689  0.01578732  0.74476397  1
  O  O281  1  0.86843989  0.50479186  0.25924524  1
  O  O282  1  0.86900569  0.50604080  0.75507869  1
  O  O283  1  0.11456847  0.37590975  0.38863753  1
  O  O284  1  0.11679738  0.37122835  0.87054968  1
  O  O285  1  0.13051855  0.87477241  0.36560622  1
  O  O286  1  0.11333694  0.86049749  0.87971810  1
  O  O287  1  0.61913164  0.36975917  0.36930965  1
  O  O288  1  0.62971204  0.36156883  0.87431950  1
  O  O289  1  0.60966548  0.87119615  0.38400130  1
  O  O290  1  0.61847989  0.86926019  0.87007807  1
  O  O291  1  0.38363746  0.12703383  0.12917404  1
  O  O292  1  0.38866569  0.12265913  0.62904253  1
  O  O293  1  0.38473758  0.62815477  0.12898352  1
  O  O294  1  0.37001785  0.62496975  0.64432781  1
  O  O295  1  0.83345883  0.10849611  0.14168865  1
  O  O296  1  0.87033340  0.13990532  0.63228989  1
  O  O297  1  0.86944883  0.63022172  0.13508006  1
  O  O298  1  0.88326839  0.63264945  0.62706766  1
  O  O299  1  0.25841986  0.25062954  0.11571308  1
  O  O300  1  0.24884500  0.27044929  0.63213356  1
  O  O301  1  0.25378165  0.76173716  0.12266614  1
  O  O302  1  0.25676203  0.76534239  0.63878295  1
  O  O303  1  0.75141200  0.26129615  0.11611860  1
  O  O304  1  0.75632180  0.25748959  0.62066743  1
  O  O305  1  0.75381063  0.74995835  0.11718904  1
  O  O306  1  0.75698457  0.75069827  0.61378148  1
  O  O307  1  0.25311657  0.24052735  0.37535087  1
  O  O308  1  0.24467045  0.24270932  0.87945393  1
  O  O309  1  0.25058135  0.73677789  0.36515917  1
  O  O310  1  0.23548044  0.74445229  0.87838334  1
  O  O311  1  0.73757386  0.24895912  0.38449947  1
  O  O312  1  0.74269060  0.24387198  0.88068963  1
  O  O313  1  0.75053176  0.74349886  0.38610956  1
  O  O314  1  0.74476483  0.74286236  0.88018949  1
  O  O315  1  0.00770395  0.11400214  -0.00744899  1
  O  O316  1  0.01180262  0.12509251  0.49837818  1
  O  O317  1  0.00637988  0.62235503  -0.00110496  1
  O  O318  1  0.00655179  0.62553022  0.51071517  1
  O  O319  1  0.50330710  0.11588418  0.00784147  1
  O  O320  1  0.50443368  0.12146378  0.50432574  1
  O  O321  1  0.50303867  0.62242019  0.00682234  1
  O  O322  1  0.50849287  0.62407203  0.50048288  1
  O  O323  1  0.50380358  0.37996393  0.48527732  1
  O  O324  1  0.50487380  0.38736612  1.00259984  1
  O  O325  1  0.49168829  0.88255097  0.49808607  1
  O  O326  1  0.49226656  0.87916708  0.99392279  1
  O  O327  1  0.98865400  0.37696981  0.49701969  1
  O  O328  1  0.98779395  0.37003361  0.98913161  1
  O  O329  1  0.98414285  0.87113547  0.49660240  1
  O  O330  1  0.99278785  0.87771618  0.99612975  1
  O  O331  1  0.50435948  0.48703864  0.37788766  1
  O  O332  1  0.48789739  0.50439143  0.88461662  1
  O  O333  1  0.50763661  0.99255211  0.38207626  1
  O  O334  1  0.49246078  0.99558107  0.88113930  1
  O  O335  1  0.99317106  0.49295922  0.38237243  1
  O  O336  1  0.99473109  0.48740872  0.86684662  1
  O  O337  1  0.98350322  0.98869963  0.34422182  1
  O  O338  1  1.00639083  0.98188655  0.88587728  1
  O  O339  1  0.00194081  -0.00798228  0.11186983  1
  O  O340  1  0.01655394  0.00659071  0.62184979  1
  O  O341  1  0.01423193  0.48992469  0.13163478  1
  O  O342  1  0.00785346  0.50907169  0.62413673  1
  O  O343  1  0.50931347  0.00093891  0.11975828  1
  O  O344  1  0.50539089  0.00904444  0.61569109  1
  O  O345  1  0.49867253  0.50715810  0.11625285  1
  O  O346  1  0.50767299  0.50557036  0.62326062  1
  O  O347  1  0.25658396  0.39039521  0.24841423  1
  O  O348  1  0.24009753  0.38353719  0.74742782  1
  O  O349  1  0.25288117  0.88009044  0.24462076  1
  O  O350  1  0.25502041  0.88726536  0.74105283  1
  O  O351  1  0.74013007  0.37937599  0.24221041  1
  O  O352  1  0.74748360  0.38207257  0.74308765  1
  O  O353  1  0.74732411  0.85579515  0.23687123  1
  O  O354  1  0.74115017  0.87724701  0.75149679  1
  O  O355  1  0.26040554  0.10872450  0.24830646  1
  O  O356  1  0.24977402  0.11177688  0.75421166  1
  O  O357  1  0.25605107  0.62118090  0.25476022  1
  O  O358  1  0.25226834  0.62060479  0.76313488  1
  O  O359  1  0.74354907  0.13793667  0.26448161  1
  O  O360  1  0.75747886  0.12716465  0.75686012  1
  O  O361  1  0.75845389  0.61908656  0.25646403  1
  O  O362  1  0.75527576  0.62079601  0.75426905  1
  O  O363  1  0.38370389  0.12675240  0.35893181  1
  O  O364  1  0.36582196  0.11426094  0.87495125  1
  O  O365  1  0.36170430  0.62639181  0.36612988  1
  O  O366  1  0.36401033  0.62038325  0.86902624  1
  O  O367  1  0.86043070  0.13173192  0.38417028  1
  O  O368  1  0.86357180  0.13393975  0.86460149  1
  O  O369  1  0.87298915  0.61352548  0.37172027  1
  O  O370  1  0.87106110  0.62096846  0.86831253  1
  O  O371  1  0.13139973  0.39061291  0.11203528  1
  O  O372  1  0.13044611  0.38474740  0.62803451  1
  O  O373  1  0.13497748  0.87576061  0.13284641  1
  O  O374  1  0.14548117  0.87209599  0.62029467  1
  O  O375  1  0.62999290  0.37391138  0.13332264  1
  O  O376  1  0.62982994  0.38878402  0.62292371  1
  O  O377  1  0.63322639  0.88199024  0.11795138  1
  O  O378  1  0.62680413  0.87586704  0.63467919  1
  O  O379  1  0.12051639  0.24645613  0.25663474  1
  O  O380  1  0.11783690  0.25421963  0.75497725  1
  O  O381  1  0.11738476  0.75440294  0.24412351  1
  O  O382  1  0.12141756  0.74101788  0.76788016  1
  O  O383  1  0.62453114  0.26222889  0.26025154  1
  O  O384  1  0.61767566  0.25255688  0.75859691  1
  O  O385  1  0.61069238  0.74031479  0.25057622  1
  O  O386  1  0.61907294  0.75908612  0.75477158  1
  O  O387  1  0.37212869  0.23417865  0.23492977  1
  O  O388  1  0.38235206  0.24618204  0.74688546  1
  O  O389  1  0.38675464  0.73858618  0.24779188  1
  O  O390  1  0.38478484  0.74320397  0.76213671  1
  O  O391  1  0.88550643  0.27341327  0.24213195  1
  O  O392  1  0.88219392  0.24572680  0.74257691  1
  O  O393  1  0.88210051  0.73868686  0.24295719  1
  O  O394  1  0.86719476  0.74433036  0.73541117  1
  O  O395  1  0.37070995  0.50576690  0.50053621  1
  O  O396  1  0.38308233  0.50408735  0.99163280  1
  O  O397  1  0.38603676  0.99880721  0.50112591  1
  O  O398  1  0.37657627  0.98978307  0.98972732  1
  O  O399  1  0.87541500  0.49324892  0.49436720  1
  O  O400  1  0.86922244  0.49051462  0.98696701  1
  O  O401  1  0.86940162  0.98704156  0.50077338  1
  O  O402  1  0.88344204  0.98494315  0.99585794  1
  O  O403  1  0.11807486  0.00703398  0.00133518  1
  O  O404  1  0.12260378  0.00641580  0.49919298  1
  O  O405  1  0.12558738  0.51437141  0.00929002  1
  O  O406  1  0.12482256  0.51467084  0.51478455  1
  O  O407  1  0.62108991  0.00525139  0.00832586  1
  O  O408  1  0.61838739  0.01455006  0.49956163  1
  O  O409  1  0.61504034  0.50791639  -0.00170246  1
  O  O410  1  0.62678770  0.51226074  0.50688872  1
  O  O411  1  0.37659466  0.35897173  0.12902896  1
  O  O412  1  0.35880218  0.38103188  0.63296620  1
  O  O413  1  0.36983779  0.87402168  0.11432160  1
  O  O414  1  0.37194992  0.87677457  0.61167263  1
  O  O415  1  0.86141347  0.38904138  0.11030512  1
  O  O416  1  0.87048723  0.36986140  0.61895613  1
  O  O417  1  0.86262344  0.85852939  0.11149736  1
  O  O418  1  0.87431334  0.86968117  0.61630700  1
  O  O419  1  0.13232589  0.12269459  0.39109696  1
  O  O420  1  0.12923284  0.13016139  0.88091496  1
  O  O421  1  0.13532407  0.62290004  0.38212473  1
  O  O422  1  0.12666240  0.63063104  0.88642270  1
  O  O423  1  0.62751605  0.13454668  0.38182356  1
  O  O424  1  0.63069254  0.13425630  0.88029125  1
  O  O425  1  0.63228995  0.62644573  0.38265805  1
  O  O426  1  0.62913184  0.63011468  0.87845417  1
