# generated using pymatgen
data_V85Zn86O256
_symmetry_space_group_name_H-M   'P 1'
_cell_length_a   16.92551536
_cell_length_b   16.93188585
_cell_length_c   16.92424551
_cell_angle_alpha   89.97879481
_cell_angle_beta   90.00359375
_cell_angle_gamma   90.06075595
_symmetry_Int_Tables_number   1
_chemical_formula_structural   V85Zn86O256
_chemical_formula_sum   'V85 Zn86 O256'
_cell_volume   4850.16234195
_cell_formula_units_Z   1
loop_
 _symmetry_equiv_pos_site_id
 _symmetry_equiv_pos_as_xyz
  1  'x, y, z'
loop_
 _atom_site_type_symbol
 _atom_site_label
 _atom_site_symmetry_multiplicity
 _atom_site_fract_x
 _atom_site_fract_y
 _atom_site_fract_z
 _atom_site_occupancy
  V  V0  1  0.49158247  0.62589061  0.62745025  1
  V  V1  1  0.00106221  0.62311467  0.12563990  1
  V  V2  1  0.87944615  0.62282471  0.74431997  1
  V  V3  1  0.75349623  0.00415758  0.75168397  1
  V  V4  1  0.75760710  0.87680240  0.12103891  1
  V  V5  1  0.87594523  0.49746571  0.37567478  1
  V  V6  1  0.12598183  0.25175078  0.87636726  1
  V  V7  1  0.74444405  0.87411634  0.63473651  1
  V  V8  1  -0.01210456  0.24770825  0.74769173  1
  V  V9  1  0.12634776  0.49744246  0.12404711  1
  V  V10  1  0.87232764  0.87659693  0.50116206  1
  V  V11  1  0.86569197  0.37188813  -0.00064974  1
  V  V12  1  0.87624521  0.75041862  0.62766263  1
  V  V13  1  0.75225062  0.00678092  0.24863780  1
  V  V14  1  -0.00060444  0.49923012  -0.00275442  1
  V  V15  1  0.50507633  0.87554171  0.86817621  1
  V  V16  1  0.25630365  0.62596534  0.87810221  1
  V  V17  1  0.12967328  0.88036895  0.75370359  1
  V  V18  1  -0.00245521  0.12369750  0.12164608  1
  V  V19  1  0.62682651  0.24977277  0.38193666  1
  V  V20  1  0.37340467  0.49840649  0.37813670  1
  V  V21  1  0.37228816  0.86913628  -0.00262877  1
  V  V22  1  0.37480344  0.37048952  0.50947446  1
  V  V23  1  0.74538079  0.49941520  0.73512312  1
  V  V24  1  0.62471036  0.75029872  0.86656234  1
  V  V25  1  0.37260095  0.25243498  0.11176096  1
  V  V26  1  -0.00383639  0.24228323  0.24903217  1
  V  V27  1  0.75319833  0.75025491  0.49979894  1
  V  V28  1  0.12911084  0.37292823  0.24882423  1
  V  V29  1  0.25164129  0.00148864  0.75977570  1
  V  V30  1  0.25289984  0.13353258  0.88549213  1
  V  V31  1  -0.00008605  0.37296321  0.37724460  1
  V  V32  1  -0.00011018  0.50491859  0.50385883  1
  V  V33  1  0.74992525  0.62542568  0.37466134  1
  V  V34  1  0.61870417  0.62467304  0.00650271  1
  V  V35  1  0.87554626  0.00403311  0.36957731  1
  V  V36  1  0.87348384  0.49867736  0.87236600  1
  V  V37  1  0.62102151  -0.00339334  0.62957439  1
  V  V38  1  0.62683300  0.87671654  0.24982252  1
  V  V39  1  0.49407320  -0.00479552  0.49736576  1
  V  V40  1  0.75726724  0.13647347  0.87778967  1
  V  V41  1  0.50123617  0.74616587  0.24269610  1
  V  V42  1  0.00806790  0.75183212  0.25402817  1
  V  V43  1  0.37682426  0.14105113  0.74826937  1
  V  V44  1  0.62322239  0.37566039  0.24984673  1
  V  V45  1  0.24488673  0.62733582  0.38649628  1
  V  V46  1  0.62484166  0.75117238  0.37527204  1
  V  V47  1  0.25617470  0.12167075  0.37563042  1
  V  V48  1  0.49585453  0.25040878  0.25130098  1
  V  V49  1  0.25143588  0.37108010  0.10825967  1
  V  V50  1  0.50341673  0.50009331  0.50465770  1
  V  V51  1  0.37697446  0.11742750  0.25191031  1
  V  V52  1  -0.00725753  0.00421210  0.50437809  1
  V  V53  1  0.49343859  0.49502848  0.00550107  1
  V  V54  1  -0.02209121  0.12401663  0.63147272  1
  V  V55  1  0.00345169  0.74764429  0.74908743  1
  V  V56  1  0.75565702  0.75193191  -0.00187054  1
  V  V57  1  0.12013859  0.51093333  0.62373718  1
  V  V58  1  0.49478035  0.13492084  0.62738562  1
  V  V59  1  0.37948502  0.00148445  0.87508668  1
  V  V60  1  0.74782811  0.62250403  0.87322589  1
  V  V61  1  0.61680164  0.37385021  0.74692383  1
  V  V62  1  0.16125260  -0.01041703  0.60002755  1
  V  V63  1  0.62627770  0.62219707  0.50708383  1
  V  V64  1  0.74766646  0.35328229  0.62154720  1
  V  V65  1  0.50649066  -0.00000796  0.00145928  1
  V  V66  1  0.36346339  0.76302359  0.60972985  1
  V  V67  1  0.86701370  0.24756726  0.12493295  1
  V  V68  1  0.24954328  0.87321494  0.12438452  1
  V  V69  1  0.37194877  0.74195793  0.11930389  1
  V  V70  1  0.48948641  0.74791899  0.74843736  1
  V  V71  1  0.37740976  0.49678883  0.86955096  1
  V  V72  1  0.87050764  0.36190943  0.50358121  1
  V  V73  1  0.75021453  0.49868168  0.24638194  1
  V  V74  1  0.37764658  0.62086327  0.24679612  1
  V  V75  1  0.25344780  0.24664261  0.51202107  1
  V  V76  1  0.87516353  0.62881664  0.25092217  1
  V  V77  1  -0.00396180  0.87486378  0.88313965  1
  V  V78  1  0.61641345  0.25109533  0.87758849  1
  V  V79  1  0.12808231  0.24786678  0.37712310  1
  V  V80  1  0.87309423  -0.00193782  0.88162023  1
  V  V81  1  0.48701009  0.87763629  0.37538874  1
  V  V82  1  0.75158341  0.12825414  0.38074941  1
  V  V83  1  0.25265531  0.50372261  0.74656888  1
  V  V84  1  0.13150631  0.74864908  0.88185414  1
  Zn  Zn85  1  0.00505962  0.87774968  0.37619542  1
  Zn  Zn86  1  0.74483218  0.37089059  0.12044941  1
  Zn  Zn87  1  0.87917794  0.75341353  0.11913350  1
  Zn  Zn88  1  0.61889069  0.50393382  0.12762958  1
  Zn  Zn89  1  0.25121999  -0.00172933  0.24925887  1
  Zn  Zn90  1  0.50263257  0.12603169  0.12368359  1
  Zn  Zn91  1  0.12690117  0.12592022  0.00145832  1
  Zn  Zn92  1  0.62608825  0.00432690  0.12473179  1
  Zn  Zn93  1  0.49892321  0.37380606  0.37830400  1
  Zn  Zn94  1  0.12066935  0.12968321  0.50530740  1
  Zn  Zn95  1  0.00026943  -0.00199439  0.00206096  1
  Zn  Zn96  1  0.14250743  0.75710005  0.40259646  1
  Zn  Zn97  1  0.12730452  0.00300300  0.12481981  1
  Zn  Zn98  1  0.62914978  0.13435642  0.00490724  1
  Zn  Zn99  1  0.12940277  0.87682472  0.25366606  1
  Zn  Zn100  1  -0.00120634  0.37366722  0.87099090  1
  Zn  Zn101  1  0.24758625  0.37271321  0.62781448  1
  Zn  Zn102  1  0.13042366  0.62595689  0.00208082  1
  Zn  Zn103  1  0.12377258  0.37212345  0.74519695  1
  Zn  Zn104  1  0.62633429  0.12750887  0.50451138  1
  Zn  Zn105  1  0.25115563  0.49823985  0.24980756  1
  Zn  Zn106  1  0.49259648  0.37156566  0.87251673  1
  Zn  Zn107  1  0.18909780  0.18757354  0.18618269  1
  Zn  Zn108  1  0.18000434  0.17643839  0.69220833  1
  Zn  Zn109  1  0.19221017  0.68410991  0.18950079  1
  Zn  Zn110  1  0.19106840  0.68697344  0.68899123  1
  Zn  Zn111  1  0.68469736  0.18667225  0.19125621  1
  Zn  Zn112  1  0.68060581  0.18355498  0.69521749  1
  Zn  Zn113  1  0.68893794  0.68942543  0.18409980  1
  Zn  Zn114  1  0.68514006  0.68655011  0.68748843  1
  Zn  Zn115  1  0.31257217  0.31084822  0.31518236  1
  Zn  Zn116  1  0.30834206  0.31709261  0.81364547  1
  Zn  Zn117  1  0.31250362  0.80709581  0.30928893  1
  Zn  Zn118  1  0.31321153  0.81148877  0.81011650  1
  Zn  Zn119  1  0.81228535  0.31141163  0.31136554  1
  Zn  Zn120  1  0.81083233  0.31451617  0.80907762  1
  Zn  Zn121  1  0.81697433  0.81481038  0.31173752  1
  Zn  Zn122  1  0.81314442  0.81356013  0.81344171  1
  Zn  Zn123  1  0.18794271  0.43835683  0.44296506  1
  Zn  Zn124  1  0.18466049  0.43790990  0.93080588  1
  Zn  Zn125  1  0.18497693  0.94334810  0.43041033  1
  Zn  Zn126  1  0.18657935  0.94014410  0.94245025  1
  Zn  Zn127  1  0.68830362  0.43614940  0.43886748  1
  Zn  Zn128  1  0.68379610  0.43935613  0.93367975  1
  Zn  Zn129  1  0.68402780  0.93973727  0.43977662  1
  Zn  Zn130  1  0.68802948  0.93588467  0.93558408  1
  Zn  Zn131  1  0.31829040  0.06021882  0.06423136  1
  Zn  Zn132  1  0.31426661  0.05317133  0.55780517  1
  Zn  Zn133  1  0.31259267  0.55939754  0.06057260  1
  Zn  Zn134  1  0.31431343  0.56405276  0.56567645  1
  Zn  Zn135  1  0.81391201  0.06542394  0.05998323  1
  Zn  Zn136  1  0.80751636  0.06425737  0.56223966  1
  Zn  Zn137  1  0.81100323  0.56311683  0.06258860  1
  Zn  Zn138  1  0.81953354  0.56113103  0.56005700  1
  Zn  Zn139  1  0.43626476  0.43417638  0.18580473  1
  Zn  Zn140  1  0.43538651  0.44034872  0.68668973  1
  Zn  Zn141  1  0.43781553  0.93364857  0.18433856  1
  Zn  Zn142  1  0.43517129  0.93815064  0.68834732  1
  Zn  Zn143  1  0.93813190  0.43262314  0.18668057  1
  Zn  Zn144  1  0.93572590  0.43221582  0.68328417  1
  Zn  Zn145  1  0.93780046  0.93800052  0.18768796  1
  Zn  Zn146  1  0.93601210  0.93700448  0.69380689  1
  Zn  Zn147  1  0.06617332  0.06144764  0.30975135  1
  Zn  Zn148  1  0.06231071  0.06507656  0.81488342  1
  Zn  Zn149  1  0.06423946  0.56146635  0.31457173  1
  Zn  Zn150  1  0.06563204  0.56303978  0.81010884  1
  Zn  Zn151  1  0.56360755  0.06372240  0.31298170  1
  Zn  Zn152  1  0.56635355  0.06524461  0.80902571  1
  Zn  Zn153  1  0.56092463  0.56239109  0.31696578  1
  Zn  Zn154  1  0.56213722  0.56144473  0.81155943  1
  Zn  Zn155  1  0.43880157  0.18534540  0.44027914  1
  Zn  Zn156  1  0.44164854  0.18519975  0.93631849  1
  Zn  Zn157  1  0.43540412  0.68899017  0.43591624  1
  Zn  Zn158  1  0.43761600  0.68206895  0.93571983  1
  Zn  Zn159  1  0.93679960  0.18492646  0.43603102  1
  Zn  Zn160  1  0.93652805  0.18843480  0.93819514  1
  Zn  Zn161  1  0.97946757  0.70977864  0.46538096  1
  Zn  Zn162  1  0.93884582  0.68436634  0.93308221  1
  Zn  Zn163  1  0.05814201  0.31171354  0.06001851  1
  Zn  Zn164  1  0.06301334  0.31516083  0.56615142  1
  Zn  Zn165  1  0.06294441  0.81020784  0.06319726  1
  Zn  Zn166  1  0.06514776  0.82141148  0.56964311  1
  Zn  Zn167  1  0.56050237  0.31457152  0.06147960  1
  Zn  Zn168  1  0.56407598  0.31469768  0.56407636  1
  Zn  Zn169  1  0.56508780  0.81327128  0.06036296  1
  Zn  Zn170  1  0.56094096  0.81223960  0.56290916  1
  O  O171  1  0.11246692  0.13049427  0.12252161  1
  O  O172  1  0.12853060  0.09705517  0.62054801  1
  O  O173  1  0.12041844  0.61746425  0.12403246  1
  O  O174  1  0.12427116  0.61050832  0.63069162  1
  O  O175  1  0.62203089  0.12353839  0.12157105  1
  O  O176  1  0.61306721  0.11728661  0.62619294  1
  O  O177  1  0.62749577  0.62503702  0.11109491  1
  O  O178  1  0.61608310  0.63210193  0.61143871  1
  O  O179  1  0.37484023  0.38532878  0.38329116  1
  O  O180  1  0.37544318  0.38982023  0.87206194  1
  O  O181  1  0.38790368  0.87354867  0.36670141  1
  O  O182  1  0.38299941  0.87774147  0.88104892  1
  O  O183  1  0.87907506  0.37952469  0.37962861  1
  O  O184  1  0.87634464  0.38014785  0.88090391  1
  O  O185  1  0.87533788  0.88691203  0.38333832  1
  O  O186  1  0.88455007  0.88291317  0.86991641  1
  O  O187  1  0.24694780  0.01802173  0.36828754  1
  O  O188  1  0.25879305  0.00736795  0.87382548  1
  O  O189  1  0.25759851  0.50580413  0.37363785  1
  O  O190  1  0.25620566  0.50531715  0.86763378  1
  O  O191  1  0.75477411  0.00515801  0.36885808  1
  O  O192  1  0.75385167  0.00354102  0.86853710  1
  O  O193  1  0.75314353  0.50513779  0.36471633  1
  O  O194  1  0.75644299  0.50436271  0.86489804  1
  O  O195  1  0.24499825  0.48955186  0.12741723  1
  O  O196  1  0.24076692  0.50241640  0.62999870  1
  O  O197  1  0.25368118  0.98837784  0.12645333  1
  O  O198  1  0.25776813  1.01565324  0.65502847  1
  O  O199  1  0.74661270  0.49971051  0.13765138  1
  O  O200  1  0.75127529  0.50077863  0.63375504  1
  O  O201  1  0.75033572  0.99484567  0.13124162  1
  O  O202  1  0.74425568  0.99496242  0.63229278  1
  O  O203  1  0.01154759  0.36669228  0.25487109  1
  O  O204  1  -0.00036655  0.35878575  0.74667414  1
  O  O205  1  0.00209938  0.86172987  0.24747225  1
  O  O206  1  0.01033511  0.87131834  0.76114741  1
  O  O207  1  0.50621525  0.36968257  0.25466890  1
  O  O208  1  0.51319664  0.38146434  0.74779651  1
  O  O209  1  0.50858255  0.86981878  0.25515873  1
  O  O210  1  0.49774733  0.86760857  0.76172025  1
  O  O211  1  0.49456541  0.13320035  0.24897784  1
  O  O212  1  0.49253085  0.12005106  0.73655365  1
  O  O213  1  0.48954901  0.63300591  0.25657431  1
  O  O214  1  0.50810099  0.63348569  0.73783938  1
  O  O215  1  1.00334389  0.13738947  0.24436470  1
  O  O216  1  1.00111944  0.12996573  0.73788119  1
  O  O217  1  0.99390445  0.63209185  0.24784143  1
  O  O218  1  0.99093177  0.63478023  0.75593108  1
  O  O219  1  0.38210712  0.24891604  0.01334297  1
  O  O220  1  0.36657262  0.25877033  0.49495200  1
  O  O221  1  0.38515077  0.75569444  0.00865234  1
  O  O222  1  0.37881745  0.75418399  0.50988580  1
  O  O223  1  0.87978005  0.26112050  0.00965645  1
  O  O224  1  0.87592115  0.26264808  0.49251882  1
  O  O225  1  0.86022118  0.74146196  -0.00216273  1
  O  O226  1  0.87583068  0.75731365  0.50800533  1
  O  O227  1  0.13083369  0.24952455  0.49248491  1
  O  O228  1  0.11304431  0.24865450  0.98163490  1
  O  O229  1  0.08506684  0.74175481  0.49698983  1
  O  O230  1  0.12098883  0.74654443  0.98537308  1
  O  O231  1  0.62079286  0.25069060  0.48543065  1
  O  O232  1  0.62462954  0.25462437  0.98385492  1
  O  O233  1  0.63167216  0.74367974  0.49372868  1
  O  O234  1  0.63064458  0.74204919  0.99114777  1
  O  O235  1  0.48964681  0.25269277  0.13245337  1
  O  O236  1  0.50212577  0.23345875  0.61864773  1
  O  O237  1  0.49360895  0.75660508  0.13700000  1
  O  O238  1  0.49606367  0.74540155  0.63171408  1
  O  O239  1  0.99193381  0.24566358  0.13197020  1
  O  O240  1  1.00790334  0.23358292  0.63537143  1
  O  O241  1  0.99824442  0.74204661  0.13361888  1
  O  O242  1  0.99168580  0.76132023  0.64322306  1
  O  O243  1  0.00713153  0.25261142  0.36841585  1
  O  O244  1  0.00344305  0.24627992  0.86058201  1
  O  O245  1  -0.00966119  0.75389764  0.35720041  1
  O  O246  1  0.00547248  0.75608167  0.86668705  1
  O  O247  1  0.50710893  0.25124615  0.36827997  1
  O  O248  1  0.51157162  0.25254629  0.87287542  1
  O  O249  1  0.50467130  0.75758324  0.36502412  1
  O  O250  1  0.50500436  0.75377968  0.86747379  1
  O  O251  1  0.25155641  0.13128954  0.49292151  1
  O  O252  1  0.25483186  0.12197012  0.98901720  1
  O  O253  1  0.25392962  0.61960526  0.48503826  1
  O  O254  1  0.24747643  0.61736486  0.98456190  1
  O  O255  1  0.74518814  0.12190710  0.48604305  1
  O  O256  1  0.74490449  0.11822456  0.98162516  1
  O  O257  1  0.74530125  0.62958112  0.49658943  1
  O  O258  1  0.74210134  0.62983321  0.99303163  1
  O  O259  1  0.24477713  0.37791960  0.00939962  1
  O  O260  1  0.25780211  0.36479956  0.50103013  1
  O  O261  1  0.26652192  0.87741413  0.00282798  1
  O  O262  1  0.23571447  0.95593543  0.53027936  1
  O  O263  1  0.76146392  0.38478860  0.00200913  1
  O  O264  1  0.75259854  0.37592512  0.51428680  1
  O  O265  1  0.74292316  0.86471790  0.00874941  1
  O  O266  1  0.75542442  0.86999751  0.50735107  1
  O  O267  1  0.12498294  0.48938549  0.24313631  1
  O  O268  1  0.12821832  0.49685781  0.73901508  1
  O  O269  1  0.12923889  0.99536973  0.24277547  1
  O  O270  1  0.13555432  0.99328684  0.75940314  1
  O  O271  1  0.62983062  0.49439238  0.25089406  1
  O  O272  1  0.63622511  0.48953769  0.75659687  1
  O  O273  1  0.63237005  0.99135314  0.24918563  1
  O  O274  1  0.63440564  1.00082946  0.73855687  1
  O  O275  1  0.37823595  0.01452186  0.24381990  1
  O  O276  1  0.37182299  0.00488798  0.76085753  1
  O  O277  1  0.37745617  0.50425417  0.25851907  1
  O  O278  1  0.36630341  0.50230781  0.75498075  1
  O  O279  1  0.86582409  -0.00537838  0.25952404  1
  O  O280  1  0.86077195  -0.00330232  0.75977208  1
  O  O281  1  0.86838721  0.50310290  0.25387886  1
  O  O282  1  0.87056053  0.50559384  0.75154394  1
  O  O283  1  0.12272072  0.36525144  0.37009237  1
  O  O284  1  0.11868485  0.36756859  0.86802365  1
  O  O285  1  0.12423886  0.86926467  0.37324123  1
  O  O286  1  0.12068094  0.86801508  0.87083256  1
  O  O287  1  0.62515541  0.36879809  0.36546790  1
  O  O288  1  0.62630548  0.36475559  0.86615288  1
  O  O289  1  0.62389660  0.86945588  0.36368316  1
  O  O290  1  0.61586515  0.86341151  0.87993557  1
  O  O291  1  0.37734385  0.13826865  0.13260531  1
  O  O292  1  0.38763987  0.11873622  0.63181699  1
  O  O293  1  0.37203429  0.63002203  0.13248533  1
  O  O294  1  0.38760198  0.63638428  0.61946380  1
  O  O295  1  0.88402359  0.13477297  0.12118460  1
  O  O296  1  0.87959456  0.12813702  0.62701863  1
  O  O297  1  0.88120976  0.62320241  0.13639712  1
  O  O298  1  0.87034726  0.63199820  0.63732114  1
  O  O299  1  0.26377682  0.25578551  0.12659740  1
  O  O300  1  0.24096229  0.24476651  0.61428797  1
  O  O301  1  0.26458155  0.75357443  0.12787493  1
  O  O302  1  0.26429142  0.74691264  0.62656763  1
  O  O303  1  0.76278921  0.25039053  0.13410982  1
  O  O304  1  0.74641163  0.25489243  0.62715908  1
  O  O305  1  0.75234258  0.75735255  0.11526843  1
  O  O306  1  0.75432731  0.75699429  0.62132059  1
  O  O307  1  0.24299569  0.24303113  0.38236389  1
  O  O308  1  0.24072205  0.24465314  0.87323340  1
  O  O309  1  0.25318924  0.73442852  0.37485416  1
  O  O310  1  0.24291743  0.73995707  0.86745864  1
  O  O311  1  0.74078278  0.23903676  0.36384310  1
  O  O312  1  0.74643528  0.23959285  0.87186109  1
  O  O313  1  0.74770091  0.74501500  0.38029375  1
  O  O314  1  0.74248616  0.74597439  0.87868863  1
  O  O315  1  0.00001331  0.12308056  0.00913429  1
  O  O316  1  -0.00350423  0.12294335  0.51504838  1
  O  O317  1  -0.00098918  0.61393701  0.00524756  1
  O  O318  1  -0.02297032  0.60170582  0.49721930  1
  O  O319  1  0.50480383  0.11391758  0.00066380  1
  O  O320  1  0.50235176  0.11374359  0.50968890  1
  O  O321  1  0.50975101  0.61219577  -0.00640954  1
  O  O322  1  0.50726225  0.62008788  0.50368575  1
  O  O323  1  0.49436755  0.38279125  0.50054842  1
  O  O324  1  0.50671802  0.39198379  0.99312841  1
  O  O325  1  0.50952046  0.88570929  0.48933477  1
  O  O326  1  0.49340115  0.87824616  0.99079577  1
  O  O327  1  0.99072006  0.37942393  0.49614883  1
  O  O328  1  0.98874028  0.38737401  0.99943709  1
  O  O329  1  0.98734496  0.88803625  0.50274947  1
  O  O330  1  1.00213968  0.87347965  0.98737392  1
  O  O331  1  0.49090738  0.49964976  0.38739154  1
  O  O332  1  0.49231487  0.49926470  0.88035946  1
  O  O333  1  0.51061403  0.99285556  0.38842367  1
  O  O334  1  0.50035710  0.99223284  0.87810946  1
  O  O335  1  0.99738058  0.49043303  0.38032699  1
  O  O336  1  0.99315752  0.49964871  0.88112586  1
  O  O337  1  0.99056978  1.00265932  0.38186584  1
  O  O338  1  0.99067622  0.99290747  0.87340686  1
  O  O339  1  -0.00246743  0.01097303  0.12442680  1
  O  O340  1  -0.01259595  0.01299776  0.62042953  1
  O  O341  1  0.00477193  0.50370572  0.11889289  1
  O  O342  1  0.01018687  0.49504277  0.61913659  1
  O  O343  1  0.50285114  -0.00124659  0.11504761  1
  O  O344  1  0.50598972  0.00038761  0.61715001  1
  O  O345  1  0.49907776  0.49725336  0.11069940  1
  O  O346  1  0.49554429  0.50982482  0.61293444  1
  O  O347  1  0.23854341  0.37300254  0.24724787  1
  O  O348  1  0.24694811  0.38920250  0.74735943  1
  O  O349  1  0.25242837  0.87527748  0.23959004  1
  O  O350  1  0.23857145  0.88389352  0.75866007  1
  O  O351  1  0.74174707  0.38374898  0.24942556  1
  O  O352  1  0.74593644  0.38014564  0.73668069  1
  O  O353  1  0.74419460  0.88227406  0.24488194  1
  O  O354  1  0.75104234  0.88022565  0.74023263  1
  O  O355  1  0.26103293  0.12897786  0.25631800  1
  O  O356  1  0.25843140  0.12160855  0.76493137  1
  O  O357  1  0.26446937  0.62046727  0.25726496  1
  O  O358  1  0.24322376  0.61174385  0.76171418  1
  O  O359  1  0.74481387  0.11122137  0.25933696  1
  O  O360  1  0.74500143  0.11592377  0.76514979  1
  O  O361  1  0.75569882  0.61997966  0.25200852  1
  O  O362  1  0.75418910  0.61788485  0.75322956  1
  O  O363  1  0.36813148  0.13218487  0.36513415  1
  O  O364  1  0.37259422  0.12218006  0.86814289  1
  O  O365  1  0.36969593  0.61524960  0.36985385  1
  O  O366  1  0.36721644  0.61418421  0.87520178  1
  O  O367  1  0.86726161  0.11407437  0.37684211  1
  O  O368  1  0.86262051  0.11958930  0.87597089  1
  O  O369  1  0.86750293  0.61631427  0.36048798  1
  O  O370  1  0.86804990  0.62006944  0.86288973  1
  O  O371  1  0.13078396  0.37463377  0.13100307  1
  O  O372  1  0.12926132  0.38586489  0.62650405  1
  O  O373  1  0.14225927  0.86874910  0.12176323  1
  O  O374  1  0.11850515  0.89648990  0.63704192  1
  O  O375  1  0.62593692  0.37648441  0.13757067  1
  O  O376  1  0.63786957  0.37106746  0.63147194  1
  O  O377  1  0.63432288  0.87400287  0.13667187  1
  O  O378  1  0.63474502  0.88085297  0.62125566  1
  O  O379  1  0.11966359  0.25565432  0.25687318  1
  O  O380  1  0.11606211  0.24751949  0.75932786  1
  O  O381  1  0.11262845  0.74804100  0.24902218  1
  O  O382  1  0.11965673  0.75777760  0.75545639  1
  O  O383  1  0.61377393  0.25695348  0.25631076  1
  O  O384  1  0.63032349  0.26090273  0.76392635  1
  O  O385  1  0.61946037  0.75406685  0.25362384  1
  O  O386  1  0.61806895  0.74625473  0.76182409  1
  O  O387  1  0.38609515  0.24662864  0.24785911  1
  O  O388  1  0.37121416  0.24047609  0.75211787  1
  O  O389  1  0.38337273  0.74054749  0.24137981  1
  O  O390  1  0.38675119  0.74971051  0.74493941  1
  O  O391  1  0.88735119  0.25886330  0.24104771  1
  O  O392  1  0.88851603  0.24930014  0.75189635  1
  O  O393  1  0.88117977  0.74180325  0.24505273  1
  O  O394  1  0.88120839  0.74239866  0.74859309  1
  O  O395  1  0.38093208  0.49396849  0.49476967  1
  O  O396  1  0.38886123  0.50443568  0.99213718  1
  O  O397  1  0.39548334  0.99751807  0.49907915  1
  O  O398  1  0.38831568  0.99158025  0.99473070  1
  O  O399  1  0.87657006  0.48615059  0.49292647  1
  O  O400  1  0.87990295  0.49688524  0.99366273  1
  O  O401  1  0.87729349  0.99753130  0.49398712  1
  O  O402  1  0.87547982  0.99971468  0.98583208  1
  O  O403  1  0.11990431  0.00504781  0.00615847  1
  O  O404  1  0.10130768  0.00497230  0.49777082  1
  O  O405  1  0.11451029  0.49957361  0.00444790  1
  O  O406  1  0.11515620  0.49760932  0.51169885  1
  O  O407  1  0.61441455  -0.00310268  0.00040010  1
  O  O408  1  0.62060588  0.00291008  0.51412852  1
  O  O409  1  0.61640652  0.50828574  0.00018176  1
  O  O410  1  0.61629142  0.50979149  0.49297342  1
  O  O411  1  0.36572622  0.36170849  0.12910448  1
  O  O412  1  0.37020413  0.37848863  0.61332549  1
  O  O413  1  0.36892623  0.86503685  0.11743185  1
  O  O414  1  0.37750085  0.86164422  0.62741627  1
  O  O415  1  0.87219068  0.36763625  0.11697282  1
  O  O416  1  0.85814576  0.37467969  0.61806233  1
  O  O417  1  0.86167127  0.87273523  0.12780229  1
  O  O418  1  0.86491607  0.87184438  0.62177658  1
  O  O419  1  0.13022048  0.13684321  0.37714905  1
  O  O420  1  0.13596151  0.13192740  0.87683732  1
  O  O421  1  0.14226517  0.62491783  0.36937327  1
  O  O422  1  0.13215536  0.63302920  0.87566802  1
  O  O423  1  0.63192471  0.13330442  0.37643965  1
  O  O424  1  0.63147114  0.13868232  0.87441654  1
  O  O425  1  0.63049830  0.63145360  0.38366767  1
  O  O426  1  0.63011951  0.63171494  0.88187351  1
