# generated using pymatgen
data_V85Zn86O256
_symmetry_space_group_name_H-M   'P 1'
_cell_length_a   16.93013119
_cell_length_b   16.94038374
_cell_length_c   16.95001207
_cell_angle_alpha   89.92524743
_cell_angle_beta   89.91435686
_cell_angle_gamma   89.99259056
_symmetry_Int_Tables_number   1
_chemical_formula_structural   V85Zn86O256
_chemical_formula_sum   'V85 Zn86 O256'
_cell_volume   4861.30333287
_cell_formula_units_Z   1
loop_
 _symmetry_equiv_pos_site_id
 _symmetry_equiv_pos_as_xyz
  1  'x, y, z'
loop_
 _atom_site_type_symbol
 _atom_site_label
 _atom_site_symmetry_multiplicity
 _atom_site_fract_x
 _atom_site_fract_y
 _atom_site_fract_z
 _atom_site_occupancy
  V  V0  1  0.25157568  0.87473746  0.62084397  1
  V  V1  1  0.37227136  0.75084440  0.12379786  1
  V  V2  1  0.25137320  0.50094619  0.25744744  1
  V  V3  1  0.01044633  0.00459026  0.00237220  1
  V  V4  1  0.12770913  0.25186746  0.38173305  1
  V  V5  1  0.37680647  0.87423334  0.49731707  1
  V  V6  1  0.74691568  -0.00829518  0.74439692  1
  V  V7  1  0.87163143  0.49955679  0.37509531  1
  V  V8  1  0.87959775  0.63459416  0.25338648  1
  V  V9  1  0.51245510  0.37204199  0.87964876  1
  V  V10  1  0.62706686  0.74574988  0.36932362  1
  V  V11  1  -0.00364741  0.24528315  0.25333358  1
  V  V12  1  0.12734661  0.37408789  0.74916915  1
  V  V13  1  0.05926188  0.80567160  0.20107666  1
  V  V14  1  0.12817144  0.62343560  0.49363431  1
  V  V15  1  0.74696782  0.48578839  0.75517264  1
  V  V16  1  0.25475981  0.36124534  0.62399445  1
  V  V17  1  0.13584782  0.74541150  0.86715823  1
  V  V18  1  0.50701885  0.87405003  0.87431881  1
  V  V19  1  0.25106217  0.74557518  0.49085797  1
  V  V20  1  0.12469572  -0.00032520  0.62256236  1
  V  V21  1  0.12583929  0.87437034  0.74656864  1
  V  V22  1  0.37357729  0.62836782  0.25520631  1
  V  V23  1  0.50078418  0.12552857  0.12318974  1
  V  V24  1  0.86882882  0.12889730  0.74409324  1
  V  V25  1  0.86067743  0.11907714  0.25704491  1
  V  V26  1  0.49697365  0.26424093  0.74301397  1
  V  V27  1  0.63511573  -0.00647109  0.12698849  1
  V  V28  1  -0.00155702  0.62366099  0.12980001  1
  V  V29  1  0.87369701  0.24719870  0.12571742  1
  V  V30  1  0.36744167  0.49454420  0.88162558  1
  V  V31  1  0.25505378  0.00734453  0.74617068  1
  V  V32  1  0.37337698  0.36269398  0.50203465  1
  V  V33  1  0.74716023  0.12850599  0.87183671  1
  V  V34  1  -0.00464612  0.49962056  -0.00456077  1
  V  V35  1  0.50105512  0.74691063  0.75051217  1
  V  V36  1  0.86750337  0.87274437  0.50519975  1
  V  V37  1  0.63139045  0.48098308  0.62319704  1
  V  V38  1  0.12408549  0.12714363  0.49977175  1
  V  V39  1  0.12488990  0.49641680  0.12412388  1
  V  V40  1  0.62670881  0.50698162  0.12260711  1
  V  V41  1  -0.00161968  0.62419385  0.62502490  1
  V  V42  1  0.37170162  0.12636543  0.24631373  1
  V  V43  1  0.74517991  0.23941865  0.51497158  1
  V  V44  1  0.37231428  -0.00025413  0.36974314  1
  V  V45  1  -0.00360689  0.12772320  0.62446743  1
  V  V46  1  0.24904812  0.12825779  0.37800367  1
  V  V47  1  0.50302985  0.62766319  0.12120374  1
  V  V48  1  0.50376380  0.01095952  0.49695975  1
  V  V49  1  0.37157743  0.87570903  0.00035438  1
  V  V50  1  0.62601314  0.12964450  -0.00274119  1
  V  V51  1  0.50665986  0.87547962  0.36808348  1
  V  V52  1  0.74938470  0.37800263  0.12392198  1
  V  V53  1  0.25482546  0.37617390  0.11960794  1
  V  V54  1  0.74008418  0.74000010  0.50569924  1
  V  V55  1  0.36899261  0.62238192  0.75367698  1
  V  V56  1  -0.00220671  0.87501973  0.86991440  1
  V  V57  1  0.13017081  0.49971430  0.62484007  1
  V  V58  1  0.74775667  0.25167830  -0.00369166  1
  V  V59  1  -0.00486928  0.25036095  0.74575154  1
  V  V60  1  0.50194768  0.50112840  -0.00293876  1
  V  V61  1  0.62666431  0.37825052  0.25423329  1
  V  V62  1  0.37704417  0.50423043  0.38149881  1
  V  V63  1  0.50039025  0.00051552  -0.00022444  1
  V  V64  1  0.51106366  0.62363535  0.62067572  1
  V  V65  1  0.87698952  0.37644510  -0.00135111  1
  V  V66  1  0.86408142  0.37046640  0.51397637  1
  V  V67  1  0.63364514  0.23755194  0.37715096  1
  V  V68  1  0.37640345  0.00553356  0.86977547  1
  V  V69  1  0.00291149  0.86754980  0.37853767  1
  V  V70  1  0.12604926  0.24101331  0.87520516  1
  V  V71  1  0.12536801  0.37548410  0.25264376  1
  V  V72  1  0.24966666  0.24297454  -0.00080050  1
  V  V73  1  0.13164336  0.62102868  -0.00771411  1
  V  V74  1  0.48820704  0.12338244  0.63920756  1
  V  V75  1  0.23191151  -0.00314549  0.24282824  1
  V  V76  1  0.86727068  0.75018092  0.62797132  1
  V  V77  1  -0.00440680  0.37424862  0.37927500  1
  V  V78  1  0.37751748  0.25618272  0.11848066  1
  V  V79  1  0.87192464  0.61858613  0.75954651  1
  V  V80  1  0.87211904  0.87111879  0.00525375  1
  V  V81  1  -0.00266935  0.37608055  0.87664528  1
  V  V82  1  0.50079034  0.25317436  0.25069610  1
  V  V83  1  -0.00541331  -0.00033460  0.49793464  1
  V  V84  1  0.74530879  0.74113040  0.00330462  1
  Zn  Zn85  1  0.75159773  0.50451034  0.24983593  1
  Zn  Zn86  1  -0.00257068  0.49677321  0.50293546  1
  Zn  Zn87  1  0.74193213  0.61822139  0.87857058  1
  Zn  Zn88  1  0.12386230  0.74878119  0.37229432  1
  Zn  Zn89  1  0.62409502  0.00301025  0.62274766  1
  Zn  Zn90  1  0.87407611  -0.00003183  0.87513367  1
  Zn  Zn91  1  0.85732819  -0.00147780  0.37456865  1
  Zn  Zn92  1  0.75315344  0.86655322  0.13229078  1
  Zn  Zn93  1  0.50188256  0.37645956  0.37900030  1
  Zn  Zn94  1  0.37615362  0.74345938  0.62218671  1
  Zn  Zn95  1  0.00967605  0.11526553  0.12648279  1
  Zn  Zn96  1  0.24983785  0.50072458  0.75431611  1
  Zn  Zn97  1  0.50567114  0.75677003  0.24555769  1
  Zn  Zn98  1  0.50859467  0.50193460  0.49803264  1
  Zn  Zn99  1  0.74168732  0.62002932  0.37822939  1
  Zn  Zn100  1  0.25285101  0.74710211  -0.00549634  1
  Zn  Zn101  1  0.69671690  0.94311347  0.29253095  1
  Zn  Zn102  1  0.23722965  0.87837552  0.12428353  1
  Zn  Zn103  1  0.62206159  0.73456757  0.88000114  1
  Zn  Zn104  1  0.25186289  0.12508619  0.87351425  1
  Zn  Zn105  1  -0.00150895  0.74860207  0.74926211  1
  Zn  Zn106  1  0.63023015  0.86853728  0.74183745  1
  Zn  Zn107  1  0.18495193  0.18521655  0.18985718  1
  Zn  Zn108  1  0.18586852  0.18621491  0.68821340  1
  Zn  Zn109  1  0.19374407  0.67980842  0.18005138  1
  Zn  Zn110  1  0.19057301  0.68812289  0.68116063  1
  Zn  Zn111  1  0.68559337  0.18832440  0.18490114  1
  Zn  Zn112  1  0.66774073  0.18519399  0.68887713  1
  Zn  Zn113  1  0.69264164  0.69097234  0.19094921  1
  Zn  Zn114  1  0.68764681  0.68375345  0.69388181  1
  Zn  Zn115  1  0.31387713  0.31486459  0.31320745  1
  Zn  Zn116  1  0.31937429  0.31458754  0.81194642  1
  Zn  Zn117  1  0.30976467  0.81565206  0.31028033  1
  Zn  Zn118  1  0.31693092  0.81745189  0.80884608  1
  Zn  Zn119  1  0.80891201  0.31294512  0.31433409  1
  Zn  Zn120  1  0.81275591  0.31044821  0.81306988  1
  Zn  Zn121  1  0.81628731  0.80982771  0.32009145  1
  Zn  Zn122  1  0.81229196  0.80710768  0.81795440  1
  Zn  Zn123  1  0.19102605  0.43708243  0.44103430  1
  Zn  Zn124  1  0.18454220  0.42961160  0.93866492  1
  Zn  Zn125  1  0.18591562  0.93842172  0.43384476  1
  Zn  Zn126  1  0.18884376  0.93513265  0.93299801  1
  Zn  Zn127  1  0.68918901  0.43532842  0.44108731  1
  Zn  Zn128  1  0.68776413  0.44436911  0.93764534  1
  Zn  Zn129  1  0.68560194  0.92986974  0.45410233  1
  Zn  Zn130  1  0.68980480  0.93960919  0.93676556  1
  Zn  Zn131  1  0.31016514  0.06279019  0.06298591  1
  Zn  Zn132  1  0.31567197  0.06496427  0.55905729  1
  Zn  Zn133  1  0.31441132  0.56160213  0.06271250  1
  Zn  Zn134  1  0.31379772  0.56273491  0.56625224  1
  Zn  Zn135  1  0.81873855  0.06209059  0.06032742  1
  Zn  Zn136  1  0.81041752  0.06383565  0.56337629  1
  Zn  Zn137  1  0.81723585  0.56533878  0.06650031  1
  Zn  Zn138  1  0.80982913  0.55927516  0.56605194  1
  Zn  Zn139  1  0.43909454  0.43983310  0.18899163  1
  Zn  Zn140  1  0.43847601  0.43989605  0.68813221  1
  Zn  Zn141  1  0.43595679  0.94074406  0.18546562  1
  Zn  Zn142  1  0.44160213  0.93441651  0.68425370  1
  Zn  Zn143  1  0.93642149  0.43753214  0.18900839  1
  Zn  Zn144  1  0.93736481  0.43984942  0.68959935  1
  Zn  Zn145  1  0.93211132  0.94149330  0.18413385  1
  Zn  Zn146  1  0.93293530  0.93902602  0.68674875  1
  Zn  Zn147  1  0.05526103  0.06311159  0.31680719  1
  Zn  Zn148  1  0.06207893  0.06092747  0.81155004  1
  Zn  Zn149  1  0.06049729  0.56010226  0.31501177  1
  Zn  Zn150  1  0.06138489  0.56062897  0.81066617  1
  Zn  Zn151  1  0.55972884  0.06493265  0.30999958  1
  Zn  Zn152  1  0.56354318  0.06777460  0.81151448  1
  Zn  Zn153  1  0.55984957  0.56593696  0.31029347  1
  Zn  Zn154  1  0.56479730  0.56002901  0.80941689  1
  Zn  Zn155  1  0.43862013  0.19002526  0.43162850  1
  Zn  Zn156  1  0.43577704  0.19014106  0.93605190  1
  Zn  Zn157  1  0.44247792  0.68819041  0.43723461  1
  Zn  Zn158  1  0.43738098  0.68350542  0.93591153  1
  Zn  Zn159  1  0.92753376  0.18833356  0.43951351  1
  Zn  Zn160  1  0.93497022  0.18629804  0.93311076  1
  Zn  Zn161  1  0.93650605  0.68654773  0.44114678  1
  Zn  Zn162  1  0.94013117  0.69028818  0.93763869  1
  Zn  Zn163  1  0.07559614  0.28363468  0.07622982  1
  Zn  Zn164  1  0.06150423  0.31415324  0.56333754  1
  Zn  Zn165  1  0.06062915  0.80923984  0.04026939  1
  Zn  Zn166  1  0.06014275  0.80944111  0.56147333  1
  Zn  Zn167  1  0.56338201  0.31719793  0.06047797  1
  Zn  Zn168  1  0.55850207  0.30818478  0.56026687  1
  Zn  Zn169  1  0.56326023  0.81276248  0.06061552  1
  Zn  Zn170  1  0.56427258  0.81657848  0.56329639  1
  O  O171  1  0.10383117  0.17547147  0.11714572  1
  O  O172  1  0.11842510  0.11921495  0.61865066  1
  O  O173  1  0.11683432  0.61669127  0.11704878  1
  O  O174  1  0.11884516  0.61758348  0.61951956  1
  O  O175  1  0.62166019  0.11785550  0.11554256  1
  O  O176  1  0.59767393  0.11858775  0.62426655  1
  O  O177  1  0.61561281  0.61832997  0.13348145  1
  O  O178  1  0.61286628  0.62058386  0.63037144  1
  O  O179  1  0.37501099  0.38342804  0.38545643  1
  O  O180  1  0.38626831  0.39150244  0.87284768  1
  O  O181  1  0.37866702  0.87966198  0.38212335  1
  O  O182  1  0.38185567  0.88209045  0.88539202  1
  O  O183  1  0.87928506  0.38174497  0.38055472  1
  O  O184  1  0.88970281  0.36631667  0.88234048  1
  O  O185  1  0.88580584  0.87596085  0.38861306  1
  O  O186  1  0.88414088  0.87614032  0.87940729  1
  O  O187  1  0.25204971  0.00704111  0.36295506  1
  O  O188  1  0.25757285  -0.00067254  0.86469556  1
  O  O189  1  0.25586209  0.49537951  0.36284147  1
  O  O190  1  0.26321164  0.49174854  0.87744500  1
  O  O191  1  0.74467442  -0.00832815  0.38116784  1
  O  O192  1  0.75148606  0.01241540  0.86704585  1
  O  O193  1  0.75794350  0.50087240  0.37397712  1
  O  O194  1  0.75150449  0.49930066  0.86051877  1
  O  O195  1  0.24690152  0.49329053  0.13295615  1
  O  O196  1  0.23922662  0.49398335  0.62688869  1
  O  O197  1  0.24718120  1.00094104  0.13743115  1
  O  O198  1  0.24741653  0.99546523  0.62757565  1
  O  O199  1  0.74220819  0.49777716  0.12533958  1
  O  O200  1  0.73756197  0.50020295  0.63358981  1
  O  O201  1  0.73737676  0.99909177  0.11797771  1
  O  O202  1  0.74717028  1.00550534  0.64072038  1
  O  O203  1  0.00171407  0.36784818  0.26292232  1
  O  O204  1  0.00281086  0.36784175  0.75577459  1
  O  O205  1  -0.00273355  0.87055502  0.25511287  1
  O  O206  1  0.00555531  0.87508197  0.75453122  1
  O  O207  1  0.50939466  0.36970987  0.25024703  1
  O  O208  1  0.50079587  0.37012300  0.76029084  1
  O  O209  1  0.49040299  0.87626514  0.26416892  1
  O  O210  1  0.49481642  0.86395033  0.75945003  1
  O  O211  1  0.49317262  0.13334240  0.24204487  1
  O  O212  1  0.48486581  0.11125026  0.73980826  1
  O  O213  1  0.48783902  0.62656153  0.23727016  1
  O  O214  1  0.49274405  0.62960219  0.74210392  1
  O  O215  1  0.99405997  0.13676495  0.24912546  1
  O  O216  1  0.99152350  0.13082517  0.74646088  1
  O  O217  1  0.99634178  0.61717118  0.24036332  1
  O  O218  1  0.99190829  0.62217360  0.73916681  1
  O  O219  1  0.36879430  0.25037365  0.01163113  1
  O  O220  1  0.37481634  0.26441589  0.49199637  1
  O  O221  1  0.37318839  0.75574998  0.00467570  1
  O  O222  1  0.36915354  0.75663276  0.49824207  1
  O  O223  1  0.87048366  0.25354450  0.00828922  1
  O  O224  1  0.85967592  0.26073408  0.49823626  1
  O  O225  1  0.86897045  0.76382477  -0.00655582  1
  O  O226  1  0.86854582  0.75418114  0.50967134  1
  O  O227  1  0.11891542  0.24525453  0.48876742  1
  O  O228  1  0.13809847  0.26342090  0.98311162  1
  O  O229  1  0.13324132  0.74005479  0.50225633  1
  O  O230  1  0.12981798  0.73901364  0.98652466  1
  O  O231  1  0.63373061  0.25642004  0.48708353  1
  O  O232  1  0.63511935  0.24152402  1.00921918  1
  O  O233  1  0.63361414  0.75557327  0.49305296  1
  O  O234  1  0.64107304  0.75527169  0.99821102  1
  O  O235  1  0.49418378  0.24802519  0.12827948  1
  O  O236  1  0.49871703  0.24305853  0.63716839  1
  O  O237  1  0.49173458  0.74518974  0.12445274  1
  O  O238  1  0.49875485  0.73879428  0.63157144  1
  O  O239  1  0.97968609  0.26797321  0.14019315  1
  O  O240  1  1.00691409  0.24450121  0.63810852  1
  O  O241  1  1.00939822  0.74541663  0.13238712  1
  O  O242  1  0.99147784  0.73942230  0.62680353  1
  O  O243  1  0.00170437  0.25516591  0.37023350  1
  O  O244  1  0.00768226  0.25357424  0.86709603  1
  O  O245  1  0.00484355  0.75904075  0.38408023  1
  O  O246  1  0.01066539  0.76092368  0.87259440  1
  O  O247  1  0.51232330  0.25516577  0.36866637  1
  O  O248  1  0.49785724  0.27060996  0.88498950  1
  O  O249  1  0.50887848  0.75888586  0.37418830  1
  O  O250  1  0.50011976  0.75676891  0.86949432  1
  O  O251  1  0.24264422  0.11773744  0.48448759  1
  O  O252  1  0.25111013  0.13891370  0.99860261  1
  O  O253  1  0.24172603  0.63380880  0.50702779  1
  O  O254  1  0.23519486  0.62344819  1.00511209  1
  O  O255  1  0.75555074  0.14082401  0.50000714  1
  O  O256  1  0.74636373  0.12965567  0.99305418  1
  O  O257  1  0.75752926  0.63645306  0.49781191  1
  O  O258  1  0.76237319  0.63815980  0.99736864  1
  O  O259  1  0.24857078  0.36897992  0.01476850  1
  O  O260  1  0.26375290  0.37849166  0.50810236  1
  O  O261  1  0.25736439  0.87379728  0.00432712  1
  O  O262  1  0.25696395  0.87158250  0.50166407  1
  O  O263  1  0.75581539  0.37169352  0.00259020  1
  O  O264  1  0.75988817  0.36588891  0.50209747  1
  O  O265  1  0.76118078  0.86908499  -0.00140842  1
  O  O266  1  0.76233817  0.86038483  0.50510917  1
  O  O267  1  0.13343494  0.49502327  0.24739557  1
  O  O268  1  0.12845043  0.49334371  0.74315297  1
  O  O269  1  0.13313643  1.00774431  0.25111307  1
  O  O270  1  0.13242507  0.99459313  0.74208558  1
  O  O271  1  0.62440174  0.49415431  0.24056680  1
  O  O272  1  0.63924332  0.50001307  0.73940047  1
  O  O273  1  0.61960528  1.00446681  0.23220456  1
  O  O274  1  0.63966914  1.00205969  0.75297154  1
  O  O275  1  0.36856283  0.00929585  0.25327406  1
  O  O276  1  0.36614344  -0.01220476  0.75857430  1
  O  O277  1  0.37039837  0.50566103  0.25997856  1
  O  O278  1  0.37385307  0.50556991  0.76122533  1
  O  O279  1  0.87909592  0.01547573  0.25154339  1
  O  O280  1  0.86303203  0.00780518  0.75141682  1
  O  O281  1  0.87507688  0.50407069  0.26083333  1
  O  O282  1  0.86194031  0.50905053  0.74100864  1
  O  O283  1  0.11790411  0.37021431  0.37492403  1
  O  O284  1  0.11544723  0.36766696  0.86683011  1
  O  O285  1  0.10895756  0.87482385  0.37879855  1
  O  O286  1  0.11941735  0.86694448  0.86577318  1
  O  O287  1  0.62534768  0.37411923  0.36291462  1
  O  O288  1  0.61147406  0.38175994  0.87755795  1
  O  O289  1  0.61817246  0.86837982  0.37466337  1
  O  O290  1  0.61231118  0.87694447  0.87328325  1
  O  O291  1  0.38009832  0.13389939  0.12764600  1
  O  O292  1  0.39081617  0.13167350  0.60946804  1
  O  O293  1  0.38015339  0.63336917  0.12989299  1
  O  O294  1  0.38687864  0.62106002  0.63575043  1
  O  O295  1  0.88139017  0.13322825  0.13309449  1
  O  O296  1  0.88057812  0.12269466  0.63684575  1
  O  O297  1  0.89040086  0.62195637  0.13538290  1
  O  O298  1  0.88225918  0.62956990  0.63062038  1
  O  O299  1  0.25875165  0.25712440  0.12019174  1
  O  O300  1  0.24446598  0.26183895  0.62645708  1
  O  O301  1  0.26193383  0.75425486  0.12210858  1
  O  O302  1  0.25472840  0.75822053  0.61271739  1
  O  O303  1  0.75939813  0.25592102  0.12016131  1
  O  O304  1  0.73395113  0.24449195  0.61417954  1
  O  O305  1  0.74950174  0.74990338  0.10893559  1
  O  O306  1  0.75826361  0.74305216  0.62168320  1
  O  O307  1  0.23932451  0.24152036  0.36706693  1
  O  O308  1  0.24656165  0.25091910  0.88132038  1
  O  O309  1  0.24502552  0.75637392  0.38678127  1
  O  O310  1  0.23947289  0.75557713  0.87192765  1
  O  O311  1  0.73699870  0.25347943  0.38120182  1
  O  O312  1  0.75245491  0.23725179  0.87997919  1
  O  O313  1  0.74173665  0.74637633  0.38644608  1
  O  O314  1  0.74591407  0.74579718  0.88693542  1
  O  O315  1  -0.00723821  0.10695102  -0.00569178  1
  O  O316  1  -0.00010011  0.11910091  0.50359554  1
  O  O317  1  0.00713636  0.61888955  0.00589150  1
  O  O318  1  0.00603237  0.62112719  0.51241755  1
  O  O319  1  0.50793448  0.12281661  0.00379651  1
  O  O320  1  0.49571441  0.11166468  0.49197451  1
  O  O321  1  0.49528689  0.61624556  0.01298802  1
  O  O322  1  0.49417946  0.62174098  0.51749677  1
  O  O323  1  0.48603275  0.37995938  0.50078599  1
  O  O324  1  0.50230434  0.38982964  0.99327445  1
  O  O325  1  0.49142561  0.88258588  0.48832087  1
  O  O326  1  0.49278872  0.87931080  0.99240219  1
  O  O327  1  0.98867924  0.37058536  0.49094673  1
  O  O328  1  0.99788904  0.38102847  0.99339567  1
  O  O329  1  0.99224500  0.88151652  0.49719336  1
  O  O330  1  0.99029427  0.88151326  0.98961386  1
  O  O331  1  0.49184116  0.49804752  0.37730184  1
  O  O332  1  0.49464562  0.49397534  0.88231349  1
  O  O333  1  0.49465553  0.99586015  0.38026073  1
  O  O334  1  0.49448289  0.99372552  0.87910659  1
  O  O335  1  0.99364302  0.48871960  0.38048878  1
  O  O336  1  1.00516843  0.48895246  0.88306495  1
  O  O337  1  0.99498853  0.99476790  0.38832407  1
  O  O338  1  0.99963836  0.98877008  0.87867637  1
  O  O339  1  0.00040270  -0.00028319  0.10840532  1
  O  O340  1  0.00294203  0.00515317  0.61503767  1
  O  O341  1  0.00720636  0.50449200  0.11875054  1
  O  O342  1  0.01194382  0.50440799  0.62419607  1
  O  O343  1  0.50595484  0.00678833  0.11723422  1
  O  O344  1  0.48857450  0.00924093  0.60976589  1
  O  O345  1  0.50446917  0.50705389  0.11839912  1
  O  O346  1  0.51373441  0.50814631  0.62824702  1
  O  O347  1  0.24623171  0.38191569  0.24242744  1
  O  O348  1  0.24713375  0.37594858  0.74203443  1
  O  O349  1  0.24990131  0.89225289  0.24642518  1
  O  O350  1  0.24552217  0.88223132  0.74014865  1
  O  O351  1  0.74284241  0.37844918  0.24245775  1
  O  O352  1  0.75703533  0.38681425  0.75077827  1
  O  O353  1  0.76178098  0.86851159  0.24356032  1
  O  O354  1  0.75051378  0.88894427  0.75833802  1
  O  O355  1  0.25096185  0.11807063  0.25614512  1
  O  O356  1  0.24922156  0.11124409  0.74880908  1
  O  O357  1  0.26345030  0.61441732  0.24378285  1
  O  O358  1  0.26475281  0.62395669  0.74353565  1
  O  O359  1  0.76248860  0.12810137  0.24491567  1
  O  O360  1  0.75213469  0.12330935  0.75477786  1
  O  O361  1  0.76357082  0.62345233  0.25447542  1
  O  O362  1  0.76000186  0.61642741  0.75331821  1
  O  O363  1  0.36528693  0.12274533  0.36759437  1
  O  O364  1  0.37383585  0.10890057  0.88229843  1
  O  O365  1  0.38052895  0.61953789  0.36559281  1
  O  O366  1  0.38148407  0.60951427  0.86623089  1
  O  O367  1  0.87586799  0.12283287  0.36069178  1
  O  O368  1  0.86676887  0.12299535  0.86210110  1
  O  O369  1  0.88057551  0.61023417  0.37288542  1
  O  O370  1  0.88071582  0.62669813  0.86075648  1
  O  O371  1  0.13211680  0.37723131  0.13424636  1
  O  O372  1  0.13116745  0.38180824  0.62847150  1
  O  O373  1  0.11550027  0.85970327  0.13404450  1
  O  O374  1  0.12936262  0.88043448  0.62688841  1
  O  O375  1  0.62989919  0.38234654  0.13458827  1
  O  O376  1  0.61861150  0.38300355  0.62747481  1
  O  O377  1  0.62621609  0.89040306  0.11936214  1
  O  O378  1  0.61053914  0.88913586  0.63232253  1
  O  O379  1  0.11477588  0.25739349  0.26437994  1
  O  O380  1  0.11824229  0.25538216  0.75665656  1
  O  O381  1  0.12608047  0.74559818  0.25181359  1
  O  O382  1  0.12297000  0.75332213  0.75137666  1
  O  O383  1  0.62365008  0.25771213  0.25743865  1
  O  O384  1  0.59117831  0.22843251  0.76478435  1
  O  O385  1  0.62299248  0.75006101  0.26158950  1
  O  O386  1  0.61296052  0.75033177  0.75440839  1
  O  O387  1  0.37858519  0.24611760  0.24095555  1
  O  O388  1  0.39926771  0.24440260  0.76765116  1
  O  O389  1  0.37521415  0.74405476  0.24287029  1
  O  O390  1  0.38476040  0.74221264  0.74973462  1
  O  O391  1  0.87768038  0.24280015  0.24716474  1
  O  O392  1  0.88455393  0.24236199  0.75273179  1
  O  O393  1  0.88323130  0.73303730  0.26393375  1
  O  O394  1  0.87514119  0.73970977  0.74356524  1
  O  O395  1  0.37260615  0.49956475  0.48768314  1
  O  O396  1  0.38288313  0.50499423  0.98877751  1
  O  O397  1  0.37953377  0.99220985  0.48859324  1
  O  O398  1  0.37950881  0.99272137  0.99583515  1
  O  O399  1  0.87392030  0.48722828  0.49533139  1
  O  O400  1  0.88875164  0.49546805  1.00489995  1
  O  O401  1  0.87916377  0.99047396  0.50376731  1
  O  O402  1  0.88098424  0.98755091  0.99458444  1
  O  O403  1  0.10956863  -0.00678644  -0.00637272  1
  O  O404  1  0.11600583  0.00633008  0.50378139  1
  O  O405  1  0.11625511  0.50312735  0.00256639  1
  O  O406  1  0.12398022  0.50520253  0.50765466  1
  O  O407  1  0.61998901  0.00702325  0.00813350  1
  O  O408  1  0.60599614  -0.00232456  0.50118136  1
  O  O409  1  0.61800891  0.49810039  0.01485344  1
  O  O410  1  0.62625119  0.49544226  0.51648463  1
  O  O411  1  0.36750565  0.36799026  0.13233604  1
  O  O412  1  0.36857545  0.38211885  0.61235282  1
  O  O413  1  0.37697623  0.86905006  0.11331132  1
  O  O414  1  0.37312693  0.87245507  0.60967728  1
  O  O415  1  0.86631574  0.37207982  0.11968344  1
  O  O416  1  0.88132840  0.37569617  0.61107645  1
  O  O417  1  0.87648797  0.87544868  0.10807051  1
  O  O418  1  0.88201064  0.86099371  0.61885604  1
  O  O419  1  0.12838495  0.13304500  0.37919361  1
  O  O420  1  0.12868509  0.13712497  0.86814571  1
  O  O421  1  0.11970660  0.62369925  0.39041711  1
  O  O422  1  0.11933486  0.63216823  0.88016368  1
  O  O423  1  0.62361588  0.13970037  0.36928960  1
  O  O424  1  0.63107272  0.11965391  0.89002337  1
  O  O425  1  0.62279931  0.63716662  0.37378143  1
  O  O426  1  0.62627748  0.62048580  0.87826254  1
