# generated using pymatgen
data_V85Zn86O256
_symmetry_space_group_name_H-M   'P 1'
_cell_length_a   16.93533925
_cell_length_b   16.93949801
_cell_length_c   16.92776622
_cell_angle_alpha   89.96700228
_cell_angle_beta   89.98083132
_cell_angle_gamma   90.00943692
_symmetry_Int_Tables_number   1
_chemical_formula_structural   V85Zn86O256
_chemical_formula_sum   'V85 Zn86 O256'
_cell_volume   4856.17118129
_cell_formula_units_Z   1
loop_
 _symmetry_equiv_pos_site_id
 _symmetry_equiv_pos_as_xyz
  1  'x, y, z'
loop_
 _atom_site_type_symbol
 _atom_site_label
 _atom_site_symmetry_multiplicity
 _atom_site_fract_x
 _atom_site_fract_y
 _atom_site_fract_z
 _atom_site_occupancy
  V  V0  1  0.12833328  0.49731029  0.64410420  1
  V  V1  1  -0.04612599  0.81896909  0.32303966  1
  V  V2  1  0.49511574  -0.00038213  0.50013703  1
  V  V3  1  0.62625964  0.00292880  0.62122404  1
  V  V4  1  0.24754645  0.37668049  0.63703174  1
  V  V5  1  0.01653767  0.25097342  0.75995568  1
  V  V6  1  0.00380484  0.49468236  0.50232223  1
  V  V7  1  0.74728045  0.12951928  0.36139787  1
  V  V8  1  0.62242743  0.89402161  0.24561650  1
  V  V9  1  0.50814528  0.37627628  0.86877591  1
  V  V10  1  0.38007156  0.37102729  0.00058584  1
  V  V11  1  0.25229072  0.75415066  0.00238794  1
  V  V12  1  0.37659400  0.75174075  0.61923390  1
  V  V13  1  0.50477069  0.00794801  -0.00565311  1
  V  V14  1  0.87396469  0.74843506  0.62553853  1
  V  V15  1  0.74305765  0.24904841  0.49765745  1
  V  V16  1  0.11907654  0.62618048  0.00481028  1
  V  V17  1  0.87419523  0.13580009  0.74749220  1
  V  V18  1  0.74944045  0.75031449  0.00869631  1
  V  V19  1  0.24629706  0.24948419  0.48721446  1
  V  V20  1  0.62512404  0.24790112  0.88366551  1
  V  V21  1  -0.00137498  0.00018306  0.49600193  1
  V  V22  1  -0.00285773  0.13464416  0.62210290  1
  V  V23  1  0.12772552  0.12942340  0.48592014  1
  V  V24  1  -0.00980217  0.63768058  0.13468555  1
  V  V25  1  -0.00336338  0.75069192  0.74839831  1
  V  V26  1  0.63280628  0.49518589  0.63693383  1
  V  V27  1  0.36447229  0.12604818  0.25379703  1
  V  V28  1  0.87297806  0.87094374  0.00465339  1
  V  V29  1  0.87800410  0.87661139  0.50091462  1
  V  V30  1  -0.00280802  0.12970435  0.12405548  1
  V  V31  1  0.62528801  0.62612979  -0.00007341  1
  V  V32  1  0.12520525  0.00198526  0.62223750  1
  V  V33  1  0.00135501  0.00077115  -0.00099376  1
  V  V34  1  0.49713421  0.62698784  0.12404797  1
  V  V35  1  0.49549045  0.87557960  0.37757033  1
  V  V36  1  0.25203934  0.24328693  -0.01497738  1
  V  V37  1  0.48780450  0.87829941  0.87491966  1
  V  V38  1  0.24860985  0.49974362  0.24525179  1
  V  V39  1  0.50095891  0.49830545  -0.00111705  1
  V  V40  1  0.24861518  0.75320392  0.49526395  1
  V  V41  1  0.87203207  0.49799616  0.87087554  1
  V  V42  1  0.75332462  0.36956281  0.63677133  1
  V  V43  1  0.12892673  -0.00185595  0.12928674  1
  V  V44  1  0.37743635  0.37302430  0.49512284  1
  V  V45  1  0.62382555  0.74629774  0.36997022  1
  V  V46  1  0.74806495  0.62162719  0.86679211  1
  V  V47  1  0.74966895  0.74801563  0.49704118  1
  V  V48  1  0.87270296  0.50397010  0.37229851  1
  V  V49  1  0.37340788  0.12418765  0.76365229  1
  V  V50  1  0.50210192  0.25437124  0.26301721  1
  V  V51  1  0.50401696  0.49444025  0.49551601  1
  V  V52  1  0.24567540  0.37141325  0.12212625  1
  V  V53  1  0.87616879  0.36637908  0.50189802  1
  V  V54  1  0.51476445  0.12110765  0.12646202  1
  V  V55  1  0.87360268  0.37409856  0.00168921  1
  V  V56  1  0.37453120  0.24725747  0.62476876  1
  V  V57  1  0.12644402  0.74939128  0.87459700  1
  V  V58  1  0.00178749  0.24323524  0.25280944  1
  V  V59  1  0.36850675  0.00156555  0.37739749  1
  V  V60  1  0.00073112  0.62196797  0.62708281  1
  V  V61  1  0.24792917  0.62556989  0.37537413  1
  V  V62  1  0.75026462  0.37332672  0.13068788  1
  V  V63  1  0.62439599  0.87733643  0.75044241  1
  V  V64  1  0.13330942  0.12266739  -0.01061834  1
  V  V65  1  0.00909194  0.37129681  0.37416047  1
  V  V66  1  -0.00241839  0.87466067  0.87428955  1
  V  V67  1  0.62301348  0.75265817  0.87470957  1
  V  V68  1  0.74451594  0.89138394  0.12529055  1
  V  V69  1  0.37614573  0.24536887  0.12579454  1
  V  V70  1  0.62306130  0.37409401  0.26707084  1
  V  V71  1  0.12695173  0.62350280  0.49699793  1
  V  V72  1  0.37484482  0.62682846  0.24669198  1
  V  V73  1  0.74469783  0.12394979  0.88032522  1
  V  V74  1  0.25663653  0.87851764  0.61989212  1
  V  V75  1  0.50039191  0.62329289  0.62652686  1
  V  V76  1  0.63169999  0.62224221  0.49628434  1
  V  V77  1  0.50961731  0.25076827  0.74672096  1
  V  V78  1  0.25472271  0.00387525  0.75978221  1
  V  V79  1  0.62800188  0.49926235  0.12888806  1
  V  V80  1  0.12940264  0.86244311  0.26254952  1
  V  V81  1  0.87218269  0.00912341  0.36344523  1
  V  V82  1  0.87282441  0.00024842  0.87131022  1
  V  V83  1  0.12474337  0.87749837  0.74672701  1
  V  V84  1  0.37745143  0.49856453  0.37565236  1
  Zn  Zn85  1  0.12894924  0.36895194  0.25507016  1
  Zn  Zn86  1  0.49598309  0.75062344  0.75018180  1
  Zn  Zn87  1  0.74797639  0.51114554  0.25845231  1
  Zn  Zn88  1  0.24856169  0.61587001  0.86878213  1
  Zn  Zn89  1  0.36958504  0.49738873  0.85915056  1
  Zn  Zn90  1  0.50107230  0.12526587  0.62343570  1
  Zn  Zn91  1  0.01199763  0.38224680  0.86600424  1
  Zn  Zn92  1  0.87245280  0.64037599  0.25298885  1
  Zn  Zn93  1  0.74927756  0.87632373  0.62448488  1
  Zn  Zn94  1  0.87355131  0.24406446  0.12741627  1
  Zn  Zn95  1  0.24493612  0.00383664  0.25736926  1
  Zn  Zn96  1  0.62465828  0.12810889  0.49343533  1
  Zn  Zn97  1  0.74975459  0.00171989  0.74681788  1
  Zn  Zn98  1  0.74773953  0.24521987  0.00557480  1
  Zn  Zn99  1  0.50005980  0.75275716  0.24769072  1
  Zn  Zn100  1  0.37538228  0.75313288  0.12277059  1
  Zn  Zn101  1  0.25397416  0.87629846  0.13049750  1
  Zn  Zn102  1  0.86940479  0.61725854  0.74593219  1
  Zn  Zn103  1  0.11815708  0.50073964  0.12722660  1
  Zn  Zn104  1  0.36071676  0.61891585  0.74589973  1
  Zn  Zn105  1  0.37340649  0.88241716  0.00413366  1
  Zn  Zn106  1  -0.00617485  0.50368075  0.00445369  1
  Zn  Zn107  1  0.18206781  0.18840332  0.18385894  1
  Zn  Zn108  1  0.18986183  0.18462981  0.68168943  1
  Zn  Zn109  1  0.18618455  0.68858842  0.18445317  1
  Zn  Zn110  1  0.18747731  0.68858034  0.68516399  1
  Zn  Zn111  1  0.68665356  0.19299601  0.19396270  1
  Zn  Zn112  1  0.68965276  0.18758908  0.68780929  1
  Zn  Zn113  1  0.69167245  0.68791107  0.18921487  1
  Zn  Zn114  1  0.68381537  0.68970293  0.68527995  1
  Zn  Zn115  1  0.31545504  0.31398448  0.31129731  1
  Zn  Zn116  1  0.32230927  0.31307365  0.81201058  1
  Zn  Zn117  1  0.31299295  0.81251808  0.31294620  1
  Zn  Zn118  1  0.30988525  0.80695692  0.80569144  1
  Zn  Zn119  1  0.81858485  0.31310146  0.31147340  1
  Zn  Zn120  1  0.81594785  0.31026138  0.81723785  1
  Zn  Zn121  1  0.79086889  0.81849384  0.31317510  1
  Zn  Zn122  1  0.80811936  0.81047771  0.81358694  1
  Zn  Zn123  1  0.19075720  0.43852668  0.44230101  1
  Zn  Zn124  1  0.18679028  0.43590046  0.93150470  1
  Zn  Zn125  1  0.18447341  0.93641284  0.43716844  1
  Zn  Zn126  1  0.18725638  0.93638205  0.93747788  1
  Zn  Zn127  1  0.69250206  0.43670409  0.44274870  1
  Zn  Zn128  1  0.68909285  0.43572776  0.93787193  1
  Zn  Zn129  1  0.68815040  0.93996157  0.43440788  1
  Zn  Zn130  1  0.68275213  0.94082401  0.93875276  1
  Zn  Zn131  1  0.31668600  0.05967625  0.06173254  1
  Zn  Zn132  1  0.31184867  0.06542798  0.56152321  1
  Zn  Zn133  1  0.29774038  0.54911249  0.03393967  1
  Zn  Zn134  1  0.31280022  0.55926366  0.56722008  1
  Zn  Zn135  1  0.81367772  0.06163815  0.05936504  1
  Zn  Zn136  1  0.81155271  0.06500209  0.56098945  1
  Zn  Zn137  1  0.81347702  0.56343259  0.06395504  1
  Zn  Zn138  1  0.81334564  0.55711191  0.56030437  1
  Zn  Zn139  1  0.43805785  0.43621583  0.18692746  1
  Zn  Zn140  1  0.43958335  0.43484932  0.68364219  1
  Zn  Zn141  1  0.43662477  0.94134517  0.18696657  1
  Zn  Zn142  1  0.43699187  0.93894284  0.68731215  1
  Zn  Zn143  1  0.94158471  0.43773014  0.18745704  1
  Zn  Zn144  1  0.93713183  0.43219703  0.68970748  1
  Zn  Zn145  1  0.93814803  0.93922267  0.18034116  1
  Zn  Zn146  1  0.93697593  0.94060712  0.68404726  1
  Zn  Zn147  1  0.05890944  0.05964082  0.31060870  1
  Zn  Zn148  1  0.06220357  0.06321926  0.80950042  1
  Zn  Zn149  1  0.05981129  0.56277174  0.31135304  1
  Zn  Zn150  1  0.05702136  0.56552425  0.81722036  1
  Zn  Zn151  1  0.55698486  0.06944815  0.31517150  1
  Zn  Zn152  1  0.56059056  0.06394415  0.81062492  1
  Zn  Zn153  1  0.56253645  0.56198615  0.31255026  1
  Zn  Zn154  1  0.55802879  0.56387590  0.81173207  1
  Zn  Zn155  1  0.43645722  0.18388646  0.43904614  1
  Zn  Zn156  1  0.44245312  0.18565111  0.93923921  1
  Zn  Zn157  1  0.43813632  0.68612552  0.43925421  1
  Zn  Zn158  1  0.43251561  0.68737370  0.93261879  1
  Zn  Zn159  1  0.93527433  0.18875206  0.43512976  1
  Zn  Zn160  1  0.93654888  0.18859812  0.93971148  1
  Zn  Zn161  1  0.93784224  0.68166643  0.44412239  1
  Zn  Zn162  1  0.93490452  0.68657213  0.93852557  1
  Zn  Zn163  1  0.07577643  0.32286709  0.03078755  1
  Zn  Zn164  1  0.06653811  0.31061245  0.56612642  1
  Zn  Zn165  1  0.06299265  0.81371373  0.06732123  1
  Zn  Zn166  1  0.06368867  0.81177584  0.55767685  1
  Zn  Zn167  1  0.56430946  0.31060712  0.06795057  1
  Zn  Zn168  1  0.56574882  0.31475839  0.56178472  1
  Zn  Zn169  1  0.56047575  0.81720724  0.06102484  1
  Zn  Zn170  1  0.56242093  0.81491424  0.56037341  1
  O  O171  1  0.11624287  0.11435561  0.11912806  1
  O  O172  1  0.11590553  0.11769957  0.61673492  1
  O  O173  1  0.11373257  0.62661586  0.12030183  1
  O  O174  1  0.12060699  0.61539461  0.61780659  1
  O  O175  1  0.61294636  0.13106555  0.12919709  1
  O  O176  1  0.62481874  0.11301412  0.62375834  1
  O  O177  1  0.61866260  0.61822763  0.12046019  1
  O  O178  1  0.62283759  0.61457431  0.61728093  1
  O  O179  1  0.37227255  0.38200183  0.38727342  1
  O  O180  1  0.39088972  0.37641384  0.88274119  1
  O  O181  1  0.38850650  0.88277602  0.36731740  1
  O  O182  1  0.38603357  0.86956459  0.87049115  1
  O  O183  1  0.88676576  0.38090221  0.38411066  1
  O  O184  1  0.87647541  0.38097887  0.88452452  1
  O  O185  1  0.88063122  0.87994898  0.37799818  1
  O  O186  1  0.87767631  0.88185671  0.87889122  1
  O  O187  1  0.26476036  -0.00445959  0.37950336  1
  O  O188  1  0.24733950  -0.00710023  0.85856067  1
  O  O189  1  0.25717523  0.50485178  0.36686992  1
  O  O190  1  0.26716718  0.50815448  0.91719218  1
  O  O191  1  0.76394497  0.01128337  0.37933473  1
  O  O192  1  0.75582981  0.00567871  0.87223321  1
  O  O193  1  0.76892131  0.49597673  0.37978023  1
  O  O194  1  0.75403093  0.51115848  0.87904525  1
  O  O195  1  0.25194715  0.49041142  0.12939269  1
  O  O196  1  0.24312020  0.48532399  0.62182558  1
  O  O197  1  0.23865006  0.99954808  0.12798617  1
  O  O198  1  0.24566922  0.99227487  0.62599170  1
  O  O199  1  0.73766742  0.49607064  0.12537852  1
  O  O200  1  0.74002184  0.48960898  0.62158988  1
  O  O201  1  0.74578182  0.99083800  0.11663639  1
  O  O202  1  0.74145666  0.99679489  0.62505272  1
  O  O203  1  0.00658019  0.36865198  0.25822940  1
  O  O204  1  -0.00071146  0.35610022  0.75056162  1
  O  O205  1  0.00708442  0.87238951  0.25124373  1
  O  O206  1  0.00442934  0.87147139  0.75277680  1
  O  O207  1  0.50903535  0.36672076  0.24482648  1
  O  O208  1  0.49783679  0.36400704  0.75757438  1
  O  O209  1  0.50963148  0.87398218  0.25565822  1
  O  O210  1  0.50813167  0.87607442  0.75639648  1
  O  O211  1  0.49306536  0.13276117  0.24017775  1
  O  O212  1  0.49133306  0.13206337  0.74497480  1
  O  O213  1  0.49226112  0.62440357  0.24177481  1
  O  O214  1  0.50591672  0.63003335  0.73318664  1
  O  O215  1  1.00309896  0.13502504  0.24235623  1
  O  O216  1  0.99522773  0.13146187  0.74277653  1
  O  O217  1  0.99395668  0.62622971  0.24068508  1
  O  O218  1  0.99622025  0.63332757  0.74336535  1
  O  O219  1  0.37188960  0.24959009  0.00786623  1
  O  O220  1  0.37074257  0.25555239  0.50557957  1
  O  O221  1  0.36421525  0.75346224  0.00014885  1
  O  O222  1  0.36560629  0.74455418  0.51040475  1
  O  O223  1  0.87045708  0.25768562  0.00467186  1
  O  O224  1  0.86773519  0.26099208  0.49827147  1
  O  O225  1  0.86455169  0.76367960  -0.00897258  1
  O  O226  1  0.86800628  0.75507339  0.50347352  1
  O  O227  1  0.13402009  0.24184209  0.50326540  1
  O  O228  1  0.13903773  0.22860078  1.00956870  1
  O  O229  1  0.13597477  0.73646898  0.50754439  1
  O  O230  1  0.12721629  0.74729532  0.99241982  1
  O  O231  1  0.63803413  0.25070469  0.49903471  1
  O  O232  1  0.62506950  0.25158685  0.98762349  1
  O  O233  1  0.63081626  0.74402820  0.49340427  1
  O  O234  1  0.62993647  0.74678084  0.99422175  1
  O  O235  1  0.49312610  0.24050470  0.12928693  1
  O  O236  1  0.49444926  0.25161331  0.63052989  1
  O  O237  1  0.50096558  0.73721271  0.12489441  1
  O  O238  1  0.49329513  0.74291506  0.61986215  1
  O  O239  1  1.00122981  0.24073485  0.13135960  1
  O  O240  1  1.00297069  0.23869736  0.63368345  1
  O  O241  1  0.99967817  0.73715405  0.12441229  1
  O  O242  1  0.99435236  0.74333827  0.62727205  1
  O  O243  1  -0.00334179  0.25539947  0.36319948  1
  O  O244  1  0.00056517  0.24541693  0.86166526  1
  O  O245  1  0.00255080  0.75774185  0.38413454  1
  O  O246  1  0.00693948  0.75509297  0.87022125  1
  O  O247  1  0.49499119  0.24634376  0.36232712  1
  O  O248  1  0.50737118  0.25529413  0.86862152  1
  O  O249  1  0.50594616  0.75837671  0.37573822  1
  O  O250  1  0.50667187  0.75948401  0.87420332  1
  O  O251  1  0.23979268  0.13651139  0.50566690  1
  O  O252  1  0.24202449  0.12694481  1.00262734  1
  O  O253  1  0.24419732  0.62846534  0.49761145  1
  O  O254  1  0.23635826  0.64217018  1.00183254  1
  O  O255  1  0.75021999  0.13500252  0.49315133  1
  O  O256  1  0.75463607  0.12638638  0.98483172  1
  O  O257  1  0.73955326  0.63075543  0.50370563  1
  O  O258  1  0.74385239  0.63380471  0.99528739  1
  O  O259  1  0.26262430  0.36257286  0.00849815  1
  O  O260  1  0.25885374  0.36867059  0.50800733  1
  O  O261  1  0.25003427  0.86627396  0.00189866  1
  O  O262  1  0.24253667  0.86543395  0.50790792  1
  O  O263  1  0.75629900  0.37230597  0.00990862  1
  O  O264  1  0.75838759  0.36693927  0.50582790  1
  O  O265  1  0.75348485  0.87085242  0.00373466  1
  O  O266  1  0.76180137  0.86853543  0.49730809  1
  O  O267  1  0.13885813  0.49808451  0.24844901  1
  O  O268  1  0.11832638  0.50019363  0.74356278  1
  O  O269  1  0.12516907  0.99304665  0.24443566  1
  O  O270  1  0.13093864  0.99677656  0.74141889  1
  O  O271  1  0.62613671  0.49412543  0.24395850  1
  O  O272  1  0.62289868  0.50253012  0.73481598  1
  O  O273  1  0.61835327  0.99187913  0.25266407  1
  O  O274  1  0.62429471  0.99393386  0.74088382  1
  O  O275  1  0.37276843  0.00994694  0.25856174  1
  O  O276  1  0.36704061  0.01201977  0.74216820  1
  O  O277  1  0.36754570  0.50729443  0.25200890  1
  O  O278  1  0.38405416  0.50539950  0.74666872  1
  O  O279  1  0.88202478  -0.00557105  0.26568975  1
  O  O280  1  0.87567156  0.00564242  0.76024107  1
  O  O281  1  0.87574720  0.49353787  0.26769442  1
  O  O282  1  0.87832479  0.49879060  0.76480245  1
  O  O283  1  0.11281757  0.38019431  0.37924644  1
  O  O284  1  0.10718303  0.36395215  0.92328063  1
  O  O285  1  0.11974779  0.87966507  0.36163261  1
  O  O286  1  0.11592985  0.86959058  0.86925932  1
  O  O287  1  0.62632590  0.38372960  0.36619405  1
  O  O288  1  0.61584054  0.36754891  0.87646131  1
  O  O289  1  0.61953565  0.87092248  0.36383369  1
  O  O290  1  0.61770939  0.87201220  0.86699238  1
  O  O291  1  0.38003138  0.13428408  0.13231254  1
  O  O292  1  0.37614380  0.13943347  0.62602815  1
  O  O293  1  0.38451622  0.62366443  0.13122671  1
  O  O294  1  0.38527206  0.63117900  0.62181867  1
  O  O295  1  0.89195341  0.12130350  0.11675726  1
  O  O296  1  0.88468956  0.11718734  0.63520556  1
  O  O297  1  0.88567853  0.62767633  0.12632698  1
  O  O298  1  0.88070077  0.62802036  0.62472614  1
  O  O299  1  0.25894609  0.25476605  0.12165662  1
  O  O300  1  0.25692836  0.26018426  0.61863602  1
  O  O301  1  0.25122159  0.75436903  0.11597372  1
  O  O302  1  0.25580969  0.75826079  0.61583623  1
  O  O303  1  0.75208100  0.25829683  0.12543247  1
  O  O304  1  0.74570262  0.26282248  0.61751657  1
  O  O305  1  0.74231431  0.76137136  0.11150070  1
  O  O306  1  0.75271281  0.75272547  0.61303770  1
  O  O307  1  0.25380894  0.25542527  0.38760207  1
  O  O308  1  0.25739098  0.25378963  0.88615815  1
  O  O309  1  0.25643247  0.74300473  0.38778596  1
  O  O310  1  0.23556702  0.75467643  0.87982056  1
  O  O311  1  0.75922916  0.23704442  0.38050027  1
  O  O312  1  0.74082683  0.24284482  0.87460097  1
  O  O313  1  0.73899350  0.75136320  0.38822065  1
  O  O314  1  0.74151239  0.74442900  0.88480410  1
  O  O315  1  0.01114131  0.11971267  0.00377097  1
  O  O316  1  0.00333425  0.12198611  0.50584135  1
  O  O317  1  0.00396935  0.62827219  0.00968567  1
  O  O318  1  0.00895325  0.61695218  0.50847503  1
  O  O319  1  0.50078485  0.11818245  0.01176278  1
  O  O320  1  0.50590683  0.11649064  0.50206036  1
  O  O321  1  0.50501155  0.61776971  0.00561889  1
  O  O322  1  0.51015489  0.61871448  0.50911324  1
  O  O323  1  0.49167956  0.38335451  0.50543010  1
  O  O324  1  0.50034899  0.37971142  0.99535235  1
  O  O325  1  0.50560518  0.88456957  0.48774088  1
  O  O326  1  0.49677717  0.88338234  0.99063741  1
  O  O327  1  0.99471251  0.37453371  0.49784444  1
  O  O328  1  0.97750032  0.38053640  1.01686201  1
  O  O329  1  0.98834917  0.88428233  0.50490611  1
  O  O330  1  0.99151810  0.88017744  0.99660240  1
  O  O331  1  0.49434875  0.50599894  0.38851964  1
  O  O332  1  0.50415292  0.49211855  0.88403058  1
  O  O333  1  0.49285930  0.99504100  0.38136403  1
  O  O334  1  0.50278414  0.99529171  0.88518306  1
  O  O335  1  0.99474491  0.49124112  0.38238736  1
  O  O336  1  0.98871023  0.49894949  0.88265249  1
  O  O337  1  0.98632384  1.00765485  0.38767882  1
  O  O338  1  0.99259680  0.99507731  0.87894439  1
  O  O339  1  0.00941167  0.00458797  0.11698947  1
  O  O340  1  0.00329495  0.00874878  0.61372782  1
  O  O341  1  0.00080413  0.51338526  0.12439771  1
  O  O342  1  0.00798398  0.50104512  0.62257452  1
  O  O343  1  0.49937641  0.01687795  0.12164591  1
  O  O344  1  0.50617139  -0.00029797  0.61555057  1
  O  O345  1  0.51125881  0.50697099  0.12205943  1
  O  O346  1  0.51341171  0.50363618  0.61446333  1
  O  O347  1  0.25042009  0.38149144  0.24147456  1
  O  O348  1  0.25745079  0.37026755  0.73590560  1
  O  O349  1  0.23938934  0.87878189  0.25245580  1
  O  O350  1  0.24417060  0.88049862  0.73858845  1
  O  O351  1  0.74194921  0.37822564  0.24626356  1
  O  O352  1  0.75591439  0.36735673  0.73558127  1
  O  O353  1  0.73321434  0.87927634  0.24061063  1
  O  O354  1  0.73620529  0.87720715  0.74936425  1
  O  O355  1  0.26088360  0.12670278  0.24627846  1
  O  O356  1  0.26001074  0.11592870  0.74238741  1
  O  O357  1  0.25600835  0.61872526  0.25193374  1
  O  O358  1  0.24496317  0.62688106  0.75524636  1
  O  O359  1  0.75378741  0.12959084  0.26208443  1
  O  O360  1  0.75905998  0.12371142  0.75794096  1
  O  O361  1  0.76061428  0.62419360  0.24722606  1
  O  O362  1  0.74912366  0.63319798  0.76294915  1
  O  O363  1  0.38042101  0.11501145  0.36528396  1
  O  O364  1  0.37786246  0.12985005  0.86307156  1
  O  O365  1  0.37019268  0.61872694  0.36751369  1
  O  O366  1  0.37221788  0.61978142  0.86804919  1
  O  O367  1  0.86669125  0.11479282  0.37652707  1
  O  O368  1  0.87035018  0.11711751  0.86845757  1
  O  O369  1  0.88448710  0.60730666  0.37637719  1
  O  O370  1  0.86453505  0.61801634  0.87442147  1
  O  O371  1  0.13870617  0.37660262  0.12018611  1
  O  O372  1  0.13965514  0.38126141  0.62366499  1
  O  O373  1  0.12477413  0.88307404  0.13689457  1
  O  O374  1  0.13157808  0.88162822  0.62764944  1
  O  O375  1  0.63363394  0.38247013  0.13028186  1
  O  O376  1  0.63777297  0.38712377  0.62107681  1
  O  O377  1  0.62657957  0.87304098  0.13928286  1
  O  O378  1  0.62441386  0.88478712  0.63140064  1
  O  O379  1  0.10989838  0.25312456  0.24605755  1
  O  O380  1  0.11505764  0.24159532  0.74935667  1
  O  O381  1  0.12937144  0.76321763  0.25255175  1
  O  O382  1  0.11757988  0.75794054  0.75587312  1
  O  O383  1  0.61468881  0.26244332  0.24984550  1
  O  O384  1  0.61346416  0.24452899  0.75620440  1
  O  O385  1  0.62344511  0.75284572  0.26212087  1
  O  O386  1  0.62097054  0.76000611  0.75410484  1
  O  O387  1  0.38112382  0.24558850  0.24371179  1
  O  O388  1  0.38449036  0.24379285  0.74181692  1
  O  O389  1  0.37690258  0.73657343  0.24923454  1
  O  O390  1  0.37649869  0.74651543  0.73271185  1
  O  O391  1  0.89474267  0.25836436  0.24318321  1
  O  O392  1  0.88318282  0.23778413  0.75331764  1
  O  O393  1  0.88482533  0.76217156  0.27182376  1
  O  O394  1  0.87880292  0.75031306  0.74225880  1
  O  O395  1  0.38371707  0.49232275  0.49879253  1
  O  O396  1  0.39548711  0.48994504  1.01277481  1
  O  O397  1  0.38657619  1.00573684  0.49450369  1
  O  O398  1  0.39386084  0.99848358  1.00526029  1
  O  O399  1  0.88335697  0.48944346  0.49337533  1
  O  O400  1  0.86978498  0.49354024  0.98971820  1
  O  O401  1  0.87907273  0.99235862  0.49312312  1
  O  O402  1  0.87884333  0.99142495  0.98711729  1
  O  O403  1  0.12311917  0.00606547  0.00717358  1
  O  O404  1  0.11564624  0.00544337  0.50272561  1
  O  O405  1  0.12293494  0.51965955  0.00483564  1
  O  O406  1  0.12097070  0.50560430  0.50968602  1
  O  O407  1  0.60536371  -0.00592567  0.00415996  1
  O  O408  1  0.61711590  -0.00017071  0.50562291  1
  O  O409  1  0.61737295  0.50323920  0.00812659  1
  O  O410  1  0.62144954  0.50639819  0.50395461  1
  O  O411  1  0.37073616  0.36266602  0.12226842  1
  O  O412  1  0.36834548  0.36590119  0.61576892  1
  O  O413  1  0.37293827  0.87128616  0.12573000  1
  O  O414  1  0.36476709  0.86896360  0.62553679  1
  O  O415  1  0.85920350  0.38134224  0.12377414  1
  O  O416  1  0.86112425  0.38252630  0.61678450  1
  O  O417  1  0.86396238  0.88100448  0.11391253  1
  O  O418  1  0.87210856  0.86948286  0.61669115  1
  O  O419  1  0.12137615  0.11910164  0.38707352  1
  O  O420  1  0.12434110  0.11583931  0.89083137  1
  O  O421  1  0.13087169  0.61631194  0.38847926  1
  O  O422  1  0.12157785  0.63549540  0.88514873  1
  O  O423  1  0.64280660  0.11863367  0.37480690  1
  O  O424  1  0.63332546  0.13313083  0.86912914  1
  O  O425  1  0.61804923  0.63414867  0.38428867  1
  O  O426  1  0.62888305  0.63021777  0.88050788  1
