# generated using pymatgen
data_V85Zn86O256
_symmetry_space_group_name_H-M   'P 1'
_cell_length_a   16.95384785
_cell_length_b   16.93689663
_cell_length_c   16.95381314
_cell_angle_alpha   90.04332652
_cell_angle_beta   89.98169007
_cell_angle_gamma   89.99965730
_symmetry_Int_Tables_number   1
_chemical_formula_structural   V85Zn86O256
_chemical_formula_sum   'V85 Zn86 O256'
_cell_volume   4868.21067067
_cell_formula_units_Z   1
loop_
 _symmetry_equiv_pos_site_id
 _symmetry_equiv_pos_as_xyz
  1  'x, y, z'
loop_
 _atom_site_type_symbol
 _atom_site_label
 _atom_site_symmetry_multiplicity
 _atom_site_fract_x
 _atom_site_fract_y
 _atom_site_fract_z
 _atom_site_occupancy
  V  V0  1  0.12530736  0.37364401  0.74705999  1
  V  V1  1  0.86669163  0.24681551  0.12082160  1
  V  V2  1  0.49605370  0.49846732  0.50670458  1
  V  V3  1  0.62955295  0.37007528  0.75372977  1
  V  V4  1  0.13399747  0.74785034  0.36959108  1
  V  V5  1  0.00095286  0.48973661  0.00272101  1
  V  V6  1  0.88413482  0.74973884  0.63218091  1
  V  V7  1  0.24859984  0.75093166  -0.00039605  1
  V  V8  1  0.37596173  0.50037855  0.87521535  1
  V  V9  1  0.50001136  0.12359033  0.13080743  1
  V  V10  1  0.86894266  0.00326138  0.87266721  1
  V  V11  1  0.37155984  0.50216307  0.38192595  1
  V  V12  1  -0.00263384  0.37364542  0.38455724  1
  V  V13  1  0.50121438  0.74461773  0.74334753  1
  V  V14  1  0.37193007  0.87485390  0.00096264  1
  V  V15  1  0.63726635  0.73973184  0.87911771  1
  V  V16  1  0.37769747  0.62259810  0.73976613  1
  V  V17  1  0.74582622  0.49945057  0.24623342  1
  V  V18  1  0.24773677  0.12195088  0.87607313  1
  V  V19  1  -0.00076042  0.00050153  0.50096308  1
  V  V20  1  -0.00245264  0.12561304  0.62488013  1
  V  V21  1  -0.01567852  0.24439603  0.25378481  1
  V  V22  1  0.37214704  0.24670875  0.12832683  1
  V  V23  1  0.74995349  0.75228576  0.49981337  1
  V  V24  1  0.25131615  0.24595190  -0.00255347  1
  V  V25  1  0.01107387  0.01076472  -0.00607361  1
  V  V26  1  0.74834541  0.87812668  0.62604255  1
  V  V27  1  0.75383554  0.37536672  0.61331036  1
  V  V28  1  0.86154228  0.37730575  0.00139916  1
  V  V29  1  0.37230409  0.87690662  0.50562201  1
  V  V30  1  0.75362763  0.13241394  0.37346008  1
  V  V31  1  0.62696171  -0.00573941  0.12655260  1
  V  V32  1  0.37709961  0.13124502  0.74187472  1
  V  V33  1  0.75303767  0.50898992  0.75336867  1
  V  V34  1  0.51157513  0.37156459  0.87844273  1
  V  V35  1  0.12222831  0.24470189  0.88047408  1
  V  V36  1  0.25091538  0.37306280  0.12743485  1
  V  V37  1  0.25196182  0.62356696  0.87510706  1
  V  V38  1  0.62137943  0.37670292  0.24465860  1
  V  V39  1  0.50207950  0.00288684  -0.00119830  1
  V  V40  1  0.61948826  0.75742064  0.37660572  1
  V  V41  1  0.87072585  0.87433878  0.00034009  1
  V  V42  1  0.25027359  0.50315315  0.25561615  1
  V  V43  1  0.88156343  0.62566605  0.25306105  1
  V  V44  1  0.49864446  0.87472811  0.36262479  1
  V  V45  1  -0.00407425  0.24982645  0.74934352  1
  V  V46  1  0.50010516  0.87343263  0.87317969  1
  V  V47  1  0.75000219  -0.00201695  0.24770464  1
  V  V48  1  0.87439517  0.87638126  0.49937058  1
  V  V49  1  0.26358939  0.36984121  0.62248981  1
  V  V50  1  0.23342665  0.88498240  0.13565359  1
  V  V51  1  0.12888547  0.61968139  0.49955116  1
  V  V52  1  0.12301033  0.37435792  0.25956876  1
  V  V53  1  0.12051951  0.74662083  0.86538002  1
  V  V54  1  0.26222824  0.24596366  0.50354548  1
  V  V55  1  0.62998168  0.13621834  0.50018508  1
  V  V56  1  0.12916250  -0.00602164  0.62292713  1
  V  V57  1  0.87540813  0.00118275  0.36333799  1
  V  V58  1  0.62371082  0.87775577  0.75212637  1
  V  V59  1  0.12506673  0.62169940  -0.00014379  1
  V  V60  1  0.54491605  0.69959626  0.19696999  1
  V  V61  1  0.50135826  0.50974601  0.01392745  1
  V  V62  1  0.00490512  0.86971722  0.37187051  1
  V  V63  1  0.50340254  0.00106719  0.49771956  1
  V  V64  1  0.25117437  -0.00996162  0.74525151  1
  V  V65  1  0.12494408  0.49492180  0.12613380  1
  V  V66  1  0.37416898  0.37522020  -0.00050192  1
  V  V67  1  0.87207674  0.25503108  0.61092917  1
  V  V68  1  -0.00050773  0.87199100  0.86718295  1
  V  V69  1  0.74413650  0.14272213  0.87531443  1
  V  V70  1  0.87345082  0.49734087  0.38355690  1
  V  V71  1  0.62758826  0.13967838  -0.00085083  1
  V  V72  1  0.87565783  0.50891739  0.87657009  1
  V  V73  1  0.36966206  0.63081964  0.25622171  1
  V  V74  1  0.75009815  0.62733764  0.37802278  1
  V  V75  1  0.18059989  0.19172018  0.31681753  1
  V  V76  1  0.87806091  0.75438509  0.12068605  1
  V  V77  1  0.12981510  0.13193109  0.50104151  1
  V  V78  1  0.49747884  0.37380477  0.37969114  1
  V  V79  1  0.37024032  0.74982348  0.12979001  1
  V  V80  1  0.61672658  0.62843219  0.50509576  1
  V  V81  1  0.37567296  -0.00020517  0.87301486  1
  V  V82  1  0.62307794  0.50556476  0.62905512  1
  V  V83  1  0.36132307  0.00331779  0.36724170  1
  V  V84  1  0.24949290  0.75170179  0.50929150  1
  Zn  Zn85  1  0.00546696  0.62217006  0.63318107  1
  Zn  Zn86  1  0.00746699  0.74937078  0.24619615  1
  Zn  Zn87  1  0.88132904  0.63326763  0.75932904  1
  Zn  Zn88  1  -0.00567895  0.49956340  0.50509800  1
  Zn  Zn89  1  0.74620794  0.00562347  0.75036260  1
  Zn  Zn90  1  0.00246257  0.62410355  0.12532752  1
  Zn  Zn91  1  0.74234414  0.37398946  0.12327957  1
  Zn  Zn92  1  0.62394201  0.00407936  0.62356929  1
  Zn  Zn93  1  0.35417974  0.12216503  0.25088613  1
  Zn  Zn94  1  0.86845798  0.12862407  0.74774015  1
  Zn  Zn95  1  0.49908235  0.24756806  0.25427618  1
  Zn  Zn96  1  0.37622702  0.75155982  0.62435291  1
  Zn  Zn97  1  0.12432871  0.86807729  0.74174583  1
  Zn  Zn98  1  -0.00137769  0.37340920  0.87550529  1
  Zn  Zn99  1  0.62814970  0.25332820  0.37562386  1
  Zn  Zn100  1  0.49851585  0.13720052  0.61748963  1
  Zn  Zn101  1  0.49956309  0.25311381  0.74771864  1
  Zn  Zn102  1  0.75223707  0.87473154  0.12466075  1
  Zn  Zn103  1  -0.00198256  0.12158085  0.12412735  1
  Zn  Zn104  1  0.24991921  0.49777387  0.74756788  1
  Zn  Zn105  1  0.12352255  0.49675288  0.62644031  1
  Zn  Zn106  1  0.62563290  0.63378614  0.01810631  1
  Zn  Zn107  1  0.15734512  0.05907397  0.16499866  1
  Zn  Zn108  1  0.18874090  0.18582419  0.68759952  1
  Zn  Zn109  1  0.19001473  0.68576387  0.18537460  1
  Zn  Zn110  1  0.19125986  0.68311257  0.68591475  1
  Zn  Zn111  1  0.68681909  0.18482488  0.19326166  1
  Zn  Zn112  1  0.68627536  0.19159140  0.68514931  1
  Zn  Zn113  1  0.70801397  0.69394859  0.19265515  1
  Zn  Zn114  1  0.69092673  0.69023050  0.68952358  1
  Zn  Zn115  1  0.31953909  0.31644055  0.31328241  1
  Zn  Zn116  1  0.31235099  0.31310071  0.81246424  1
  Zn  Zn117  1  0.30880742  0.81825604  0.31436653  1
  Zn  Zn118  1  0.31301184  0.80931664  0.81179139  1
  Zn  Zn119  1  0.81146242  0.31689677  0.31499827  1
  Zn  Zn120  1  0.81419329  0.32191656  0.81041124  1
  Zn  Zn121  1  0.81569863  0.81468267  0.30949408  1
  Zn  Zn122  1  0.81073619  0.81655493  0.81288684  1
  Zn  Zn123  1  0.19091791  0.43198843  0.44020499  1
  Zn  Zn124  1  0.18701864  0.43270159  0.93472594  1
  Zn  Zn125  1  0.18684130  0.93443785  0.43895061  1
  Zn  Zn126  1  0.18646502  0.93379768  0.93521112  1
  Zn  Zn127  1  0.68230515  0.44059655  0.43499464  1
  Zn  Zn128  1  0.70306179  0.48572543  0.95875115  1
  Zn  Zn129  1  0.68740633  0.94120211  0.43554082  1
  Zn  Zn130  1  0.68768573  0.94158217  0.93769951  1
  Zn  Zn131  1  0.31205354  0.06098654  0.06075993  1
  Zn  Zn132  1  0.31227817  0.05985728  0.55973563  1
  Zn  Zn133  1  0.31509747  0.56390402  0.06624383  1
  Zn  Zn134  1  0.30495914  0.56024685  0.56225384  1
  Zn  Zn135  1  0.81331705  0.06410944  0.05658887  1
  Zn  Zn136  1  0.81198099  0.06424888  0.56014737  1
  Zn  Zn137  1  0.81342882  0.56973955  0.06601732  1
  Zn  Zn138  1  0.80880421  0.56626347  0.56516779  1
  Zn  Zn139  1  0.43533814  0.43677774  0.19228791  1
  Zn  Zn140  1  0.44045583  0.43632102  0.68988621  1
  Zn  Zn141  1  0.43275282  0.93740355  0.18625602  1
  Zn  Zn142  1  0.44009442  0.94154912  0.68424425  1
  Zn  Zn143  1  0.93605223  0.43381825  0.18952276  1
  Zn  Zn144  1  0.93828634  0.43951400  0.68745002  1
  Zn  Zn145  1  0.98557565  0.94894556  0.19301967  1
  Zn  Zn146  1  0.93653933  0.93896907  0.68914867  1
  Zn  Zn147  1  0.05576404  0.05983818  0.31446345  1
  Zn  Zn148  1  0.06200931  0.06156275  0.80977647  1
  Zn  Zn149  1  0.06262054  0.56207427  0.31891902  1
  Zn  Zn150  1  0.05839444  0.56079993  0.80970949  1
  Zn  Zn151  1  0.56655988  0.05959101  0.31320325  1
  Zn  Zn152  1  0.56385737  0.06523577  0.81326672  1
  Zn  Zn153  1  0.56400333  0.55977820  0.32041036  1
  Zn  Zn154  1  0.55969292  0.55992822  0.81432399  1
  Zn  Zn155  1  0.43906437  0.18258371  0.43295192  1
  Zn  Zn156  1  0.43853470  0.18779331  0.93561164  1
  Zn  Zn157  1  0.43634717  0.68822145  0.43725700  1
  Zn  Zn158  1  0.44122698  0.68798074  0.93553864  1
  Zn  Zn159  1  0.93769889  0.18547232  0.43628713  1
  Zn  Zn160  1  0.93029209  0.19082453  0.93693379  1
  Zn  Zn161  1  0.94223441  0.68683916  0.44261500  1
  Zn  Zn162  1  0.94183022  0.68621741  0.94106130  1
  Zn  Zn163  1  0.09667979  0.25950204  0.09701376  1
  Zn  Zn164  1  0.06603092  0.31002583  0.56399097  1
  Zn  Zn165  1  0.05649046  0.81221796  0.05304506  1
  Zn  Zn166  1  0.06333820  0.81180849  0.55677784  1
  Zn  Zn167  1  0.55807254  0.31600803  0.06478663  1
  Zn  Zn168  1  0.56060885  0.31472461  0.56676964  1
  Zn  Zn169  1  0.56481022  0.81846518  0.05483253  1
  Zn  Zn170  1  0.55911599  0.81746087  0.56178795  1
  O  O171  1  0.10873354  0.14867872  0.12048150  1
  O  O172  1  0.11929756  0.11663896  0.61823354  1
  O  O173  1  0.12635978  0.61513628  0.11748724  1
  O  O174  1  0.12709737  0.62175074  0.61350201  1
  O  O175  1  0.61848313  0.11868609  0.11835096  1
  O  O176  1  0.62620921  0.12304222  0.61527666  1
  O  O177  1  0.61135917  0.64818891  0.13806548  1
  O  O178  1  0.63129988  0.61534396  0.61957633  1
  O  O179  1  0.38822336  0.38739360  0.37216201  1
  O  O180  1  0.38108873  0.38327903  0.87831187  1
  O  O181  1  0.38094651  0.88393693  0.38125853  1
  O  O182  1  0.37960117  0.87966191  0.87981812  1
  O  O183  1  0.88295151  0.38634214  0.37272032  1
  O  O184  1  0.87780875  0.38302218  0.88611759  1
  O  O185  1  0.87967447  0.88064889  0.38321953  1
  O  O186  1  0.88047605  0.88174162  0.87753766  1
  O  O187  1  0.26264883  -0.00506588  0.37649731  1
  O  O188  1  0.25352480  0.00534701  0.86743168  1
  O  O189  1  0.26261542  0.49294086  0.37026932  1
  O  O190  1  0.26223160  0.50217071  0.87504291  1
  O  O191  1  0.75773418  0.00394550  0.36737122  1
  O  O192  1  0.75591793  0.00763980  0.87102369  1
  O  O193  1  0.75536983  0.50747707  0.37071095  1
  O  O194  1  0.76272275  0.49302370  0.86253737  1
  O  O195  1  0.24633201  0.49214989  0.13396844  1
  O  O196  1  0.24502678  0.48341662  0.62536889  1
  O  O197  1  0.24347135  0.99192770  0.12148968  1
  O  O198  1  0.24094096  1.00391017  0.63266970  1
  O  O199  1  0.75794762  0.49733347  0.14470321  1
  O  O200  1  0.74528340  0.49310328  0.63093337  1
  O  O201  1  0.74477289  1.00394574  0.13024318  1
  O  O202  1  0.75056385  0.98850991  0.62737458  1
  O  O203  1  0.00706745  0.36797442  0.25916465  1
  O  O204  1  0.00796949  0.36635689  0.75148440  1
  O  O205  1  -0.00949639  0.86494639  0.26835867  1
  O  O206  1  0.00313526  0.87995437  0.76268105  1
  O  O207  1  0.50542658  0.37587369  0.25924856  1
  O  O208  1  0.50907062  0.37930151  0.76309434  1
  O  O209  1  0.49602350  0.87910677  0.26302067  1
  O  O210  1  0.50591614  0.87013991  0.75340626  1
  O  O211  1  0.50370868  0.12435877  0.23660251  1
  O  O212  1  0.48623591  0.12441145  0.75179064  1
  O  O213  1  0.49324329  0.62894883  0.25232320  1
  O  O214  1  0.49052178  0.63269855  0.75556510  1
  O  O215  1  0.99291845  0.14337048  0.25633041  1
  O  O216  1  0.99663305  0.13310819  0.74246426  1
  O  O217  1  0.99104540  0.62413303  0.25102896  1
  O  O218  1  0.99402692  0.62464832  0.74640860  1
  O  O219  1  0.37084474  0.25525034  0.00471505  1
  O  O220  1  0.36082811  0.24219503  0.49161111  1
  O  O221  1  0.37135715  0.75396975  0.00845866  1
  O  O222  1  0.36785051  0.75677183  0.50027492  1
  O  O223  1  0.87958667  0.26310932  0.01255129  1
  O  O224  1  0.87994562  0.25039614  0.51215530  1
  O  O225  1  0.88319468  0.76015017  0.00725240  1
  O  O226  1  0.86859009  0.75756539  0.50652859  1
  O  O227  1  0.13151846  0.23634205  0.50227966  1
  O  O228  1  0.13366864  0.25830949  0.98540733  1
  O  O229  1  0.13243527  0.74237160  0.49489153  1
  O  O230  1  0.12934563  0.74184427  0.98964175  1
  O  O231  1  0.62320465  0.23965612  0.49696021  1
  O  O232  1  0.61918590  0.23890848  1.00657376  1
  O  O233  1  0.62787988  0.74599974  0.49636732  1
  O  O234  1  0.61993554  0.74821164  0.98431511  1
  O  O235  1  0.48685474  0.24237073  0.12512068  1
  O  O236  1  0.50182650  0.24988928  0.63367520  1
  O  O237  1  0.49226280  0.76200057  0.13189074  1
  O  O238  1  0.50005487  0.75362852  0.63896652  1
  O  O239  1  0.98709579  0.25679482  0.14300534  1
  O  O240  1  0.99320556  0.24645212  0.63117522  1
  O  O241  1  0.99385979  0.74658153  0.12707818  1
  O  O242  1  0.98568515  0.75463979  0.62121070  1
  O  O243  1  -0.01294207  0.26018118  0.36408325  1
  O  O244  1  0.00613245  0.24988721  0.86775705  1
  O  O245  1  0.01251905  0.75491595  0.37773912  1
  O  O246  1  0.00983844  0.75781979  0.87943772  1
  O  O247  1  0.49959986  0.26065622  0.37427846  1
  O  O248  1  0.49552948  0.26768141  0.87228408  1
  O  O249  1  0.50734022  0.75996237  0.38008766  1
  O  O250  1  0.50484599  0.75787902  0.86374009  1
  O  O251  1  0.24209126  0.13176515  0.50416830  1
  O  O252  1  0.25705412  0.12877906  0.98369194  1
  O  O253  1  0.23858214  0.63403786  0.50046634  1
  O  O254  1  0.24546429  0.62911988  0.99549985  1
  O  O255  1  0.73915021  0.11659129  0.48841358  1
  O  O256  1  0.74104605  0.12472505  0.98568418  1
  O  O257  1  0.73752413  0.63200375  0.49626733  1
  O  O258  1  0.72785049  0.59143997  1.00141094  1
  O  O259  1  0.25672642  0.36905048  0.00495070  1
  O  O260  1  0.24478669  0.36273133  0.51407546  1
  O  O261  1  0.25600346  0.86983655  0.00402040  1
  O  O262  1  0.26043825  0.86630121  0.49613732  1
  O  O263  1  0.75868993  0.38908346  0.00456530  1
  O  O264  1  0.74238785  0.38198146  0.51491905  1
  O  O265  1  0.76650775  0.88309532  0.00035878  1
  O  O266  1  0.75366501  0.87237224  0.50683269  1
  O  O267  1  0.13135456  0.49398108  0.24800410  1
  O  O268  1  0.12962404  0.48669124  0.75268089  1
  O  O269  1  0.08706645  0.99796444  0.22938419  1
  O  O270  1  0.13424133  0.99943871  0.74019177  1
  O  O271  1  0.63381228  0.49401483  0.25793139  1
  O  O272  1  0.63168356  0.49725575  0.74486242  1
  O  O273  1  0.63552016  1.00306588  0.23851869  1
  O  O274  1  0.62281214  0.98852331  0.74729812  1
  O  O275  1  0.37357164  0.00170242  0.26212180  1
  O  O276  1  0.36901961  0.00510445  0.75406219  1
  O  O277  1  0.36800818  0.50799774  0.25790493  1
  O  O278  1  0.37570349  0.50618571  0.75858226  1
  O  O279  1  0.87815884  -0.00190752  0.26132393  1
  O  O280  1  0.87247529  0.00416039  0.76086071  1
  O  O281  1  0.87039231  0.50755589  0.26155340  1
  O  O282  1  0.86936504  0.49882193  0.76048298  1
  O  O283  1  0.11759328  0.38120083  0.36553880  1
  O  O284  1  0.12620186  0.36354739  0.86263099  1
  O  O285  1  0.11745667  0.86031542  0.38238675  1
  O  O286  1  0.11747089  0.86403608  0.87185116  1
  O  O287  1  0.61308708  0.37612648  0.36854137  1
  O  O288  1  0.61249262  0.38623777  0.87099915  1
  O  O289  1  0.61853821  0.86397610  0.37994094  1
  O  O290  1  0.62051999  0.86918866  0.86847690  1
  O  O291  1  0.37991472  0.12877602  0.12914108  1
  O  O292  1  0.37608111  0.11779517  0.63944602  1
  O  O293  1  0.37070714  0.64039889  0.13638442  1
  O  O294  1  0.36960428  0.62425166  0.63718150  1
  O  O295  1  0.87921252  0.14258561  0.11428980  1
  O  O296  1  0.87749241  0.13495730  0.62658914  1
  O  O297  1  0.87941576  0.63241955  0.13491569  1
  O  O298  1  0.87403825  0.64380104  0.62120261  1
  O  O299  1  0.26266850  0.25430975  0.11582412  1
  O  O300  1  0.24938524  0.25847373  0.61830334  1
  O  O301  1  0.25522816  0.75738942  0.11866435  1
  O  O302  1  0.25256719  0.75097445  0.61360782  1
  O  O303  1  0.76381333  0.25214630  0.13230909  1
  O  O304  1  0.75727298  0.26663453  0.62940698  1
  O  O305  1  0.76959169  0.75743891  0.12607652  1
  O  O306  1  0.75564101  0.76204713  0.61971610  1
  O  O307  1  0.24483314  0.24843844  0.37490687  1
  O  O308  1  0.24382238  0.24158273  0.87680729  1
  O  O309  1  0.23780780  0.75513895  0.38435499  1
  O  O310  1  0.24469593  0.74388370  0.88160649  1
  O  O311  1  0.75245893  0.23648103  0.37136083  1
  O  O312  1  0.75516501  0.24106812  0.87214004  1
  O  O313  1  0.74220434  0.74785152  0.37926226  1
  O  O314  1  0.73559739  0.75156298  0.87039282  1
  O  O315  1  -0.00212841  0.11272420  -0.01333675  1
  O  O316  1  0.00812722  0.12046348  0.50483521  1
  O  O317  1  0.00971922  0.61126215  0.00219664  1
  O  O318  1  0.01545767  0.62451336  0.50644109  1
  O  O319  1  0.50402214  0.12102554  0.00858576  1
  O  O320  1  0.51028556  0.11761583  0.49684921  1
  O  O321  1  0.50423115  0.61466255  -0.00114640  1
  O  O322  1  0.51066120  0.61833958  0.49764721  1
  O  O323  1  0.50708034  0.38993868  0.49399902  1
  O  O324  1  0.49218943  0.38097094  0.99195136  1
  O  O325  1  0.49319363  0.88252883  0.49105678  1
  O  O326  1  0.49121528  0.88237696  0.99293952  1
  O  O327  1  1.00963428  0.37525401  0.48751375  1
  O  O328  1  0.99225443  0.38676228  1.00031549  1
  O  O329  1  0.99393387  0.87926935  0.49097736  1
  O  O330  1  0.99181872  0.88533163  0.98551555  1
  O  O331  1  0.49173030  0.49635829  0.38556336  1
  O  O332  1  0.48983040  0.49323974  0.88394973  1
  O  O333  1  0.49627427  0.99297352  0.38216780  1
  O  O334  1  0.49597012  0.99366079  0.87885589  1
  O  O335  1  0.99095748  0.49244863  0.37910898  1
  O  O336  1  0.99403988  0.49518773  0.88451398  1
  O  O337  1  0.99286981  0.99154799  0.38405782  1
  O  O338  1  0.99260021  0.99500580  0.87787603  1
  O  O339  1  -0.01434656  0.00657035  0.09697957  1
  O  O340  1  0.00437191  0.00659191  0.62012306  1
  O  O341  1  0.00832842  0.49819728  0.12134782  1
  O  O342  1  0.00524172  0.49971861  0.61990428  1
  O  O343  1  0.50540504  0.00550961  0.12014317  1
  O  O344  1  0.50118662  0.00400469  0.60862165  1
  O  O345  1  0.48274097  0.50196585  0.11177757  1
  O  O346  1  0.51009969  0.49609916  0.61907089  1
  O  O347  1  0.24487587  0.38367687  0.24958685  1
  O  O348  1  0.24450245  0.37137611  0.73946890  1
  O  O349  1  0.24670191  0.87317492  0.23382880  1
  O  O350  1  0.24906909  0.88664731  0.75346603  1
  O  O351  1  0.73866683  0.38360877  0.25406246  1
  O  O352  1  0.74389441  0.38673490  0.74296461  1
  O  O353  1  0.75736018  0.89145506  0.24634291  1
  O  O354  1  0.74009364  0.87777113  0.74268561  1
  O  O355  1  0.23229329  0.13229937  0.25346725  1
  O  O356  1  0.26032330  0.11706114  0.75656291  1
  O  O357  1  0.25584766  0.61168097  0.24860614  1
  O  O358  1  0.25939161  0.62092852  0.75805161  1
  O  O359  1  0.74917784  0.11231733  0.26089317  1
  O  O360  1  0.74656367  0.12600812  0.76130640  1
  O  O361  1  0.76062061  0.61885850  0.25985905  1
  O  O362  1  0.75783495  0.61315099  0.74339617  1
  O  O363  1  0.37685648  0.10787358  0.36950355  1
  O  O364  1  0.36971600  0.11748935  0.86654443  1
  O  O365  1  0.37829298  0.61830573  0.36410601  1
  O  O366  1  0.37116218  0.61793255  0.86982062  1
  O  O367  1  0.86566613  0.11234556  0.38419324  1
  O  O368  1  0.86066216  0.12126636  0.87323347  1
  O  O369  1  0.87180047  0.62308562  0.37011456  1
  O  O370  1  0.87710671  0.61332607  0.87932447  1
  O  O371  1  0.13292880  0.36914610  0.14183007  1
  O  O372  1  0.13173766  0.37087630  0.63717001  1
  O  O373  1  0.13658772  0.86675651  0.11764207  1
  O  O374  1  0.11806810  0.88903007  0.62328205  1
  O  O375  1  0.62300812  0.37380041  0.13942935  1
  O  O376  1  0.63491264  0.38638360  0.63376156  1
  O  O377  1  0.62996670  0.88981900  0.11625601  1
  O  O378  1  0.63227313  0.87637844  0.63247094  1
  O  O379  1  0.11592232  0.25487090  0.26312321  1
  O  O380  1  0.11533664  0.25217920  0.75622764  1
  O  O381  1  0.12670352  0.74016630  0.26573914  1
  O  O382  1  0.13419320  0.74989124  0.76149254  1
  O  O383  1  0.62127201  0.25977954  0.25465099  1
  O  O384  1  0.62668846  0.26747017  0.75118444  1
  O  O385  1  0.61669115  0.74624919  0.25655555  1
  O  O386  1  0.61998324  0.75841612  0.75620801  1
  O  O387  1  0.37528343  0.24302846  0.24219718  1
  O  O388  1  0.37341139  0.23320067  0.75545230  1
  O  O389  1  0.36673853  0.74279204  0.24579616  1
  O  O390  1  0.38260673  0.74175141  0.74806806  1
  O  O391  1  0.87937800  0.25768754  0.23979478  1
  O  O392  1  0.88671305  0.25349581  0.74516013  1
  O  O393  1  0.87829966  0.74010479  0.24533646  1
  O  O394  1  0.86844060  0.75269863  0.73527049  1
  O  O395  1  0.38284222  0.50985755  0.49286565  1
  O  O396  1  0.37935756  0.49591914  0.99356414  1
  O  O397  1  0.38102654  0.99499652  0.48989456  1
  O  O398  1  0.38158363  0.99522990  0.99305651  1
  O  O399  1  0.87322045  0.50999041  0.48746447  1
  O  O400  1  0.88303629  0.49584667  0.99715068  1
  O  O401  1  0.88085335  0.99249988  0.49573625  1
  O  O402  1  0.87874622  0.99595297  0.98430873  1
  O  O403  1  0.11029614  -0.00117419  -0.00900736  1
  O  O404  1  0.12150282  0.00888911  0.50434802  1
  O  O405  1  0.12082558  0.49889246  0.00605461  1
  O  O406  1  0.12863952  0.51315446  0.49573265  1
  O  O407  1  0.61827466  0.00923168  0.00543397  1
  O  O408  1  0.61695467  0.00693141  0.49927633  1
  O  O409  1  0.60077546  0.49281051  0.00930555  1
  O  O410  1  0.61753850  0.50976738  0.50753242  1
  O  O411  1  0.37047566  0.36618454  0.12220131  1
  O  O412  1  0.36214523  0.37598813  0.63026224  1
  O  O413  1  0.36413238  0.86841256  0.12011188  1
  O  O414  1  0.38064257  0.87542847  0.60956885  1
  O  O415  1  0.87068863  0.36805845  0.11830483  1
  O  O416  1  0.86141842  0.37189980  0.62722208  1
  O  O417  1  0.88269006  0.86949444  0.11374007  1
  O  O418  1  0.86884596  0.86828032  0.62103802  1
  O  O419  1  0.12517370  0.12835911  0.37914234  1
  O  O420  1  0.13566371  0.13336765  0.86524900  1
  O  O421  1  0.12237230  0.63685076  0.38680122  1
  O  O422  1  0.13177361  0.62813906  0.88021976  1
  O  O423  1  0.63425656  0.12669583  0.38135663  1
  O  O424  1  0.63520231  0.12562861  0.88234873  1
  O  O425  1  0.62776216  0.63727805  0.38401109  1
  O  O426  1  0.62194837  0.63950308  0.86990395  1
