# generated using pymatgen
data_V85Zn86O256
_symmetry_space_group_name_H-M   'P 1'
_cell_length_a   16.92356308
_cell_length_b   16.91901397
_cell_length_c   16.91716514
_cell_angle_alpha   89.98113947
_cell_angle_beta   89.92969130
_cell_angle_gamma   90.00686831
_symmetry_Int_Tables_number   1
_chemical_formula_structural   V85Zn86O256
_chemical_formula_sum   'V85 Zn86 O256'
_cell_volume   4843.88795424
_cell_formula_units_Z   1
loop_
 _symmetry_equiv_pos_site_id
 _symmetry_equiv_pos_as_xyz
  1  'x, y, z'
loop_
 _atom_site_type_symbol
 _atom_site_label
 _atom_site_symmetry_multiplicity
 _atom_site_fract_x
 _atom_site_fract_y
 _atom_site_fract_z
 _atom_site_occupancy
  V  V0  1  0.12366432  0.74988975  0.87710803  1
  V  V1  1  0.12170063  0.12024502  -0.00037855  1
  V  V2  1  0.38589367  0.38033821  -0.00017922  1
  V  V3  1  0.37985623  0.75060221  0.63038945  1
  V  V4  1  0.87469721  0.12963740  0.25100788  1
  V  V5  1  0.25488980  0.00724157  0.24713043  1
  V  V6  1  0.12967516  0.49578554  0.62613982  1
  V  V7  1  0.75071863  0.87384766  0.62298834  1
  V  V8  1  0.37600091  0.88617209  -0.00746551  1
  V  V9  1  0.25067331  0.75649650  0.00422700  1
  V  V10  1  0.86368855  0.50154866  0.88102282  1
  V  V11  1  0.62055284  0.13227164  0.49765535  1
  V  V12  1  0.25156753  0.62402550  0.87428012  1
  V  V13  1  0.37763931  0.49852886  0.37554306  1
  V  V14  1  0.62470940  0.85941622  0.75304461  1
  V  V15  1  0.37404560  0.37605958  0.50685547  1
  V  V16  1  0.24783479  0.37296026  0.12962031  1
  V  V17  1  0.37431695  0.76036489  0.12399281  1
  V  V18  1  0.25243764  0.25007880  0.00001849  1
  V  V19  1  0.62704284  0.74868790  0.37318516  1
  V  V20  1  0.25416921  0.49668539  0.75121863  1
  V  V21  1  0.50095462  0.86804899  0.86937656  1
  V  V22  1  0.12710341  0.37522155  0.74953875  1
  V  V23  1  0.49902032  0.62229251  0.11585227  1
  V  V24  1  0.50038946  0.87730833  0.37696555  1
  V  V25  1  0.49328499  0.23942701  0.25886013  1
  V  V26  1  -0.00016736  0.62235266  0.62763579  1
  V  V27  1  0.62567331  0.36514128  0.25611508  1
  V  V28  1  0.36671065  0.25020974  0.62888110  1
  V  V29  1  0.12235581  0.49600725  0.13085415  1
  V  V30  1  0.25403961  0.11716189  0.87293226  1
  V  V31  1  0.13329255  0.87191583  0.24965456  1
  V  V32  1  0.24872042  0.62773592  0.37423198  1
  V  V33  1  0.74578491  0.50658895  0.25393219  1
  V  V34  1  -0.00563316  0.49639211  0.00263029  1
  V  V35  1  0.25005177  0.75104091  0.49526451  1
  V  V36  1  0.62891093  0.87669848  0.24095399  1
  V  V37  1  0.62957364  0.48901530  0.62611735  1
  V  V38  1  0.12513099  0.26078406  0.37169786  1
  V  V39  1  0.00351407  0.25826596  0.24909188  1
  V  V40  1  0.24961636  0.87408549  0.62514289  1
  V  V41  1  0.87693186  0.01002527  0.87531013  1
  V  V42  1  -0.00124413  0.00140075  0.49916128  1
  V  V43  1  0.12344789  0.87476205  0.75087809  1
  V  V44  1  -0.00212017  0.87584022  0.88189228  1
  V  V45  1  0.00553190  0.87119365  0.37460536  1
  V  V46  1  -0.00598904  0.24673197  0.75120345  1
  V  V47  1  0.12423136  0.62383839  0.00212665  1
  V  V48  1  0.74591153  0.74849652  -0.01667608  1
  V  V49  1  0.86549950  0.62349814  0.75456693  1
  V  V50  1  0.12357701  0.24971497  0.87531274  1
  V  V51  1  0.86427660  0.75089355  0.12631391  1
  V  V52  1  0.50009966  0.75068501  0.24907997  1
  V  V53  1  0.74886985  0.48271601  0.74689560  1
  V  V54  1  0.50438138  0.62861762  0.63085551  1
  V  V55  1  0.87583318  0.74807857  0.62403725  1
  V  V56  1  0.38235009  0.11915152  0.74710321  1
  V  V57  1  0.12485573  0.62837353  0.49716055  1
  V  V58  1  -0.00574188  0.37600301  0.87903515  1
  V  V59  1  0.87123436  0.87567177  0.00292892  1
  V  V60  1  0.75511811  0.37442655  0.11566744  1
  V  V61  1  0.00215339  0.74907721  0.24931448  1
  V  V62  1  0.75237182  0.74619209  0.49202714  1
  V  V63  1  -0.00825822  0.12601740  0.62800060  1
  V  V64  1  0.62624106  0.62332838  0.49388137  1
  V  V65  1  0.24791864  0.49739329  0.24971905  1
  V  V66  1  0.86089967  0.25252333  0.62991729  1
  V  V67  1  0.37530929  0.00781038  0.37478167  1
  V  V68  1  0.87184379  0.50645557  0.37672323  1
  V  V69  1  0.62005372  0.49783977  0.11929478  1
  V  V70  1  0.75132034  0.22950149  -0.00427069  1
  V  V71  1  0.75135682  -0.00258603  0.24184224  1
  V  V72  1  0.12388450  0.00034447  0.62515246  1
  V  V73  1  0.87394035  0.00082219  0.37466565  1
  V  V74  1  0.86905847  0.37580693  0.50385630  1
  V  V75  1  0.75604908  0.00704455  0.75225163  1
  V  V76  1  0.50315233  0.25976684  0.74551542  1
  V  V77  1  0.12410271  0.12814725  0.49777822  1
  V  V78  1  0.24654072  0.25682259  0.50428304  1
  V  V79  1  0.50096219  0.12379456  0.10927241  1
  V  V80  1  0.37547274  0.62555583  0.24818496  1
  V  V81  1  0.12915699  -0.00564131  0.12323789  1
  V  V82  1  0.61914431  0.00470412  0.62625455  1
  V  V83  1  0.62780775  0.62520677  -0.01226110  1
  V  V84  1  0.00194100  0.12026117  0.12502394  1
  Zn  Zn85  1  0.49655828  0.00385253  0.50438651  1
  Zn  Zn86  1  -0.00014735  0.49859478  0.49793124  1
  Zn  Zn87  1  0.50351392  0.36963085  0.37916509  1
  Zn  Zn88  1  0.50160553  0.49848135  0.50106376  1
  Zn  Zn89  1  0.74346035  0.13370152  0.37312615  1
  Zn  Zn90  1  0.37499257  0.24548060  0.12987705  1
  Zn  Zn91  1  -0.00264558  0.74731538  0.75317586  1
  Zn  Zn92  1  0.87845135  0.25634349  0.12269953  1
  Zn  Zn93  1  0.25519036  0.12962317  0.37288083  1
  Zn  Zn94  1  0.51503763  0.38335492  0.86826024  1
  Zn  Zn95  1  -0.00087939  0.37911840  0.37341157  1
  Zn  Zn96  1  0.63178241  0.00589590  0.11199443  1
  Zn  Zn97  1  0.38511129  0.62895733  0.75607029  1
  Zn  Zn98  1  0.50912251  0.00480289  -0.01649615  1
  Zn  Zn99  1  0.86656090  0.63037032  0.25510741  1
  Zn  Zn100  1  0.74470644  0.25324230  0.49720003  1
  Zn  Zn101  1  0.87636391  0.87497431  0.49954853  1
  Zn  Zn102  1  0.62821514  0.24466553  0.88118050  1
  Zn  Zn103  1  0.25396911  -0.00196390  0.75207507  1
  Zn  Zn104  1  0.38392053  0.50372578  0.88207718  1
  Zn  Zn105  1  0.37555280  0.87744091  0.50149786  1
  Zn  Zn106  1  -0.00413460  0.62546326  0.12678684  1
  Zn  Zn107  1  0.18716949  0.18660596  0.18838453  1
  Zn  Zn108  1  0.18573099  0.18687218  0.68757941  1
  Zn  Zn109  1  0.18695232  0.68677026  0.18604532  1
  Zn  Zn110  1  0.18872022  0.68776737  0.68741971  1
  Zn  Zn111  1  0.68633810  0.18707121  0.18350270  1
  Zn  Zn112  1  0.67545160  0.17477324  0.71511548  1
  Zn  Zn113  1  0.68456033  0.68749721  0.18190382  1
  Zn  Zn114  1  0.69124667  0.68137434  0.68217288  1
  Zn  Zn115  1  0.31372689  0.31364701  0.31527200  1
  Zn  Zn116  1  0.31340454  0.31256678  0.81589363  1
  Zn  Zn117  1  0.31469781  0.81703976  0.31411611  1
  Zn  Zn118  1  0.31338591  0.81278413  0.81423717  1
  Zn  Zn119  1  0.81082718  0.31633802  0.31492057  1
  Zn  Zn120  1  0.81289588  0.31039397  0.81955311  1
  Zn  Zn121  1  0.81443128  0.81620785  0.31272358  1
  Zn  Zn122  1  0.81288988  0.81474292  0.81065350  1
  Zn  Zn123  1  0.18890107  0.43986841  0.43921324  1
  Zn  Zn124  1  0.18743321  0.43664118  0.94005577  1
  Zn  Zn125  1  0.18815965  0.93885853  0.43529564  1
  Zn  Zn126  1  0.18737426  0.93745984  0.93950917  1
  Zn  Zn127  1  0.69074406  0.43584718  0.43833039  1
  Zn  Zn128  1  0.67959581  0.43183902  0.93563777  1
  Zn  Zn129  1  0.68793028  0.93964164  0.43636853  1
  Zn  Zn130  1  0.68947032  0.93739498  0.93470610  1
  Zn  Zn131  1  0.31539651  0.06578139  0.06724453  1
  Zn  Zn132  1  0.31063095  0.06353730  0.56205771  1
  Zn  Zn133  1  0.31169079  0.56337327  0.06274308  1
  Zn  Zn134  1  0.31367302  0.56425863  0.56530189  1
  Zn  Zn135  1  0.81870838  0.05904890  0.06340421  1
  Zn  Zn136  1  0.80785253  0.06547059  0.56265239  1
  Zn  Zn137  1  0.80950404  0.56511374  0.06600812  1
  Zn  Zn138  1  0.80950161  0.56200435  0.56220406  1
  Zn  Zn139  1  0.43897246  0.43325844  0.18642413  1
  Zn  Zn140  1  0.43592318  0.44233816  0.68365450  1
  Zn  Zn141  1  0.44014721  0.94245498  0.18641054  1
  Zn  Zn142  1  0.43965632  0.93447644  0.69221425  1
  Zn  Zn143  1  0.93362566  0.44052002  0.19166077  1
  Zn  Zn144  1  0.93611114  0.43580919  0.68927036  1
  Zn  Zn145  1  0.93996479  0.93695246  0.18613799  1
  Zn  Zn146  1  0.93821753  0.93496116  0.68978467  1
  Zn  Zn147  1  0.06381354  0.06456893  0.31145019  1
  Zn  Zn148  1  0.05933185  0.06096704  0.81384460  1
  Zn  Zn149  1  0.06115010  0.56398406  0.31395825  1
  Zn  Zn150  1  0.06015722  0.56184515  0.81351730  1
  Zn  Zn151  1  0.56427572  0.06170278  0.31256844  1
  Zn  Zn152  1  0.56710619  0.06165563  0.81941865  1
  Zn  Zn153  1  0.56183056  0.56103644  0.30922510  1
  Zn  Zn154  1  0.56346199  0.55839450  0.80980246  1
  Zn  Zn155  1  0.44080295  0.18674819  0.44277163  1
  Zn  Zn156  1  0.43627161  0.19265133  0.92994906  1
  Zn  Zn157  1  0.43867288  0.68751917  0.44178657  1
  Zn  Zn158  1  0.43969406  0.69157878  0.93570116  1
  Zn  Zn159  1  0.93314225  0.19277065  0.43766683  1
  Zn  Zn160  1  0.93369168  0.19061746  0.94393044  1
  Zn  Zn161  1  0.93936078  0.68645430  0.43601626  1
  Zn  Zn162  1  0.93554714  0.68494845  0.93962611  1
  Zn  Zn163  1  0.06383624  0.31219159  0.06341903  1
  Zn  Zn164  1  0.05479052  0.31525001  0.56264557  1
  Zn  Zn165  1  0.05882072  0.81317996  0.06539336  1
  Zn  Zn166  1  0.06223559  0.80974852  0.56166399  1
  Zn  Zn167  1  0.56828475  0.30388492  0.06597052  1
  Zn  Zn168  1  0.55504364  0.30827616  0.56933257  1
  Zn  Zn169  1  0.56242495  0.81519511  0.05596046  1
  Zn  Zn170  1  0.56482026  0.81354041  0.56233663  1
  O  O171  1  0.12152293  0.11708032  0.11850451  1
  O  O172  1  0.11623423  0.12228188  0.61464464  1
  O  O173  1  0.12255073  0.61627505  0.11790691  1
  O  O174  1  0.11825950  0.61777606  0.62185635  1
  O  O175  1  0.60668399  0.12273963  0.13201138  1
  O  O176  1  0.63099790  0.10784471  0.62110942  1
  O  O177  1  0.61628778  0.61704046  0.11923725  1
  O  O178  1  0.62017791  0.62097280  0.61293682  1
  O  O179  1  0.37512235  0.38338930  0.38572844  1
  O  O180  1  0.37199587  0.37547226  0.89329913  1
  O  O181  1  0.38396185  0.88366091  0.37847444  1
  O  O182  1  0.38257598  0.87395045  0.88097173  1
  O  O183  1  0.87708987  0.38791225  0.38193814  1
  O  O184  1  0.88810464  0.38449916  0.87364467  1
  O  O185  1  0.88709708  0.88447941  0.37587258  1
  O  O186  1  0.88184644  0.87645718  0.88320222  1
  O  O187  1  0.25776119  0.00261910  0.36835378  1
  O  O188  1  0.24474547  0.01349293  0.87399206  1
  O  O189  1  0.25886690  0.50445384  0.36933794  1
  O  O190  1  0.25147088  0.50821578  0.87094487  1
  O  O191  1  0.76355675  0.00214852  0.36811721  1
  O  O192  1  0.76149265  -0.00486042  0.86063032  1
  O  O193  1  0.75679481  0.49669258  0.36507179  1
  O  O194  1  0.76019056  0.49459221  0.86949481  1
  O  O195  1  0.24227014  0.49364959  0.12897428  1
  O  O196  1  0.23996506  0.50859288  0.63666950  1
  O  O197  1  0.24169978  1.00320453  0.13356581  1
  O  O198  1  0.24028225  0.99174709  0.62510809  1
  O  O199  1  0.74323700  0.49070504  0.13268213  1
  O  O200  1  0.73829306  0.50146096  0.63091649  1
  O  O201  1  0.75157202  1.00085673  0.13783413  1
  O  O202  1  0.74910516  0.98695249  0.62979094  1
  O  O203  1  -0.00253420  0.36200943  0.24871507  1
  O  O204  1  0.00727681  0.36999052  0.75964380  1
  O  O205  1  0.00798408  0.86787741  0.25522335  1
  O  O206  1  0.00666202  0.86974206  0.76009317  1
  O  O207  1  0.51149809  0.36557133  0.24954254  1
  O  O208  1  0.48324608  0.36237066  0.74974973  1
  O  O209  1  0.50568187  0.87085658  0.25942628  1
  O  O210  1  0.51681468  0.87308573  0.75069610  1
  O  O211  1  0.50300016  0.13793142  0.25103800  1
  O  O212  1  0.48342256  0.13529222  0.74859051  1
  O  O213  1  0.49404107  0.63161129  0.24075980  1
  O  O214  1  0.50335470  0.62657963  0.73543693  1
  O  O215  1  0.99538580  0.13352155  0.24391010  1
  O  O216  1  1.00714780  0.13461075  0.74093592  1
  O  O217  1  1.00087782  0.64055746  0.25064338  1
  O  O218  1  0.99148744  0.62501289  0.74300336  1
  O  O219  1  0.36298104  0.25626901  0.00058052  1
  O  O220  1  0.36578580  0.25499899  0.50591667  1
  O  O221  1  0.36769978  0.75703144  0.00616900  1
  O  O222  1  0.36599018  0.75214753  0.50946605  1
  O  O223  1  0.86121372  0.24751089  0.00925644  1
  O  O224  1  0.87468792  0.25742054  0.51281792  1
  O  O225  1  0.86525116  0.75268352  0.00561564  1
  O  O226  1  0.86864735  0.74993632  0.50470855  1
  O  O227  1  0.12815484  0.24666508  0.49656048  1
  O  O228  1  0.13478705  0.24289312  0.99679616  1
  O  O229  1  0.13344082  0.73651060  0.50600545  1
  O  O230  1  0.13211352  0.74635946  0.99905044  1
  O  O231  1  0.62452504  0.23561094  0.51229190  1
  O  O232  1  0.64496549  0.24924931  1.00192397  1
  O  O233  1  0.63266653  0.74418768  0.49323622  1
  O  O234  1  0.63937256  0.74429828  1.00469097  1
  O  O235  1  0.49960152  0.23879460  0.13525252  1
  O  O236  1  0.47488410  0.25230671  0.63089216  1
  O  O237  1  0.49327274  0.74393405  0.12959223  1
  O  O238  1  0.49099541  0.74359928  0.61650671  1
  O  O239  1  1.00268631  0.24018647  0.13173060  1
  O  O240  1  0.99589389  0.24298368  0.63452077  1
  O  O241  1  0.98902241  0.74971302  0.13280869  1
  O  O242  1  0.99609712  0.73781855  0.62670542  1
  O  O243  1  0.00710713  0.25175738  0.36698631  1
  O  O244  1  0.00205595  0.25629087  0.87179374  1
  O  O245  1  -0.00428339  0.76104917  0.36635002  1
  O  O246  1  0.00671683  0.75564527  0.87581603  1
  O  O247  1  0.49803687  0.25109300  0.36364716  1
  O  O248  1  0.50116528  0.25315148  0.85606304  1
  O  O249  1  0.50336754  0.75655091  0.36878023  1
  O  O250  1  0.49860288  0.76559021  0.87286654  1
  O  O251  1  0.24040547  0.13696293  0.49866452  1
  O  O252  1  0.24449852  0.13165423  0.99525617  1
  O  O253  1  0.24466572  0.63178254  0.49626142  1
  O  O254  1  0.24566273  0.63199235  0.99115394  1
  O  O255  1  0.73593172  0.12578167  0.49901237  1
  O  O256  1  0.75031281  0.13073756  1.00742020  1
  O  O257  1  0.74061819  0.63564656  0.50425257  1
  O  O258  1  0.74213966  0.63890525  1.00607222  1
  O  O259  1  0.25385929  0.36717847  0.00948397  1
  O  O260  1  0.25474526  0.36353675  0.49578515  1
  O  O261  1  0.25738358  0.86332090  -0.00685276  1
  O  O262  1  0.24678129  0.86667730  0.50589135  1
  O  O263  1  0.75009620  0.37856887  0.01558671  1
  O  O264  1  0.76299980  0.37315736  0.50127277  1
  O  O265  1  0.75839403  0.85942321  -0.00553829  1
  O  O266  1  0.75200803  0.86822830  0.50653035  1
  O  O267  1  0.12942513  0.50537608  0.23820456  1
  O  O268  1  0.13273580  0.49688789  0.74562950  1
  O  O269  1  0.13185689  0.99407264  0.24381234  1
  O  O270  1  0.12374608  0.98839598  0.74528258  1
  O  O271  1  0.62823555  0.49219356  0.24046994  1
  O  O272  1  0.63530808  0.50456992  0.73476212  1
  O  O273  1  0.63544106  0.99285125  0.25122710  1
  O  O274  1  0.64041741  0.99120274  0.73861807  1
  O  O275  1  0.36387073  -0.00908519  0.25849917  1
  O  O276  1  0.37265628  0.01437231  0.74214269  1
  O  O277  1  0.36987075  0.50409711  0.25589848  1
  O  O278  1  0.36153596  0.50595129  0.74832072  1
  O  O279  1  0.87165670  0.00490474  0.25547464  1
  O  O280  1  0.86596848  -0.01247709  0.76234966  1
  O  O281  1  0.86395544  0.50370447  0.25787417  1
  O  O282  1  0.86902842  0.50468725  0.75727549  1
  O  O283  1  0.12262625  0.36466141  0.37975010  1
  O  O284  1  0.11494079  0.36984345  0.87284267  1
  O  O285  1  0.11350524  0.88148914  0.36566441  1
  O  O286  1  0.11781684  0.87207058  0.87048787  1
  O  O287  1  0.62213762  0.38333201  0.35930359  1
  O  O288  1  0.62629441  0.36056266  0.87199374  1
  O  O289  1  0.61841805  0.86994443  0.36769046  1
  O  O290  1  0.62396239  0.87242175  0.85779188  1
  O  O291  1  0.39188146  0.12882294  0.12478709  1
  O  O292  1  0.36232286  0.13455113  0.63869777  1
  O  O293  1  0.38140765  0.63254588  0.12728592  1
  O  O294  1  0.38606251  0.63215903  0.62525978  1
  O  O295  1  0.88578664  0.12273085  0.13610559  1
  O  O296  1  0.88782411  0.13130753  0.61883595  1
  O  O297  1  0.87639046  0.63512258  0.13148151  1
  O  O298  1  0.88262949  0.62731989  0.63053842  1
  O  O299  1  0.25036561  0.25568000  0.11940676  1
  O  O300  1  0.25287512  0.25115873  0.61716574  1
  O  O301  1  0.25996123  0.74410056  0.11438714  1
  O  O302  1  0.25444656  0.75421624  0.61529759  1
  O  O303  1  0.75074144  0.26141521  0.12070945  1
  O  O304  1  0.76156353  0.23995453  0.63278317  1
  O  O305  1  0.76149492  0.75234963  0.12414077  1
  O  O306  1  0.75456327  0.75756965  0.61436036  1
  O  O307  1  0.24210173  0.24844254  0.38082400  1
  O  O308  1  0.24228925  0.24203982  0.88278859  1
  O  O309  1  0.25604721  0.74652736  0.38765299  1
  O  O310  1  0.24343658  0.74321893  0.88241090  1
  O  O311  1  0.75874518  0.24552542  0.38210599  1
  O  O312  1  0.75808835  0.24520165  0.89250735  1
  O  O313  1  0.74722847  0.75506912  0.38554456  1
  O  O314  1  0.75500335  0.74560042  0.88500763  1
  O  O315  1  0.01319394  0.13128390  0.00912270  1
  O  O316  1  0.00562332  0.12176513  0.50595400  1
  O  O317  1  0.00603676  0.61303809  0.00194448  1
  O  O318  1  0.00890847  0.62356748  0.50753948  1
  O  O319  1  0.49791900  0.12729960  0.00459171  1
  O  O320  1  0.51391677  0.12129227  0.50428239  1
  O  O321  1  0.50784519  0.63333171  0.01077231  1
  O  O322  1  0.50880986  0.62190048  0.50808670  1
  O  O323  1  0.49000751  0.37665413  0.49757818  1
  O  O324  1  0.48644399  0.36438749  1.00468072  1
  O  O325  1  0.50207089  0.87694162  0.48689423  1
  O  O326  1  0.49133888  0.87565584  0.98911454  1
  O  O327  1  0.98714933  0.37912893  0.49650439  1
  O  O328  1  1.00412635  0.38665604  0.99481969  1
  O  O329  1  1.00167130  0.88134587  0.49196927  1
  O  O330  1  0.99260535  0.87055350  0.98844479  1
  O  O331  1  0.48660249  0.49956553  0.37530375  1
  O  O332  1  0.49538734  0.49471838  0.86965940  1
  O  O333  1  0.49303476  0.99278423  0.37497741  1
  O  O334  1  0.50370093  0.98417181  0.86830386  1
  O  O335  1  0.99064178  0.49848806  0.37547524  1
  O  O336  1  0.99418213  0.49338281  0.88355390  1
  O  O337  1  0.99205567  0.99531489  0.37708465  1
  O  O338  1  0.98672537  0.98985778  0.86976590  1
  O  O339  1  0.01087018  0.01285970  0.13226401  1
  O  O340  1  0.00341150  0.00634533  0.62131601  1
  O  O341  1  0.00489382  0.49979659  0.12080782  1
  O  O342  1  0.00636986  0.51054242  0.62565059  1
  O  O343  1  0.50046532  0.01538193  0.12241028  1
  O  O344  1  0.51655204  -0.00766156  0.62546415  1
  O  O345  1  0.50747929  0.50930552  0.12956529  1
  O  O346  1  0.51144481  0.50862985  0.62319514  1
  O  O347  1  0.25533867  0.37971164  0.23772273  1
  O  O348  1  0.24122267  0.38513887  0.75885357  1
  O  O349  1  0.23734419  0.88177999  0.25570122  1
  O  O350  1  0.24118874  0.87676226  0.74554299  1
  O  O351  1  0.73827693  0.38090017  0.24293100  1
  O  O352  1  0.75883319  0.38368425  0.74866101  1
  O  O353  1  0.74116662  0.88441658  0.25588085  1
  O  O354  1  0.74372450  0.87789638  0.74095611  1
  O  O355  1  0.24565351  0.11225523  0.25456564  1
  O  O356  1  0.25305665  0.12357433  0.75852816  1
  O  O357  1  0.25619959  0.62002556  0.25436239  1
  O  O358  1  0.24661958  0.62011971  0.76392499  1
  O  O359  1  0.75882879  0.11931003  0.25105989  1
  O  O360  1  0.76683692  0.10331117  0.73362453  1
  O  O361  1  0.74460655  0.61105193  0.24544823  1
  O  O362  1  0.76251547  0.61498696  0.74411623  1
  O  O363  1  0.37572238  0.11231880  0.38021946  1
  O  O364  1  0.36542274  0.13093401  0.85992865  1
  O  O365  1  0.36970854  0.61896747  0.37047329  1
  O  O366  1  0.36641438  0.62501683  0.87466624  1
  O  O367  1  0.88081005  0.11762089  0.36296705  1
  O  O368  1  0.88511455  0.10847420  0.87781576  1
  O  O369  1  0.87637692  0.61267173  0.37439516  1
  O  O370  1  0.88196862  0.61379513  0.86554404  1
  O  O371  1  0.13451005  0.38398017  0.12090111  1
  O  O372  1  0.11749739  0.38954165  0.62971673  1
  O  O373  1  0.11928069  0.88690339  0.13224266  1
  O  O374  1  0.12690350  0.87775866  0.63317859  1
  O  O375  1  0.63146299  0.38103275  0.13285333  1
  O  O376  1  0.62136389  0.39149494  0.61544930  1
  O  O377  1  0.61613081  0.87695445  0.13914592  1
  O  O378  1  0.63368713  0.88070921  0.63006572  1
  O  O379  1  0.11737767  0.24335940  0.26095284  1
  O  O380  1  0.11572644  0.25560082  0.75506026  1
  O  O381  1  0.11764307  0.76074676  0.24140357  1
  O  O382  1  0.12437430  0.76011314  0.75616839  1
  O  O383  1  0.61814521  0.26151399  0.24729577  1
  O  O384  1  0.59874181  0.26155899  0.71515133  1
  O  O385  1  0.62153998  0.75589033  0.25472443  1
  O  O386  1  0.63386647  0.76136251  0.74144351  1
  O  O387  1  0.39007525  0.25599953  0.24919131  1
  O  O388  1  0.37255770  0.24321486  0.74377834  1
  O  O389  1  0.37772744  0.74702531  0.24204338  1
  O  O390  1  0.36519805  0.74619410  0.73468473  1
  O  O391  1  0.88335217  0.24333397  0.24642823  1
  O  O392  1  0.88757417  0.25530784  0.74663980  1
  O  O393  1  0.88129173  0.75223900  0.24362340  1
  O  O394  1  0.87461765  0.74125076  0.74342109  1
  O  O395  1  0.37297686  0.49372005  0.49337643  1
  O  O396  1  0.37099231  0.48423617  1.00345601  1
  O  O397  1  0.37615034  0.99744910  0.49336530  1
  O  O398  1  0.37433052  0.98757017  1.00419247  1
  O  O399  1  0.87461419  0.49542849  0.49494434  1
  O  O400  1  0.88242619  0.50723619  0.99407433  1
  O  O401  1  0.88080957  1.00053738  0.49166574  1
  O  O402  1  0.86760228  0.98940020  0.98553065  1
  O  O403  1  0.12943011  0.00853516  0.00917711  1
  O  O404  1  0.11952169  0.00907509  0.50385405  1
  O  O405  1  0.11866454  0.50410418  0.01000017  1
  O  O406  1  0.12661500  0.51002644  0.50918651  1
  O  O407  1  0.62203756  -0.00714164  0.00056899  1
  O  O408  1  0.62649139  0.00329614  0.51350192  1
  O  O409  1  0.63331365  0.50846160  0.01276318  1
  O  O410  1  0.62714464  0.50753608  0.50680007  1
  O  O411  1  0.36697213  0.37091985  0.11572843  1
  O  O412  1  0.37008557  0.37290115  0.61276549  1
  O  O413  1  0.38284428  0.86430335  0.11753704  1
  O  O414  1  0.36924198  0.86891182  0.62402074  1
  O  O415  1  0.85839703  0.37611173  0.13252838  1
  O  O416  1  0.88090405  0.36470206  0.61842097  1
  O  O417  1  0.88262004  0.87042776  0.10991660  1
  O  O418  1  0.86947345  0.86699681  0.62300492  1
  O  O419  1  0.12318142  0.13307881  0.38763629  1
  O  O420  1  0.12809562  0.12919624  0.88286751  1
  O  O421  1  0.13421883  0.61951469  0.38618359  1
  O  O422  1  0.12966312  0.62961171  0.88218913  1
  O  O423  1  0.62553072  0.11733306  0.39375671  1
  O  O424  1  0.63660395  0.14587297  0.82306365  1
  O  O425  1  0.61782461  0.63039849  0.38549336  1
  O  O426  1  0.62223824  0.62069535  0.88875013  1
