# generated using pymatgen
data_V85Zn86O256
_symmetry_space_group_name_H-M   'P 1'
_cell_length_a   16.93647706
_cell_length_b   16.93630384
_cell_length_c   16.93805802
_cell_angle_alpha   90.06725862
_cell_angle_beta   90.11370000
_cell_angle_gamma   89.99455221
_symmetry_Int_Tables_number   1
_chemical_formula_structural   V85Zn86O256
_chemical_formula_sum   'V85 Zn86 O256'
_cell_volume   4858.52201027
_cell_formula_units_Z   1
loop_
 _symmetry_equiv_pos_site_id
 _symmetry_equiv_pos_as_xyz
  1  'x, y, z'
loop_
 _atom_site_type_symbol
 _atom_site_label
 _atom_site_symmetry_multiplicity
 _atom_site_fract_x
 _atom_site_fract_y
 _atom_site_fract_z
 _atom_site_occupancy
  V  V0  1  0.24564837  0.49663186  0.25007111  1
  V  V1  1  0.50111440  0.00732754  0.49900576  1
  V  V2  1  0.00004977  0.37438800  0.87259398  1
  V  V3  1  0.79843239  0.68205534  0.43340188  1
  V  V4  1  0.12218326  -0.00525069  0.12774617  1
  V  V5  1  0.24510747  0.25332716  0.50142528  1
  V  V6  1  0.85705778  0.36733004  0.49262776  1
  V  V7  1  0.24402880  0.62805620  0.87339364  1
  V  V8  1  0.37274534  0.49990491  0.37498650  1
  V  V9  1  0.01247818  0.87415912  0.38753142  1
  V  V10  1  0.62914603  0.12999114  0.00314127  1
  V  V11  1  0.75115591  0.50344519  0.26080263  1
  V  V12  1  0.24156155  0.75159429  0.49731750  1
  V  V13  1  0.75573637  -0.00692304  0.75545593  1
  V  V14  1  0.86948975  0.88337933  -0.00213528  1
  V  V15  1  0.24952465  0.49675105  0.74673111  1
  V  V16  1  0.75119277  0.12734358  0.37212970  1
  V  V17  1  0.62652473  -0.00519142  0.62123303  1
  V  V18  1  0.49815926  0.50182299  0.49988238  1
  V  V19  1  0.12872028  0.37260536  0.74538913  1
  V  V20  1  0.75112790  0.75237751  0.00851109  1
  V  V21  1  0.62196499  0.75719679  0.87753339  1
  V  V22  1  0.49831531  0.36836002  0.36851305  1
  V  V23  1  0.62475986  0.38118507  0.24588242  1
  V  V24  1  0.37098736  0.24906140  0.62580719  1
  V  V25  1  0.88045959  -0.01004780  0.38709906  1
  V  V26  1  0.12215281  0.49383646  0.12588016  1
  V  V27  1  0.75512846  -0.00868401  0.24717445  1
  V  V28  1  0.37919687  0.87329802  -0.00482876  1
  V  V29  1  0.12754237  0.23931735  0.87091254  1
  V  V30  1  0.50179184  0.62064143  0.12810089  1
  V  V31  1  0.24878177  0.12483237  0.37057919  1
  V  V32  1  0.50294257  0.12847212  0.13320738  1
  V  V33  1  0.37490306  0.62548783  0.75129092  1
  V  V34  1  0.61720184  0.86899142  0.24923737  1
  V  V35  1  0.68429884  0.18282312  0.54623689  1
  V  V36  1  0.12395783  0.62724047  -0.00281641  1
  V  V37  1  -0.00097925  0.74562775  0.75539199  1
  V  V38  1  0.24191778  0.88064165  0.62595637  1
  V  V39  1  0.37432862  0.37506235  0.00097230  1
  V  V40  1  0.62339837  0.24397100  0.36620343  1
  V  V41  1  0.88457927  0.12227424  0.25120991  1
  V  V42  1  0.37838135  0.25048878  0.13245635  1
  V  V43  1  0.50327511  -0.00341485  -0.00409947  1
  V  V44  1  0.00101992  0.00011650  -0.01663081  1
  V  V45  1  0.24978729  0.24755102  -0.00276879  1
  V  V46  1  0.24615353  0.37450328  0.12584175  1
  V  V47  1  -0.00246890  0.62235859  0.62129043  1
  V  V48  1  0.24901850  -0.00725225  0.24836060  1
  V  V49  1  -0.00317216  0.48488653  0.48475063  1
  V  V50  1  0.37343892  0.00357447  0.87782924  1
  V  V51  1  0.87581947  0.12625835  0.74807921  1
  V  V52  1  0.01503306  0.76042794  0.24817450  1
  V  V53  1  0.37316778  0.75088208  0.62569209  1
  V  V54  1  0.37484005  0.50000188  0.87604922  1
  V  V55  1  0.24624535  0.00361926  0.75141551  1
  V  V56  1  0.11981252  0.11394023  0.50274457  1
  V  V57  1  0.75395449  0.86603223  0.61231327  1
  V  V58  1  0.75031151  0.62510414  0.87400568  1
  V  V59  1  0.75673494  0.12234428  0.88196578  1
  V  V60  1  0.24187654  0.63131867  0.37261861  1
  V  V61  1  0.87134081  0.62577434  0.24970519  1
  V  V62  1  0.75024423  0.37685371  0.11992928  1
  V  V63  1  0.00112580  0.26714507  0.24827776  1
  V  V64  1  0.12678683  0.86546334  0.75952003  1
  V  V65  1  -0.00533297  0.50096400  -0.00228142  1
  V  V66  1  0.37944703  0.63076122  0.25293104  1
  V  V67  1  0.37355119  0.12573256  0.75545456  1
  V  V68  1  0.37938595  0.75282110  0.12770855  1
  V  V69  1  0.50140657  0.37478355  0.87549213  1
  V  V70  1  0.12049738  0.26152220  0.36985800  1
  V  V71  1  0.12581887  0.49530472  0.62186885  1
  V  V72  1  0.75114783  0.49134232  0.74822922  1
  V  V73  1  0.63125902  -0.00482931  0.12522408  1
  V  V74  1  0.62805958  0.49368479  0.62481275  1
  V  V75  1  0.49889333  0.75973045  0.75523779  1
  V  V76  1  0.62391266  0.63194993  0.49591285  1
  V  V77  1  0.37101311  0.37537436  0.50547277  1
  V  V78  1  0.49987979  0.62510192  0.62740973  1
  V  V79  1  0.62487244  0.61949708  0.00453641  1
  V  V80  1  0.24456190  0.75253548  -0.00313380  1
  V  V81  1  0.13025751  0.12192140  -0.00259227  1
  V  V82  1  0.37569014  0.87824675  0.49990644  1
  V  V83  1  -0.00104115  0.62742650  0.12599820  1
  V  V84  1  0.62918650  0.25125560  0.88039292  1
  Zn  Zn85  1  0.24689686  0.87224310  0.12778526  1
  Zn  Zn86  1  0.50054923  0.12671338  0.62431115  1
  Zn  Zn87  1  0.87373649  0.25326268  0.62006500  1
  Zn  Zn88  1  0.37746626  0.00213521  0.37169930  1
  Zn  Zn89  1  -0.00107693  0.12511800  0.12110909  1
  Zn  Zn90  1  0.62540020  0.37189785  0.74644375  1
  Zn  Zn91  1  0.62441603  0.87652878  0.75256665  1
  Zn  Zn92  1  0.87127277  0.62428950  0.74534882  1
  Zn  Zn93  1  -0.00158513  0.86782854  0.87417183  1
  Zn  Zn94  1  -0.00513650  0.11652807  0.61190479  1
  Zn  Zn95  1  0.86732673  0.24580834  0.12075708  1
  Zn  Zn96  1  0.86923726  0.36483723  -0.00412933  1
  Zn  Zn97  1  0.87411859  0.75760258  0.12755736  1
  Zn  Zn98  1  -0.00405983  0.25068852  0.74480805  1
  Zn  Zn99  1  0.50272958  0.49835200  0.00436593  1
  Zn  Zn100  1  0.87430500  0.49880798  0.87137746  1
  Zn  Zn101  1  0.87316716  0.74948319  0.61781599  1
  Zn  Zn102  1  0.49845057  0.24882029  0.75097669  1
  Zn  Zn103  1  0.61918231  0.74362561  0.36977132  1
  Zn  Zn104  1  0.37705723  0.12607082  0.25097138  1
  Zn  Zn105  1  0.49883815  0.87221659  0.37387558  1
  Zn  Zn106  1  0.12383216  0.62289083  0.49651912  1
  Zn  Zn107  1  0.18426523  0.18372000  0.18619438  1
  Zn  Zn108  1  0.18987459  0.18574940  0.68461832  1
  Zn  Zn109  1  0.19017396  0.68482457  0.18282741  1
  Zn  Zn110  1  0.18461111  0.68605168  0.68350386  1
  Zn  Zn111  1  0.69093796  0.18920679  0.19088344  1
  Zn  Zn112  1  0.68896023  0.18686089  0.70797223  1
  Zn  Zn113  1  0.68790365  0.68617752  0.18752219  1
  Zn  Zn114  1  0.68530844  0.68524356  0.68775459  1
  Zn  Zn115  1  0.30838169  0.31326684  0.31305891  1
  Zn  Zn116  1  0.31060230  0.31261080  0.81326951  1
  Zn  Zn117  1  0.31307524  0.81377219  0.31413169  1
  Zn  Zn118  1  0.31373236  0.81453020  0.81600992  1
  Zn  Zn119  1  0.81376377  0.31389807  0.31454371  1
  Zn  Zn120  1  0.81240657  0.31047215  0.81454728  1
  Zn  Zn121  1  0.81588770  0.81458631  0.30686216  1
  Zn  Zn122  1  0.81472109  0.81018413  0.81286741  1
  Zn  Zn123  1  0.18569469  0.43728454  0.43697179  1
  Zn  Zn124  1  0.18475403  0.43689679  0.93570623  1
  Zn  Zn125  1  0.18994904  0.93843851  0.43493300  1
  Zn  Zn126  1  0.18963930  0.93724768  0.93474153  1
  Zn  Zn127  1  0.68338370  0.44042218  0.43570696  1
  Zn  Zn128  1  0.68723085  0.43977620  0.93738533  1
  Zn  Zn129  1  0.68715269  0.93945949  0.43441946  1
  Zn  Zn130  1  0.68853337  0.93698905  0.93794176  1
  Zn  Zn131  1  0.31204153  0.06345230  0.06489096  1
  Zn  Zn132  1  0.30951984  0.06505743  0.56305326  1
  Zn  Zn133  1  0.31343420  0.56371403  0.06283596  1
  Zn  Zn134  1  0.30904165  0.56392328  0.56262431  1
  Zn  Zn135  1  0.81547536  0.06140063  0.06421097  1
  Zn  Zn136  1  0.81722439  0.05204931  0.56796607  1
  Zn  Zn137  1  0.81015291  0.55893688  0.06864397  1
  Zn  Zn138  1  0.81713671  0.54803055  0.56298316  1
  Zn  Zn139  1  0.43565265  0.43975890  0.18916910  1
  Zn  Zn140  1  0.43864774  0.43658091  0.68850218  1
  Zn  Zn141  1  0.43687661  0.94190534  0.18345746  1
  Zn  Zn142  1  0.43579239  0.94023389  0.68493520  1
  Zn  Zn143  1  0.92965699  0.44189208  0.18725712  1
  Zn  Zn144  1  0.93472672  0.43429879  0.68077649  1
  Zn  Zn145  1  0.94010339  0.93807496  0.18110735  1
  Zn  Zn146  1  0.93501065  0.93397658  0.68091397  1
  Zn  Zn147  1  0.06445327  0.05886021  0.31650639  1
  Zn  Zn148  1  0.04012177  0.03728380  0.77395288  1
  Zn  Zn149  1  0.06135150  0.56375436  0.30820539  1
  Zn  Zn150  1  0.06179693  0.56245118  0.80949146  1
  Zn  Zn151  1  0.56447848  0.05764020  0.31330245  1
  Zn  Zn152  1  0.56240996  0.06298986  0.81230499  1
  Zn  Zn153  1  0.56161797  0.56003505  0.31298618  1
  Zn  Zn154  1  0.56449525  0.56421867  0.81364079  1
  Zn  Zn155  1  0.43652756  0.18789580  0.43701490  1
  Zn  Zn156  1  0.44085052  0.18658853  0.94184296  1
  Zn  Zn157  1  0.43745210  0.69296207  0.43587241  1
  Zn  Zn158  1  0.43723492  0.68722769  0.93880024  1
  Zn  Zn159  1  0.93752430  0.19248556  0.43546994  1
  Zn  Zn160  1  0.94198932  0.18920786  0.93579152  1
  Zn  Zn161  1  0.96029863  0.68726493  0.43251624  1
  Zn  Zn162  1  0.93255152  0.68933917  0.93767552  1
  Zn  Zn163  1  0.05640459  0.31053037  0.06044897  1
  Zn  Zn164  1  0.05666652  0.30540586  0.56515191  1
  Zn  Zn165  1  0.06021112  0.81561842  0.06129197  1
  Zn  Zn166  1  0.06286445  0.81171990  0.56883792  1
  Zn  Zn167  1  0.56396465  0.31348446  0.06475706  1
  Zn  Zn168  1  0.55357735  0.31528133  0.56094301  1
  Zn  Zn169  1  0.56216496  0.81079274  0.06595486  1
  Zn  Zn170  1  0.56157677  0.81362163  0.56273084  1
  O  O171  1  0.12363716  0.11511427  0.11338210  1
  O  O172  1  0.12951711  0.13077787  0.60456150  1
  O  O173  1  0.11998422  0.61464738  0.11697176  1
  O  O174  1  0.11466526  0.61462368  0.62249086  1
  O  O175  1  0.62204576  0.12090158  0.12132238  1
  O  O176  1  0.62999195  0.12359292  0.61664226  1
  O  O177  1  0.61320026  0.63263987  0.11802026  1
  O  O178  1  0.61756007  0.61527094  0.61993746  1
  O  O179  1  0.37982146  0.37664897  0.38225991  1
  O  O180  1  0.38173275  0.37820516  0.88148826  1
  O  O181  1  0.37309124  0.87867294  0.39005543  1
  O  O182  1  0.37635000  0.88252733  0.88804505  1
  O  O183  1  0.87553407  0.37025700  0.39112032  1
  O  O184  1  0.88494929  0.37736274  0.87685630  1
  O  O185  1  0.88113953  0.88642261  0.37170574  1
  O  O186  1  0.87865380  0.86796501  0.89140205  1
  O  O187  1  0.25180669  0.00815056  0.36622814  1
  O  O188  1  0.26618625  -0.00359091  0.86942862  1
  O  O189  1  0.25322739  0.50613909  0.36761896  1
  O  O190  1  0.25537217  0.50679568  0.86933291  1
  O  O191  1  0.76080597  0.00620425  0.36876924  1
  O  O192  1  0.73961778  0.00965588  0.86642813  1
  O  O193  1  0.74752607  0.49792000  0.36075310  1
  O  O194  1  0.74947533  0.50814784  0.86806797  1
  O  O195  1  0.24295033  0.49694970  0.13058959  1
  O  O196  1  0.23497633  0.50525896  0.62981072  1
  O  O197  1  0.24365962  0.99944812  0.13189793  1
  O  O198  1  0.25819315  0.99096270  0.63721607  1
  O  O199  1  0.75220682  0.48594167  0.13802805  1
  O  O200  1  0.73903326  0.50481825  0.63474079  1
  O  O201  1  0.73942233  1.00472244  0.13253197  1
  O  O202  1  0.74377183  0.98889095  0.63276589  1
  O  O203  1  -0.00322317  0.36546938  0.24585277  1
  O  O204  1  0.00704395  0.37594688  0.75911428  1
  O  O205  1  -0.00229986  0.86292104  0.25021453  1
  O  O206  1  0.00879470  0.86392997  0.75064302  1
  O  O207  1  0.50567726  0.38150854  0.26091454  1
  O  O208  1  0.49903544  0.37276293  0.76469690  1
  O  O209  1  0.51419609  0.88366566  0.24887616  1
  O  O210  1  0.49988976  0.86315798  0.74602231  1
  O  O211  1  0.50005383  0.11898309  0.23684699  1
  O  O212  1  0.48740122  0.12618268  0.74732147  1
  O  O213  1  0.48723407  0.62090302  0.24523516  1
  O  O214  1  0.49331310  0.63191522  0.74624662  1
  O  O215  1  0.99120656  0.12389217  0.25160537  1
  O  O216  1  0.97698732  0.13349056  0.77548176  1
  O  O217  1  0.99376303  0.63540558  0.24640083  1
  O  O218  1  0.99853281  0.62860810  0.74029938  1
  O  O219  1  0.36680495  0.25385124  0.00738598  1
  O  O220  1  0.36724209  0.25584579  0.50561206  1
  O  O221  1  0.36861038  0.75683450  0.00464770  1
  O  O222  1  0.36558155  0.75831560  0.50750506  1
  O  O223  1  0.89184009  0.25451833  0.01017330  1
  O  O224  1  0.87305186  0.25977937  0.50041781  1
  O  O225  1  0.86651771  0.75811836  0.00318791  1
  O  O226  1  0.86398345  0.73429323  0.49200515  1
  O  O227  1  0.13019546  0.24731863  0.48746531  1
  O  O228  1  0.13060418  0.24308495  0.99471902  1
  O  O229  1  0.13848489  0.74663514  0.50657560  1
  O  O230  1  0.13698742  0.74476531  1.00591753  1
  O  O231  1  0.62283299  0.24675135  0.49264012  1
  O  O232  1  0.62204842  0.23938858  0.99581352  1
  O  O233  1  0.62339082  0.73453719  0.50549088  1
  O  O234  1  0.63007752  0.74394625  0.99514137  1
  O  O235  1  0.49041887  0.24177500  0.11921106  1
  O  O236  1  0.48589900  0.24797325  0.62600300  1
  O  O237  1  0.48585398  0.74005356  0.12033015  1
  O  O238  1  0.49345818  0.74450525  0.63315281  1
  O  O239  1  1.00684819  0.24515100  0.14148609  1
  O  O240  1  0.99713976  0.23560560  0.62993255  1
  O  O241  1  1.00003373  0.74600183  0.13368512  1
  O  O242  1  0.99624401  0.73909832  0.62964234  1
  O  O243  1  0.01281001  0.24719452  0.36269189  1
  O  O244  1  0.01193168  0.26023161  0.87076783  1
  O  O245  1  0.00116423  0.76416847  0.36092678  1
  O  O246  1  -0.00167393  0.74362895  0.85990037  1
  O  O247  1  0.50757024  0.25767811  0.37860645  1
  O  O248  1  0.50853527  0.25762156  0.87788656  1
  O  O249  1  0.50594960  0.75905969  0.38069592  1
  O  O250  1  0.50796440  0.74313026  0.86682009  1
  O  O251  1  0.24493164  0.13623980  0.49156671  1
  O  O252  1  0.23954549  0.13202358  1.00224396  1
  O  O253  1  0.25025208  0.63378218  0.49038168  1
  O  O254  1  0.24647881  0.63163942  0.99245916  1
  O  O255  1  0.74844059  0.12020251  0.49388885  1
  O  O256  1  0.73788810  0.11658697  0.99640181  1
  O  O257  1  0.74415096  0.61741836  0.49574914  1
  O  O258  1  0.74400146  0.63057847  0.99667389  1
  O  O259  1  0.25346683  0.36905532  0.00628899  1
  O  O260  1  0.25704932  0.36248621  0.49285426  1
  O  O261  1  0.25802265  0.86679835  0.00056444  1
  O  O262  1  0.25377664  0.87131575  0.50721658  1
  O  O263  1  0.74821075  0.38160937  0.01524404  1
  O  O264  1  0.75748095  0.38033834  0.49795585  1
  O  O265  1  0.76065852  0.86940443  -0.00339230  1
  O  O266  1  0.74370051  0.87699547  0.51408668  1
  O  O267  1  0.13374806  0.50653309  0.23845377  1
  O  O268  1  0.12932648  0.49224950  0.74274786  1
  O  O269  1  0.13345182  1.00732355  0.23870261  1
  O  O270  1  0.14353995  0.98913590  0.76005720  1
  O  O271  1  0.63087088  0.48882328  0.25343176  1
  O  O272  1  0.63021965  0.49922550  0.74204858  1
  O  O273  1  0.63400629  0.99338614  0.24255094  1
  O  O274  1  0.63114379  1.00169457  0.73843874  1
  O  O275  1  0.36641472  0.00501042  0.24961851  1
  O  O276  1  0.37102111  0.00514803  0.75905611  1
  O  O277  1  0.36598464  0.50865141  0.25559317  1
  O  O278  1  0.36846952  0.50476134  0.75411704  1
  O  O279  1  0.87087484  0.00401254  0.25346791  1
  O  O280  1  0.86004227  0.00535925  0.75004519  1
  O  O281  1  0.87022401  0.51651180  0.25065731  1
  O  O282  1  0.86568350  0.50208592  0.74900672  1
  O  O283  1  0.13155511  0.35982174  0.37060747  1
  O  O284  1  0.12027467  0.36929763  0.86408251  1
  O  O285  1  0.11125600  0.88135414  0.37463684  1
  O  O286  1  0.12682533  0.87009214  0.86326832  1
  O  O287  1  0.61598718  0.36753560  0.36993605  1
  O  O288  1  0.61781899  0.36817724  0.87784420  1
  O  O289  1  0.62565722  0.87767663  0.35876547  1
  O  O290  1  0.62617449  0.86126331  0.87478879  1
  O  O291  1  0.38499400  0.13356423  0.12293209  1
  O  O292  1  0.37469622  0.13367918  0.63300632  1
  O  O293  1  0.37821441  0.63250162  0.13300755  1
  O  O294  1  0.37839671  0.63031426  0.63172525  1
  O  O295  1  0.87769180  0.12625124  0.13613603  1
  O  O296  1  0.87212174  0.12671310  0.63486586  1
  O  O297  1  0.88319090  0.62772572  0.13161829  1
  O  O298  1  0.88687206  0.62216594  0.62239534  1
  O  O299  1  0.25276786  0.25409773  0.11600340  1
  O  O300  1  0.26062801  0.24965609  0.61489730  1
  O  O301  1  0.26092573  0.74956788  0.11559453  1
  O  O302  1  0.25594506  0.75633868  0.61927976  1
  O  O303  1  0.75100146  0.26944302  0.13661337  1
  O  O304  1  0.73698153  0.23830070  0.61226735  1
  O  O305  1  0.75002460  0.74836088  0.11136931  1
  O  O306  1  0.74912244  0.76203543  0.62884942  1
  O  O307  1  0.23997930  0.24404796  0.37753847  1
  O  O308  1  0.24337343  0.25715389  0.88985368  1
  O  O309  1  0.25502725  0.74282651  0.38404342  1
  O  O310  1  0.25642521  0.74005824  0.88439500  1
  O  O311  1  0.74309382  0.23501440  0.36951104  1
  O  O312  1  0.73624246  0.24157634  0.87315244  1
  O  O313  1  0.74469531  0.74840422  0.37610614  1
  O  O314  1  0.74226647  0.74282128  0.88303216  1
  O  O315  1  0.01367603  0.11698889  -0.00362415  1
  O  O316  1  0.01495407  0.12496475  0.49351635  1
  O  O317  1  0.00371268  0.62033213  0.00351944  1
  O  O318  1  0.00464144  0.61239509  0.50496371  1
  O  O319  1  0.51147567  0.11766598  0.00913189  1
  O  O320  1  0.49413008  0.11178985  0.50301230  1
  O  O321  1  0.50705328  0.62465599  0.00819012  1
  O  O322  1  0.50328196  0.61930069  0.50748449  1
  O  O323  1  0.49042850  0.38168038  0.48887240  1
  O  O324  1  0.49540942  0.37750912  0.99190336  1
  O  O325  1  0.49038097  0.88644197  0.50557726  1
  O  O326  1  0.49272796  0.88430596  1.00670198  1
  O  O327  1  1.00715944  0.38442019  0.49651435  1
  O  O328  1  1.00611858  0.38535148  0.98664306  1
  O  O329  1  1.00264656  0.86573904  0.48698564  1
  O  O330  1  0.99314062  0.88207191  0.99402935  1
  O  O331  1  0.49071461  0.49253558  0.38114093  1
  O  O332  1  0.49377698  0.49337139  0.87712338  1
  O  O333  1  0.49790992  0.99525148  0.38398187  1
  O  O334  1  0.49372551  1.00441697  0.88837089  1
  O  O335  1  1.00799482  0.50130960  0.38706556  1
  O  O336  1  0.99930939  0.49526305  0.88148961  1
  O  O337  1  0.98982304  0.98627486  0.36987017  1
  O  O338  1  1.00809774  0.99520900  0.88116940  1
  O  O339  1  0.00829550  0.00317220  0.11184019  1
  O  O340  1  0.00575985  0.01683961  0.66454367  1
  O  O341  1  0.00556989  0.50447950  0.11875125  1
  O  O342  1  0.01050620  0.50374347  0.61868214  1
  O  O343  1  0.50945485  0.00827857  0.11527013  1
  O  O344  1  0.50957900  0.00378106  0.62111985  1
  O  O345  1  0.49161719  0.51531901  0.12262565  1
  O  O346  1  0.50258348  0.50695477  0.62019246  1
  O  O347  1  0.25463144  0.38883276  0.24310511  1
  O  O348  1  0.24193694  0.38513519  0.75445806  1
  O  O349  1  0.25305423  0.88802171  0.24886519  1
  O  O350  1  0.24662932  0.87780601  0.74451848  1
  O  O351  1  0.74328506  0.38221523  0.24651560  1
  O  O352  1  0.74488160  0.38741873  0.75704890  1
  O  O353  1  0.74343413  0.88701320  0.25070126  1
  O  O354  1  0.74708923  0.88073720  0.74709948  1
  O  O355  1  0.25080541  0.11775081  0.25627384  1
  O  O356  1  0.26194689  0.11651459  0.74673011  1
  O  O357  1  0.25854650  0.61859203  0.25429860  1
  O  O358  1  0.25349489  0.61995553  0.75616392  1
  O  O359  1  0.76055494  0.11566218  0.25641481  1
  O  O360  1  0.75733050  0.11587130  0.76175169  1
  O  O361  1  0.75767958  0.61768495  0.24487639  1
  O  O362  1  0.74779325  0.61649257  0.75906332  1
  O  O363  1  0.36167961  0.12717605  0.37271862  1
  O  O364  1  0.37965010  0.11739757  0.86937536  1
  O  O365  1  0.36711611  0.62135688  0.36854638  1
  O  O366  1  0.36555683  0.61989071  0.87091641  1
  O  O367  1  0.87116197  0.11552604  0.36950722  1
  O  O368  1  0.85908263  0.13065612  0.87596039  1
  O  O369  1  0.86735234  0.63394561  0.37191825  1
  O  O370  1  0.85974380  0.62296159  0.87492729  1
  O  O371  1  0.12866601  0.38717802  0.11756668  1
  O  O372  1  0.11977005  0.37870422  0.63762277  1
  O  O373  1  0.12889807  0.88999141  0.11702829  1
  O  O374  1  0.13741667  0.87271765  0.63493008  1
  O  O375  1  0.63240377  0.37278461  0.13541413  1
  O  O376  1  0.61354215  0.38919147  0.62588715  1
  O  O377  1  0.62225717  0.88429047  0.13486360  1
  O  O378  1  0.63301396  0.88047133  0.62970742  1
  O  O379  1  0.11502055  0.24497562  0.25992342  1
  O  O380  1  0.12962349  0.25577175  0.75556263  1
  O  O381  1  0.11372055  0.74700800  0.24382281  1
  O  O382  1  0.11582727  0.75543605  0.74342870  1
  O  O383  1  0.62633189  0.26064696  0.26124305  1
  O  O384  1  0.61767269  0.25350704  0.76245646  1
  O  O385  1  0.62954715  0.76624461  0.24696298  1
  O  O386  1  0.61530991  0.74853642  0.75930048  1
  O  O387  1  0.36794735  0.24900357  0.23586952  1
  O  O388  1  0.37230572  0.24370783  0.74401479  1
  O  O389  1  0.36868234  0.74238033  0.24107190  1
  O  O390  1  0.38047875  0.74579858  0.74739292  1
  O  O391  1  0.88973977  0.24287522  0.25144977  1
  O  O392  1  0.86798540  0.24204950  0.74208064  1
  O  O393  1  0.88118071  0.74112535  0.24637491  1
  O  O394  1  0.88335747  0.74504182  0.74363556  1
  O  O395  1  0.37478919  0.49263182  0.49536363  1
  O  O396  1  0.37432576  0.49293968  0.99349570  1
  O  O397  1  0.38032496  0.99404316  0.50092430  1
  O  O398  1  0.38112740  0.99534934  0.99597447  1
  O  O399  1  0.89010209  0.48610235  0.49973447  1
  O  O400  1  0.88744868  0.49791749  1.00001896  1
  O  O401  1  0.87634612  0.99984768  0.48542651  1
  O  O402  1  0.88349523  0.99182197  0.99922197  1
  O  O403  1  0.12192064  0.00620373  0.00061720  1
  O  O404  1  0.13271092  0.01550862  0.49777505  1
  O  O405  1  0.11563201  0.50655236  0.00437851  1
  O  O406  1  0.11956746  0.49891740  0.50688218  1
  O  O407  1  0.61971793  0.00322264  0.00720827  1
  O  O408  1  0.61768637  -0.00408316  0.51187570  1
  O  O409  1  0.62340995  0.51584740  -0.00280883  1
  O  O410  1  0.61788170  0.50750360  0.50693524  1
  O  O411  1  0.37017226  0.36903856  0.11985641  1
  O  O412  1  0.37905299  0.37002841  0.61218320  1
  O  O413  1  0.37353706  0.86862009  0.11539045  1
  O  O414  1  0.36578504  0.87147904  0.61725962  1
  O  O415  1  0.86191159  0.37392684  0.12377351  1
  O  O416  1  0.88108920  0.37043049  0.60443348  1
  O  O417  1  0.87987507  0.87398350  0.10530932  1
  O  O418  1  0.85999958  0.87121221  0.62260865  1
  O  O419  1  0.13445336  0.13133004  0.38187055  1
  O  O420  1  0.12597435  0.13807093  0.87908913  1
  O  O421  1  0.13847345  0.62298262  0.37416229  1
  O  O422  1  0.13759643  0.61934167  0.87902823  1
  O  O423  1  0.63439298  0.13163669  0.36866683  1
  O  O424  1  0.62930531  0.13170177  0.88412723  1
  O  O425  1  0.61931854  0.62453177  0.38709590  1
  O  O426  1  0.63321475  0.63343745  0.88310950  1
