# generated using pymatgen
data_V85Zn86O256
_symmetry_space_group_name_H-M   'P 1'
_cell_length_a   16.94338976
_cell_length_b   16.94138893
_cell_length_c   16.96075605
_cell_angle_alpha   90.08261454
_cell_angle_beta   90.08462028
_cell_angle_gamma   89.95467952
_symmetry_Int_Tables_number   1
_chemical_formula_structural   V85Zn86O256
_chemical_formula_sum   'V85 Zn86 O256'
_cell_volume   4868.48080001
_cell_formula_units_Z   1
loop_
 _symmetry_equiv_pos_site_id
 _symmetry_equiv_pos_as_xyz
  1  'x, y, z'
loop_
 _atom_site_type_symbol
 _atom_site_label
 _atom_site_symmetry_multiplicity
 _atom_site_fract_x
 _atom_site_fract_y
 _atom_site_fract_z
 _atom_site_occupancy
  V  V0  1  -0.00013343  0.50032954  0.50122189  1
  V  V1  1  0.75081608  0.86475968  0.12862842  1
  V  V2  1  0.49551618  0.87346576  0.87815625  1
  V  V3  1  0.00040783  0.62491339  0.62653136  1
  V  V4  1  0.62309216  0.50405917  0.12117785  1
  V  V5  1  0.62156890  0.37530066  0.25380242  1
  V  V6  1  0.61796657  0.11307283  0.49321429  1
  V  V7  1  0.37171384  0.12560352  0.25794553  1
  V  V8  1  -0.00003082  0.00183442  0.00841642  1
  V  V9  1  -0.00003078  0.37052008  0.37186034  1
  V  V10  1  0.50476301  0.12809672  0.64173162  1
  V  V11  1  0.49489429  0.62732195  0.11871424  1
  V  V12  1  0.74874593  0.75750703  0.50738255  1
  V  V13  1  0.87674311  0.49689378  0.87590047  1
  V  V14  1  0.37972888  0.88192458  0.49691952  1
  V  V15  1  0.87572727  0.50232522  0.37275566  1
  V  V16  1  0.24765242  0.75418696  0.50144835  1
  V  V17  1  0.74596735  0.62225616  0.88167370  1
  V  V18  1  0.12074268  0.75247794  0.36865511  1
  V  V19  1  0.75056460  0.12522911  0.36249727  1
  V  V20  1  0.37620687  0.49982106  0.38137803  1
  V  V21  1  0.49378914  0.75140493  0.25030684  1
  V  V22  1  0.00144414  0.37473315  0.87849026  1
  V  V23  1  0.24463709  0.37495835  0.12343009  1
  V  V24  1  0.62286901  0.62521280  0.50093911  1
  V  V25  1  0.61628229  0.36750480  0.74867800  1
  V  V26  1  0.74865513  0.37111745  0.62451141  1
  V  V27  1  0.24424617  0.49793955  0.25009730  1
  V  V28  1  0.37086736  0.35779816  0.50547977  1
  V  V29  1  0.75265842  -0.01042208  0.73916079  1
  V  V30  1  0.12403985  0.62571803  0.50036450  1
  V  V31  1  0.07295746  0.55903838  0.05902061  1
  V  V32  1  0.73941089  0.24616239  0.49415951  1
  V  V33  1  0.12737646  0.12383598  0.01022958  1
  V  V34  1  0.49772235  0.50102982  -0.00193841  1
  V  V35  1  -0.00338082  0.12392161  0.13528389  1
  V  V36  1  0.02270279  0.86296227  0.89248306  1
  V  V37  1  0.12533962  0.87732448  0.74559969  1
  V  V38  1  0.23770886  0.64073562  0.87881734  1
  V  V39  1  0.11543910  0.01335972  0.62420645  1
  V  V40  1  0.37058775  0.37131454  -0.00143474  1
  V  V41  1  0.87362062  0.75844010  0.62714442  1
  V  V42  1  0.24928859  0.49742925  0.74783801  1
  V  V43  1  0.36329530  0.75567040  0.11226860  1
  V  V44  1  0.14364527  0.24856777  0.37725621  1
  V  V45  1  0.62662169  0.87850088  0.25094230  1
  V  V46  1  0.75219838  0.12116394  0.87522224  1
  V  V47  1  0.00461376  0.74959407  0.75674793  1
  V  V48  1  0.24773022  0.10762273  0.87984822  1
  V  V49  1  0.37358987  0.62533944  0.75012431  1
  V  V50  1  0.87620281  0.62315497  0.75152970  1
  V  V51  1  0.37208708  0.75274276  0.62644607  1
  V  V52  1  0.62375705  0.74571359  0.88380004  1
  V  V53  1  0.24966332  0.88690151  0.62787465  1
  V  V54  1  0.61677984  0.24704633  0.87171181  1
  V  V55  1  0.87748135  0.24244064  0.62231496  1
  V  V56  1  0.87719648  0.12288417  0.74955734  1
  V  V57  1  0.87445612  0.24925338  0.13359390  1
  V  V58  1  0.87839730  0.37709182  0.00227904  1
  V  V59  1  -0.00065646  0.24211238  0.74815745  1
  V  V60  1  0.24641280  0.00066050  0.26230774  1
  V  V61  1  0.12550766  0.37183154  0.74723571  1
  V  V62  1  0.50142593  0.75255767  0.74952536  1
  V  V63  1  0.25001950  0.88534942  0.11627965  1
  V  V64  1  0.87172965  0.86242186  0.00481962  1
  V  V65  1  0.62400416  0.49923774  0.62517028  1
  V  V66  1  0.88060126  0.63143386  0.23922808  1
  V  V67  1  0.75037172  0.25144616  -0.00152934  1
  V  V68  1  0.63295324  0.00026201  0.12734352  1
  V  V69  1  0.87144902  0.00333233  0.36041473  1
  V  V70  1  0.36359478  0.12797095  0.74629574  1
  V  V71  1  0.13323296  0.24539660  0.87951578  1
  V  V72  1  0.75035178  0.62638293  0.37333052  1
  V  V73  1  0.87269702  0.37377116  0.49978761  1
  V  V74  1  0.36789627  0.24806408  0.12168253  1
  V  V75  1  0.87520429  -0.00624490  0.87964240  1
  V  V76  1  0.00222498  0.87518942  0.37330152  1
  V  V77  1  0.62514775  0.12351075  -0.00003609  1
  V  V78  1  0.24966534  0.62610699  0.37189014  1
  V  V79  1  -0.00152712  0.00929920  0.49911307  1
  V  V80  1  0.74897379  0.49773435  0.75081400  1
  V  V81  1  0.37319962  0.49942738  0.87579240  1
  V  V82  1  0.49829711  0.12580659  0.12575926  1
  V  V83  1  0.62268732  0.74934153  0.37480792  1
  V  V84  1  0.49323209  -0.00564980  0.00169782  1
  Zn  Zn85  1  0.12175937  0.37597036  0.24575690  1
  Zn  Zn86  1  0.50297339  0.25089426  0.25143806  1
  Zn  Zn87  1  0.12183476  0.88190867  0.24191528  1
  Zn  Zn88  1  0.49909646  0.49737000  0.49961482  1
  Zn  Zn89  1  0.49386647  0.36944786  0.87106309  1
  Zn  Zn90  1  0.12639028  0.49711693  0.62357667  1
  Zn  Zn91  1  0.74920935  0.50230283  0.24509315  1
  Zn  Zn92  1  0.25236557  0.35715541  0.62312813  1
  Zn  Zn93  1  0.49826900  0.62486275  0.62426799  1
  Zn  Zn94  1  -0.00910111  0.75447005  0.22711448  1
  Zn  Zn95  1  0.50389836  0.88171307  0.38217825  1
  Zn  Zn96  1  0.74862026  0.74124386  0.00567297  1
  Zn  Zn97  1  0.13065653  0.13854710  0.50100682  1
  Zn  Zn98  1  0.87335200  0.88014164  0.50139889  1
  Zn  Zn99  1  0.50269393  0.37254076  0.37792172  1
  Zn  Zn100  1  -0.00003782  0.24887657  0.25250823  1
  Zn  Zn101  1  0.61760792  -0.01093309  0.61900894  1
  Zn  Zn102  1  0.38452264  0.01068678  0.37982493  1
  Zn  Zn103  1  0.37218525  0.62599022  0.24975064  1
  Zn  Zn104  1  0.74810016  0.37864916  0.12448876  1
  Zn  Zn105  1  0.37145290  -0.00543000  0.87421863  1
  Zn  Zn106  1  0.63309575  0.86918393  0.74605440  1
  Zn  Zn107  1  0.18649962  0.18839940  0.19327077  1
  Zn  Zn108  1  0.18626327  0.18322489  0.69330192  1
  Zn  Zn109  1  0.15741395  0.70061068  0.16323326  1
  Zn  Zn110  1  0.18655255  0.68978590  0.69001582  1
  Zn  Zn111  1  0.68719413  0.19154250  0.18420953  1
  Zn  Zn112  1  0.68745274  0.18134968  0.68443030  1
  Zn  Zn113  1  0.68240545  0.68455671  0.18856390  1
  Zn  Zn114  1  0.68800148  0.68677471  0.69112669  1
  Zn  Zn115  1  0.31989696  0.31531151  0.31001553  1
  Zn  Zn116  1  0.31154056  0.30543947  0.80904842  1
  Zn  Zn117  1  0.30825643  0.81571034  0.31201733  1
  Zn  Zn118  1  0.31188768  0.81648517  0.81145718  1
  Zn  Zn119  1  0.80524933  0.31594601  0.31183252  1
  Zn  Zn120  1  0.80946502  0.31106006  0.81215044  1
  Zn  Zn121  1  0.81299838  0.81296449  0.31353268  1
  Zn  Zn122  1  0.81796255  0.80918024  0.81927299  1
  Zn  Zn123  1  0.18827784  0.43385484  0.43856578  1
  Zn  Zn124  1  0.19035419  0.43900280  0.93461227  1
  Zn  Zn125  1  0.23769214  1.00017014  0.48199397  1
  Zn  Zn126  1  0.17934843  0.92577261  0.94614165  1
  Zn  Zn127  1  0.68911146  0.43952987  0.43692138  1
  Zn  Zn128  1  0.68385945  0.43598797  0.93800985  1
  Zn  Zn129  1  0.69086503  0.93802384  0.43282997  1
  Zn  Zn130  1  0.68432269  0.93281817  0.93758018  1
  Zn  Zn131  1  0.31038974  0.06032833  0.06443258  1
  Zn  Zn132  1  0.30795222  0.17570063  0.56261534  1
  Zn  Zn133  1  0.27918920  0.57871596  0.07563522  1
  Zn  Zn134  1  0.30913576  0.56177808  0.56337481  1
  Zn  Zn135  1  0.81361935  0.06128770  0.06635050  1
  Zn  Zn136  1  0.81357315  0.06443231  0.55702047  1
  Zn  Zn137  1  0.81549307  0.55892074  0.06139603  1
  Zn  Zn138  1  0.81132482  0.56619963  0.56268392  1
  Zn  Zn139  1  0.43126259  0.44013164  0.18788556  1
  Zn  Zn140  1  0.43797011  0.43658910  0.68383837  1
  Zn  Zn141  1  0.43744165  0.93848586  0.19069337  1
  Zn  Zn142  1  0.43737013  0.94719258  0.68667661  1
  Zn  Zn143  1  0.94216426  0.44466166  0.18405285  1
  Zn  Zn144  1  0.93871372  0.43344190  0.68773976  1
  Zn  Zn145  1  0.93620656  0.93511553  0.18648873  1
  Zn  Zn146  1  0.94226493  0.93627945  0.69094334  1
  Zn  Zn147  1  0.06540552  0.06438648  0.31707545  1
  Zn  Zn148  1  0.06247767  0.05522727  0.81738086  1
  Zn  Zn149  1  0.06145773  0.56230245  0.31010597  1
  Zn  Zn150  1  0.06419332  0.55932340  0.81818331  1
  Zn  Zn151  1  0.56115906  0.06060136  0.31289319  1
  Zn  Zn152  1  0.56509625  0.05640095  0.81218652  1
  Zn  Zn153  1  0.55831713  0.56099824  0.30830528  1
  Zn  Zn154  1  0.56106170  0.56232614  0.81282073  1
  Zn  Zn155  1  0.45027785  0.19263105  0.43172667  1
  Zn  Zn156  1  0.43253998  0.18419984  0.93803283  1
  Zn  Zn157  1  0.43586935  0.69105973  0.43834908  1
  Zn  Zn158  1  0.43095904  0.68675345  0.93700880  1
  Zn  Zn159  1  0.93396033  0.18480210  0.43593337  1
  Zn  Zn160  1  0.93958940  0.18797396  0.93963761  1
  Zn  Zn161  1  0.93685936  0.69014954  0.43706567  1
  Zn  Zn162  1  0.94220748  0.68084512  0.94323891  1
  Zn  Zn163  1  0.06188617  0.30956740  0.06184672  1
  Zn  Zn164  1  0.06125858  0.31140650  0.56170313  1
  Zn  Zn165  1  0.06933359  0.80979772  0.05845103  1
  Zn  Zn166  1  0.05954049  0.81642103  0.55876232  1
  Zn  Zn167  1  0.55893260  0.31491178  0.06389963  1
  Zn  Zn168  1  0.55693517  0.30882704  0.55897295  1
  Zn  Zn169  1  0.56099523  0.81175439  0.06372611  1
  Zn  Zn170  1  0.56260721  0.81457775  0.56918663  1
  O  O171  1  0.11532759  0.13383514  0.11615330  1
  O  O172  1  0.11847402  0.11542097  0.62584427  1
  O  O173  1  0.16037605  0.60372033  0.10351796  1
  O  O174  1  0.11743975  0.62465770  0.61940243  1
  O  O175  1  0.61926060  0.11859687  0.12136671  1
  O  O176  1  0.62035163  0.11783377  0.61503566  1
  O  O177  1  0.61129037  0.61388472  0.12710991  1
  O  O178  1  0.62685130  0.61647960  0.61799915  1
  O  O179  1  0.37443850  0.38330276  0.38823269  1
  O  O180  1  0.37353547  0.37797049  0.88093428  1
  O  O181  1  0.37538357  0.86622756  0.39230112  1
  O  O182  1  0.39003764  0.87599877  0.87079227  1
  O  O183  1  0.87695542  0.38545165  0.37894050  1
  O  O184  1  0.88169170  0.37541283  0.88005755  1
  O  O185  1  0.88189641  0.88511785  0.37439274  1
  O  O186  1  0.88344639  0.87913518  0.88704081  1
  O  O187  1  0.26236408  -0.00344052  0.36372578  1
  O  O188  1  0.24805726  0.00514000  0.88218678  1
  O  O189  1  0.25530915  0.50734579  0.37320504  1
  O  O190  1  0.25607047  0.50359118  0.86206311  1
  O  O191  1  0.76457166  0.00667274  0.37665727  1
  O  O192  1  0.76137102  0.00042718  0.87315021  1
  O  O193  1  0.75748998  0.51269718  0.37573831  1
  O  O194  1  0.75341996  0.50342044  0.87050092  1
  O  O195  1  0.26627900  0.48632635  0.14011580  1
  O  O196  1  0.24719768  0.49952567  0.63914197  1
  O  O197  1  0.25911897  0.98912160  0.13786495  1
  O  O198  1  0.23035727  0.98825238  0.62122529  1
  O  O199  1  0.73679766  0.50077071  0.12203769  1
  O  O200  1  0.74082886  0.49405112  0.62795081  1
  O  O201  1  0.73746645  0.99167571  0.12026787  1
  O  O202  1  0.75797658  1.00135943  0.63898050  1
  O  O203  1  0.00100496  0.37637153  0.25851801  1
  O  O204  1  0.00666707  0.36351475  0.75547395  1
  O  O205  1  0.00257867  0.87029681  0.25377661  1
  O  O206  1  0.00437219  0.86533167  0.76174310  1
  O  O207  1  0.51189061  0.38073910  0.24695260  1
  O  O208  1  0.51236423  0.37629595  0.75025028  1
  O  O209  1  0.51127863  0.86618265  0.24757543  1
  O  O210  1  0.49872105  0.86262243  0.75528720  1
  O  O211  1  0.49454357  0.12394365  0.23606745  1
  O  O212  1  0.50783830  0.12901945  0.74446104  1
  O  O213  1  0.49523387  0.63243379  0.23797174  1
  O  O214  1  0.49161007  0.63479595  0.74989352  1
  O  O215  1  1.00363542  0.12557061  0.23826118  1
  O  O216  1  0.99409499  0.13520454  0.75938049  1
  O  O217  1  0.98302417  0.62790767  0.25869004  1
  O  O218  1  0.99662641  0.63073914  0.74837244  1
  O  O219  1  0.37831239  0.25887175  0.00830275  1
  O  O220  1  0.37525249  0.25523631  0.49897348  1
  O  O221  1  0.37618564  0.75241641  0.01434110  1
  O  O222  1  0.36665534  0.75383517  0.50971884  1
  O  O223  1  0.86789550  0.25889495  0.00364710  1
  O  O224  1  0.86911163  0.25328454  0.50806020  1
  O  O225  1  0.87306027  0.75901276  -0.00196241  1
  O  O226  1  0.86645238  0.74815026  0.51040397  1
  O  O227  1  0.12070552  0.25527797  0.48341231  1
  O  O228  1  0.11624745  0.23690325  0.98898790  1
  O  O229  1  0.12904970  0.74739699  0.49095706  1
  O  O230  1  0.10411112  0.82417195  0.95312635  1
  O  O231  1  0.63616773  0.24072157  0.50295406  1
  O  O232  1  0.63261899  0.24598332  0.99547976  1
  O  O233  1  0.63073475  0.74307651  0.49718806  1
  O  O234  1  0.62490996  0.75008534  0.98733630  1
  O  O235  1  0.49206172  0.24069298  0.12574107  1
  O  O236  1  0.50596917  0.22715116  0.61814071  1
  O  O237  1  0.49127125  0.74489993  0.12996058  1
  O  O238  1  0.49192005  0.74570912  0.63462692  1
  O  O239  1  0.99062134  0.24351012  0.12771229  1
  O  O240  1  0.98954879  0.25502288  0.63514360  1
  O  O241  1  1.04914090  0.73416625  0.13300443  1
  O  O242  1  0.99280726  0.74369670  0.63168446  1
  O  O243  1  -0.01119838  0.26417344  0.37295124  1
  O  O244  1  0.00418896  0.25750501  0.86743020  1
  O  O245  1  0.00604672  0.75758743  0.37476469  1
  O  O246  1  -0.00954066  0.75642871  0.86691103  1
  O  O247  1  0.50420253  0.25980277  0.36392983  1
  O  O248  1  0.51445445  0.24849196  0.88358687  1
  O  O249  1  0.50598977  0.75239791  0.36725372  1
  O  O250  1  0.50475188  0.75230803  0.87067756  1
  O  O251  1  0.24144529  0.11173652  0.50187548  1
  O  O252  1  0.23680388  0.11842022  0.99623377  1
  O  O253  1  0.24294091  0.63119100  0.49234149  1
  O  O254  1  0.26224259  0.62419482  0.97503758  1
  O  O255  1  0.74211364  0.13078307  0.49312016  1
  O  O256  1  0.74523220  0.13096639  0.99525164  1
  O  O257  1  0.74017650  0.63188857  0.49385182  1
  O  O258  1  0.75669636  0.62358618  0.98600294  1
  O  O259  1  0.26263923  0.38231338  0.00692312  1
  O  O260  1  0.26628774  0.37944424  0.50440290  1
  O  O261  1  0.25988036  0.88733868  0.01693966  1
  O  O262  1  0.25915119  0.87042845  0.51092657  1
  O  O263  1  0.75625490  0.36635296  -0.00035054  1
  O  O264  1  0.75328974  0.36642463  0.50292573  1
  O  O265  1  0.75530940  0.87084286  0.00779241  1
  O  O266  1  0.75324876  0.86029959  0.49460759  1
  O  O267  1  0.13958430  0.49600868  0.25913187  1
  O  O268  1  0.13139726  0.48793265  0.75052272  1
  O  O269  1  0.14152797  1.00169771  0.25666949  1
  O  O270  1  0.11048714  0.99625589  0.72922741  1
  O  O271  1  0.62551080  0.49508115  0.23900261  1
  O  O272  1  0.62932842  0.49241925  0.74306692  1
  O  O273  1  0.62162047  0.98934796  0.24004478  1
  O  O274  1  0.64561067  0.99757355  0.75180703  1
  O  O275  1  0.36925519  0.00997710  0.25025373  1
  O  O276  1  0.38693184  0.02127753  0.76064080  1
  O  O277  1  0.36586112  0.50103465  0.26525867  1
  O  O278  1  0.36987661  0.50558512  0.75300125  1
  O  O279  1  0.87600383  -0.00018106  0.26203166  1
  O  O280  1  0.87125476  0.00165044  0.75870472  1
  O  O281  1  0.87261202  0.50843297  0.26021651  1
  O  O282  1  0.86834687  0.50115028  0.75492666  1
  O  O283  1  0.11527877  0.36675493  0.37468475  1
  O  O284  1  0.12038842  0.36511150  0.86687534  1
  O  O285  1  0.10901231  0.86855000  0.37201129  1
  O  O286  1  0.11873128  0.91068432  0.84672863  1
  O  O287  1  0.62563669  0.38688482  0.35753674  1
  O  O288  1  0.62391033  0.36498868  0.86568743  1
  O  O289  1  0.62595618  0.86743051  0.36764333  1
  O  O290  1  0.61597269  0.86414766  0.86876865  1
  O  O291  1  0.38162700  0.13159407  0.12702783  1
  O  O292  1  0.38639413  0.12575884  0.64167055  1
  O  O293  1  0.37339554  0.63993781  0.12882709  1
  O  O294  1  0.37329613  0.62976146  0.63637122  1
  O  O295  1  0.88303026  0.13699637  0.11817165  1
  O  O296  1  0.87155545  0.13611905  0.63071203  1
  O  O297  1  0.87089742  0.61970788  0.14081469  1
  O  O298  1  0.88139818  0.63018498  0.63274488  1
  O  O299  1  0.26119144  0.25671503  0.12921001  1
  O  O300  1  0.25704209  0.24520808  0.63622165  1
  O  O301  1  0.25892680  0.76117520  0.12936236  1
  O  O302  1  0.25312600  0.75806501  0.62073362  1
  O  O303  1  0.75608460  0.25212643  0.11214752  1
  O  O304  1  0.75638146  0.25310740  0.61743725  1
  O  O305  1  0.73911998  0.75980365  0.12197447  1
  O  O306  1  0.76006205  0.74066860  0.61817251  1
  O  O307  1  0.24185014  0.25564912  0.37258259  1
  O  O308  1  0.23572552  0.23949990  0.87158224  1
  O  O309  1  0.24467293  0.74371837  0.38263135  1
  O  O310  1  0.25026777  0.73992362  0.86705035  1
  O  O311  1  0.75943644  0.24009972  0.38519212  1
  O  O312  1  0.74503586  0.24401649  0.88487314  1
  O  O313  1  0.74571986  0.74005328  0.38278848  1
  O  O314  1  0.74208665  0.73989730  0.87519428  1
  O  O315  1  0.00406889  0.11849898  0.00825556  1
  O  O316  1  0.00460822  0.11275876  0.49368672  1
  O  O317  1  0.01496542  0.62147154  0.00278217  1
  O  O318  1  0.00386261  0.61993434  0.50494750  1
  O  O319  1  0.50624222  0.11897900  0.00964262  1
  O  O320  1  0.51696386  0.12497308  0.49920128  1
  O  O321  1  0.49116558  0.61833338  0.01091457  1
  O  O322  1  0.51337348  0.62637989  0.50121422  1
  O  O323  1  0.48666699  0.37742373  0.49937434  1
  O  O324  1  0.48742778  0.38179697  0.99821146  1
  O  O325  1  0.48319191  0.86710565  0.50342975  1
  O  O326  1  0.50667237  0.88288938  0.99190635  1
  O  O327  1  0.99080216  0.38191350  0.49450336  1
  O  O328  1  0.99038138  0.36529828  0.98941915  1
  O  O329  1  0.99497074  0.88374865  0.48963305  1
  O  O330  1  0.98448877  0.88516302  1.00729398  1
  O  O331  1  0.49038361  0.49816179  0.37728823  1
  O  O332  1  0.49272341  0.49778075  0.88073888  1
  O  O333  1  0.49528701  0.99355530  0.37183394  1
  O  O334  1  0.50586310  0.98948014  0.88491592  1
  O  O335  1  0.99264102  0.49197325  0.37964459  1
  O  O336  1  0.99279693  0.48199803  0.86487182  1
  O  O337  1  0.99155565  0.99530110  0.37863531  1
  O  O338  1  0.98960297  0.99017317  0.88623795  1
  O  O339  1  -0.00907414  0.00966866  0.11791954  1
  O  O340  1  0.00625930  -0.00545113  0.61409870  1
  O  O341  1  0.01513210  0.50981459  0.12720960  1
  O  O342  1  0.00013471  0.50628231  0.62040182  1
  O  O343  1  0.50859338  0.00449296  0.11910159  1
  O  O344  1  0.50332748  0.01836468  0.62627806  1
  O  O345  1  0.49863132  0.50878292  0.11777778  1
  O  O346  1  0.51303011  0.50389990  0.62387324  1
  O  O347  1  0.25044066  0.38156731  0.24234561  1
  O  O348  1  0.24242440  0.37983548  0.75005305  1
  O  O349  1  0.25041863  0.88885013  0.24563356  1
  O  O350  1  0.23987793  0.87094553  0.73951778  1
  O  O351  1  0.73803541  0.38198431  0.24504728  1
  O  O352  1  0.74097814  0.37936250  0.74399136  1
  O  O353  1  0.73660625  0.86707877  0.24380002  1
  O  O354  1  0.75698588  0.88706078  0.75714567  1
  O  O355  1  0.25937556  0.11161962  0.24169644  1
  O  O356  1  0.25741211  0.11930490  0.76109596  1
  O  O357  1  0.24990446  0.61878549  0.26457650  1
  O  O358  1  0.25553469  0.61843295  0.75568046  1
  O  O359  1  0.74140479  0.13130839  0.26318014  1
  O  O360  1  0.75836909  0.11392333  0.75697611  1
  O  O361  1  0.75740567  0.62489137  0.25880948  1
  O  O362  1  0.75680471  0.61696751  0.75921026  1
  O  O363  1  0.38005678  0.13062478  0.36044080  1
  O  O364  1  0.36088230  0.11982785  0.87723898  1
  O  O365  1  0.36596463  0.62031280  0.37554909  1
  O  O366  1  0.37141479  0.62058512  0.86096542  1
  O  O367  1  0.86700558  0.11204188  0.37613836  1
  O  O368  1  0.87159092  0.11560668  0.87235545  1
  O  O369  1  0.86718696  0.61935971  0.37272566  1
  O  O370  1  0.87120645  0.61657651  0.86997022  1
  O  O371  1  0.14075576  0.36584003  0.12382523  1
  O  O372  1  0.12595193  0.37362542  0.63748002  1
  O  O373  1  0.14568935  0.87492926  0.12617773  1
  O  O374  1  0.12689680  0.87835690  0.63230293  1
  O  O375  1  0.62267475  0.38919292  0.12915055  1
  O  O376  1  0.62834178  0.37892344  0.62925021  1
  O  O377  1  0.63022353  0.88122129  0.13063598  1
  O  O378  1  0.62711440  0.87705805  0.63266112  1
  O  O379  1  0.12144909  0.25565670  0.26328737  1
  O  O380  1  0.11557213  0.25263343  0.75802240  1
  O  O381  1  0.13576880  0.75288675  0.26669839  1
  O  O382  1  0.11180354  0.75979440  0.74646175  1
  O  O383  1  0.62401983  0.27210540  0.23609010  1
  O  O384  1  0.63610128  0.25645954  0.75959071  1
  O  O385  1  0.61315221  0.75362826  0.25460048  1
  O  O386  1  0.61613226  0.74713123  0.75932927  1
  O  O387  1  0.37718640  0.24313462  0.23869055  1
  O  O388  1  0.38216493  0.22595538  0.76787814  1
  O  O389  1  0.38561318  0.75100405  0.24864862  1
  O  O390  1  0.38054580  0.74339734  0.74557576  1
  O  O391  1  0.87207019  0.25713972  0.23562444  1
  O  O392  1  0.87960014  0.24507711  0.74372622  1
  O  O393  1  0.87524943  0.73693402  0.25117471  1
  O  O394  1  0.88288663  0.74404440  0.74478344  1
  O  O395  1  0.37667378  0.50348669  0.49048996  1
  O  O396  1  0.38405223  0.49324683  0.99263686  1
  O  O397  1  0.36494890  0.98254858  0.49749701  1
  O  O398  1  0.39081091  1.00510970  0.99893712  1
  O  O399  1  0.87717257  0.49728079  0.49066559  1
  O  O400  1  0.87193847  0.48484084  0.99272189  1
  O  O401  1  0.88354172  0.99883115  0.49338605  1
  O  O402  1  0.87840620  0.99401035  0.99415429  1
  O  O403  1  0.10816382  0.00845721  -0.00166237  1
  O  O404  1  0.11574890  -0.00322779  0.51339499  1
  O  O405  1  0.11180726  0.49013744  -0.00460360  1
  O  O406  1  0.11795780  0.50492080  0.50173739  1
  O  O407  1  0.61907242  0.00560578  0.00678490  1
  O  O408  1  0.63449834  0.01025876  0.50228625  1
  O  O409  1  0.60735169  0.49356906  0.00447620  1
  O  O410  1  0.62520290  0.50695736  0.50768873  1
  O  O411  1  0.36956086  0.36616127  0.11839673  1
  O  O412  1  0.37415214  0.37878102  0.60909101  1
  O  O413  1  0.36810932  0.86210027  0.13305110  1
  O  O414  1  0.36702598  0.87439511  0.62237991  1
  O  O415  1  0.87483581  0.37150720  0.11693790  1
  O  O416  1  0.86775729  0.36601329  0.62004598  1
  O  O417  1  0.86098382  0.87872936  0.11910578  1
  O  O418  1  0.88032129  0.86121546  0.62531199  1
  O  O419  1  0.12041515  0.14609578  0.37561907  1
  O  O420  1  0.12943560  0.12675498  0.88250746  1
  O  O421  1  0.12927590  0.63149854  0.38115376  1
  O  O422  1  0.13790892  0.62548126  0.87069063  1
  O  O423  1  0.63454100  0.11811864  0.38615983  1
  O  O424  1  0.63261544  0.12965696  0.87972930  1
  O  O425  1  0.63105068  0.62780919  0.38030518  1
  O  O426  1  0.63494441  0.63052944  0.86979612  1
