# generated using pymatgen
data_V85Zn86O256
_symmetry_space_group_name_H-M   'P 1'
_cell_length_a   16.95870283
_cell_length_b   16.94530216
_cell_length_c   16.96721872
_cell_angle_alpha   90.03768834
_cell_angle_beta   90.07085045
_cell_angle_gamma   90.01585032
_symmetry_Int_Tables_number   1
_chemical_formula_structural   V85Zn86O256
_chemical_formula_sum   'V85 Zn86 O256'
_cell_volume   4875.87050488
_cell_formula_units_Z   1
loop_
 _symmetry_equiv_pos_site_id
 _symmetry_equiv_pos_as_xyz
  1  'x, y, z'
loop_
 _atom_site_type_symbol
 _atom_site_label
 _atom_site_symmetry_multiplicity
 _atom_site_fract_x
 _atom_site_fract_y
 _atom_site_fract_z
 _atom_site_occupancy
  V  V0  1  0.74428888  0.50187731  0.25122658  1
  V  V1  1  0.62170016  0.00799778  0.12773936  1
  V  V2  1  0.37359502  0.87204105  -0.00022328  1
  V  V3  1  0.87515216  0.38699487  -0.00050024  1
  V  V4  1  0.87540480  0.74904539  0.12395704  1
  V  V5  1  0.24235303  0.13064453  0.37080392  1
  V  V6  1  0.24440880  0.25434113  0.49596048  1
  V  V7  1  0.63171594  0.12395989  0.49526523  1
  V  V8  1  0.24942221  0.37765191  0.12470778  1
  V  V9  1  0.49819567  0.00638224  0.00593628  1
  V  V10  1  0.12941001  0.11680131  0.50979867  1
  V  V11  1  0.11779108  0.87665976  0.75305124  1
  V  V12  1  0.12286952  0.50501214  0.11410483  1
  V  V13  1  0.24651451  0.74887488  0.50200487  1
  V  V14  1  0.12537789  0.74772294  0.37478342  1
  V  V15  1  0.25286040  0.50234128  0.75250189  1
  V  V16  1  0.87602868  0.49470951  0.37534599  1
  V  V17  1  0.49781568  0.86797441  0.37125223  1
  V  V18  1  0.37939657  0.12474778  0.24592348  1
  V  V19  1  0.00114630  0.74692019  0.24886753  1
  V  V20  1  0.12238678  0.24281431  0.87794969  1
  V  V21  1  0.50038202  0.37844357  0.37523331  1
  V  V22  1  0.61842400  0.50254025  0.10180553  1
  V  V23  1  0.75029288  0.37731825  0.12390910  1
  V  V24  1  0.74464795  0.62017496  0.85707600  1
  V  V25  1  0.38045001  0.50325961  0.88182550  1
  V  V26  1  0.75006143  0.87569002  0.12191174  1
  V  V27  1  0.37800246  0.24734901  0.12450356  1
  V  V28  1  0.23665505  0.74796830  -0.00346859  1
  V  V29  1  0.87744838  0.25147584  0.12321011  1
  V  V30  1  0.23598852  0.62856804  0.88129160  1
  V  V31  1  -0.00139317  0.87912495  0.37596823  1
  V  V32  1  0.23970455  0.87938136  0.62601429  1
  V  V33  1  0.37649804  0.37860213  0.49468901  1
  V  V34  1  0.37150841  0.75136049  0.62787313  1
  V  V35  1  0.24694398  0.24430904  0.00097421  1
  V  V36  1  0.24894812  0.12597462  0.87434586  1
  V  V37  1  0.00393070  0.12290295  0.11078480  1
  V  V38  1  -0.00469106  0.25059797  0.74273453  1
  V  V39  1  -0.00222178  0.87396510  0.87875173  1
  V  V40  1  0.11906463  0.62485943  0.50127054  1
  V  V41  1  0.87869276  0.62387104  0.25054958  1
  V  V42  1  0.24892145  0.87405164  0.12551713  1
  V  V43  1  0.87633509  0.50586683  0.85462985  1
  V  V44  1  0.63046723  0.63258324  0.49748781  1
  V  V45  1  0.24501380  0.00619275  0.74696886  1
  V  V46  1  0.00764496  0.37291646  0.37690310  1
  V  V47  1  0.25585402  0.50740389  0.25329686  1
  V  V48  1  0.62399694  -0.00073116  0.62615890  1
  V  V49  1  0.49705524  0.50584226  0.49209477  1
  V  V50  1  0.74642009  0.73662279  0.00000909  1
  V  V51  1  0.12604054  0.37627500  0.75160343  1
  V  V52  1  0.74940059  0.00313417  0.75751110  1
  V  V53  1  0.75025844  0.00312772  0.25696617  1
  V  V54  1  0.49827182  0.62240814  0.62701544  1
  V  V55  1  0.62172544  0.86626830  0.24847481  1
  V  V56  1  0.87230564  0.12602244  0.74681103  1
  V  V57  1  0.37080359  0.62854166  0.75406164  1
  V  V58  1  0.63717932  0.24779566  0.37663312  1
  V  V59  1  0.50157301  0.63491567  0.11652899  1
  V  V60  1  0.37472511  0.24666569  0.62992432  1
  V  V61  1  0.11995741  0.00111565  0.10677610  1
  V  V62  1  0.87152455  0.87969951  0.50136280  1
  V  V63  1  0.75068397  0.87347373  0.62271949  1
  V  V64  1  0.62611975  0.87222370  0.75291855  1
  V  V65  1  0.87685279  0.00545862  0.88349552  1
  V  V66  1  0.00061080  0.37942410  0.88078875  1
  V  V67  1  0.37340124  0.00262562  0.37282502  1
  V  V68  1  0.00304797  0.62271695  0.10873262  1
  V  V69  1  0.62478253  0.24215804  0.87025219  1
  V  V70  1  0.49752034  0.00317910  0.49957753  1
  V  V71  1  0.87577564  0.12583931  0.25295149  1
  V  V72  1  0.50124918  0.24920036  0.24782382  1
  V  V73  1  0.12373932  0.87899481  0.24850363  1
  V  V74  1  0.38319549  0.37780173  0.00169119  1
  V  V75  1  0.74954933  0.24158723  -0.00185146  1
  V  V76  1  -0.00212302  0.73903012  0.75010081  1
  V  V77  1  0.49504760  0.12514021  0.63627255  1
  V  V78  1  -0.00432896  0.49731114  0.50414469  1
  V  V79  1  0.50003578  0.87414690  0.87566488  1
  V  V80  1  0.37293716  0.00589238  0.87046503  1
  V  V81  1  0.87668526  0.74275382  0.62382636  1
  V  V82  1  0.01145877  0.24985959  0.24925855  1
  V  V83  1  0.37188791  0.87682323  0.50133310  1
  V  V84  1  0.12308144  0.50469482  0.62675759  1
  Zn  Zn85  1  0.82382984  0.29517096  0.54455294  1
  Zn  Zn86  1  0.00625689  0.11859613  0.63207138  1
  Zn  Zn87  1  0.62115853  0.74409173  0.88007503  1
  Zn  Zn88  1  0.25489765  0.37797083  0.62525167  1
  Zn  Zn89  1  0.49826571  0.75121330  0.75188752  1
  Zn  Zn90  1  0.25878015  0.61853509  0.37996718  1
  Zn  Zn91  1  0.39166396  0.63472730  0.25987241  1
  Zn  Zn92  1  0.63229324  0.75330277  0.37807982  1
  Zn  Zn93  1  0.12770058  0.37632855  0.25036938  1
  Zn  Zn94  1  0.62348294  0.38318832  0.75263008  1
  Zn  Zn95  1  0.49256938  0.24573041  0.75716682  1
  Zn  Zn96  1  0.87706948  0.87692031  0.00045726  1
  Zn  Zn97  1  0.24873146  0.00288412  0.24624432  1
  Zn  Zn98  1  0.75618015  0.63342595  0.37816289  1
  Zn  Zn99  1  0.00701057  -0.00366380  0.51167098  1
  Zn  Zn100  1  0.37893213  0.75132240  0.13110634  1
  Zn  Zn101  1  0.50300787  0.37781902  0.87677404  1
  Zn  Zn102  1  0.77608388  0.39098879  0.65854286  1
  Zn  Zn103  1  0.62402087  0.12521191  0.00334383  1
  Zn  Zn104  1  0.87484817  0.00266365  0.37651593  1
  Zn  Zn105  1  0.62449093  0.37620608  0.24929645  1
  Zn  Zn106  1  0.63637507  0.50120161  0.63198284  1
  Zn  Zn107  1  0.18799931  0.18444509  0.18277032  1
  Zn  Zn108  1  0.19141997  0.19293902  0.68903163  1
  Zn  Zn109  1  0.18840142  0.68747014  0.18456727  1
  Zn  Zn110  1  0.18114842  0.68858913  0.69039215  1
  Zn  Zn111  1  0.69004598  0.18846289  0.18926739  1
  Zn  Zn112  1  0.69099682  0.18527857  0.68536236  1
  Zn  Zn113  1  0.68533203  0.68227733  0.18569022  1
  Zn  Zn114  1  0.68536186  0.69047952  0.68297269  1
  Zn  Zn115  1  0.31319973  0.31384928  0.31180689  1
  Zn  Zn116  1  0.31442516  0.31619285  0.81316711  1
  Zn  Zn117  1  0.31198869  0.80723430  0.31194846  1
  Zn  Zn118  1  0.30781645  0.81459319  0.81391295  1
  Zn  Zn119  1  0.81770117  0.31494540  0.31095182  1
  Zn  Zn120  1  0.80902166  0.30878913  0.81503199  1
  Zn  Zn121  1  0.81105148  0.81213467  0.31239301  1
  Zn  Zn122  1  0.81527022  0.80994327  0.81221209  1
  Zn  Zn123  1  0.18587504  0.43767840  0.43619080  1
  Zn  Zn124  1  0.19212907  0.43556812  0.93826443  1
  Zn  Zn125  1  0.18975017  0.93859449  0.43271156  1
  Zn  Zn126  1  0.18639413  0.93312872  0.93237185  1
  Zn  Zn127  1  0.68929695  0.44189302  0.44181420  1
  Zn  Zn128  1  0.69503384  0.43048469  0.92364646  1
  Zn  Zn129  1  0.68651277  0.93697368  0.43782719  1
  Zn  Zn130  1  0.68818226  0.93766712  0.93999296  1
  Zn  Zn131  1  0.31100840  0.06114817  0.06243262  1
  Zn  Zn132  1  0.30979548  0.06382985  0.56293363  1
  Zn  Zn133  1  0.31592943  0.56598518  0.06528763  1
  Zn  Zn134  1  0.31259286  0.56158757  0.56215795  1
  Zn  Zn135  1  0.81531400  0.06181112  0.06898076  1
  Zn  Zn136  1  0.83762355  0.09832334  0.53789160  1
  Zn  Zn137  1  0.81196102  0.56213154  0.06535585  1
  Zn  Zn138  1  0.81262260  0.55784368  0.56276257  1
  Zn  Zn139  1  0.44042812  0.44110425  0.18653635  1
  Zn  Zn140  1  0.48414276  0.40748885  0.65898245  1
  Zn  Zn141  1  0.43706319  0.93584336  0.18823434  1
  Zn  Zn142  1  0.43336806  0.93831532  0.68942185  1
  Zn  Zn143  1  0.94052273  0.43854181  0.18804773  1
  Zn  Zn144  1  0.94149983  0.43048827  0.68040025  1
  Zn  Zn145  1  0.93824453  0.93959346  0.18526642  1
  Zn  Zn146  1  0.93716460  0.94315940  0.68719852  1
  Zn  Zn147  1  0.06272003  0.06358956  0.30860263  1
  Zn  Zn148  1  0.06016719  0.06073948  0.81438060  1
  Zn  Zn149  1  0.06806840  0.55944065  0.30928663  1
  Zn  Zn150  1  0.06019340  0.56110292  0.81608605  1
  Zn  Zn151  1  0.56200683  0.06218593  0.31260711  1
  Zn  Zn152  1  0.56456283  0.06318254  0.81807244  1
  Zn  Zn153  1  0.56054627  0.56666980  0.31076440  1
  Zn  Zn154  1  0.55935282  0.56466148  0.81473318  1
  Zn  Zn155  1  0.43706688  0.19093732  0.43761317  1
  Zn  Zn156  1  0.43677924  0.18681966  0.93946801  1
  Zn  Zn157  1  0.43353638  0.68867036  0.43727313  1
  Zn  Zn158  1  0.43572455  0.68615693  0.94406399  1
  Zn  Zn159  1  0.94908174  0.18862796  0.43183266  1
  Zn  Zn160  1  0.93359284  0.19104585  0.93356364  1
  Zn  Zn161  1  0.93551507  0.68940749  0.44052264  1
  Zn  Zn162  1  0.93088216  0.68931556  0.93246632  1
  Zn  Zn163  1  0.06359281  0.31429626  0.06169221  1
  Zn  Zn164  1  0.06331538  0.31438403  0.56305141  1
  Zn  Zn165  1  0.06050707  0.81171488  0.06165860  1
  Zn  Zn166  1  0.05800182  0.81326531  0.56510692  1
  Zn  Zn167  1  0.56586475  0.31287314  0.06413870  1
  Zn  Zn168  1  0.65199640  0.31798093  0.56252000  1
  Zn  Zn169  1  0.56623318  0.81569280  0.06004948  1
  Zn  Zn170  1  0.55831502  0.81168777  0.56329670  1
  O  O171  1  0.11796098  0.11236574  0.12688139  1
  O  O172  1  0.13243892  0.12752340  0.61175912  1
  O  O173  1  0.11831145  0.61402118  0.12560142  1
  O  O174  1  0.12884961  0.61296837  0.61808232  1
  O  O175  1  0.62751216  0.11163980  0.12620962  1
  O  O176  1  0.61265173  0.11638368  0.61785026  1
  O  O177  1  0.61903129  0.61046767  0.12227613  1
  O  O178  1  0.61444357  0.62775544  0.61532128  1
  O  O179  1  0.38360397  0.36818036  0.38632135  1
  O  O180  1  0.37167765  0.38468989  0.88592177  1
  O  O181  1  0.37913619  0.88278814  0.38033647  1
  O  O182  1  0.37893219  0.88358152  0.88198452  1
  O  O183  1  0.88601069  0.38846432  0.36999788  1
  O  O184  1  0.88059461  0.38719960  0.87996540  1
  O  O185  1  0.88294853  0.87676958  0.38185054  1
  O  O186  1  0.88041502  0.88523505  0.87535696  1
  O  O187  1  0.25797193  0.00827737  0.36944322  1
  O  O188  1  0.25527922  0.00486139  0.87010685  1
  O  O189  1  0.24461909  0.49768338  0.35669749  1
  O  O190  1  0.25355098  0.50796384  0.87019642  1
  O  O191  1  0.75127065  -0.00605749  0.35984642  1
  O  O192  1  0.76098965  -0.00749269  0.86778841  1
  O  O193  1  0.75938717  0.50437564  0.36872629  1
  O  O194  1  0.76193704  0.51205093  0.87489518  1
  O  O195  1  0.24213194  0.49552355  0.12940133  1
  O  O196  1  0.24512162  0.49886867  0.63566246  1
  O  O197  1  0.24154392  0.98877857  0.12407194  1
  O  O198  1  0.25517750  0.99172009  0.63526944  1
  O  O199  1  0.74008260  0.49711536  0.13101261  1
  O  O200  1  0.74878952  0.49603136  0.62387158  1
  O  O201  1  0.74321839  0.99160252  0.13068907  1
  O  O202  1  0.73937008  0.98527072  0.64115481  1
  O  O203  1  0.00177641  0.36652878  0.25503776  1
  O  O204  1  0.00614854  0.36841785  0.76180588  1
  O  O205  1  0.00595740  0.86886996  0.25418168  1
  O  O206  1  0.00455685  0.87195286  0.75725068  1
  O  O207  1  0.50024459  0.36933848  0.25761376  1
  O  O208  1  0.49941683  0.36203030  0.76185582  1
  O  O209  1  0.50937206  0.88271938  0.25981427  1
  O  O210  1  0.50587673  0.87624772  0.75904502  1
  O  O211  1  0.48710165  0.13245685  0.25614796  1
  O  O212  1  0.49896912  0.11946884  0.73946075  1
  O  O213  1  0.50216064  0.61273018  0.22689297  1
  O  O214  1  0.48854952  0.63101709  0.74358369  1
  O  O215  1  0.99769390  0.13334925  0.24094541  1
  O  O216  1  0.99365648  0.13396162  0.75415916  1
  O  O217  1  0.99690851  0.63018190  0.24461119  1
  O  O218  1  1.00478736  0.64037671  0.75244293  1
  O  O219  1  0.36775111  0.25591880  0.00604479  1
  O  O220  1  0.36496573  0.25475667  0.50595006  1
  O  O221  1  0.36920882  0.76397548  0.00418618  1
  O  O222  1  0.36679784  0.75830349  0.50880811  1
  O  O223  1  0.86757753  0.25910933  0.00347503  1
  O  O224  1  0.86756112  0.20266131  0.50251647  1
  O  O225  1  0.86313999  0.75355251  0.00627363  1
  O  O226  1  0.88358575  0.76777222  0.51203839  1
  O  O227  1  0.13956019  0.24366465  0.50351208  1
  O  O228  1  0.13539790  0.25760669  0.99035451  1
  O  O229  1  0.12559371  0.74257373  0.49827168  1
  O  O230  1  0.13759676  0.75550055  0.99985928  1
  O  O231  1  0.61819859  0.23792990  0.48299693  1
  O  O232  1  0.63326986  0.24609993  0.99886872  1
  O  O233  1  0.61958331  0.73671654  0.50148722  1
  O  O234  1  0.64246549  0.75817277  0.99584005  1
  O  O235  1  0.49707126  0.25526151  0.14007041  1
  O  O236  1  0.48924749  0.23482242  0.62885473  1
  O  O237  1  0.50461889  0.73951424  0.11899549  1
  O  O238  1  0.48898590  0.74130683  0.62600921  1
  O  O239  1  0.99579392  0.24616622  0.12967243  1
  O  O240  1  1.01083668  0.24447399  0.64074319  1
  O  O241  1  0.99600755  0.74282729  0.12967886  1
  O  O242  1  0.98665573  0.75649454  0.63576079  1
  O  O243  1  -0.00117034  0.26062012  0.36225526  1
  O  O244  1  0.00790745  0.25778938  0.87011511  1
  O  O245  1  0.00540461  0.76031296  0.36993342  1
  O  O246  1  -0.01338790  0.75827984  0.85801695  1
  O  O247  1  0.50331162  0.25817843  0.36455702  1
  O  O248  1  0.51073703  0.24634620  0.87801372  1
  O  O249  1  0.50286014  0.76668690  0.38378511  1
  O  O250  1  0.49865716  0.76270951  0.87737939  1
  O  O251  1  0.24363689  0.13206491  0.49214833  1
  O  O252  1  0.25431413  0.13763352  0.99459315  1
  O  O253  1  0.23828666  0.62940957  0.50037137  1
  O  O254  1  0.25602548  0.63768598  0.99459936  1
  O  O255  1  0.72831724  0.10364418  0.50271573  1
  O  O256  1  0.75228915  0.13902563  1.01124271  1
  O  O257  1  0.73250691  0.62046484  0.49852347  1
  O  O258  1  0.75347923  0.63463795  0.99750470  1
  O  O259  1  0.25657063  0.36577914  0.01018302  1
  O  O260  1  0.25688781  0.37086643  0.49899095  1
  O  O261  1  0.25626925  0.87045866  0.00403911  1
  O  O262  1  0.25145450  0.87238973  0.50873491  1
  O  O263  1  0.75873396  0.36715471  0.00502171  1
  O  O264  1  0.74003774  0.36627469  0.50323727  1
  O  O265  1  0.75141128  0.87033029  0.01248295  1
  O  O266  1  0.75805035  0.88244648  0.51084588  1
  O  O267  1  0.13734546  0.49729454  0.23771117  1
  O  O268  1  0.13157419  0.49856948  0.74478708  1
  O  O269  1  0.12579024  0.98767185  0.24401292  1
  O  O270  1  0.13559080  0.99167516  0.75577938  1
  O  O271  1  0.63912654  0.49876072  0.25356733  1
  O  O272  1  0.60857583  0.49893495  0.74310013  1
  O  O273  1  0.63129337  0.99480805  0.24453195  1
  O  O274  1  0.62955857  0.99056152  0.75062204  1
  O  O275  1  0.37290884  0.00874877  0.25327129  1
  O  O276  1  0.36033616  -0.00780202  0.76140109  1
  O  O277  1  0.35763467  0.50146486  0.23913332  1
  O  O278  1  0.35962510  0.50877103  0.76123425  1
  O  O279  1  0.86659889  0.00623105  0.24787541  1
  O  O280  1  0.86581904  0.00407674  0.76145862  1
  O  O281  1  0.86877042  0.50519365  0.25530380  1
  O  O282  1  0.88221649  0.49975435  0.75702779  1
  O  O283  1  0.11236926  0.37985751  0.36912942  1
  O  O284  1  0.11781218  0.37144263  0.87189426  1
  O  O285  1  0.11963944  0.87030315  0.36672721  1
  O  O286  1  0.11500003  0.87662410  0.86213897  1
  O  O287  1  0.61654548  0.36293254  0.37318090  1
  O  O288  1  0.62026133  0.35648559  0.88072967  1
  O  O289  1  0.61601303  0.87664616  0.36629588  1
  O  O290  1  0.61586874  0.87526850  0.86953898  1
  O  O291  1  0.36787249  0.13202467  0.13529593  1
  O  O292  1  0.38277989  0.13299284  0.61724084  1
  O  O293  1  0.39002299  0.62888198  0.12540305  1
  O  O294  1  0.37642713  0.63298672  0.63187793  1
  O  O295  1  0.88585766  0.12939374  0.13261476  1
  O  O296  1  0.87914661  0.11753750  0.64504316  1
  O  O297  1  0.88391744  0.62762706  0.13159135  1
  O  O298  1  0.87224355  0.64521216  0.61157385  1
  O  O299  1  0.25328850  0.25731874  0.11817135  1
  O  O300  1  0.25736722  0.25579249  0.61626954  1
  O  O301  1  0.24814078  0.76233204  0.11707623  1
  O  O302  1  0.25188928  0.75798897  0.62168596  1
  O  O303  1  0.75675134  0.25922859  0.12186158  1
  O  O304  1  0.73533231  0.26363159  0.62306360  1
  O  O305  1  0.75342515  0.75383705  0.11763946  1
  O  O306  1  0.76184178  0.76374878  0.63231940  1
  O  O307  1  0.25493087  0.24246038  0.38214501  1
  O  O308  1  0.24401212  0.24670307  0.88120863  1
  O  O309  1  0.23991859  0.75481675  0.38702741  1
  O  O310  1  0.25362589  0.74201401  0.88454720  1
  O  O311  1  0.73547893  0.25321878  0.36461549  1
  O  O312  1  0.73767864  0.24824364  0.88772675  1
  O  O313  1  0.74633954  0.74644829  0.37213164  1
  O  O314  1  0.75500092  0.73576006  0.88266385  1
  O  O315  1  -0.00434869  0.13373546  0.01209793  1
  O  O316  1  0.02395799  0.12395173  0.49604524  1
  O  O317  1  -0.00544343  0.63226348  0.01020529  1
  O  O318  1  0.01298906  0.61690311  0.49363354  1
  O  O319  1  0.49651863  0.10920294  0.00179770  1
  O  O320  1  0.50251904  0.11361200  0.50302437  1
  O  O321  1  0.49907806  0.62185985  0.01484026  1
  O  O322  1  0.50296972  0.62225571  0.50598330  1
  O  O323  1  0.49215154  0.38717480  0.48878443  1
  O  O324  1  0.48566815  0.36924489  1.00023715  1
  O  O325  1  0.49268808  0.88598245  0.49634776  1
  O  O326  1  0.49277949  0.88261198  0.99387187  1
  O  O327  1  1.00618082  0.38440332  0.49080287  1
  O  O328  1  0.99148962  0.36868395  0.98733428  1
  O  O329  1  0.99600205  0.87811418  0.49111333  1
  O  O330  1  0.99736875  0.86608890  0.98351937  1
  O  O331  1  0.50489432  0.48835233  0.37808069  1
  O  O332  1  0.48299877  0.50235741  0.87785540  1
  O  O333  1  0.49286989  0.99446624  0.38266809  1
  O  O334  1  0.49173991  0.99137279  0.88080925  1
  O  O335  1  0.99599954  0.49378892  0.37914309  1
  O  O336  1  0.98707714  0.49385937  0.87381486  1
  O  O337  1  1.00269100  0.98659030  0.37315287  1
  O  O338  1  0.98500772  0.99141060  0.87139062  1
  O  O339  1  0.00819585  0.00881568  0.12495513  1
  O  O340  1  0.00484758  0.00470456  0.62526893  1
  O  O341  1  0.01403414  0.50704937  0.12781382  1
  O  O342  1  0.00947693  0.49858732  0.61496109  1
  O  O343  1  0.50918926  -0.00801786  0.11717146  1
  O  O344  1  0.50163170  0.00281485  0.61835494  1
  O  O345  1  0.51624438  0.49714138  0.11942464  1
  O  O346  1  0.49048336  0.51724351  0.61306446  1
  O  O347  1  0.25098626  0.38039748  0.23752949  1
  O  O348  1  0.24376158  0.38623933  0.75088442  1
  O  O349  1  0.24080236  0.87652798  0.24085078  1
  O  O350  1  0.23877399  0.88000976  0.74477361  1
  O  O351  1  0.75235367  0.38461756  0.24119152  1
  O  O352  1  0.73788121  0.37372858  0.76291334  1
  O  O353  1  0.74437052  0.88204311  0.23817494  1
  O  O354  1  0.74160081  0.87885684  0.74845944  1
  O  O355  1  0.25865781  0.12656417  0.25575778  1
  O  O356  1  0.24410178  0.11634560  0.75833535  1
  O  O357  1  0.24851563  0.61290519  0.24890541  1
  O  O358  1  0.25128464  0.62193005  0.75817809  1
  O  O359  1  0.76177547  0.11497732  0.24159960  1
  O  O360  1  0.75481989  0.11153322  0.74942486  1
  O  O361  1  0.75960645  0.61664379  0.24845660  1
  O  O362  1  0.75008647  0.63175016  0.75966023  1
  O  O363  1  0.36682667  0.12109227  0.36843239  1
  O  O364  1  0.36902212  0.11201316  0.87989434  1
  O  O365  1  0.37117595  0.62631365  0.37194947  1
  O  O366  1  0.36729681  0.62039138  0.87183359  1
  O  O367  1  0.88774957  0.11911986  0.35568774  1
  O  O368  1  0.87884231  0.11057640  0.86873923  1
  O  O369  1  0.87888499  0.61570692  0.36776168  1
  O  O370  1  0.86726359  0.61079673  0.87507385  1
  O  O371  1  0.13230812  0.38510367  0.12553532  1
  O  O372  1  0.12776088  0.38724400  0.63243008  1
  O  O373  1  0.12799521  0.88060978  0.13046771  1
  O  O374  1  0.13473186  0.87262463  0.63183999  1
  O  O375  1  0.63166078  0.38682188  0.12749134  1
  O  O376  1  0.59550854  0.38662320  0.62975738  1
  O  O377  1  0.63112120  0.88388642  0.13132939  1
  O  O378  1  0.62804059  0.87774240  0.63260845  1
  O  O379  1  0.11464280  0.25252584  0.24187779  1
  O  O380  1  0.12101690  0.25756657  0.75955283  1
  O  O381  1  0.12172515  0.75996445  0.25220086  1
  O  O382  1  0.10738921  0.76086297  0.74267633  1
  O  O383  1  0.61751294  0.24951126  0.25796333  1
  O  O384  1  0.62307697  0.23855912  0.76688965  1
  O  O385  1  0.62834278  0.76390494  0.24674025  1
  O  O386  1  0.62143514  0.76216706  0.75375109  1
  O  O387  1  0.38138885  0.24422512  0.24442678  1
  O  O388  1  0.36809262  0.25203316  0.73422779  1
  O  O389  1  0.37337851  0.74850633  0.24365698  1
  O  O390  1  0.37289342  0.74835843  0.74315527  1
  O  O391  1  0.88301604  0.24390823  0.24180410  1
  O  O392  1  0.88501538  0.23834843  0.76509693  1
  O  O393  1  0.88165241  0.74444217  0.24246316  1
  O  O394  1  0.88508655  0.75527964  0.73538200  1
  O  O395  1  0.38422039  0.49256976  0.50117208  1
  O  O396  1  0.36316979  0.48947169  0.99308063  1
  O  O397  1  0.37805270  0.99559254  0.49438082  1
  O  O398  1  0.37852002  0.99011302  0.99506971  1
  O  O399  1  0.88933076  0.50916601  0.48974938  1
  O  O400  1  0.87120197  0.48883775  0.99858271  1
  O  O401  1  0.88056756  0.99345001  0.49624178  1
  O  O402  1  0.86819316  0.99862520  0.98701033  1
  O  O403  1  0.12612077  -0.00557890  0.00781446  1
  O  O404  1  0.13231252  0.01377615  0.49850264  1
  O  O405  1  0.13121145  0.49659994  0.01517844  1
  O  O406  1  0.12006105  0.50585667  0.50708087  1
  O  O407  1  0.61655807  -0.00014226  0.00884341  1
  O  O408  1  0.61217156  0.00073010  0.50378027  1
  O  O409  1  0.63173767  0.49372576  0.00492524  1
  O  O410  1  0.60944901  0.51338207  0.50011208  1
  O  O411  1  0.36795126  0.36981708  0.11943978  1
  O  O412  1  0.38116995  0.36448419  0.60933073  1
  O  O413  1  0.36494263  0.87753003  0.11708836  1
  O  O414  1  0.36420794  0.87013668  0.62158506  1
  O  O415  1  0.87252209  0.37271516  0.11731918  1
  O  O416  1  0.88010976  0.36075408  0.62225979  1
  O  O417  1  0.86757796  0.86892285  0.12394047  1
  O  O418  1  0.86642949  0.87454719  0.61881325  1
  O  O419  1  0.13901139  0.12111933  0.37853932  1
  O  O420  1  0.12814503  0.13718258  0.87363454  1
  O  O421  1  0.12991217  0.63121825  0.38204843  1
  O  O422  1  0.13682722  0.62115119  0.87559104  1
  O  O423  1  0.61932744  0.13687555  0.37989301  1
  O  O424  1  0.62290846  0.13484551  0.88539231  1
  O  O425  1  0.62009625  0.62993441  0.38817325  1
  O  O426  1  0.64027164  0.62656725  0.87310273  1
