# generated using pymatgen
data_V85Zn86O256
_symmetry_space_group_name_H-M   'P 1'
_cell_length_a   16.95292884
_cell_length_b   16.94557566
_cell_length_c   16.95183178
_cell_angle_alpha   89.93699955
_cell_angle_beta   90.08608250
_cell_angle_gamma   90.00262858
_symmetry_Int_Tables_number   1
_chemical_formula_structural   V85Zn86O256
_chemical_formula_sum   'V85 Zn86 O256'
_cell_volume   4869.86527956
_cell_formula_units_Z   1
loop_
 _symmetry_equiv_pos_site_id
 _symmetry_equiv_pos_as_xyz
  1  'x, y, z'
loop_
 _atom_site_type_symbol
 _atom_site_label
 _atom_site_symmetry_multiplicity
 _atom_site_fract_x
 _atom_site_fract_y
 _atom_site_fract_z
 _atom_site_occupancy
  V  V0  1  0.87475888  0.88051113  0.00040236  1
  V  V1  1  0.25584347  0.86965001  0.12623224  1
  V  V2  1  0.12627508  -0.00614597  0.62100784  1
  V  V3  1  0.87387630  0.36040657  0.50014518  1
  V  V4  1  0.87198949  0.62905588  0.74900595  1
  V  V5  1  0.87243687  0.24862031  0.12120840  1
  V  V6  1  0.37689301  -0.00277600  0.87130742  1
  V  V7  1  0.37318358  0.50594330  0.38009553  1
  V  V8  1  0.38065110  0.12320201  0.74849947  1
  V  V9  1  0.25086617  0.75050219  0.00121244  1
  V  V10  1  0.73605208  0.62469848  0.87878484  1
  V  V11  1  -0.00188364  0.62329961  0.12192242  1
  V  V12  1  0.49696385  0.87792338  0.37576902  1
  V  V13  1  0.12737545  0.00188651  0.12455764  1
  V  V14  1  0.25038613  0.50774339  0.25407669  1
  V  V15  1  0.37652287  0.63886186  0.74725730  1
  V  V16  1  0.11973875  0.76531371  0.87524934  1
  V  V17  1  0.13041621  0.13908943  -0.00130716  1
  V  V18  1  0.12429816  0.37373729  0.25723262  1
  V  V19  1  0.74971759  0.62271405  0.37402690  1
  V  V20  1  0.87364023  0.49571580  0.37564681  1
  V  V21  1  0.87610664  0.24326466  0.64020710  1
  V  V22  1  0.37292178  0.37144007  -0.00422028  1
  V  V23  1  0.87177917  0.88071351  0.49323203  1
  V  V24  1  0.62461514  0.87643972  0.24642528  1
  V  V25  1  0.12444497  0.35577385  0.75299982  1
  V  V26  1  0.51195819  0.25745139  0.74581671  1
  V  V27  1  0.00060013  0.75115149  0.75348741  1
  V  V28  1  -0.00480557  0.88021251  0.37371586  1
  V  V29  1  0.00221079  0.12818679  0.63831299  1
  V  V30  1  0.87298775  0.74964691  0.12085420  1
  V  V31  1  -0.00011442  0.49752511  -0.00303892  1
  V  V32  1  0.74694601  0.49453414  0.24905013  1
  V  V33  1  0.62838970  0.74975508  0.37018033  1
  V  V34  1  0.49888258  0.63761237  0.62860336  1
  V  V35  1  0.25352013  0.37066313  0.12268766  1
  V  V36  1  0.74697995  0.37033521  0.11590580  1
  V  V37  1  0.62162611  0.49235895  0.62740855  1
  V  V38  1  0.37899502  0.86693039  0.00106476  1
  V  V39  1  -0.00245414  0.75051186  0.24896697  1
  V  V40  1  0.12506013  0.49875468  0.12475438  1
  V  V41  1  -0.05921115  0.93378504  0.82594230  1
  V  V42  1  0.25173312  0.13884273  0.87492114  1
  V  V43  1  0.25434570  0.86605474  0.62009091  1
  V  V44  1  0.50299449  0.00210366  -0.00324819  1
  V  V45  1  0.00357464  0.36182126  0.87163257  1
  V  V46  1  0.62959112  0.13748269  -0.00408215  1
  V  V47  1  0.50956802  0.12407217  0.62535750  1
  V  V48  1  0.74830608  0.36816310  0.62518205  1
  V  V49  1  0.76768473  0.12460404  0.87143868  1
  V  V50  1  0.63124035  0.25191170  0.37330740  1
  V  V51  1  0.13139889  0.23293905  0.39148324  1
  V  V52  1  0.24696119  0.50298211  0.75412011  1
  V  V53  1  0.62293714  0.50634005  0.12149245  1
  V  V54  1  0.62310884  0.86292491  0.75253339  1
  V  V55  1  0.00300021  -0.00306037  -0.00015342  1
  V  V56  1  0.50538346  0.85983220  0.87033875  1
  V  V57  1  0.50147444  0.50226259  -0.00373520  1
  V  V58  1  0.12471529  0.87509955  0.24913340  1
  V  V59  1  0.75571331  0.11887238  0.37551945  1
  V  V60  1  0.24893998  0.62820394  0.87447326  1
  V  V61  1  0.87595465  0.49894426  0.87460876  1
  V  V62  1  -0.00465051  0.49934459  0.50245923  1
  V  V63  1  0.87674673  0.11846635  0.25001694  1
  V  V64  1  0.11830706  0.50194830  0.62896515  1
  V  V65  1  0.12750258  0.74536172  0.37994673  1
  V  V66  1  0.75459696  0.87000828  0.62717562  1
  V  V67  1  0.75769073  0.74772328  0.50283477  1
  V  V68  1  0.48117050  0.24568374  0.24925626  1
  V  V69  1  0.73871182  0.74736227  -0.00409266  1
  V  V70  1  0.62857043  0.62201322  0.50179221  1
  V  V71  1  0.25689846  0.00925652  0.25877920  1
  V  V72  1  0.34047882  0.21734151  0.60660994  1
  V  V73  1  0.63437509  0.12879933  0.50006405  1
  V  V74  1  0.12436743  0.62554497  -0.00261937  1
  V  V75  1  0.24490248  -0.00398532  0.74670658  1
  V  V76  1  0.48974981  0.62510016  0.12324721  1
  V  V77  1  -0.00766839  0.63332118  0.62378509  1
  V  V78  1  0.00094028  0.01150596  0.49405059  1
  V  V79  1  0.63153165  -0.00161292  0.62851790  1
  V  V80  1  0.87287493  0.62257960  0.24778305  1
  V  V81  1  0.25250115  0.38084907  0.61887398  1
  V  V82  1  0.49116051  0.75040839  0.24313671  1
  V  V83  1  0.62666046  0.00497142  0.12346115  1
  V  V84  1  0.74525121  0.49302327  0.75147891  1
  Zn  Zn85  1  0.48720193  0.13057856  0.12634687  1
  Zn  Zn86  1  0.75912995  0.00003097  0.75640801  1
  Zn  Zn87  1  0.38041303  0.01293867  0.37528255  1
  Zn  Zn88  1  0.00159279  0.37213638  0.37635021  1
  Zn  Zn89  1  0.74822427  0.87596350  0.12231575  1
  Zn  Zn90  1  0.37460219  0.86312694  0.50407378  1
  Zn  Zn91  1  0.75241875  -0.00231993  0.25225227  1
  Zn  Zn92  1  0.12438692  0.62726295  0.50048183  1
  Zn  Zn93  1  0.50028177  -0.00241677  0.49988486  1
  Zn  Zn94  1  0.00148410  0.12818030  0.12526313  1
  Zn  Zn95  1  -0.00016083  0.24927230  0.25267227  1
  Zn  Zn96  1  0.49600524  0.37466574  0.37651323  1
  Zn  Zn97  1  0.87204550  0.36856860  -0.00426366  1
  Zn  Zn98  1  0.29078469  0.69178913  0.44893819  1
  Zn  Zn99  1  0.50389262  0.37694260  0.87059264  1
  Zn  Zn100  1  0.37803865  0.37458356  0.50123434  1
  Zn  Zn101  1  0.37591723  0.50032268  0.87228711  1
  Zn  Zn102  1  0.63795341  0.25910090  0.87255550  1
  Zn  Zn103  1  0.31760169  0.20686531  0.06661340  1
  Zn  Zn104  1  0.61816121  0.37254440  0.24818612  1
  Zn  Zn105  1  0.36902143  0.62960553  0.25367093  1
  Zn  Zn106  1  0.50009565  0.49786917  0.49938709  1
  Zn  Zn107  1  0.18447074  0.18841647  0.19508573  1
  Zn  Zn108  1  0.19037671  0.17635539  0.67344324  1
  Zn  Zn109  1  0.18433892  0.68901936  0.18703211  1
  Zn  Zn110  1  0.17929927  0.68717261  0.68893420  1
  Zn  Zn111  1  0.68622999  0.18678453  0.18947440  1
  Zn  Zn112  1  0.69537161  0.18527112  0.69318627  1
  Zn  Zn113  1  0.68477218  0.68607651  0.18318468  1
  Zn  Zn114  1  0.68715261  0.68422635  0.68708748  1
  Zn  Zn115  1  0.30595150  0.31895592  0.31882390  1
  Zn  Zn116  1  0.32198466  0.31407574  0.80109949  1
  Zn  Zn117  1  0.31257722  0.81721785  0.31101909  1
  Zn  Zn118  1  0.30956617  0.81549490  0.81186656  1
  Zn  Zn119  1  0.81156369  0.30742665  0.30894558  1
  Zn  Zn120  1  0.81217759  0.31007963  0.81438061  1
  Zn  Zn121  1  0.81145947  0.81373278  0.31053215  1
  Zn  Zn122  1  0.80459425  0.80558115  0.81054013  1
  Zn  Zn123  1  0.18690973  0.44753739  0.43848778  1
  Zn  Zn124  1  0.18765801  0.43288080  0.93570541  1
  Zn  Zn125  1  0.18372280  0.93424139  0.43927501  1
  Zn  Zn126  1  0.19133845  0.94350031  0.93600318  1
  Zn  Zn127  1  0.68823502  0.43227312  0.44220337  1
  Zn  Zn128  1  0.68092183  0.43577428  0.93686527  1
  Zn  Zn129  1  0.68369159  0.93944868  0.43727288  1
  Zn  Zn130  1  0.68906487  0.93991670  0.93485734  1
  Zn  Zn131  1  0.31168691  0.04683233  0.05929271  1
  Zn  Zn132  1  0.31989703  0.06622478  0.52507093  1
  Zn  Zn133  1  0.31334883  0.55690055  0.06152963  1
  Zn  Zn134  1  0.31330795  0.56249674  0.56633959  1
  Zn  Zn135  1  0.80983919  0.06477341  0.05996608  1
  Zn  Zn136  1  0.81429631  0.06234148  0.56334770  1
  Zn  Zn137  1  0.80994595  0.55976360  0.05887937  1
  Zn  Zn138  1  0.81300207  0.55804003  0.56561126  1
  Zn  Zn139  1  0.43462332  0.43349246  0.19096791  1
  Zn  Zn140  1  0.43412970  0.44459226  0.68781970  1
  Zn  Zn141  1  0.43738067  0.94303532  0.18597226  1
  Zn  Zn142  1  0.43809775  0.93498055  0.68468502  1
  Zn  Zn143  1  0.93631323  0.43347800  0.18642276  1
  Zn  Zn144  1  0.93662317  0.43349488  0.68987050  1
  Zn  Zn145  1  0.93744144  0.93974571  0.18454585  1
  Zn  Zn146  1  0.93751082  0.93376013  0.66507625  1
  Zn  Zn147  1  0.06514286  0.06404404  0.31140354  1
  Zn  Zn148  1  0.07224582  0.07180913  0.81097062  1
  Zn  Zn149  1  0.05952831  0.56015825  0.31194613  1
  Zn  Zn150  1  0.06213682  0.56484282  0.81383106  1
  Zn  Zn151  1  0.56203620  0.06706427  0.31025063  1
  Zn  Zn152  1  0.56900229  0.05977207  0.81370800  1
  Zn  Zn153  1  0.55960214  0.56177449  0.31042977  1
  Zn  Zn154  1  0.56074446  0.56142608  0.80874574  1
  Zn  Zn155  1  0.44202358  0.18614637  0.43664138  1
  Zn  Zn156  1  0.44347391  0.18653547  0.93255142  1
  Zn  Zn157  1  0.45204671  0.68605230  0.43549225  1
  Zn  Zn158  1  0.43709888  0.68361079  0.93653115  1
  Zn  Zn159  1  0.94113848  0.18989416  0.43186092  1
  Zn  Zn160  1  0.94060448  0.18553266  0.94385391  1
  Zn  Zn161  1  0.93706778  0.68905988  0.43515915  1
  Zn  Zn162  1  0.93347483  0.68806986  0.93483119  1
  Zn  Zn163  1  0.05839135  0.31517423  0.06744627  1
  Zn  Zn164  1  0.06264277  0.31182237  0.56463770  1
  Zn  Zn165  1  0.06218483  0.81496204  0.06010401  1
  Zn  Zn166  1  0.06107707  0.81558999  0.56318402  1
  Zn  Zn167  1  0.55565206  0.31660311  0.06767885  1
  Zn  Zn168  1  0.56214914  0.31088918  0.55808510  1
  Zn  Zn169  1  0.56054124  0.81278759  0.06346968  1
  Zn  Zn170  1  0.57020598  0.81147770  0.55921940  1
  O  O171  1  0.12739044  0.11592969  0.11864841  1
  O  O172  1  0.10689606  0.11469733  0.62379286  1
  O  O173  1  0.11680478  0.62011724  0.11761078  1
  O  O174  1  0.10690005  0.61951612  0.62639462  1
  O  O175  1  0.62322217  0.11999384  0.11351877  1
  O  O176  1  0.63044402  0.11811227  0.62047803  1
  O  O177  1  0.61488718  0.61188444  0.13014066  1
  O  O178  1  0.61808554  0.61534817  0.62364036  1
  O  O179  1  0.37236255  0.38885284  0.38117724  1
  O  O180  1  0.37956672  0.37947308  0.87840346  1
  O  O181  1  0.39234963  0.87654485  0.36742155  1
  O  O182  1  0.38335131  0.87902920  0.87940444  1
  O  O183  1  0.87311682  0.37741266  0.38324034  1
  O  O184  1  0.88186432  0.38448757  0.87326082  1
  O  O185  1  0.88241242  0.87299901  0.37950461  1
  O  O186  1  0.87474121  0.87502501  0.88093395  1
  O  O187  1  0.24678689  -0.01037172  0.35974472  1
  O  O188  1  0.25901233  0.00623737  0.86613499  1
  O  O189  1  0.25644171  0.50094589  0.36469040  1
  O  O190  1  0.24717270  0.50968552  0.86862301  1
  O  O191  1  0.74363555  0.01383916  0.37242945  1
  O  O192  1  0.74612648  0.01702835  0.87402075  1
  O  O193  1  0.75344466  0.50236761  0.36786057  1
  O  O194  1  0.75681140  0.50270423  0.86886949  1
  O  O195  1  0.24119411  0.49245880  0.12919059  1
  O  O196  1  0.23993708  0.49424478  0.63548430  1
  O  O197  1  0.24189639  0.98753895  0.13176858  1
  O  O198  1  0.23976443  0.99126253  0.62999296  1
  O  O199  1  0.74273232  0.49663208  0.13134161  1
  O  O200  1  0.74325172  0.49265883  0.63347001  1
  O  O201  1  0.73649282  0.99822380  0.12333004  1
  O  O202  1  0.74883508  0.99047413  0.62985551  1
  O  O203  1  0.01001624  0.37695798  0.25299696  1
  O  O204  1  0.01652228  0.37931549  0.75595489  1
  O  O205  1  0.00236993  0.87154308  0.25532857  1
  O  O206  1  -0.01115986  0.87168742  0.75732015  1
  O  O207  1  0.50015755  0.36301383  0.25581417  1
  O  O208  1  0.49241549  0.35861036  0.74047113  1
  O  O209  1  0.50909608  0.86991998  0.24981384  1
  O  O210  1  0.50951696  0.87884627  0.75844902  1
  O  O211  1  0.49928856  0.13982543  0.24826627  1
  O  O212  1  0.49787804  0.12888119  0.74515714  1
  O  O213  1  0.49848194  0.63476363  0.24184026  1
  O  O214  1  0.49225449  0.62263958  0.73827127  1
  O  O215  1  0.99134776  0.12471086  0.24652128  1
  O  O216  1  0.99788042  0.12050721  0.73684907  1
  O  O217  1  0.99138541  0.62892637  0.24182060  1
  O  O218  1  0.99138457  0.63251591  0.74526485  1
  O  O219  1  0.38434229  0.26550782  -0.00618600  1
  O  O220  1  0.38343556  0.25579101  0.52188635  1
  O  O221  1  0.36982132  0.76083389  -0.00439314  1
  O  O222  1  0.37663429  0.75218563  0.48469174  1
  O  O223  1  0.87742539  0.25063965  0.01565054  1
  O  O224  1  0.87976470  0.25876086  0.50610470  1
  O  O225  1  0.87279954  0.76034209  0.00542656  1
  O  O226  1  0.86328340  0.75924683  0.49204283  1
  O  O227  1  0.12213528  0.25138171  0.49058192  1
  O  O228  1  0.11811666  0.23742581  1.00643609  1
  O  O229  1  0.11511459  0.75039524  0.48311970  1
  O  O230  1  0.12834346  0.74467987  0.99472445  1
  O  O231  1  0.62447711  0.24105604  0.48623503  1
  O  O232  1  0.61619810  0.23853664  1.00193816  1
  O  O233  1  0.63883520  0.74295205  0.49104145  1
  O  O234  1  0.64023838  0.75422078  1.00648000  1
  O  O235  1  0.50086494  0.25066331  0.14443059  1
  O  O236  1  0.51198752  0.23440979  0.63308855  1
  O  O237  1  0.50565856  0.73881863  0.13154766  1
  O  O238  1  0.51048540  0.73579323  0.62333740  1
  O  O239  1  0.98879787  0.24872419  0.13070271  1
  O  O240  1  0.99193888  0.23568002  0.62127149  1
  O  O241  1  0.98955391  0.74632568  0.12697331  1
  O  O242  1  1.00201088  0.74415352  0.63563196  1
  O  O243  1  0.01447849  0.25437646  0.37257670  1
  O  O244  1  -0.00616629  0.26290906  0.87886910  1
  O  O245  1  0.00307117  0.76012043  0.36755265  1
  O  O246  1  0.00650737  0.74708315  0.86754640  1
  O  O247  1  0.51056991  0.24896117  0.36693471  1
  O  O248  1  0.49469217  0.24946137  0.85109384  1
  O  O249  1  0.51235227  0.75585419  0.36163538  1
  O  O250  1  0.50086338  0.76093097  0.88114170  1
  O  O251  1  0.26274358  0.15055772  0.57449431  1
  O  O252  1  0.24688840  0.12771620  0.99237132  1
  O  O253  1  0.23619003  0.61643544  0.50705819  1
  O  O254  1  0.24608879  0.63147700  0.99666374  1
  O  O255  1  0.74247654  0.12093508  0.49363693  1
  O  O256  1  0.73540604  0.12279055  0.99136455  1
  O  O257  1  0.74957019  0.63028355  0.49686227  1
  O  O258  1  0.75553289  0.63346293  0.98992479  1
  O  O259  1  0.25816727  0.37892160  0.00797834  1
  O  O260  1  0.24478161  0.38341250  0.51714949  1
  O  O261  1  0.25923654  0.87229343  0.00577458  1
  O  O262  1  0.24725902  0.87440646  0.51579472  1
  O  O263  1  0.75287227  0.38323644  0.01284013  1
  O  O264  1  0.76180156  0.38019547  0.51589073  1
  O  O265  1  0.75897081  0.86856169  -0.00091927  1
  O  O266  1  0.75397719  0.86870018  0.50251086  1
  O  O267  1  0.12954525  0.49694074  0.24393680  1
  O  O268  1  0.13366233  0.50311493  0.74577435  1
  O  O269  1  0.13044759  0.99352375  0.24105381  1
  O  O270  1  0.13533221  1.00647116  0.73963304  1
  O  O271  1  0.63236192  0.49648904  0.24457254  1
  O  O272  1  0.63792918  0.50191734  0.74259672  1
  O  O273  1  0.62395414  0.99433623  0.23954100  1
  O  O274  1  0.62956630  0.99351009  0.73856522  1
  O  O275  1  0.36197792  -0.00250733  0.25413039  1
  O  O276  1  0.37252248  0.00931825  0.75143112  1
  O  O277  1  0.36541286  0.50201097  0.25795663  1
  O  O278  1  0.36020292  0.50945736  0.75062504  1
  O  O279  1  0.87109941  0.01285285  0.24175456  1
  O  O280  1  0.88440350  -0.01340467  0.75986819  1
  O  O281  1  0.86709661  0.50347025  0.25366821  1
  O  O282  1  0.86699008  0.50690850  0.75507381  1
  O  O283  1  0.12375984  0.38498947  0.36291788  1
  O  O284  1  0.11957522  0.37553595  0.86098366  1
  O  O285  1  0.11549990  0.86477260  0.36868991  1
  O  O286  1  0.12772641  0.86460768  0.88208682  1
  O  O287  1  0.62863046  0.36166249  0.37401058  1
  O  O288  1  0.61780803  0.36950104  0.87579761  1
  O  O289  1  0.61986744  0.87107173  0.36435808  1
  O  O290  1  0.61760008  0.88030673  0.86473257  1
  O  O291  1  0.37496529  0.12228178  0.11038078  1
  O  O292  1  0.39568085  0.11823661  0.63043738  1
  O  O293  1  0.38641563  0.61919712  0.12908711  1
  O  O294  1  0.39153309  0.62082004  0.63101101  1
  O  O295  1  0.87368088  0.13181803  0.13013367  1
  O  O296  1  0.88234877  0.13620783  0.62283804  1
  O  O297  1  0.87885478  0.63020427  0.12675464  1
  O  O298  1  0.88288394  0.62145769  0.63468301  1
  O  O299  1  0.24316135  0.26515806  0.13007373  1
  O  O300  1  0.24886535  0.27666698  0.64154380  1
  O  O301  1  0.24341046  0.76227384  0.11864879  1
  O  O302  1  0.23593861  0.76904436  0.63502862  1
  O  O303  1  0.75513644  0.26118747  0.13192241  1
  O  O304  1  0.76474067  0.25449394  0.63013761  1
  O  O305  1  0.76095039  0.74831715  0.11787813  1
  O  O306  1  0.74510649  0.75590045  0.61401268  1
  O  O307  1  0.22841188  0.25741599  0.37259988  1
  O  O308  1  0.26142610  0.23710452  0.86286672  1
  O  O309  1  0.23209410  0.75293552  0.36642342  1
  O  O310  1  0.24091538  0.74696226  0.88078050  1
  O  O311  1  0.73792685  0.23944857  0.37067227  1
  O  O312  1  0.75209283  0.23394503  0.87301423  1
  O  O313  1  0.74682557  0.74202698  0.37828992  1
  O  O314  1  0.75428414  0.73677094  0.88441790  1
  O  O315  1  0.00994584  0.11167896  0.00146392  1
  O  O316  1  -0.01060967  0.11251000  0.50348281  1
  O  O317  1  0.00261660  0.61828264  0.00316062  1
  O  O318  1  -0.00525415  0.61964773  0.50876268  1
  O  O319  1  0.51039091  0.11690977  -0.00117070  1
  O  O320  1  0.51882360  0.12218860  0.50997220  1
  O  O321  1  0.49299030  0.61215446  0.00755772  1
  O  O322  1  0.51145502  0.62020440  0.51236605  1
  O  O323  1  0.49844947  0.38012604  0.49620388  1
  O  O324  1  0.49137936  0.38760961  1.00198565  1
  O  O325  1  0.50926762  0.87350582  0.48649828  1
  O  O326  1  0.49568912  0.88069150  0.99416316  1
  O  O327  1  0.99084049  0.38321031  0.50163495  1
  O  O328  1  1.00022771  0.38316792  0.99071316  1
  O  O329  1  0.98962532  0.88032920  0.49252068  1
  O  O330  1  0.99354997  0.88761176  1.00053814  1
  O  O331  1  0.48934094  0.49940703  0.37518094  1
  O  O332  1  0.49799800  0.50065486  0.88263328  1
  O  O333  1  0.50376530  0.99159049  0.37437973  1
  O  O334  1  0.49747566  0.99474052  0.88457417  1
  O  O335  1  0.99048278  0.49924623  0.38455768  1
  O  O336  1  0.99273189  0.49542183  0.87805738  1
  O  O337  1  1.00623756  0.98788821  0.37942771  1
  O  O338  1  1.00409570  0.99807514  0.87808762  1
  O  O339  1  0.01243359  0.00026245  0.11730827  1
  O  O340  1  0.00382373  0.00942930  0.61524933  1
  O  O341  1  0.00442295  0.50291140  0.11732086  1
  O  O342  1  -0.00200012  0.50688068  0.62015487  1
  O  O343  1  0.50907396  0.00100736  0.11288408  1
  O  O344  1  0.51309641  0.00820019  0.62686763  1
  O  O345  1  0.50543976  0.50529790  0.12170730  1
  O  O346  1  0.51335273  0.50415901  0.62793593  1
  O  O347  1  0.24252498  0.38737260  0.24179383  1
  O  O348  1  0.23917117  0.38536823  0.74886628  1
  O  O349  1  0.24404358  0.87891307  0.24050375  1
  O  O350  1  0.25406309  0.89010581  0.74428557  1
  O  O351  1  0.75046289  0.38597083  0.24244998  1
  O  O352  1  0.75853323  0.38297681  0.73854897  1
  O  O353  1  0.73786775  0.87661496  0.24688360  1
  O  O354  1  0.74687048  0.87684211  0.74207984  1
  O  O355  1  0.24535753  0.10712139  0.24757324  1
  O  O356  1  0.26028919  0.11565755  0.75254421  1
  O  O357  1  0.24941377  0.61242514  0.24022051  1
  O  O358  1  0.25318296  0.62107721  0.75276268  1
  O  O359  1  0.75652345  0.12177357  0.25753696  1
  O  O360  1  0.75492161  0.11912729  0.76487800  1
  O  O361  1  0.75393146  0.61397449  0.25163769  1
  O  O362  1  0.75697874  0.61779347  0.75557275  1
  O  O363  1  0.36029249  0.11418920  0.42249907  1
  O  O364  1  0.37346420  0.11790983  0.86588645  1
  O  O365  1  0.37476244  0.61711120  0.37408200  1
  O  O366  1  0.36611602  0.62375012  0.86630858  1
  O  O367  1  0.86611176  0.13159108  0.36530968  1
  O  O368  1  0.86584508  0.12148112  0.88558846  1
  O  O369  1  0.86878207  0.61778971  0.36828090  1
  O  O370  1  0.87055345  0.61284121  0.86760442  1
  O  O371  1  0.12886168  0.38240846  0.13399173  1
  O  O372  1  0.12778764  0.38192925  0.63749085  1
  O  O373  1  0.13104842  0.88180490  0.12863285  1
  O  O374  1  0.12681259  0.88724957  0.62518196  1
  O  O375  1  0.63144675  0.38499554  0.12778342  1
  O  O376  1  0.63616495  0.38023840  0.61983734  1
  O  O377  1  0.62530554  0.88367397  0.13101697  1
  O  O378  1  0.63592499  0.88036548  0.62905954  1
  O  O379  1  0.12084227  0.26110445  0.25587004  1
  O  O380  1  0.12816505  0.25827641  0.74480096  1
  O  O381  1  0.11515737  0.75541150  0.25501573  1
  O  O382  1  0.10875615  0.74738139  0.76080211  1
  O  O383  1  0.62233882  0.25040114  0.26330991  1
  O  O384  1  0.61443879  0.24671923  0.75022148  1
  O  O385  1  0.62081402  0.75837915  0.25036634  1
  O  O386  1  0.63184407  0.76353589  0.74740271  1
  O  O387  1  0.38265944  0.25293656  0.25956249  1
  O  O388  1  0.37823851  0.23423562  0.72581665  1
  O  O389  1  0.38753721  0.75041913  0.25124885  1
  O  O390  1  0.36911817  0.73792769  0.75256311  1
  O  O391  1  0.87621640  0.23941031  0.24092372  1
  O  O392  1  0.88111096  0.25345145  0.73790871  1
  O  O393  1  0.87754995  0.74462147  0.24025580  1
  O  O394  1  0.88234834  0.73636449  0.75765306  1
  O  O395  1  0.37711754  0.49984345  0.49284609  1
  O  O396  1  0.38137474  0.49054273  0.99536950  1
  O  O397  1  0.38440129  0.97852457  0.49796272  1
  O  O398  1  0.38386038  0.98638031  0.99084107  1
  O  O399  1  0.88152982  0.49141171  0.49767489  1
  O  O400  1  0.88125909  0.49749565  0.99007086  1
  O  O401  1  0.88149255  0.98683858  0.50339040  1
  O  O402  1  0.88352904  0.98840687  1.00727234  1
  O  O403  1  0.12149669  0.00330629  0.00814420  1
  O  O404  1  0.11265039  -0.00433609  0.50659189  1
  O  O405  1  0.11931311  0.50518093  0.00383917  1
  O  O406  1  0.10727330  0.50048296  0.50732418  1
  O  O407  1  0.61802705  0.00662268  0.00422673  1
  O  O408  1  0.62629540  0.00534374  0.51386301  1
  O  O409  1  0.61484962  0.49887068  0.01029053  1
  O  O410  1  0.62947287  0.50624509  0.51041291  1
  O  O411  1  0.36317866  0.38130573  0.11484568  1
  O  O412  1  0.35714116  0.38575680  0.62474908  1
  O  O413  1  0.36737173  0.88041757  0.11468255  1
  O  O414  1  0.35934397  0.87331160  0.62758470  1
  O  O415  1  0.86526722  0.36760339  0.12378836  1
  O  O416  1  0.87318529  0.36204667  0.62058866  1
  O  O417  1  0.87230676  0.86705387  0.11771198  1
  O  O418  1  0.86174694  0.86960593  0.61221403  1
  O  O419  1  0.12539681  0.13283757  0.37872705  1
  O  O420  1  0.13944045  0.12209563  0.88621680  1
  O  O421  1  0.11236131  0.64227237  0.37401238  1
  O  O422  1  0.13036344  0.63324963  0.88136205  1
  O  O423  1  0.63162928  0.13182417  0.38215217  1
  O  O424  1  0.62564400  0.13125975  0.88725985  1
  O  O425  1  0.63170980  0.62827985  0.37925117  1
  O  O426  1  0.63736364  0.62000673  0.87060211  1
