# generated using pymatgen
data_V85Zn86O256
_symmetry_space_group_name_H-M   'P 1'
_cell_length_a   16.92881361
_cell_length_b   16.92746228
_cell_length_c   16.92679069
_cell_angle_alpha   89.96352401
_cell_angle_beta   89.95541853
_cell_angle_gamma   90.01290600
_symmetry_Int_Tables_number   1
_chemical_formula_structural   V85Zn86O256
_chemical_formula_sum   'V85 Zn86 O256'
_cell_volume   4850.56994585
_cell_formula_units_Z   1
loop_
 _symmetry_equiv_pos_site_id
 _symmetry_equiv_pos_as_xyz
  1  'x, y, z'
loop_
 _atom_site_type_symbol
 _atom_site_label
 _atom_site_symmetry_multiplicity
 _atom_site_fract_x
 _atom_site_fract_y
 _atom_site_fract_z
 _atom_site_occupancy
  V  V0  1  0.37651976  0.13171327  0.24756481  1
  V  V1  1  0.74888001  0.37162157  0.13081080  1
  V  V2  1  0.38374010  0.48780009  0.37934077  1
  V  V3  1  0.75362720  0.61735200  0.37606016  1
  V  V4  1  0.49746096  0.12460691  0.63015981  1
  V  V5  1  0.25743468  0.61984738  0.86306233  1
  V  V6  1  0.62624505  0.12661193  0.49611111  1
  V  V7  1  0.00502685  0.24366269  0.24420936  1
  V  V8  1  0.75454417  0.87564251  0.11540019  1
  V  V9  1  0.37312858  -0.00165707  0.87383472  1
  V  V10  1  0.12799728  0.62512081  -0.00122933  1
  V  V11  1  0.74987236  0.13834352  0.38122729  1
  V  V12  1  0.12378842  -0.00053440  0.62544156  1
  V  V13  1  0.87698893  0.62149667  0.25275907  1
  V  V14  1  0.12937355  0.38531207  0.74810477  1
  V  V15  1  0.74761624  0.24612917  0.00483884  1
  V  V16  1  0.25726728  0.36955195  0.12618321  1
  V  V17  1  0.25150900  0.75491062  0.00243365  1
  V  V18  1  0.87514475  0.00491832  0.37520606  1
  V  V19  1  0.25876896  0.24816080  0.00326151  1
  V  V20  1  0.24527620  0.87398738  0.62819302  1
  V  V21  1  0.75481893  0.36839285  0.62610938  1
  V  V22  1  0.50223300  0.75192305  0.24792854  1
  V  V23  1  0.00620240  0.00267754  0.49609459  1
  V  V24  1  0.49655001  0.36957864  0.87310115  1
  V  V25  1  0.12653766  -0.01190179  0.12685313  1
  V  V26  1  0.62790931  0.75032417  0.37525949  1
  V  V27  1  0.00254264  0.50412503  0.49141879  1
  V  V28  1  0.00084692  0.37297947  0.87641260  1
  V  V29  1  0.61776902  0.50509232  0.62952581  1
  V  V30  1  -0.01084350  0.88167702  0.88180595  1
  V  V31  1  0.23646265  0.12127415  0.37793529  1
  V  V32  1  0.24792310  0.12480346  0.87421546  1
  V  V33  1  0.62293133  0.24487178  0.87730272  1
  V  V34  1  0.50197001  0.74704427  0.74815633  1
  V  V35  1  0.62476506  0.00985259  0.12177565  1
  V  V36  1  0.62633638  0.49647857  0.13293379  1
  V  V37  1  0.23350689  0.25177647  0.49309622  1
  V  V38  1  0.62663637  0.36848661  0.75452058  1
  V  V39  1  0.12736257  0.86229564  0.25499372  1
  V  V40  1  0.50504021  0.87618425  0.87007925  1
  V  V41  1  0.50292254  0.62646814  0.12317274  1
  V  V42  1  0.75157753  0.00005695  0.25234930  1
  V  V43  1  0.56736630  0.30860479  0.42343812  1
  V  V44  1  0.37388991  0.25054832  0.61827446  1
  V  V45  1  0.11944965  0.12569310  0.01179990  1
  V  V46  1  0.74764586  0.12088601  0.87822559  1
  V  V47  1  0.00000584  0.49833337  0.00076296  1
  V  V48  1  0.12799392  0.75887848  0.87213596  1
  V  V49  1  0.74678701  0.87492777  0.62681319  1
  V  V50  1  0.00995739  0.62400584  0.62337520  1
  V  V51  1  0.25258569  0.49771129  0.24987886  1
  V  V52  1  0.61335556  0.62570725  0.50400912  1
  V  V53  1  0.49851878  0.49944566  -0.00135883  1
  V  V54  1  0.12496648  0.24843825  0.87568992  1
  V  V55  1  0.37310113  0.87512312  0.50020644  1
  V  V56  1  0.87508041  0.13191093  0.23573277  1
  V  V57  1  0.87469487  0.74962076  0.62620229  1
  V  V58  1  0.74964801  0.74756162  0.50133325  1
  V  V59  1  0.12749178  0.49771525  0.12445140  1
  V  V60  1  0.37365251  0.76026170  0.12569813  1
  V  V61  1  0.62888487  0.75198951  0.87414389  1
  V  V62  1  0.25112723  0.37848044  0.62122634  1
  V  V63  1  0.87198211  0.37609710  0.49133008  1
  V  V64  1  0.75199688  0.49952970  0.75307141  1
  V  V65  1  0.00432117  0.75923098  0.74922619  1
  V  V66  1  0.00186937  0.62993687  0.13044646  1
  V  V67  1  0.50346838  0.00591321  -0.00138614  1
  V  V68  1  0.87784900  0.62436478  0.75209667  1
  V  V69  1  0.24433730  -0.00105221  0.74928544  1
  V  V70  1  0.87445972  0.87686367  0.49833677  1
  V  V71  1  0.87555514  0.12215887  0.75109566  1
  V  V72  1  0.24597902  0.62810612  0.38007722  1
  V  V73  1  0.37718416  0.74549352  0.62822488  1
  V  V74  1  0.49977643  0.87772705  0.37552763  1
  V  V75  1  0.00093447  0.25096629  0.75021070  1
  V  V76  1  0.51022701  0.25975538  0.24212314  1
  V  V77  1  0.88052395  0.75526286  0.12353839  1
  V  V78  1  0.62827629  0.87612499  0.24796258  1
  V  V79  1  0.37661909  0.62484907  0.25103633  1
  V  V80  1  0.62389933  -0.00312260  0.62814612  1
  V  V81  1  0.12497600  0.37087839  0.25824337  1
  V  V82  1  0.87724639  0.36586572  0.00599310  1
  V  V83  1  0.75199636  -0.00415434  0.75144890  1
  V  V84  1  0.00380135  0.12774992  0.61784587  1
  Zn  Zn85  1  0.37648549  0.37297833  0.00090399  1
  Zn  Zn86  1  0.49867281  0.00095103  0.50078584  1
  Zn  Zn87  1  -0.00382006  0.86834411  0.36706018  1
  Zn  Zn88  1  0.49946818  0.48734896  0.50075018  1
  Zn  Zn89  1  0.37274996  0.49829811  0.86025888  1
  Zn  Zn90  1  0.25446937  -0.00291594  0.24272530  1
  Zn  Zn91  1  0.37500208  0.12858741  0.74822945  1
  Zn  Zn92  1  0.43004294  0.58103627  0.69444657  1
  Zn  Zn93  1  0.10574629  0.73729375  0.38279051  1
  Zn  Zn94  1  0.37281356  0.00123534  0.37365970  1
  Zn  Zn95  1  0.87392976  0.24965666  0.61874455  1
  Zn  Zn96  1  0.75632059  0.74896957  -0.00232805  1
  Zn  Zn97  1  0.75224172  0.49358297  0.25458473  1
  Zn  Zn98  1  -0.01187348  -0.00408015  0.00772877  1
  Zn  Zn99  1  0.24180922  0.74756720  0.50214799  1
  Zn  Zn100  1  -0.00212482  0.37397701  0.37244007  1
  Zn  Zn101  1  0.75222461  0.62574544  0.87860708  1
  Zn  Zn102  1  0.37123858  0.87960316  0.00354753  1
  Zn  Zn103  1  0.49555488  0.13151731  0.11957313  1
  Zn  Zn104  1  0.87510540  0.49860387  0.87810598  1
  Zn  Zn105  1  0.13039464  0.50367578  0.62090260  1
  Zn  Zn106  1  0.63068824  0.62615774  0.00085838  1
  Zn  Zn107  1  0.19016386  0.18680716  0.18957177  1
  Zn  Zn108  1  0.18681458  0.18821778  0.68455969  1
  Zn  Zn109  1  0.19124156  0.68680460  0.18745401  1
  Zn  Zn110  1  0.18779756  0.69128547  0.68834919  1
  Zn  Zn111  1  0.68700246  0.18940868  0.19205365  1
  Zn  Zn112  1  0.68662252  0.18512478  0.68757473  1
  Zn  Zn113  1  0.69180406  0.68695863  0.18620253  1
  Zn  Zn114  1  0.68501527  0.68758514  0.69269529  1
  Zn  Zn115  1  0.31421573  0.30620834  0.31321244  1
  Zn  Zn116  1  0.31273528  0.31148104  0.80725724  1
  Zn  Zn117  1  0.30930357  0.81446174  0.30997455  1
  Zn  Zn118  1  0.31447603  0.81205288  0.81028485  1
  Zn  Zn119  1  0.81526765  0.31074051  0.31257692  1
  Zn  Zn120  1  0.81620036  0.30848797  0.81651514  1
  Zn  Zn121  1  0.81788444  0.80874494  0.30866823  1
  Zn  Zn122  1  0.81394071  0.81388488  0.81239837  1
  Zn  Zn123  1  0.18975968  0.44080621  0.43858680  1
  Zn  Zn124  1  0.18956712  0.43653573  0.93708427  1
  Zn  Zn125  1  0.18621682  0.93536797  0.43664895  1
  Zn  Zn126  1  0.18351228  0.93801724  0.94009428  1
  Zn  Zn127  1  0.68940949  0.44073899  0.44377709  1
  Zn  Zn128  1  0.68694833  0.43666372  0.94262774  1
  Zn  Zn129  1  0.68792993  0.94131792  0.43920231  1
  Zn  Zn130  1  0.68583921  0.93753236  0.93663485  1
  Zn  Zn131  1  0.31134325  0.06298413  0.06346795  1
  Zn  Zn132  1  0.31032574  0.06376015  0.55668373  1
  Zn  Zn133  1  0.31507382  0.56506641  0.06003949  1
  Zn  Zn134  1  0.31412731  0.55875976  0.55594921  1
  Zn  Zn135  1  0.80816754  0.05606305  0.05889380  1
  Zn  Zn136  1  0.81331351  0.06548778  0.56283324  1
  Zn  Zn137  1  0.81435410  0.56160680  0.06298980  1
  Zn  Zn138  1  0.81418307  0.55845645  0.56439309  1
  Zn  Zn139  1  0.43953717  0.43661561  0.18860560  1
  Zn  Zn140  1  0.43719450  0.41792644  0.68913836  1
  Zn  Zn141  1  0.43814331  0.94356858  0.18969647  1
  Zn  Zn142  1  0.43528080  0.93541447  0.68927378  1
  Zn  Zn143  1  0.93739192  0.43684028  0.18680399  1
  Zn  Zn144  1  0.93962832  0.43893570  0.68435935  1
  Zn  Zn145  1  0.94364936  0.94003979  0.18723242  1
  Zn  Zn146  1  0.93622701  0.93811050  0.68800367  1
  Zn  Zn147  1  0.06038727  0.05961928  0.30442660  1
  Zn  Zn148  1  0.06399077  0.06265474  0.81156807  1
  Zn  Zn149  1  0.06307743  0.55901219  0.30993206  1
  Zn  Zn150  1  0.06453331  0.56587775  0.81463815  1
  Zn  Zn151  1  0.56134545  0.06589219  0.31108835  1
  Zn  Zn152  1  0.56393190  0.06213766  0.80923772  1
  Zn  Zn153  1  0.56430013  0.56148418  0.31416352  1
  Zn  Zn154  1  0.56607588  0.56216912  0.81888771  1
  Zn  Zn155  1  0.42994197  0.18291586  0.43924643  1
  Zn  Zn156  1  0.43692089  0.18493950  0.93453387  1
  Zn  Zn157  1  0.43320907  0.69045421  0.43618401  1
  Zn  Zn158  1  0.43780545  0.68748341  0.93675496  1
  Zn  Zn159  1  0.94140526  0.19342114  0.43293033  1
  Zn  Zn160  1  0.91413715  0.15460331  0.96032185  1
  Zn  Zn161  1  0.93625288  0.68665412  0.43783479  1
  Zn  Zn162  1  0.93950366  0.68995376  0.93997377  1
  Zn  Zn163  1  0.06609527  0.30829651  0.06813704  1
  Zn  Zn164  1  0.06094634  0.31731835  0.56065877  1
  Zn  Zn165  1  0.06261822  0.81308305  0.06143622  1
  Zn  Zn166  1  0.06311421  0.81454989  0.55658823  1
  Zn  Zn167  1  0.56485380  0.31320057  0.06208858  1
  Zn  Zn168  1  0.56471035  0.30847320  0.58445804  1
  Zn  Zn169  1  0.56332992  0.81842029  0.05753114  1
  Zn  Zn170  1  0.56174298  0.81323644  0.56401422  1
  O  O171  1  0.12986552  0.11898901  0.11514952  1
  O  O172  1  0.11571470  0.11198364  0.62890340  1
  O  O173  1  0.12009445  0.61994375  0.12094827  1
  O  O174  1  0.11369686  0.62484079  0.62915435  1
  O  O175  1  0.62378870  0.11212833  0.12996267  1
  O  O176  1  0.61853223  0.12245029  0.61588107  1
  O  O177  1  0.61872794  0.61968212  0.12326393  1
  O  O178  1  0.63141048  0.61555533  0.61822042  1
  O  O179  1  0.37020429  0.39029260  0.36858022  1
  O  O180  1  0.38354819  0.37430690  0.87521222  1
  O  O181  1  0.38192155  0.87463091  0.38130962  1
  O  O182  1  0.37969365  0.88690393  0.87473984  1
  O  O183  1  0.87144052  0.37934252  0.38778549  1
  O  O184  1  0.88280123  0.37464628  0.88682909  1
  O  O185  1  0.87270284  0.88913779  0.37730290  1
  O  O186  1  0.89020047  0.87198728  0.87552694  1
  O  O187  1  0.25030026  0.01233857  0.37571603  1
  O  O188  1  0.25408353  0.00142324  0.86839354  1
  O  O189  1  0.26048367  0.50915279  0.36980884  1
  O  O190  1  0.25147290  0.51536969  0.88049906  1
  O  O191  1  0.75753809  0.00701720  0.37023468  1
  O  O192  1  0.74073184  0.01064922  0.86561218  1
  O  O193  1  0.74424525  0.51352104  0.37369672  1
  O  O194  1  0.75107222  0.49838171  0.86391417  1
  O  O195  1  0.24629119  0.49608369  0.13007262  1
  O  O196  1  0.24923979  0.48391984  0.61304493  1
  O  O197  1  0.23312826  1.00211505  0.12183253  1
  O  O198  1  0.24319046  0.99703028  0.62949447  1
  O  O199  1  0.74183652  0.49078583  0.12346718  1
  O  O200  1  0.74298964  0.49258126  0.63752159  1
  O  O201  1  0.74406036  0.99450252  0.13080796  1
  O  O202  1  0.74457924  0.99587182  0.63074721  1
  O  O203  1  0.00809958  0.37055963  0.25050081  1
  O  O204  1  0.00625142  0.36807598  0.75292148  1
  O  O205  1  0.02096740  0.88308924  0.25056718  1
  O  O206  1  -0.00442522  0.86356571  0.75602014  1
  O  O207  1  0.49809854  0.35917584  0.24775976  1
  O  O208  1  0.51467023  0.37173899  0.76056571  1
  O  O209  1  0.50655443  0.87083138  0.25634195  1
  O  O210  1  0.49559712  0.86761274  0.76260490  1
  O  O211  1  0.48961194  0.13130233  0.24915895  1
  O  O212  1  0.49823567  0.12143512  0.73489832  1
  O  O213  1  0.49478690  0.63251369  0.24624335  1
  O  O214  1  0.50657508  0.63988834  0.75464469  1
  O  O215  1  0.98837473  0.13327586  0.25022903  1
  O  O216  1  0.99439475  0.13040239  0.74326614  1
  O  O217  1  0.99508758  0.61867456  0.23799263  1
  O  O218  1  0.99502314  0.63266698  0.74403874  1
  O  O219  1  0.36273208  0.24895115  -0.00344690  1
  O  O220  1  0.36049887  0.24144419  0.51250581  1
  O  O221  1  0.37000951  0.75148512  0.00880342  1
  O  O222  1  0.37123823  0.76121383  0.50594346  1
  O  O223  1  0.86048721  0.25303530  -0.00363438  1
  O  O224  1  0.88344343  0.27007750  0.50238698  1
  O  O225  1  0.87540852  0.74681410  0.01680166  1
  O  O226  1  0.86756574  0.75491380  0.50847596  1
  O  O227  1  0.13430881  0.24781064  0.50187696  1
  O  O228  1  0.13599803  0.24190114  0.99824177  1
  O  O229  1  0.12945090  0.75300280  0.49385435  1
  O  O230  1  0.13260582  0.74471119  0.99389106  1
  O  O231  1  0.61702809  0.24619058  0.49362473  1
  O  O232  1  0.63612790  0.25489918  0.98865553  1
  O  O233  1  0.63090849  0.74365951  0.49753058  1
  O  O234  1  0.62643904  0.75158387  0.98708195  1
  O  O235  1  0.50513445  0.24755351  0.13501056  1
  O  O236  1  0.48356007  0.24099216  0.62260949  1
  O  O237  1  0.49546337  0.74672193  0.12788153  1
  O  O238  1  0.49239212  0.75735192  0.63616944  1
  O  O239  1  0.99610552  0.25696765  0.14340932  1
  O  O240  1  1.00266399  0.24191124  0.63094398  1
  O  O241  1  0.99613723  0.74050501  0.12248219  1
  O  O242  1  0.99502036  0.74557892  0.63145244  1
  O  O243  1  -0.00600330  0.25713483  0.35467593  1
  O  O244  1  0.00755997  0.25617684  0.86547374  1
  O  O245  1  -0.00620552  0.75436681  0.37317205  1
  O  O246  1  0.00763065  0.75735064  0.86914285  1
  O  O247  1  0.49828485  0.25181092  0.37007171  1
  O  O248  1  0.50853879  0.25869589  0.88154474  1
  O  O249  1  0.50561286  0.76011252  0.36975310  1
  O  O250  1  0.50438878  0.75845899  0.87043038  1
  O  O251  1  0.24780316  0.13215906  0.48613125  1
  O  O252  1  0.24316749  0.13077242  0.99405040  1
  O  O253  1  0.25301823  0.62421615  0.48316858  1
  O  O254  1  0.24552184  0.63521815  0.99389303  1
  O  O255  1  0.74067588  0.12411139  0.49482684  1
  O  O256  1  0.74656041  0.13167309  0.98781260  1
  O  O257  1  0.74556247  0.62848139  0.49518930  1
  O  O258  1  0.74993698  0.62785851  0.99671648  1
  O  O259  1  0.25064941  0.36604840  0.00714457  1
  O  O260  1  0.24421562  0.36028870  0.50334098  1
  O  O261  1  0.25185227  0.85994184  -0.00657412  1
  O  O262  1  0.25669500  0.87644994  0.51111302  1
  O  O263  1  0.75850567  0.36706600  0.00606267  1
  O  O264  1  0.76392817  0.38465836  0.51122775  1
  O  O265  1  0.75149124  0.87806586  0.01237532  1
  O  O266  1  0.75530779  0.86952231  0.50507910  1
  O  O267  1  0.13259503  0.49156933  0.24290421  1
  O  O268  1  0.12049502  0.48817398  0.74773955  1
  O  O269  1  0.13026629  0.99654361  0.23716850  1
  O  O270  1  0.13651670  1.00047223  0.74309448  1
  O  O271  1  0.62797469  0.50466267  0.23707432  1
  O  O272  1  0.63228735  0.49293928  0.74724374  1
  O  O273  1  0.63014847  0.99503761  0.24344032  1
  O  O274  1  0.63493096  1.00639519  0.73570577  1
  O  O275  1  0.37255507  0.01073769  0.25383850  1
  O  O276  1  0.36288942  0.00219542  0.75523436  1
  O  O277  1  0.37303030  0.50798731  0.25615520  1
  O  O278  1  0.38219839  0.49664366  0.74678406  1
  O  O279  1  0.87456250  0.01162183  0.25714888  1
  O  O280  1  0.86654992  0.01057570  0.74522901  1
  O  O281  1  0.87139626  0.51537531  0.24184527  1
  O  O282  1  0.86964419  0.50644338  0.75187494  1
  O  O283  1  0.12663953  0.38077954  0.36059133  1
  O  O284  1  0.12258314  0.36842114  0.86755747  1
  O  O285  1  0.12279515  0.87406574  0.36307152  1
  O  O286  1  0.12019807  0.86234195  0.87710524  1
  O  O287  1  0.63053651  0.36932536  0.37503566  1
  O  O288  1  0.62106264  0.36685541  0.87104843  1
  O  O289  1  0.61987135  0.87021947  0.37144506  1
  O  O290  1  0.61525884  0.86896185  0.87599865  1
  O  O291  1  0.37457403  0.12073100  0.14184217  1
  O  O292  1  0.38119203  0.12825719  0.62299097  1
  O  O293  1  0.38236005  0.63076017  0.13575482  1
  O  O294  1  0.37247899  0.63943491  0.61516205  1
  O  O295  1  0.86632489  0.12364914  0.13871292  1
  O  O296  1  0.88197693  0.12940392  0.63385766  1
  O  O297  1  0.88499049  0.63064009  0.12978402  1
  O  O298  1  0.88214378  0.62855934  0.63614243  1
  O  O299  1  0.24609345  0.25801190  0.11667102  1
  O  O300  1  0.25168192  0.25310349  0.61148676  1
  O  O301  1  0.26215175  0.74332775  0.11570730  1
  O  O302  1  0.25688107  0.75857522  0.62555770  1
  O  O303  1  0.74112141  0.25659725  0.11596385  1
  O  O304  1  0.74982201  0.26439257  0.62983872  1
  O  O305  1  0.75713343  0.76079094  0.12327000  1
  O  O306  1  0.75367504  0.75552160  0.62335985  1
  O  O307  1  0.25188410  0.24086895  0.38661536  1
  O  O308  1  0.24415133  0.24532646  0.88101059  1
  O  O309  1  0.25586018  0.73320546  0.37367084  1
  O  O310  1  0.24560562  0.74301287  0.87856399  1
  O  O311  1  0.75260591  0.23764133  0.37431303  1
  O  O312  1  0.74203580  0.24251505  0.87992295  1
  O  O313  1  0.74550636  0.74289471  0.38098208  1
  O  O314  1  0.74265371  0.75193132  0.87576664  1
  O  O315  1  0.02089361  0.13789391  0.00122322  1
  O  O316  1  -0.00792965  0.11940806  0.51080151  1
  O  O317  1  0.00787045  0.61905258  0.00770618  1
  O  O318  1  -0.00994192  0.61204187  0.50940073  1
  O  O319  1  0.49582702  0.11143014  0.00048354  1
  O  O320  1  0.50686603  0.12170087  0.50811598  1
  O  O321  1  0.50190887  0.61762636  0.00579813  1
  O  O322  1  0.51178798  0.62701415  0.49545917  1
  O  O323  1  0.51635626  0.36736983  0.49234688  1
  O  O324  1  0.49802632  0.38074753  0.99269335  1
  O  O325  1  0.49299993  0.87474380  0.49174315  1
  O  O326  1  0.49489304  0.88635533  0.98785287  1
  O  O327  1  0.99121867  0.38579692  0.49730129  1
  O  O328  1  0.99593327  0.37534520  0.99822140  1
  O  O329  1  0.98959024  0.88712047  0.49913050  1
  O  O330  1  1.00225108  0.87789902  0.98703395  1
  O  O331  1  0.48843472  0.50115025  0.37494031  1
  O  O332  1  0.50183649  0.48828174  0.88259120  1
  O  O333  1  0.50145165  0.98697683  0.37646496  1
  O  O334  1  0.49429196  0.99612049  0.87679453  1
  O  O335  1  0.99993273  0.50009595  0.38758876  1
  O  O336  1  1.00223193  0.49227208  0.88343034  1
  O  O337  1  0.99261184  1.00194993  0.38175912  1
  O  O338  1  1.00824103  0.98229829  0.87069687  1
  O  O339  1  0.01847678  -0.00003228  0.12136310  1
  O  O340  1  0.00562820  0.00583254  0.61979879  1
  O  O341  1  0.00792482  0.50574674  0.11816718  1
  O  O342  1  0.00397524  0.50953025  0.61849789  1
  O  O343  1  0.50829949  -0.00044989  0.11561230  1
  O  O344  1  0.50751700  0.00325467  0.62465040  1
  O  O345  1  0.50656217  0.50458768  0.11991418  1
  O  O346  1  0.50987376  0.49631521  0.62578453  1
  O  O347  1  0.24529998  0.37550176  0.24443820  1
  O  O348  1  0.23924567  0.36717658  0.73636710  1
  O  O349  1  0.23562861  0.87984745  0.25284549  1
  O  O350  1  0.25453432  0.88211794  0.73622266  1
  O  O351  1  0.76037571  0.37492749  0.23530511  1
  O  O352  1  0.74822298  0.38106032  0.74770069  1
  O  O353  1  0.74599624  0.88187090  0.24462837  1
  O  O354  1  0.75638453  0.88874838  0.74498124  1
  O  O355  1  0.25968784  0.12782111  0.26063335  1
  O  O356  1  0.24781126  0.11663008  0.75673834  1
  O  O357  1  0.26061947  0.61836256  0.25446063  1
  O  O358  1  0.24660013  0.62718144  0.76431417  1
  O  O359  1  0.76004873  0.12095440  0.25798584  1
  O  O360  1  0.75627944  0.11670244  0.75183396  1
  O  O361  1  0.75678534  0.62342467  0.25918139  1
  O  O362  1  0.75961529  0.61680891  0.75198513  1
  O  O363  1  0.36697150  0.12148442  0.36502455  1
  O  O364  1  0.36856399  0.11390971  0.87063282  1
  O  O365  1  0.37018190  0.62025972  0.36442305  1
  O  O366  1  0.36137163  0.62449745  0.87662379  1
  O  O367  1  0.86828417  0.11726693  0.37475243  1
  O  O368  1  0.86032817  0.13665640  0.85658897  1
  O  O369  1  0.86487926  0.62854072  0.36590303  1
  O  O370  1  0.87827475  0.62402391  0.86297524  1
  O  O371  1  0.13624524  0.38073188  0.13217772  1
  O  O372  1  0.13208317  0.37570947  0.63220385  1
  O  O373  1  0.12647379  0.88121891  0.13186393  1
  O  O374  1  0.13166176  0.88831046  0.62252807  1
  O  O375  1  0.63602699  0.38437696  0.12000778  1
  O  O376  1  0.63350120  0.38267804  0.63643940  1
  O  O377  1  0.63380534  0.88171071  0.13021985  1
  O  O378  1  0.63427967  0.88479663  0.61962600  1
  O  O379  1  0.11442094  0.25531810  0.24566309  1
  O  O380  1  0.11516008  0.25441841  0.75275351  1
  O  O381  1  0.12985541  0.75994952  0.25198648  1
  O  O382  1  0.11532365  0.74702511  0.75893929  1
  O  O383  1  0.60874413  0.24252388  0.25658128  1
  O  O384  1  0.63274170  0.26138366  0.75812456  1
  O  O385  1  0.62146709  0.75574152  0.25474192  1
  O  O386  1  0.61806873  0.75116282  0.76222327  1
  O  O387  1  0.38566469  0.23778714  0.25361468  1
  O  O388  1  0.36162556  0.24357907  0.72701853  1
  O  O389  1  0.38026896  0.74433544  0.24405386  1
  O  O390  1  0.38464791  0.75213967  0.74023718  1
  O  O391  1  0.88028671  0.23665700  0.24996949  1
  O  O392  1  0.88817853  0.24691388  0.74543574  1
  O  O393  1  0.87018204  0.73561527  0.23542171  1
  O  O394  1  0.88178726  0.74273192  0.74520529  1
  O  O395  1  0.38252302  0.50015802  0.48486417  1
  O  O396  1  0.38893501  0.49899428  0.99811879  1
  O  O397  1  0.37727854  0.98720510  0.49843367  1
  O  O398  1  0.37896822  0.99885494  0.99119647  1
  O  O399  1  0.88804932  0.48768973  0.50861088  1
  O  O400  1  0.88510682  0.49069282  0.99870762  1
  O  O401  1  0.88194814  0.99804058  0.49339681  1
  O  O402  1  0.88943987  1.04362199  0.98641592  1
  O  O403  1  0.12227029  0.01079117  0.00722266  1
  O  O404  1  0.11205649  -0.00257936  0.50554130  1
  O  O405  1  0.12062402  0.50400669  0.00559324  1
  O  O406  1  0.10777161  0.49533906  0.50215739  1
  O  O407  1  0.61598621  -0.00448209  0.00900244  1
  O  O408  1  0.62439630  0.00853218  0.51189612  1
  O  O409  1  0.61410177  0.50102958  0.00858252  1
  O  O410  1  0.62138257  0.50803125  0.51138143  1
  O  O411  1  0.36099911  0.38107687  0.12359919  1
  O  O412  1  0.36733847  0.35960618  0.61948810  1
  O  O413  1  0.38055339  0.86373949  0.12605064  1
  O  O414  1  0.36850619  0.86809787  0.61802769  1
  O  O415  1  0.86874736  0.37788463  0.11146772  1
  O  O416  1  0.86859095  0.37357756  0.61988845  1
  O  O417  1  0.86801287  0.86877176  0.13437574  1
  O  O418  1  0.86745578  0.87045787  0.61913722  1
  O  O419  1  0.13808949  0.12268147  0.36510389  1
  O  O420  1  0.13045732  0.12894174  0.88358327  1
  O  O421  1  0.14257424  0.62342855  0.36357996  1
  O  O422  1  0.13290966  0.63434221  0.88098630  1
  O  O423  1  0.63265710  0.11633283  0.38849788  1
  O  O424  1  0.63140496  0.13719511  0.86579114  1
  O  O425  1  0.63138539  0.63178194  0.38337356  1
  O  O426  1  0.62966821  0.63600029  0.87847510  1
