# generated using pymatgen
data_V85Zn86O256
_symmetry_space_group_name_H-M   'P 1'
_cell_length_a   16.91682279
_cell_length_b   16.91879335
_cell_length_c   16.91826669
_cell_angle_alpha   89.98140133
_cell_angle_beta   89.98405493
_cell_angle_gamma   89.96082819
_symmetry_Int_Tables_number   1
_chemical_formula_structural   V85Zn86O256
_chemical_formula_sum   'V85 Zn86 O256'
_cell_volume   4842.21324482
_cell_formula_units_Z   1
loop_
 _symmetry_equiv_pos_site_id
 _symmetry_equiv_pos_as_xyz
  1  'x, y, z'
loop_
 _atom_site_type_symbol
 _atom_site_label
 _atom_site_symmetry_multiplicity
 _atom_site_fract_x
 _atom_site_fract_y
 _atom_site_fract_z
 _atom_site_occupancy
  V  V0  1  0.12967098  0.63469527  0.50537770  1
  V  V1  1  0.37454773  0.24931776  0.62317130  1
  V  V2  1  0.87868444  0.75500009  0.12201899  1
  V  V3  1  0.13021288  0.12200224  -0.00385498  1
  V  V4  1  0.87505622  0.37086368  0.00766578  1
  V  V5  1  0.37232644  0.74960363  0.61688106  1
  V  V6  1  0.87393428  0.24304542  0.63292541  1
  V  V7  1  0.50078055  0.37143640  0.37135982  1
  V  V8  1  0.00650756  0.36950424  0.37562503  1
  V  V9  1  0.12383504  0.87442750  0.75283061  1
  V  V10  1  0.74665292  0.12701910  0.87445514  1
  V  V11  1  -0.00735037  0.87334065  0.88365831  1
  V  V12  1  0.49917817  0.75358506  0.74942833  1
  V  V13  1  0.87696307  0.62663321  0.25276484  1
  V  V14  1  0.00784401  0.75742951  0.26394310  1
  V  V15  1  0.00002872  0.37217768  0.87589356  1
  V  V16  1  0.37698837  0.62306181  0.75064454  1
  V  V17  1  0.12564391  0.74913732  0.87462800  1
  V  V18  1  0.62543334  0.50627194  0.61692069  1
  V  V19  1  0.62797472  0.74695783  0.87485900  1
  V  V20  1  0.37210409  0.12639646  0.74869178  1
  V  V21  1  0.87741815  0.49983986  0.37560326  1
  V  V22  1  0.74374655  0.38066918  0.12408717  1
  V  V23  1  0.75306287  0.87431190  0.12156686  1
  V  V24  1  -0.00031647  0.24864955  0.25270997  1
  V  V25  1  0.37778324  0.75273368  0.12499077  1
  V  V26  1  0.75407023  0.74726872  -0.00387184  1
  V  V27  1  0.62470136  0.37365239  0.75069590  1
  V  V28  1  0.00067489  0.49991572  0.00080155  1
  V  V29  1  -0.00407288  0.74814963  0.74500293  1
  V  V30  1  0.50600883  0.61578057  0.12619026  1
  V  V31  1  0.24748282  0.24349452  0.48654812  1
  V  V32  1  0.48931779  0.38299885  0.87331769  1
  V  V33  1  0.49905942  0.00837618  0.49414831  1
  V  V34  1  0.75253001  0.86600127  0.62791108  1
  V  V35  1  0.87293222  0.00230833  0.88179027  1
  V  V36  1  0.12835888  0.36919617  0.24508558  1
  V  V37  1  0.62391648  0.74694458  0.38801069  1
  V  V38  1  0.57316540  0.17470847  0.05467904  1
  V  V39  1  0.50892184  0.12632231  0.62306284  1
  V  V40  1  0.25133842  0.87255144  0.62397276  1
  V  V41  1  0.12369884  -0.00178979  0.12846632  1
  V  V42  1  0.11641841  0.00177319  0.62790939  1
  V  V43  1  0.86904604  -0.00196674  0.37967534  1
  V  V44  1  0.25106630  0.75148260  -0.00096532  1
  V  V45  1  0.62542570  -0.00097917  0.12023533  1
  V  V46  1  0.37651234  0.37564569  0.49876167  1
  V  V47  1  0.24165831  0.63839754  0.37504991  1
  V  V48  1  0.75674897  0.24281522  0.00726567  1
  V  V49  1  0.25899349  0.01272007  0.26175214  1
  V  V50  1  0.24884097  0.00367562  0.75438999  1
  V  V51  1  0.37362923  0.00599936  0.87643637  1
  V  V52  1  0.04118444  -0.05413300  0.44443713  1
  V  V53  1  0.24956993  0.87876587  0.12956398  1
  V  V54  1  0.87190797  0.12808899  0.25336523  1
  V  V55  1  0.25433147  0.61591372  0.87720246  1
  V  V56  1  0.62263115  0.38127412  0.24962836  1
  V  V57  1  0.87238116  0.37176409  0.49886752  1
  V  V58  1  0.75352906  0.00594575  0.74777787  1
  V  V59  1  0.39391026  0.13368964  0.25277126  1
  V  V60  1  0.13231914  0.24517092  0.87226962  1
  V  V61  1  0.12581459  0.62422545  0.00091138  1
  V  V62  1  0.62892277  0.61850075  0.00109887  1
  V  V63  1  0.87418404  0.62505732  0.74393194  1
  V  V64  1  0.11918444  0.12972727  0.49143054  1
  V  V65  1  0.01157424  0.49682137  0.50751060  1
  V  V66  1  0.37520011  0.87822177  -0.00078566  1
  V  V67  1  0.50480780  0.75163624  0.24976119  1
  V  V68  1  0.87294206  0.86956216  0.50003944  1
  V  V69  1  0.50265804  0.00181450  0.00278181  1
  V  V70  1  0.12287918  0.37733674  0.74640534  1
  V  V71  1  0.87111224  0.50354111  0.87610610  1
  V  V72  1  0.24749684  0.49554056  0.24905034  1
  V  V73  1  0.74861920  0.50306873  0.75312412  1
  V  V74  1  0.25334351  0.49743040  0.74640323  1
  V  V75  1  0.62826810  0.24129212  0.37321882  1
  V  V76  1  0.49369793  0.87706916  0.37669794  1
  V  V77  1  0.74840879  0.23210579  0.49575748  1
  V  V78  1  0.74878222  0.00225839  0.25467128  1
  V  V79  1  0.00272265  0.62588127  0.12664572  1
  V  V80  1  0.37487165  0.62467667  0.25319226  1
  V  V81  1  0.24981398  0.25648934  0.01054801  1
  V  V82  1  -0.00478913  0.12976186  0.12289495  1
  V  V83  1  0.24455698  0.37668794  0.61994777  1
  V  V84  1  0.74684336  0.62401723  0.38216694  1
  Zn  Zn85  1  0.62231439  0.24825481  0.87678581  1
  Zn  Zn86  1  -0.00422629  0.11991512  0.62771990  1
  Zn  Zn87  1  0.48987588  0.50993838  -0.01447007  1
  Zn  Zn88  1  0.38244111  0.24816454  0.12684400  1
  Zn  Zn89  1  0.00468162  0.61865928  0.62787064  1
  Zn  Zn90  1  0.50179753  0.24908655  0.75100453  1
  Zn  Zn91  1  0.50224717  0.87704913  0.87415129  1
  Zn  Zn92  1  0.74804218  0.37281579  0.62307798  1
  Zn  Zn93  1  0.36365642  0.39084115  0.00573380  1
  Zn  Zn94  1  0.37335000  0.87787870  0.49785987  1
  Zn  Zn95  1  -0.00403053  0.24378340  0.75333491  1
  Zn  Zn96  1  0.62846676  0.00205624  0.62076063  1
  Zn  Zn97  1  0.62614304  0.87532489  0.25211331  1
  Zn  Zn98  1  0.13039399  0.49518387  0.12276246  1
  Zn  Zn99  1  0.50680290  0.63092699  0.61614388  1
  Zn  Zn100  1  0.37464632  0.50043024  0.37721130  1
  Zn  Zn101  1  0.50410134  0.50391593  0.49649068  1
  Zn  Zn102  1  0.74758443  0.50399407  0.24500621  1
  Zn  Zn103  1  0.75211679  0.74329722  0.50642621  1
  Zn  Zn104  1  0.62551468  0.87739201  0.75063486  1
  Zn  Zn105  1  0.12578479  0.87675240  0.27028400  1
  Zn  Zn106  1  -0.00459774  -0.00457158  0.00435167  1
  Zn  Zn107  1  0.18446326  0.18670118  0.18756800  1
  Zn  Zn108  1  0.18642156  0.18771478  0.68247351  1
  Zn  Zn109  1  0.18618874  0.68991598  0.18965418  1
  Zn  Zn110  1  0.18761264  0.68653092  0.68692359  1
  Zn  Zn111  1  0.69354983  0.19503503  0.19434791  1
  Zn  Zn112  1  0.69168532  0.18853556  0.68871802  1
  Zn  Zn113  1  0.68862445  0.68662157  0.18905462  1
  Zn  Zn114  1  0.68936577  0.68561031  0.69146940  1
  Zn  Zn115  1  0.31464269  0.30728757  0.31004928  1
  Zn  Zn116  1  0.31030024  0.30939731  0.81417603  1
  Zn  Zn117  1  0.31324043  0.81457021  0.31022670  1
  Zn  Zn118  1  0.31399272  0.81349645  0.81129266  1
  Zn  Zn119  1  0.81207108  0.31138731  0.31140231  1
  Zn  Zn120  1  0.80811098  0.31589231  0.81709416  1
  Zn  Zn121  1  0.81278441  0.81301894  0.31353836  1
  Zn  Zn122  1  0.81344952  0.81295831  0.81306580  1
  Zn  Zn123  1  0.18908681  0.43937257  0.43170426  1
  Zn  Zn124  1  0.18726315  0.43606786  0.93519849  1
  Zn  Zn125  1  0.20457883  0.94586888  0.44312604  1
  Zn  Zn126  1  0.18630521  0.93933229  0.93740078  1
  Zn  Zn127  1  0.69106732  0.43445329  0.43354018  1
  Zn  Zn128  1  0.68578506  0.43476581  0.93615775  1
  Zn  Zn129  1  0.68168617  0.93672068  0.43982544  1
  Zn  Zn130  1  0.68887144  0.93385242  0.93763139  1
  Zn  Zn131  1  0.31361284  0.06896613  0.06798863  1
  Zn  Zn132  1  0.31301287  0.06225425  0.56120181  1
  Zn  Zn133  1  0.31554430  0.56223519  0.06718619  1
  Zn  Zn134  1  0.31116294  0.56219657  0.56238383  1
  Zn  Zn135  1  0.81406688  0.06207090  0.06384516  1
  Zn  Zn136  1  0.81380004  0.05813671  0.56181007  1
  Zn  Zn137  1  0.81334319  0.56437792  0.06325428  1
  Zn  Zn138  1  0.81484089  0.55739160  0.56407938  1
  Zn  Zn139  1  0.43233766  0.43619050  0.19130742  1
  Zn  Zn140  1  0.43875267  0.43800632  0.68588274  1
  Zn  Zn141  1  0.43821444  0.94324436  0.18883336  1
  Zn  Zn142  1  0.43929980  0.93953384  0.68447698  1
  Zn  Zn143  1  0.93862314  0.43794235  0.18666559  1
  Zn  Zn144  1  0.93603192  0.43228958  0.68566545  1
  Zn  Zn145  1  0.93717336  0.93697483  0.19158884  1
  Zn  Zn146  1  0.93229051  0.93501484  0.69303282  1
  Zn  Zn147  1  0.06612425  0.06557586  0.30668123  1
  Zn  Zn148  1  0.05541216  0.06452962  0.81203974  1
  Zn  Zn149  1  0.06377257  0.56009589  0.31547157  1
  Zn  Zn150  1  0.06416741  0.55920275  0.81279199  1
  Zn  Zn151  1  0.56332085  0.06082857  0.31252308  1
  Zn  Zn152  1  0.56529082  0.06303397  0.81219080  1
  Zn  Zn153  1  0.56276018  0.55966666  0.31663653  1
  Zn  Zn154  1  0.56465070  0.56594384  0.80925840  1
  Zn  Zn155  1  0.43688839  0.18758392  0.43103711  1
  Zn  Zn156  1  0.43189821  0.19450113  0.92994992  1
  Zn  Zn157  1  0.43765755  0.68554219  0.43801848  1
  Zn  Zn158  1  0.43878960  0.68693379  0.93607890  1
  Zn  Zn159  1  0.93756191  0.18367900  0.43740004  1
  Zn  Zn160  1  0.93770362  0.18430591  0.93476964  1
  Zn  Zn161  1  0.93990408  0.68590763  0.44189092  1
  Zn  Zn162  1  0.93615440  0.68613855  0.93481800  1
  Zn  Zn163  1  0.06226352  0.30906360  0.06394118  1
  Zn  Zn164  1  0.06113268  0.30813352  0.56275721  1
  Zn  Zn165  1  0.06396548  0.81189383  0.06551014  1
  Zn  Zn166  1  0.06572444  0.80769548  0.56809382  1
  Zn  Zn167  1  0.53063279  0.34928843  0.08362076  1
  Zn  Zn168  1  0.56429975  0.31261907  0.56023932  1
  Zn  Zn169  1  0.56509248  0.81277803  0.06146689  1
  Zn  Zn170  1  0.56247645  0.81832542  0.56416095  1
  O  O171  1  0.11724764  0.11384815  0.12041460  1
  O  O172  1  0.12531759  0.11414975  0.61599383  1
  O  O173  1  0.11952705  0.62570035  0.11832109  1
  O  O174  1  0.12751401  0.62326469  0.61063233  1
  O  O175  1  0.63162786  0.11987351  0.12200388  1
  O  O176  1  0.61210618  0.12666917  0.63008038  1
  O  O177  1  0.61722014  0.63197806  0.11633594  1
  O  O178  1  0.62756660  0.61045262  0.62861792  1
  O  O179  1  0.38352824  0.37267106  0.38125473  1
  O  O180  1  0.38680582  0.37014667  0.87797666  1
  O  O181  1  0.38895344  0.86843215  0.37660380  1
  O  O182  1  0.37536108  0.88809899  0.88079332  1
  O  O183  1  0.88443041  0.37856967  0.38028779  1
  O  O184  1  0.88027992  0.38305330  0.88421444  1
  O  O185  1  0.87090813  0.88592165  0.38280472  1
  O  O186  1  0.88364582  0.88238148  0.87343093  1
  O  O187  1  0.25788836  -0.00156113  0.36023060  1
  O  O188  1  0.25646713  -0.00261901  0.86290556  1
  O  O189  1  0.25293132  0.51059372  0.36360475  1
  O  O190  1  0.24745328  0.51072556  0.86744898  1
  O  O191  1  0.75193009  -0.00602263  0.36306270  1
  O  O192  1  0.75456295  0.00547996  0.87269550  1
  O  O193  1  0.75894751  0.50713171  0.37154982  1
  O  O194  1  0.75983358  0.49439982  0.86724940  1
  O  O195  1  0.24779514  0.50826573  0.14298938  1
  O  O196  1  0.25134708  0.48570228  0.63077642  1
  O  O197  1  0.24429156  0.99144693  0.12920382  1
  O  O198  1  0.24234534  0.99402079  0.63658323  1
  O  O199  1  0.75400676  0.48650592  0.12401386  1
  O  O200  1  0.74162798  0.49605095  0.63222149  1
  O  O201  1  0.74569485  0.99198687  0.12960383  1
  O  O202  1  0.74913596  0.99401669  0.63278134  1
  O  O203  1  0.00179648  0.36719952  0.25602870  1
  O  O204  1  0.00805144  0.37098228  0.75548757  1
  O  O205  1  0.00292259  0.86164799  0.24932115  1
  O  O206  1  0.00356337  0.86615555  0.75929282  1
  O  O207  1  0.50864965  0.37685665  0.25921104  1
  O  O208  1  0.50536866  0.37360516  0.75733514  1
  O  O209  1  0.50089833  0.86866664  0.25551713  1
  O  O210  1  0.50197214  0.86618223  0.75144600  1
  O  O211  1  0.49307396  0.12060175  0.24601735  1
  O  O212  1  0.48967844  0.12394052  0.74230125  1
  O  O213  1  0.49394348  0.63060156  0.24721669  1
  O  O214  1  0.49147525  0.63337416  0.74465802  1
  O  O215  1  0.99585650  0.13131412  0.24390969  1
  O  O216  1  1.00471583  0.13197664  0.74113760  1
  O  O217  1  0.99710072  0.63360243  0.24650639  1
  O  O218  1  0.99587534  0.62938376  0.75032143  1
  O  O219  1  0.35588122  0.24536991  0.00030649  1
  O  O220  1  0.36782688  0.25802202  0.50276864  1
  O  O221  1  0.37020565  0.75593120  0.00470675  1
  O  O222  1  0.37726064  0.75296412  0.51419470  1
  O  O223  1  0.86904532  0.25933971  -0.00449373  1
  O  O224  1  0.86791531  0.25450072  0.50333955  1
  O  O225  1  0.86789673  0.74276820  0.00962453  1
  O  O226  1  0.87366336  0.76438822  0.49425871  1
  O  O227  1  0.13148429  0.23718163  0.50385110  1
  O  O228  1  0.13201932  0.24403113  0.99470236  1
  O  O229  1  0.12129164  0.73407879  0.49943982  1
  O  O230  1  0.13239618  0.74507994  0.99525897  1
  O  O231  1  0.63825915  0.25821609  0.48853941  1
  O  O232  1  0.63196006  0.24144180  1.00149665  1
  O  O233  1  0.62666302  0.75150785  0.49097393  1
  O  O234  1  0.63230841  0.74381777  0.99401773  1
  O  O235  1  0.51543161  0.23467473  0.11062606  1
  O  O236  1  0.49306508  0.24352720  0.62430254  1
  O  O237  1  0.49649838  0.74595229  0.13270796  1
  O  O238  1  0.49391490  0.75084363  0.63352590  1
  O  O239  1  1.00159701  0.23659739  0.13182866  1
  O  O240  1  0.98198893  0.25253188  0.62534726  1
  O  O241  1  0.99399429  0.74484004  0.13051516  1
  O  O242  1  1.00236528  0.74544199  0.64133153  1
  O  O243  1  -0.00402085  0.25806663  0.36732731  1
  O  O244  1  0.01045201  0.25602561  0.87582034  1
  O  O245  1  -0.00246441  0.74726319  0.36181690  1
  O  O246  1  0.00549479  0.75509499  0.86901542  1
  O  O247  1  0.51530507  0.26231849  0.38544587  1
  O  O248  1  0.50362775  0.26276339  0.87175600  1
  O  O249  1  0.50587723  0.75395822  0.36849740  1
  O  O250  1  0.50544842  0.75260880  0.86565776  1
  O  O251  1  0.23834571  0.13201238  0.50616787  1
  O  O252  1  0.23585754  0.13329090  1.00556503  1
  O  O253  1  0.23963862  0.62062735  0.48838913  1
  O  O254  1  0.24726205  0.63152031  0.99328260  1
  O  O255  1  0.75161453  0.13273677  0.49867536  1
  O  O256  1  0.75679806  0.13600133  0.99584806  1
  O  O257  1  0.76114696  0.62585048  0.48720647  1
  O  O258  1  0.74319256  0.63762252  1.00742957  1
  O  O259  1  0.24786620  0.36203965  -0.00092290  1
  O  O260  1  0.25216923  0.36880024  0.50443297  1
  O  O261  1  0.25480154  0.87179753  0.00756377  1
  O  O262  1  0.25499744  0.87939294  0.51789048  1
  O  O263  1  0.75503160  0.36745600  0.00425564  1
  O  O264  1  0.76411870  0.37100970  0.49864874  1
  O  O265  1  0.74700917  0.86358559  0.01348103  1
  O  O266  1  0.75499368  0.87370288  0.51113757  1
  O  O267  1  0.13055677  0.49065740  0.24961681  1
  O  O268  1  0.13588115  0.48618273  0.75450328  1
  O  O269  1  0.13533792  0.99672376  0.24362010  1
  O  O270  1  0.13229202  0.99596995  0.74720813  1
  O  O271  1  0.62999589  0.48705201  0.25573382  1
  O  O272  1  0.63312657  0.49667395  0.74336559  1
  O  O273  1  0.63217933  0.99982712  0.23875929  1
  O  O274  1  0.63874295  0.99687602  0.75018887  1
  O  O275  1  0.36431779  0.01225392  0.24300127  1
  O  O276  1  0.36930825  0.00510378  0.75620469  1
  O  O277  1  0.36794709  0.50880439  0.25240543  1
  O  O278  1  0.36279933  0.50737999  0.74413696  1
  O  O279  1  0.86719697  0.00305737  0.25834486  1
  O  O280  1  0.86116600  -0.00531009  0.76273916  1
  O  O281  1  0.87831974  0.51369093  0.25434177  1
  O  O282  1  0.86914416  0.50066652  0.75624952  1
  O  O283  1  0.11221542  0.37844912  0.36499372  1
  O  O284  1  0.11965309  0.36717512  0.86775681  1
  O  O285  1  0.11499266  0.89324244  0.38880084  1
  O  O286  1  0.11933462  0.87005195  0.86947679  1
  O  O287  1  0.61944793  0.37074275  0.36956846  1
  O  O288  1  0.62022149  0.37453571  0.86155873  1
  O  O289  1  0.61471442  0.86503508  0.37212617  1
  O  O290  1  0.62328243  0.86195630  0.87411083  1
  O  O291  1  0.36922513  0.13220088  0.14171335  1
  O  O292  1  0.38249650  0.13009431  0.63088461  1
  O  O293  1  0.38029942  0.63453286  0.13757496  1
  O  O294  1  0.36849252  0.63293668  0.63651309  1
  O  O295  1  0.88548703  0.11575805  0.13833165  1
  O  O296  1  0.87485357  0.13915364  0.61941102  1
  O  O297  1  0.88060047  0.63425594  0.13354802  1
  O  O298  1  0.88036905  0.61757104  0.63950240  1
  O  O299  1  0.24439782  0.25216926  0.11255134  1
  O  O300  1  0.25620113  0.26009735  0.61805062  1
  O  O301  1  0.25465633  0.76196634  0.12292640  1
  O  O302  1  0.25922626  0.76060327  0.63588171  1
  O  O303  1  0.74901627  0.26256356  0.11536648  1
  O  O304  1  0.75846966  0.25146480  0.61508644  1
  O  O305  1  0.75850652  0.75604045  0.12185576  1
  O  O306  1  0.74930775  0.76124260  0.62618124  1
  O  O307  1  0.24882294  0.25378782  0.38785825  1
  O  O308  1  0.23752335  0.25152411  0.88522568  1
  O  O309  1  0.25013582  0.73767065  0.36963504  1
  O  O310  1  0.24561747  0.74143376  0.87772934  1
  O  O311  1  0.73974638  0.25370343  0.38261374  1
  O  O312  1  0.74790900  0.24441973  0.88585895  1
  O  O313  1  0.74072505  0.74326466  0.37552557  1
  O  O314  1  0.74384366  0.75380222  0.88571559  1
  O  O315  1  0.00852310  0.12318330  0.00833983  1
  O  O316  1  0.01343395  0.12900249  0.50726949  1
  O  O317  1  0.00580022  0.62067331  0.00480392  1
  O  O318  1  0.01227991  0.61653120  0.50147099  1
  O  O319  1  0.50510856  0.12157314  -0.00539524  1
  O  O320  1  0.49440245  0.11637128  0.50587329  1
  O  O321  1  0.50817516  0.62763861  0.00895768  1
  O  O322  1  0.49132956  0.61605425  0.50517615  1
  O  O323  1  0.49077494  0.37898581  0.49558407  1
  O  O324  1  0.51191305  0.38804316  0.97775708  1
  O  O325  1  0.49699644  0.88359288  0.49333082  1
  O  O326  1  0.49285096  0.88395649  0.99919593  1
  O  O327  1  0.99616596  0.37784913  0.49293314  1
  O  O328  1  0.99319408  0.37856633  0.99773826  1
  O  O329  1  0.99308412  0.87585579  0.50715904  1
  O  O330  1  1.00603332  0.87409509  0.98758903  1
  O  O331  1  0.49627975  0.48763238  0.37756445  1
  O  O332  1  0.50002475  0.48832592  0.86460115  1
  O  O333  1  0.50390453  0.99276962  0.38463793  1
  O  O334  1  0.49471968  0.99957108  0.88545009  1
  O  O335  1  0.99459097  0.49225727  0.38303447  1
  O  O336  1  0.99529348  0.49148563  0.88135963  1
  O  O337  1  0.98959104  1.00135180  0.37196242  1
  O  O338  1  0.99107769  0.99092925  0.87626273  1
  O  O339  1  0.00761000  0.00515089  0.12637180  1
  O  O340  1  0.01256905  -0.00484579  0.63392378  1
  O  O341  1  0.00097168  0.50939267  0.11850136  1
  O  O342  1  -0.00182280  0.49673491  0.61184528  1
  O  O343  1  0.50811272  -0.00177171  0.11227060  1
  O  O344  1  0.50351388  0.00890833  0.61731673  1
  O  O345  1  0.49786804  0.51470626  0.12659707  1
  O  O346  1  0.51654214  0.50081483  0.62660478  1
  O  O347  1  0.24048086  0.38113211  0.25679623  1
  O  O348  1  0.24637009  0.38036893  0.74373789  1
  O  O349  1  0.24787514  0.88401668  0.24413938  1
  O  O350  1  0.24426612  0.88286222  0.74490049  1
  O  O351  1  0.74645999  0.37707462  0.24016963  1
  O  O352  1  0.74263418  0.38520030  0.74839844  1
  O  O353  1  0.74941474  0.88116661  0.23887357  1
  O  O354  1  0.75101355  0.87962405  0.73989376  1
  O  O355  1  0.24572972  0.11345786  0.25008617  1
  O  O356  1  0.26206973  0.11763427  0.74232067  1
  O  O357  1  0.25429022  0.62286643  0.25887653  1
  O  O358  1  0.25313554  0.61629156  0.75633825  1
  O  O359  1  0.76000766  0.11496233  0.24373375  1
  O  O360  1  0.75109510  0.11790145  0.75841732  1
  O  O361  1  0.76083850  0.62555728  0.25796129  1
  O  O362  1  0.75842162  0.61265173  0.74984285  1
  O  O363  1  0.37673908  0.12959913  0.35482791  1
  O  O364  1  0.37740590  0.11404542  0.86569753  1
  O  O365  1  0.36500894  0.62650738  0.36523628  1
  O  O366  1  0.36702811  0.63171903  0.86086148  1
  O  O367  1  0.87852154  0.11415741  0.36307626  1
  O  O368  1  0.86373136  0.11577727  0.87742856  1
  O  O369  1  0.87208361  0.62160943  0.36864670  1
  O  O370  1  0.88240691  0.60909080  0.86563724  1
  O  O371  1  0.11653578  0.37691037  0.14038076  1
  O  O372  1  0.13236788  0.36780467  0.63326248  1
  O  O373  1  0.13176563  0.88591285  0.12471767  1
  O  O374  1  0.13175385  0.88025191  0.63279389  1
  O  O375  1  0.62999761  0.37317223  0.13607183  1
  O  O376  1  0.62564957  0.38326722  0.63548630  1
  O  O377  1  0.63329553  0.88234649  0.12801257  1
  O  O378  1  0.63915576  0.87811597  0.62773101  1
  O  O379  1  0.11166702  0.25449541  0.24859129  1
  O  O380  1  0.12971809  0.25968442  0.75697922  1
  O  O381  1  0.11297953  0.75608173  0.24971238  1
  O  O382  1  0.11834736  0.75299886  0.75694698  1
  O  O383  1  0.63302731  0.26282517  0.26560754  1
  O  O384  1  0.62484186  0.26033331  0.75039858  1
  O  O385  1  0.61384328  0.74974937  0.25559508  1
  O  O386  1  0.61760180  0.74908987  0.75719077  1
  O  O387  1  0.37857301  0.24089642  0.24467445  1
  O  O388  1  0.37476250  0.24125579  0.74456221  1
  O  O389  1  0.38589011  0.74467717  0.24641186  1
  O  O390  1  0.38294589  0.74426281  0.74502557  1
  O  O391  1  0.88506167  0.24037040  0.25364068  1
  O  O392  1  0.86995004  0.25845832  0.73526819  1
  O  O393  1  0.88383291  0.74272387  0.24488649  1
  O  O394  1  0.88323736  0.73676993  0.76057039  1
  O  O395  1  0.36940880  0.48471613  0.49866896  1
  O  O396  1  0.37598831  0.50350148  0.99678288  1
  O  O397  1  0.39118397  0.99638289  0.50650062  1
  O  O398  1  0.38032123  1.00132508  0.99449437  1
  O  O399  1  0.88361118  0.48965020  0.49541860  1
  O  O400  1  0.87948924  0.49579355  0.99305198  1
  O  O401  1  0.87395796  0.99131091  0.48893565  1
  O  O402  1  0.87599638  0.99936715  0.98851323  1
  O  O403  1  0.12293641  0.00659220  0.00769784  1
  O  O404  1  0.11796227  0.00323407  0.50687321  1
  O  O405  1  0.12024518  0.50495207  0.00160563  1
  O  O406  1  0.11705409  0.50773513  0.49222862  1
  O  O407  1  0.61990258  -0.00313164  0.01065738  1
  O  O408  1  0.60700365  -0.00192868  0.50297526  1
  O  O409  1  0.62514217  0.51635393  -0.00813399  1
  O  O410  1  0.62925945  0.49223206  0.51476030  1
  O  O411  1  0.41165721  0.36066251  0.10958818  1
  O  O412  1  0.36915517  0.36903108  0.61791242  1
  O  O413  1  0.36796945  0.87302849  0.12074149  1
  O  O414  1  0.36744536  0.86688404  0.62965390  1
  O  O415  1  0.86973560  0.37897682  0.11226417  1
  O  O416  1  0.87184427  0.36529963  0.61425300  1
  O  O417  1  0.87026982  0.86311687  0.12864121  1
  O  O418  1  0.86172096  0.88127781  0.61723728  1
  O  O419  1  0.12211896  0.11656639  0.39233944  1
  O  O420  1  0.12036759  0.13176719  0.88469633  1
  O  O421  1  0.13617817  0.62408224  0.38145699  1
  O  O422  1  0.13331524  0.62876439  0.88059687  1
  O  O423  1  0.62174318  0.14227811  0.36948912  1
  O  O424  1  0.63986368  0.12692120  0.87367065  1
  O  O425  1  0.63572571  0.63251502  0.36967153  1
  O  O426  1  0.62000279  0.63850391  0.88309726  1
