# generated using pymatgen
data_V85Zn86O256
_symmetry_space_group_name_H-M   'P 1'
_cell_length_a   16.93696681
_cell_length_b   16.94937944
_cell_length_c   16.93458786
_cell_angle_alpha   89.98217917
_cell_angle_beta   89.95191930
_cell_angle_gamma   90.03079161
_symmetry_Int_Tables_number   1
_chemical_formula_structural   V85Zn86O256
_chemical_formula_sum   'V85 Zn86 O256'
_cell_volume   4861.42772822
_cell_formula_units_Z   1
loop_
 _symmetry_equiv_pos_site_id
 _symmetry_equiv_pos_as_xyz
  1  'x, y, z'
loop_
 _atom_site_type_symbol
 _atom_site_label
 _atom_site_symmetry_multiplicity
 _atom_site_fract_x
 _atom_site_fract_y
 _atom_site_fract_z
 _atom_site_occupancy
  V  V0  1  0.87495315  0.12446810  0.25186004  1
  V  V1  1  0.12269335  0.36017322  0.75111118  1
  V  V2  1  0.87343943  0.37624103  -0.00061298  1
  V  V3  1  -0.05669699  0.68351640  0.58192341  1
  V  V4  1  0.49712529  0.51068695  0.49719594  1
  V  V5  1  0.62660819  0.87915106  0.74931661  1
  V  V6  1  0.25639362  0.62651982  0.86385892  1
  V  V7  1  -0.00067006  0.37417011  0.37652668  1
  V  V8  1  0.12157008  -0.00219706  0.12140997  1
  V  V9  1  0.25921131  0.00076379  0.75731955  1
  V  V10  1  0.25504739  0.12574043  0.37227648  1
  V  V11  1  0.62313973  0.50840563  0.62658760  1
  V  V12  1  0.87406255  -0.00135410  0.37576971  1
  V  V13  1  0.37452960  0.87523387  0.00908055  1
  V  V14  1  0.13542253  0.49547983  0.12450500  1
  V  V15  1  -0.04945771  0.03953170  -0.04813407  1
  V  V16  1  0.00286194  0.87590452  0.37396181  1
  V  V17  1  0.74685670  0.24523949  -0.01043340  1
  V  V18  1  0.62651670  0.12157282  -0.00481246  1
  V  V19  1  0.12553992  0.12571519  0.50125581  1
  V  V20  1  0.51027451  0.75980066  0.24108841  1
  V  V21  1  0.49642435  0.36553304  0.87679366  1
  V  V22  1  0.62202947  0.74963178  0.87293620  1
  V  V23  1  0.74704619  0.25006655  0.50748818  1
  V  V24  1  0.49405943  0.24244822  0.24953239  1
  V  V25  1  0.87722411  0.24831158  0.63641925  1
  V  V26  1  0.75002680  0.62205516  0.87355441  1
  V  V27  1  0.12521578  0.62694019  0.50333427  1
  V  V28  1  0.37540768  0.37996575  0.49212814  1
  V  V29  1  0.74760031  0.75256326  0.00077154  1
  V  V30  1  0.62033702  0.24706020  0.38282561  1
  V  V31  1  0.62093727  0.49874267  0.12553971  1
  V  V32  1  0.25332959  0.26523741  -0.00373115  1
  V  V33  1  0.24927560  0.25167129  0.50049141  1
  V  V34  1  0.37440039  0.64185848  0.24976968  1
  V  V35  1  0.87015622  0.24751393  0.12543326  1
  V  V36  1  0.38556170  0.12783278  0.75140002  1
  V  V37  1  0.00075371  0.49809536  -0.00020736  1
  V  V38  1  0.38462334  0.25311285  0.62977439  1
  V  V39  1  0.12906243  0.37509249  0.24701945  1
  V  V40  1  0.12740343  0.62382917  -0.00181746  1
  V  V41  1  0.25720289  0.87920107  0.62604506  1
  V  V42  1  0.37646589  0.00060162  0.37333628  1
  V  V43  1  0.62057979  0.62123228  -0.00059621  1
  V  V44  1  0.62425689  0.36890216  0.25140923  1
  V  V45  1  0.87478583  0.74477477  0.12869193  1
  V  V46  1  0.63073535  0.00727327  0.61911372  1
  V  V47  1  -0.00017536  0.11975431  0.12625314  1
  V  V48  1  0.49356775  0.00276343  -0.00350687  1
  V  V49  1  0.74781975  0.36988419  0.12463646  1
  V  V50  1  0.75654275  0.86376708  0.62163700  1
  V  V51  1  0.00032049  0.25037577  0.24942556  1
  V  V52  1  -0.00233809  0.50038933  0.50321948  1
  V  V53  1  -0.00115365  0.61963795  0.13193334  1
  V  V54  1  0.26243183  0.49639101  0.25537342  1
  V  V55  1  0.48892216  0.87690559  0.87189448  1
  V  V56  1  0.00415961  0.36561850  0.86926134  1
  V  V57  1  0.13244067  0.12804587  -0.00220861  1
  V  V58  1  0.50989240  0.87728465  0.37466126  1
  V  V59  1  0.25697247  0.74732985  0.00703752  1
  V  V60  1  -0.00245192  0.00201137  0.50356869  1
  V  V61  1  0.25276598  0.00348564  0.24567178  1
  V  V62  1  0.12384080  0.75406989  0.87572596  1
  V  V63  1  0.88985402  0.86607550  -0.01122414  1
  V  V64  1  0.00186001  0.74719846  0.24888896  1
  V  V65  1  0.86965843  0.37242455  0.50371909  1
  V  V66  1  -0.00315679  0.12669051  0.64264738  1
  V  V67  1  0.12744615  0.00223301  0.62749221  1
  V  V68  1  0.25126159  0.37613913  0.62746917  1
  V  V69  1  0.87903446  0.62386440  0.74787806  1
  V  V70  1  0.87488597  0.49877919  0.87391699  1
  V  V71  1  0.76352443  0.00852876  0.76611670  1
  V  V72  1  0.11983743  0.50230643  0.63031189  1
  V  V73  1  0.25407484  0.12793132  0.87570574  1
  V  V74  1  0.12387459  0.87590692  0.75415790  1
  V  V75  1  -0.00527507  0.75441340  0.75436121  1
  V  V76  1  0.37938469  0.73747628  0.62751107  1
  V  V77  1  0.25269265  0.75186850  0.49779543  1
  V  V78  1  0.49750945  0.73980715  0.74575518  1
  V  V79  1  0.62367134  0.36569326  0.74266130  1
  V  V80  1  0.75231286  0.50835525  0.25153035  1
  V  V81  1  0.36633752  0.25838719  0.12771661  1
  V  V82  1  0.74874774  0.12557843  0.38280662  1
  V  V83  1  0.37955045  0.50184379  0.87311304  1
  V  V84  1  0.74962364  0.63167625  0.38475766  1
  Zn  Zn85  1  0.38037448  0.87652248  0.49943965  1
  Zn  Zn86  1  0.75047735  0.49578672  0.74229404  1
  Zn  Zn87  1  0.49291178  0.12448838  0.12384827  1
  Zn  Zn88  1  0.63069030  0.75790175  0.37770772  1
  Zn  Zn89  1  0.49654507  0.37939286  0.37393825  1
  Zn  Zn90  1  0.49027121  0.49217360  0.00344494  1
  Zn  Zn91  1  0.12423061  0.24783114  0.37488495  1
  Zn  Zn92  1  0.25687342  0.50406209  0.74663707  1
  Zn  Zn93  1  0.50986793  0.13180071  0.62254218  1
  Zn  Zn94  1  0.25682529  0.61782627  0.37959816  1
  Zn  Zn95  1  0.62168296  0.63855966  0.50617689  1
  Zn  Zn96  1  0.25131139  0.87043827  0.12877019  1
  Zn  Zn97  1  0.12885241  0.74853182  0.37271770  1
  Zn  Zn98  1  0.12605369  0.87450385  0.24749256  1
  Zn  Zn99  1  0.50479605  0.00730807  0.49927867  1
  Zn  Zn100  1  0.73600999  -0.01228868  0.25441835  1
  Zn  Zn101  1  0.74636604  0.87427748  0.13272718  1
  Zn  Zn102  1  0.87434936  0.49875461  0.37055243  1
  Zn  Zn103  1  0.49304722  0.62708062  0.12333009  1
  Zn  Zn104  1  0.62202667  0.24382186  0.86706446  1
  Zn  Zn105  1  0.87617763  0.86022865  0.50556078  1
  Zn  Zn106  1  0.62156034  -0.00960895  0.12835379  1
  Zn  Zn107  1  0.18983057  0.18766140  0.18488888  1
  Zn  Zn108  1  0.19261684  0.18631850  0.68669428  1
  Zn  Zn109  1  0.18736321  0.68218962  0.18836539  1
  Zn  Zn110  1  0.18526970  0.69087359  0.68424137  1
  Zn  Zn111  1  0.67019567  0.15483285  0.20038640  1
  Zn  Zn112  1  0.69689744  0.18420463  0.69310848  1
  Zn  Zn113  1  0.68351644  0.68818142  0.18604961  1
  Zn  Zn114  1  0.68757718  0.68675575  0.68875468  1
  Zn  Zn115  1  0.31000957  0.31159010  0.31180666  1
  Zn  Zn116  1  0.31364983  0.31438113  0.81317413  1
  Zn  Zn117  1  0.31465089  0.81884711  0.31363065  1
  Zn  Zn118  1  0.31272782  0.80944692  0.81276057  1
  Zn  Zn119  1  0.80972985  0.31116625  0.31490052  1
  Zn  Zn120  1  0.80806884  0.31771574  0.81046062  1
  Zn  Zn121  1  0.81967272  0.80940441  0.31281351  1
  Zn  Zn122  1  0.81016893  0.81335246  0.80960114  1
  Zn  Zn123  1  0.18502231  0.43843976  0.43750921  1
  Zn  Zn124  1  0.18759141  0.44189520  0.93013320  1
  Zn  Zn125  1  0.18811817  0.93881376  0.43775892  1
  Zn  Zn126  1  0.18978436  0.93898378  0.93916387  1
  Zn  Zn127  1  0.68336952  0.43779900  0.43931650  1
  Zn  Zn128  1  0.68318029  0.43349991  0.93313309  1
  Zn  Zn129  1  0.69159647  0.93347580  0.44194024  1
  Zn  Zn130  1  0.68409184  0.93406837  0.94164346  1
  Zn  Zn131  1  0.31773745  0.06605139  0.06465484  1
  Zn  Zn132  1  0.31907236  0.06581704  0.56159289  1
  Zn  Zn133  1  0.31526176  0.56121580  0.06168166  1
  Zn  Zn134  1  0.31199476  0.56140500  0.56220264  1
  Zn  Zn135  1  0.80369222  0.06051362  0.06486506  1
  Zn  Zn136  1  0.81151420  0.06199321  0.56844725  1
  Zn  Zn137  1  0.80952321  0.56304955  0.06380909  1
  Zn  Zn138  1  0.80444956  0.55236974  0.56010880  1
  Zn  Zn139  1  0.43808825  0.43013892  0.18482682  1
  Zn  Zn140  1  0.44213795  0.44193511  0.68981113  1
  Zn  Zn141  1  0.43687278  0.94057645  0.18661260  1
  Zn  Zn142  1  0.44144957  0.93942305  0.68669435  1
  Zn  Zn143  1  0.93745422  0.43535885  0.18671479  1
  Zn  Zn144  1  0.93735791  0.43473987  0.68671082  1
  Zn  Zn145  1  0.92949620  0.93302472  0.18627224  1
  Zn  Zn146  1  0.93586854  0.93646630  0.69194586  1
  Zn  Zn147  1  0.06617644  0.06174744  0.31148091  1
  Zn  Zn148  1  0.07143148  0.06346831  0.81587326  1
  Zn  Zn149  1  0.06780447  0.55972567  0.31524466  1
  Zn  Zn150  1  0.06101400  0.56414915  0.81130868  1
  Zn  Zn151  1  0.56134265  0.06586512  0.31660361  1
  Zn  Zn152  1  0.56562374  0.05918697  0.81420513  1
  Zn  Zn153  1  0.56054761  0.56629448  0.31433959  1
  Zn  Zn154  1  0.56003875  0.55813511  0.81179503  1
  Zn  Zn155  1  0.43773638  0.18716900  0.44268861  1
  Zn  Zn156  1  0.43154909  0.18933484  0.93989967  1
  Zn  Zn157  1  0.43840467  0.69124052  0.43109670  1
  Zn  Zn158  1  0.43664731  0.68701994  0.93566367  1
  Zn  Zn159  1  0.93720646  0.18737908  0.44186770  1
  Zn  Zn160  1  0.93679701  0.20030447  0.93590638  1
  Zn  Zn161  1  0.93362983  0.68182155  0.41572457  1
  Zn  Zn162  1  0.93992287  0.68515705  0.93753186  1
  Zn  Zn163  1  0.06397710  0.31032659  0.06145906  1
  Zn  Zn164  1  0.06006868  0.31140359  0.56593557  1
  Zn  Zn165  1  0.06690544  0.80923100  0.06391698  1
  Zn  Zn166  1  0.06952507  0.82007181  0.56227856  1
  Zn  Zn167  1  0.55994244  0.30775747  0.06067852  1
  Zn  Zn168  1  0.56091634  0.31869828  0.56179522  1
  Zn  Zn169  1  0.56222919  0.81541453  0.06215608  1
  Zn  Zn170  1  0.56429339  0.81744738  0.55971662  1
  O  O171  1  0.11903811  0.11933515  0.11895236  1
  O  O172  1  0.11920315  0.12058551  0.62062629  1
  O  O173  1  0.11837562  0.61457647  0.11932747  1
  O  O174  1  0.13006392  0.61719566  0.61374340  1
  O  O175  1  0.61212372  0.13176096  0.10382275  1
  O  O176  1  0.62796684  0.11074777  0.63433214  1
  O  O177  1  0.62201417  0.61546934  0.11742622  1
  O  O178  1  0.62568616  0.61366476  0.62428697  1
  O  O179  1  0.37214821  0.37211090  0.38927357  1
  O  O180  1  0.38919587  0.38175126  0.86961818  1
  O  O181  1  0.38565831  0.88486482  0.37638074  1
  O  O182  1  0.38524806  0.87013780  0.87992595  1
  O  O183  1  0.88550482  0.37414449  0.38104369  1
  O  O184  1  0.88172558  0.38097725  0.87865009  1
  O  O185  1  0.88783126  0.88008441  0.38363336  1
  O  O186  1  0.87477256  0.86464350  0.89003183  1
  O  O187  1  0.25397702  0.00612128  0.36806316  1
  O  O188  1  0.24745937  0.00916530  0.86534281  1
  O  O189  1  0.24224146  0.50211622  0.36239574  1
  O  O190  1  0.25676268  0.51075192  0.87078373  1
  O  O191  1  0.75786237  0.00717352  0.37629535  1
  O  O192  1  0.74730002  -0.01149066  0.86398529  1
  O  O193  1  0.74744154  0.50275868  0.36342961  1
  O  O194  1  0.75761748  0.50610788  0.87545363  1
  O  O195  1  0.23919037  0.50332465  0.13186164  1
  O  O196  1  0.24325145  0.48994328  0.62486399  1
  O  O197  1  0.24524369  1.00159042  0.13246343  1
  O  O198  1  0.24779234  0.99519891  0.63086078  1
  O  O199  1  0.74055898  0.49398822  0.13405206  1
  O  O200  1  0.72940392  0.49520443  0.62328808  1
  O  O201  1  0.74643423  0.99545731  0.13255522  1
  O  O202  1  0.74260819  0.99398026  0.63502945  1
  O  O203  1  0.00689634  0.37198962  0.25759753  1
  O  O204  1  0.01003294  0.38045630  0.75775214  1
  O  O205  1  0.00083002  0.86682559  0.25776143  1
  O  O206  1  0.00882535  0.86473994  0.74576598  1
  O  O207  1  0.51140133  0.36870049  0.25380928  1
  O  O208  1  0.51333613  0.37979915  0.76126869  1
  O  O209  1  0.49403963  0.86387207  0.25342478  1
  O  O210  1  0.50653158  0.87089970  0.75649384  1
  O  O211  1  0.49658845  0.14024161  0.25114125  1
  O  O212  1  0.48812180  0.11877977  0.74753197  1
  O  O213  1  0.49061612  0.63840327  0.25020203  1
  O  O214  1  0.50660148  0.64105116  0.75229940  1
  O  O215  1  0.99538950  0.13147216  0.24722998  1
  O  O216  1  1.00550150  0.11932822  0.74159534  1
  O  O217  1  1.00707209  0.62782669  0.23969167  1
  O  O218  1  0.98700484  0.63142358  0.74881982  1
  O  O219  1  0.35963037  0.25392061  0.00632350  1
  O  O220  1  0.36713018  0.26042097  0.50921649  1
  O  O221  1  0.36632740  0.75744862  -0.00456836  1
  O  O222  1  0.36994674  0.75255450  0.50960427  1
  O  O223  1  0.86676586  0.25695228  0.00591813  1
  O  O224  1  0.86837969  0.25599513  0.50600742  1
  O  O225  1  0.86860106  0.75129544  0.00422483  1
  O  O226  1  0.89402417  0.74170302  0.50899445  1
  O  O227  1  0.13091036  0.24469448  0.50028094  1
  O  O228  1  0.13859323  0.23734329  1.01027434  1
  O  O229  1  0.13477830  0.74379677  0.50280631  1
  O  O230  1  0.13165115  0.74369238  0.99145924  1
  O  O231  1  0.63441695  0.25866982  0.49551664  1
  O  O232  1  0.63274100  0.24494523  0.99425045  1
  O  O233  1  0.61850309  0.74994047  0.49110177  1
  O  O234  1  0.63051203  0.74132277  0.99491044  1
  O  O235  1  0.49094121  0.25139797  0.13394352  1
  O  O236  1  0.48793194  0.25309604  0.62425850  1
  O  O237  1  0.50188132  0.74775900  0.13780927  1
  O  O238  1  0.48544653  0.75910000  0.63012291  1
  O  O239  1  0.99189324  0.24193792  0.12881970  1
  O  O240  1  0.98716035  0.24036426  0.62198019  1
  O  O241  1  0.99794508  0.73916666  0.13016964  1
  O  O242  1  1.00760420  0.74896243  0.63384280  1
  O  O243  1  0.00152648  0.25653982  0.36941940  1
  O  O244  1  0.00251354  0.26537946  0.87533924  1
  O  O245  1  0.00357085  0.75685332  0.36606972  1
  O  O246  1  0.01175084  0.74237471  0.86570025  1
  O  O247  1  0.50525675  0.25336928  0.37093635  1
  O  O248  1  0.49740695  0.26231318  0.87543818  1
  O  O249  1  0.49944749  0.76239924  0.36285252  1
  O  O250  1  0.50406475  0.75623557  0.86671843  1
  O  O251  1  0.24463445  0.13102930  0.49505923  1
  O  O252  1  0.24762527  0.13140497  0.99276954  1
  O  O253  1  0.24410873  0.63307846  0.49899419  1
  O  O254  1  0.24560082  0.63121305  0.99270048  1
  O  O255  1  0.75749213  0.13358497  0.49044063  1
  O  O256  1  0.74136261  0.13379478  1.00178849  1
  O  O257  1  0.74626715  0.62035481  0.48726122  1
  O  O258  1  0.74066162  0.63252617  0.99602897  1
  O  O259  1  0.23942159  0.36292573  -0.00409383  1
  O  O260  1  0.25434320  0.37353424  0.50750756  1
  O  O261  1  0.25904829  0.86599600  -0.00127278  1
  O  O262  1  0.25023948  0.86851531  0.50906220  1
  O  O263  1  0.75288322  0.36853328  0.00509460  1
  O  O264  1  0.76193553  0.36680845  0.49363219  1
  O  O265  1  0.75734651  0.85917054  -0.00023551  1
  O  O266  1  0.75679069  0.87568379  0.51538204  1
  O  O267  1  0.13128046  0.49348800  0.24242282  1
  O  O268  1  0.12603101  0.50043431  0.73730345  1
  O  O269  1  0.13143636  0.99911754  0.23774062  1
  O  O270  1  0.13660300  0.99534636  0.74526658  1
  O  O271  1  0.63038945  0.49137111  0.24406892  1
  O  O272  1  0.62365187  0.49632074  0.73790267  1
  O  O273  1  0.63435188  1.04054212  0.23632352  1
  O  O274  1  0.63097138  0.98859359  0.74582748  1
  O  O275  1  0.36628656  -0.00060156  0.26053745  1
  O  O276  1  0.36515083  0.00922785  0.74226279  1
  O  O277  1  0.36415340  0.49431372  0.24755424  1
  O  O278  1  0.37391073  0.49900992  0.76297945  1
  O  O279  1  0.88334381  0.00777119  0.26587855  1
  O  O280  1  0.86317812  -0.00402158  0.75357650  1
  O  O281  1  0.85541349  0.48897133  0.24843464  1
  O  O282  1  0.87282675  0.50600236  0.75365227  1
  O  O283  1  0.11271273  0.37344635  0.36910862  1
  O  O284  1  0.11629814  0.38333631  0.86170495  1
  O  O285  1  0.11304827  0.87449439  0.37483581  1
  O  O286  1  0.13397087  0.86148612  0.87064739  1
  O  O287  1  0.62608259  0.36254824  0.36783823  1
  O  O288  1  0.61402849  0.37249239  0.86345744  1
  O  O289  1  0.61478142  0.88281841  0.37244804  1
  O  O290  1  0.61621285  0.86680340  0.86840241  1
  O  O291  1  0.37824267  0.14651537  0.11820209  1
  O  O292  1  0.37165483  0.13744184  0.63480353  1
  O  O293  1  0.37696729  0.61600348  0.14424974  1
  O  O294  1  0.37039944  0.63920939  0.62531402  1
  O  O295  1  0.88022097  0.12827469  0.12972729  1
  O  O296  1  0.88419841  0.13692228  0.62180776  1
  O  O297  1  0.88514289  0.63354208  0.11870486  1
  O  O298  1  0.87227266  0.61985805  0.62977870  1
  O  O299  1  0.25822889  0.25084258  0.11615226  1
  O  O300  1  0.25480572  0.26231258  0.61984800  1
  O  O301  1  0.24200214  0.74932409  0.11089926  1
  O  O302  1  0.25963087  0.75833094  0.61889975  1
  O  O303  1  0.75662374  0.25501878  0.11783024  1
  O  O304  1  0.76134254  0.24256418  0.61481591  1
  O  O305  1  0.75933023  0.74342315  0.11782757  1
  O  O306  1  0.74859440  0.76506067  0.63109094  1
  O  O307  1  0.24657180  0.24204703  0.38040286  1
  O  O308  1  0.25298953  0.24591579  0.88824710  1
  O  O309  1  0.25034224  0.75266442  0.38816547  1
  O  O310  1  0.24470139  0.74247338  0.88152991  1
  O  O311  1  0.74448719  0.24458947  0.38689307  1
  O  O312  1  0.75087083  0.25337901  0.88683632  1
  O  O313  1  0.75300120  0.73492145  0.36970777  1
  O  O314  1  0.74256579  0.74243644  0.88062220  1
  O  O315  1  0.00741900  0.11919067  0.00367217  1
  O  O316  1  0.00617611  0.11430695  0.50454793  1
  O  O317  1  0.00730202  0.61821615  0.00923793  1
  O  O318  1  0.00244215  0.62416964  0.50556712  1
  O  O319  1  0.50051500  0.11511604  -0.00494332  1
  O  O320  1  0.49307592  0.11964121  0.51009826  1
  O  O321  1  0.51101532  0.62374666  0.00147667  1
  O  O322  1  0.49837245  0.61378031  0.49528430  1
  O  O323  1  0.48971115  0.38411962  0.49757132  1
  O  O324  1  0.50966919  0.37718455  0.98173368  1
  O  O325  1  0.49844467  0.88614913  0.48953661  1
  O  O326  1  0.49075270  0.87755961  0.99180024  1
  O  O327  1  0.99342337  0.37709765  0.49247620  1
  O  O328  1  0.99549916  0.37987235  0.99365493  1
  O  O329  1  0.99970226  0.88689274  0.49700718  1
  O  O330  1  0.98900528  0.85959420  0.99681861  1
  O  O331  1  0.50816679  0.49644016  0.39160075  1
  O  O332  1  0.49401465  0.49288716  0.87829748  1
  O  O333  1  0.49209062  0.99653145  0.37269745  1
  O  O334  1  0.50367342  0.98789599  0.88454544  1
  O  O335  1  0.99749242  0.49205532  0.38142776  1
  O  O336  1  0.99322224  0.49648388  0.88169347  1
  O  O337  1  0.99680216  0.99450235  0.38264637  1
  O  O338  1  1.01194251  0.99394916  0.88806933  1
  O  O339  1  0.00816545  0.00610673  0.13104821  1
  O  O340  1  0.00393314  0.00553207  0.62028038  1
  O  O341  1  0.00552587  0.50480023  0.12122570  1
  O  O342  1  0.00872607  0.49485003  0.61679899  1
  O  O343  1  0.49877291  0.00223739  0.11161739  1
  O  O344  1  0.52015371  -0.00238745  0.62648602  1
  O  O345  1  0.51077364  0.49925129  0.12335493  1
  O  O346  1  0.51081209  0.49717286  0.61263225  1
  O  O347  1  0.23611589  0.38077966  0.25516242  1
  O  O348  1  0.24157636  0.37851167  0.74289638  1
  O  O349  1  0.24669034  0.88763824  0.24935461  1
  O  O350  1  0.24814140  0.88252640  0.74551509  1
  O  O351  1  0.73814847  0.37769464  0.24644251  1
  O  O352  1  0.72941372  0.38102987  0.75678986  1
  O  O353  1  0.77127751  0.88084240  0.24593047  1
  O  O354  1  0.74282083  0.87904911  0.74211273  1
  O  O355  1  0.24252378  0.11427048  0.25903422  1
  O  O356  1  0.25506559  0.11865035  0.75716217  1
  O  O357  1  0.26083894  0.61905949  0.25273703  1
  O  O358  1  0.24436751  0.62759000  0.76072149  1
  O  O359  1  0.76353866  0.13388371  0.26832147  1
  O  O360  1  0.75015750  0.10853679  0.75761124  1
  O  O361  1  0.74402155  0.61038284  0.25154028  1
  O  O362  1  0.76180261  0.62357503  0.75487006  1
  O  O363  1  0.36097561  0.12104605  0.37811190  1
  O  O364  1  0.36339657  0.13040993  0.86616359  1
  O  O365  1  0.37389946  0.62682345  0.35651442  1
  O  O366  1  0.36619127  0.61978973  0.87451703  1
  O  O367  1  0.87146844  0.11767271  0.37334072  1
  O  O368  1  0.89249589  0.10095148  0.89972089  1
  O  O369  1  0.85660855  0.61460061  0.37035453  1
  O  O370  1  0.87150606  0.61825208  0.86809278  1
  O  O371  1  0.11607789  0.38436696  0.13521043  1
  O  O372  1  0.13082179  0.38187358  0.63016225  1
  O  O373  1  0.12871018  0.88407546  0.12402828  1
  O  O374  1  0.13907923  0.88122786  0.63314332  1
  O  O375  1  0.62824243  0.37911990  0.13115460  1
  O  O376  1  0.61812805  0.38342721  0.63833122  1
  O  O377  1  0.63179655  0.87590295  0.12123682  1
  O  O378  1  0.63507860  0.88308960  0.63231376  1
  O  O379  1  0.11931469  0.25842864  0.24896581  1
  O  O380  1  0.12695021  0.26109192  0.74327313  1
  O  O381  1  0.11630346  0.75135577  0.25045890  1
  O  O382  1  0.11850715  0.75422727  0.75671163  1
  O  O383  1  0.61756226  0.25298698  0.25764847  1
  O  O384  1  0.62817045  0.26085593  0.74743911  1
  O  O385  1  0.61247593  0.74771849  0.25527530  1
  O  O386  1  0.61819023  0.76077674  0.75124052  1
  O  O387  1  0.37928582  0.25793987  0.23897887  1
  O  O388  1  0.36695965  0.24129742  0.74058685  1
  O  O389  1  0.37836720  0.74473849  0.24759481  1
  O  O390  1  0.38115459  0.75502638  0.73585635  1
  O  O391  1  0.88103138  0.24649462  0.24536026  1
  O  O392  1  0.86858769  0.25566716  0.73529724  1
  O  O393  1  0.89178561  0.74568403  0.24213295  1
  O  O394  1  0.88604762  0.74275645  0.75374073  1
  O  O395  1  0.38740089  0.49457668  0.50683731  1
  O  O396  1  0.37468675  0.50372258  0.98354690  1
  O  O397  1  0.37027065  0.99779712  0.48452912  1
  O  O398  1  0.38094416  0.99017225  0.99933843  1
  O  O399  1  0.87962618  0.48844628  0.49920932  1
  O  O400  1  0.87873674  0.49434129  0.99653318  1
  O  O401  1  0.88316790  1.00217783  0.49096185  1
  O  O402  1  0.88279228  0.98104078  1.00958280  1
  O  O403  1  0.13490685  0.01200036  0.01276764  1
  O  O404  1  0.11884956  0.00426658  0.50833253  1
  O  O405  1  0.12172187  0.50321444  0.00689884  1
  O  O406  1  0.11912966  0.50701578  0.50900481  1
  O  O407  1  0.61562406  0.00658817  0.00024165  1
  O  O408  1  0.63151485  0.00059009  0.51640061  1
  O  O409  1  0.62741829  0.50683559  0.00879888  1
  O  O410  1  0.61444608  0.50023569  0.51029035  1
  O  O411  1  0.37914960  0.35913169  0.11786786  1
  O  O412  1  0.36761312  0.37173797  0.62226314  1
  O  O413  1  0.37198048  0.87571655  0.11291293  1
  O  O414  1  0.36538985  0.87391569  0.62345324  1
  O  O415  1  0.86959514  0.36847495  0.11864302  1
  O  O416  1  0.88086934  0.36114570  0.61542257  1
  O  O417  1  0.87854841  0.85557763  0.11421810  1
  O  O418  1  0.86194205  0.87744767  0.62457304  1
  O  O419  1  0.13494388  0.12384542  0.38343223  1
  O  O420  1  0.13909615  0.12490872  0.88572840  1
  O  O421  1  0.12563124  0.62739098  0.39084319  1
  O  O422  1  0.13183196  0.63220471  0.87934482  1
  O  O423  1  0.63387352  0.13918185  0.37732530  1
  O  O424  1  0.61798419  0.12894463  0.88734718  1
  O  O425  1  0.64047770  0.62448973  0.37421496  1
  O  O426  1  0.62927145  0.62756729  0.88112471  1
