# generated using pymatgen
data_Ca3Mn3O8
_symmetry_space_group_name_H-M   'P 1'
_cell_length_a   15.99600000
_cell_length_b   22.26000000
_cell_length_c   16.36500000
_cell_angle_alpha   90.00000000
_cell_angle_beta   90.00000000
_cell_angle_gamma   90.00000000
_symmetry_Int_Tables_number   1
_chemical_formula_structural   Ca3Mn3O8
_chemical_formula_sum   'Ca108 Mn108 O288'
_cell_volume   5827.10126040
_cell_formula_units_Z   36
loop_
 _symmetry_equiv_pos_site_id
 _symmetry_equiv_pos_as_xyz
  1  'x, y, z'
loop_
 _atom_type_symbol
 _atom_type_oxidation_number
  Ca2+  2.0
  Mn3.34+  3.34
  O2-  -2.0
loop_
 _atom_site_type_symbol
 _atom_site_label
 _atom_site_symmetry_multiplicity
 _atom_site_fract_x
 _atom_site_fract_y
 _atom_site_fract_z
 _atom_site_occupancy
  Ca2+  Ca1  1  0.08333333  0.25000000  0.25000000  1.0
  Ca2+  Ca1  1  0.08333333  0.25000000  0.58333333  1.0
  Ca2+  Ca1  1  0.08333333  0.25000000  0.91666667  1.0
  Ca2+  Ca1  1  0.08333333  0.75000000  0.25000000  1.0
  Ca2+  Ca1  1  0.08333333  0.75000000  0.58333333  1.0
  Ca2+  Ca1  1  0.08333333  0.75000000  0.91666667  1.0
  Ca2+  Ca1  1  0.41666667  0.25000000  0.25000000  1.0
  Ca2+  Ca1  1  0.41666667  0.25000000  0.58333333  1.0
  Ca2+  Ca1  1  0.41666667  0.25000000  0.91666667  1.0
  Ca2+  Ca1  1  0.41666667  0.75000000  0.25000000  1.0
  Ca2+  Ca1  1  0.41666667  0.75000000  0.58333333  1.0
  Ca2+  Ca1  1  0.41666667  0.75000000  0.91666667  1.0
  Ca2+  Ca1  1  0.75000000  0.25000000  0.25000000  1.0
  Ca2+  Ca1  1  0.75000000  0.25000000  0.58333333  1.0
  Ca2+  Ca1  1  0.75000000  0.25000000  0.91666667  1.0
  Ca2+  Ca1  1  0.75000000  0.75000000  0.25000000  1.0
  Ca2+  Ca1  1  0.75000000  0.75000000  0.58333333  1.0
  Ca2+  Ca1  1  0.75000000  0.75000000  0.91666667  1.0
  Ca2+  Ca1  1  0.25000000  0.25000000  0.08333333  1.0
  Ca2+  Ca1  1  0.25000000  0.25000000  0.41666667  1.0
  Ca2+  Ca1  1  0.25000000  0.25000000  0.75000000  1.0
  Ca2+  Ca1  1  0.25000000  0.75000000  0.08333333  1.0
  Ca2+  Ca1  1  0.25000000  0.75000000  0.41666667  1.0
  Ca2+  Ca1  1  0.25000000  0.75000000  0.75000000  1.0
  Ca2+  Ca1  1  0.58333333  0.25000000  0.08333333  1.0
  Ca2+  Ca1  1  0.58333333  0.25000000  0.41666667  1.0
  Ca2+  Ca1  1  0.58333333  0.25000000  0.75000000  1.0
  Ca2+  Ca1  1  0.58333333  0.75000000  0.08333333  1.0
  Ca2+  Ca1  1  0.58333333  0.75000000  0.41666667  1.0
  Ca2+  Ca1  1  0.58333333  0.75000000  0.75000000  1.0
  Ca2+  Ca1  1  0.91666667  0.25000000  0.08333333  1.0
  Ca2+  Ca1  1  0.91666667  0.25000000  0.41666667  1.0
  Ca2+  Ca1  1  0.91666667  0.25000000  0.75000000  1.0
  Ca2+  Ca1  1  0.91666667  0.75000000  0.08333333  1.0
  Ca2+  Ca1  1  0.91666667  0.75000000  0.41666667  1.0
  Ca2+  Ca1  1  0.91666667  0.75000000  0.75000000  1.0
  Ca2+  Ca2  1  0.92000000  0.59150000  0.76666667  1.0
  Ca2+  Ca2  1  0.42000000  0.59150000  0.90000000  1.0
  Ca2+  Ca2  1  0.08000000  0.59150000  0.56666667  1.0
  Ca2+  Ca2  1  0.91333333  0.59150000  0.76666667  1.0
  Ca2+  Ca2  1  0.08666667  0.59150000  0.23333333  1.0
  Ca2+  Ca2  1  0.08000000  0.09150000  0.56666667  1.0
  Ca2+  Ca2  1  0.58666667  0.59150000  0.10000000  1.0
  Ca2+  Ca2  1  0.91333333  0.59150000  0.10000000  1.0
  Ca2+  Ca2  1  0.25333333  0.09150000  0.10000000  1.0
  Ca2+  Ca2  1  0.25333333  0.59150000  0.10000000  1.0
  Ca2+  Ca2  1  0.74666667  0.59150000  0.23333333  1.0
  Ca2+  Ca2  1  0.08000000  0.09150000  0.90000000  1.0
  Ca2+  Ca2  1  0.92000000  0.59150000  0.43333333  1.0
  Ca2+  Ca2  1  0.08666667  0.59150000  0.90000000  1.0
  Ca2+  Ca2  1  0.08666667  0.09150000  0.56666667  1.0
  Ca2+  Ca2  1  0.24666667  0.59150000  0.10000000  1.0
  Ca2+  Ca2  1  0.74666667  0.59150000  0.56666667  1.0
  Ca2+  Ca2  1  0.58000000  0.59150000  0.10000000  1.0
  Ca2+  Ca2  1  0.25333333  0.59150000  0.76666667  1.0
  Ca2+  Ca2  1  0.92000000  0.09150000  0.10000000  1.0
  Ca2+  Ca2  1  0.42000000  0.09150000  0.90000000  1.0
  Ca2+  Ca2  1  0.75333333  0.09150000  0.90000000  1.0
  Ca2+  Ca2  1  0.24666667  0.09150000  0.10000000  1.0
  Ca2+  Ca2  1  0.24666667  0.09150000  0.76666667  1.0
  Ca2+  Ca2  1  0.74666667  0.59150000  0.90000000  1.0
  Ca2+  Ca2  1  0.42000000  0.59150000  0.56666667  1.0
  Ca2+  Ca2  1  0.41333333  0.09150000  0.23333333  1.0
  Ca2+  Ca2  1  0.74666667  0.09150000  0.23333333  1.0
  Ca2+  Ca2  1  0.91333333  0.09150000  0.10000000  1.0
  Ca2+  Ca2  1  0.41333333  0.59150000  0.90000000  1.0
  Ca2+  Ca2  1  0.58666667  0.59150000  0.76666667  1.0
  Ca2+  Ca2  1  0.58000000  0.59150000  0.43333333  1.0
  Ca2+  Ca2  1  0.24666667  0.59150000  0.76666667  1.0
  Ca2+  Ca2  1  0.92000000  0.09150000  0.76666667  1.0
  Ca2+  Ca2  1  0.92000000  0.09150000  0.43333333  1.0
  Ca2+  Ca2  1  0.08000000  0.59150000  0.23333333  1.0
  Ca2+  Ca3  1  0.58000000  0.41700000  0.76666667  1.0
  Ca2+  Ca3  1  0.08000000  0.41700000  0.90000000  1.0
  Ca2+  Ca3  1  0.74666667  0.41700000  0.23333333  1.0
  Ca2+  Ca3  1  0.74666667  0.91700000  0.90000000  1.0
  Ca2+  Ca3  1  0.74666667  0.41700000  0.90000000  1.0
  Ca2+  Ca3  1  0.91333333  0.41700000  0.10000000  1.0
  Ca2+  Ca3  1  0.08000000  0.91700000  0.23333333  1.0
  Ca2+  Ca3  1  0.75333333  0.91700000  0.23333333  1.0
  Ca2+  Ca3  1  0.58666667  0.41700000  0.76666667  1.0
  Ca2+  Ca3  1  0.25333333  0.41700000  0.10000000  1.0
  Ca2+  Ca3  1  0.08666667  0.91700000  0.56666667  1.0
  Ca2+  Ca3  1  0.75333333  0.41700000  0.56666667  1.0
  Ca2+  Ca3  1  0.24666667  0.41700000  0.76666667  1.0
  Ca2+  Ca3  1  0.92000000  0.41700000  0.76666667  1.0
  Ca2+  Ca3  1  0.58000000  0.41700000  0.43333333  1.0
  Ca2+  Ca3  1  0.58666667  0.91700000  0.76666667  1.0
  Ca2+  Ca3  1  0.25333333  0.91700000  0.76666667  1.0
  Ca2+  Ca3  1  0.91333333  0.41700000  0.43333333  1.0
  Ca2+  Ca3  1  0.58000000  0.91700000  0.10000000  1.0
  Ca2+  Ca3  1  0.42000000  0.91700000  0.56666667  1.0
  Ca2+  Ca3  1  0.08000000  0.41700000  0.23333333  1.0
  Ca2+  Ca3  1  0.24666667  0.41700000  0.43333333  1.0
  Ca2+  Ca3  1  0.08000000  0.91700000  0.90000000  1.0
  Ca2+  Ca3  1  0.41333333  0.41700000  0.56666667  1.0
  Ca2+  Ca3  1  0.24666667  0.91700000  0.76666667  1.0
  Ca2+  Ca3  1  0.41333333  0.91700000  0.56666667  1.0
  Ca2+  Ca3  1  0.24666667  0.91700000  0.43333333  1.0
  Ca2+  Ca3  1  0.08666667  0.91700000  0.23333333  1.0
  Ca2+  Ca3  1  0.75333333  0.41700000  0.90000000  1.0
  Ca2+  Ca3  1  0.42000000  0.91700000  0.23333333  1.0
  Ca2+  Ca3  1  0.41333333  0.91700000  0.90000000  1.0
  Ca2+  Ca3  1  0.58000000  0.41700000  0.10000000  1.0
  Ca2+  Ca3  1  0.92000000  0.91700000  0.43333333  1.0
  Ca2+  Ca3  1  0.58000000  0.91700000  0.76666667  1.0
  Ca2+  Ca3  1  0.91333333  0.91700000  0.76666667  1.0
  Ca2+  Ca3  1  0.08000000  0.91700000  0.56666667  1.0
  Mn3.34+  Mn2  1  0.08333333  0.33250000  0.08500000  1.0
  Mn3.34+  Mn2  1  0.08333333  0.33250000  0.41833333  1.0
  Mn3.34+  Mn2  1  0.08333333  0.33250000  0.75166667  1.0
  Mn3.34+  Mn2  1  0.08333333  0.83250000  0.08500000  1.0
  Mn3.34+  Mn2  1  0.08333333  0.83250000  0.41833333  1.0
  Mn3.34+  Mn2  1  0.08333333  0.83250000  0.75166667  1.0
  Mn3.34+  Mn2  1  0.41666667  0.33250000  0.08500000  1.0
  Mn3.34+  Mn2  1  0.41666667  0.33250000  0.41833333  1.0
  Mn3.34+  Mn2  1  0.41666667  0.33250000  0.75166667  1.0
  Mn3.34+  Mn2  1  0.41666667  0.83250000  0.08500000  1.0
  Mn3.34+  Mn2  1  0.41666667  0.83250000  0.41833333  1.0
  Mn3.34+  Mn2  1  0.41666667  0.83250000  0.75166667  1.0
  Mn3.34+  Mn2  1  0.75000000  0.33250000  0.08500000  1.0
  Mn3.34+  Mn2  1  0.75000000  0.33250000  0.41833333  1.0
  Mn3.34+  Mn2  1  0.75000000  0.33250000  0.75166667  1.0
  Mn3.34+  Mn2  1  0.75000000  0.83250000  0.08500000  1.0
  Mn3.34+  Mn2  1  0.75000000  0.83250000  0.41833333  1.0
  Mn3.34+  Mn2  1  0.75000000  0.83250000  0.75166667  1.0
  Mn3.34+  Mn2  1  0.25000000  0.33250000  0.24833333  1.0
  Mn3.34+  Mn2  1  0.25000000  0.33250000  0.58166667  1.0
  Mn3.34+  Mn2  1  0.25000000  0.33250000  0.91500000  1.0
  Mn3.34+  Mn2  1  0.25000000  0.83250000  0.24833333  1.0
  Mn3.34+  Mn2  1  0.25000000  0.83250000  0.58166667  1.0
  Mn3.34+  Mn2  1  0.25000000  0.83250000  0.91500000  1.0
  Mn3.34+  Mn2  1  0.58333333  0.33250000  0.24833333  1.0
  Mn3.34+  Mn2  1  0.58333333  0.33250000  0.58166667  1.0
  Mn3.34+  Mn2  1  0.58333333  0.33250000  0.91500000  1.0
  Mn3.34+  Mn2  1  0.58333333  0.83250000  0.24833333  1.0
  Mn3.34+  Mn2  1  0.58333333  0.83250000  0.58166667  1.0
  Mn3.34+  Mn2  1  0.58333333  0.83250000  0.91500000  1.0
  Mn3.34+  Mn2  1  0.91666667  0.33250000  0.24833333  1.0
  Mn3.34+  Mn2  1  0.91666667  0.33250000  0.58166667  1.0
  Mn3.34+  Mn2  1  0.91666667  0.33250000  0.91500000  1.0
  Mn3.34+  Mn2  1  0.91666667  0.83250000  0.24833333  1.0
  Mn3.34+  Mn2  1  0.91666667  0.83250000  0.58166667  1.0
  Mn3.34+  Mn2  1  0.91666667  0.83250000  0.91500000  1.0
  Mn3.34+  Mn1  1  0.42333333  0.16600000  0.75300000  1.0
  Mn3.34+  Mn1  1  0.57666667  0.16600000  0.91366667  1.0
  Mn3.34+  Mn1  1  0.57666667  0.16600000  0.24700000  1.0
  Mn3.34+  Mn1  1  0.74333333  0.16600000  0.75300000  1.0
  Mn3.34+  Mn1  1  0.24333333  0.16600000  0.58033333  1.0
  Mn3.34+  Mn1  1  0.24333333  0.16600000  0.91366667  1.0
  Mn3.34+  Mn1  1  0.59000000  0.16600000  0.24700000  1.0
  Mn3.34+  Mn1  1  0.41000000  0.16600000  0.08633333  1.0
  Mn3.34+  Mn1  1  0.59000000  0.66600000  0.91366667  1.0
  Mn3.34+  Mn1  1  0.57666667  0.66600000  0.24700000  1.0
  Mn3.34+  Mn1  1  0.74333333  0.66600000  0.75300000  1.0
  Mn3.34+  Mn1  1  0.92333333  0.66600000  0.58033333  1.0
  Mn3.34+  Mn1  1  0.92333333  0.66600000  0.24700000  1.0
  Mn3.34+  Mn1  1  0.42333333  0.16600000  0.08633333  1.0
  Mn3.34+  Mn1  1  0.24333333  0.66600000  0.24700000  1.0
  Mn3.34+  Mn1  1  0.91000000  0.66600000  0.91366667  1.0
  Mn3.34+  Mn1  1  0.09000000  0.16600000  0.08633333  1.0
  Mn3.34+  Mn1  1  0.25666667  0.16600000  0.24700000  1.0
  Mn3.34+  Mn1  1  0.74333333  0.66600000  0.08633333  1.0
  Mn3.34+  Mn1  1  0.91000000  0.16600000  0.58033333  1.0
  Mn3.34+  Mn1  1  0.59000000  0.16600000  0.91366667  1.0
  Mn3.34+  Mn1  1  0.25666667  0.66600000  0.58033333  1.0
  Mn3.34+  Mn1  1  0.91000000  0.16600000  0.91366667  1.0
  Mn3.34+  Mn1  1  0.24333333  0.16600000  0.24700000  1.0
  Mn3.34+  Mn1  1  0.09000000  0.16600000  0.41966667  1.0
  Mn3.34+  Mn1  1  0.57666667  0.66600000  0.91366667  1.0
  Mn3.34+  Mn1  1  0.74333333  0.16600000  0.41966667  1.0
  Mn3.34+  Mn1  1  0.09000000  0.66600000  0.08633333  1.0
  Mn3.34+  Mn1  1  0.41000000  0.66600000  0.75300000  1.0
  Mn3.34+  Mn1  1  0.25666667  0.16600000  0.58033333  1.0
  Mn3.34+  Mn1  1  0.42333333  0.66600000  0.08633333  1.0
  Mn3.34+  Mn1  1  0.59000000  0.66600000  0.24700000  1.0
  Mn3.34+  Mn1  1  0.75666667  0.66600000  0.41966667  1.0
  Mn3.34+  Mn1  1  0.75666667  0.16600000  0.75300000  1.0
  Mn3.34+  Mn1  1  0.57666667  0.16600000  0.58033333  1.0
  Mn3.34+  Mn1  1  0.74333333  0.66600000  0.41966667  1.0
  Mn3.34+  Mn3  1  0.74400000  0.00000000  0.74566667  1.0
  Mn3.34+  Mn3  1  0.74400000  0.00000000  0.07900000  1.0
  Mn3.34+  Mn3  1  0.08933333  0.50000000  0.41233333  1.0
  Mn3.34+  Mn3  1  0.58933333  0.50000000  0.58766667  1.0
  Mn3.34+  Mn3  1  0.41066667  0.50000000  0.41233333  1.0
  Mn3.34+  Mn3  1  0.24400000  0.00000000  0.58766667  1.0
  Mn3.34+  Mn3  1  0.74400000  0.50000000  0.74566667  1.0
  Mn3.34+  Mn3  1  0.07733333  0.50000000  0.07900000  1.0
  Mn3.34+  Mn3  1  0.75600000  0.50000000  0.07900000  1.0
  Mn3.34+  Mn3  1  0.57733333  0.50000000  0.25433333  1.0
  Mn3.34+  Mn3  1  0.42266667  0.00000000  0.41233333  1.0
  Mn3.34+  Mn3  1  0.25600000  0.00000000  0.58766667  1.0
  Mn3.34+  Mn3  1  0.58933333  0.50000000  0.25433333  1.0
  Mn3.34+  Mn3  1  0.75600000  0.50000000  0.41233333  1.0
  Mn3.34+  Mn3  1  0.91066667  0.00000000  0.25433333  1.0
  Mn3.34+  Mn3  1  0.08933333  0.00000000  0.07900000  1.0
  Mn3.34+  Mn3  1  0.91066667  0.00000000  0.92100000  1.0
  Mn3.34+  Mn3  1  0.74400000  0.50000000  0.07900000  1.0
  Mn3.34+  Mn3  1  0.74400000  0.00000000  0.41233333  1.0
  Mn3.34+  Mn3  1  0.41066667  0.00000000  0.41233333  1.0
  Mn3.34+  Mn3  1  0.25600000  0.50000000  0.58766667  1.0
  Mn3.34+  Mn3  1  0.41066667  0.50000000  0.74566667  1.0
  Mn3.34+  Mn3  1  0.41066667  0.50000000  0.07900000  1.0
  Mn3.34+  Mn3  1  0.08933333  0.50000000  0.74566667  1.0
  Mn3.34+  Mn3  1  0.24400000  0.50000000  0.25433333  1.0
  Mn3.34+  Mn3  1  0.92266667  0.00000000  0.25433333  1.0
  Mn3.34+  Mn3  1  0.58933333  0.00000000  0.25433333  1.0
  Mn3.34+  Mn3  1  0.42266667  0.00000000  0.74566667  1.0
  Mn3.34+  Mn3  1  0.57733333  0.00000000  0.25433333  1.0
  Mn3.34+  Mn3  1  0.91066667  0.50000000  0.92100000  1.0
  Mn3.34+  Mn3  1  0.42266667  0.50000000  0.07900000  1.0
  Mn3.34+  Mn3  1  0.58933333  0.00000000  0.92100000  1.0
  Mn3.34+  Mn3  1  0.07733333  0.00000000  0.74566667  1.0
  Mn3.34+  Mn3  1  0.57733333  0.00000000  0.92100000  1.0
  Mn3.34+  Mn3  1  0.92266667  0.50000000  0.25433333  1.0
  Mn3.34+  Mn3  1  0.91066667  0.50000000  0.25433333  1.0
  O2-  O1  1  0.00000000  0.16450000  0.00000000  1.0
  O2-  O1  1  0.00000000  0.16450000  0.33333333  1.0
  O2-  O1  1  0.00000000  0.16450000  0.66666667  1.0
  O2-  O1  1  0.00000000  0.66450000  0.00000000  1.0
  O2-  O1  1  0.00000000  0.66450000  0.33333333  1.0
  O2-  O1  1  0.00000000  0.66450000  0.66666667  1.0
  O2-  O1  1  0.33333333  0.16450000  0.00000000  1.0
  O2-  O1  1  0.33333333  0.16450000  0.33333333  1.0
  O2-  O1  1  0.33333333  0.16450000  0.66666667  1.0
  O2-  O1  1  0.33333333  0.66450000  0.00000000  1.0
  O2-  O1  1  0.33333333  0.66450000  0.33333333  1.0
  O2-  O1  1  0.33333333  0.66450000  0.66666667  1.0
  O2-  O1  1  0.66666667  0.16450000  0.00000000  1.0
  O2-  O1  1  0.66666667  0.16450000  0.33333333  1.0
  O2-  O1  1  0.66666667  0.16450000  0.66666667  1.0
  O2-  O1  1  0.66666667  0.66450000  0.00000000  1.0
  O2-  O1  1  0.66666667  0.66450000  0.33333333  1.0
  O2-  O1  1  0.66666667  0.66450000  0.66666667  1.0
  O2-  O1  1  0.16666667  0.16450000  0.00000000  1.0
  O2-  O1  1  0.16666667  0.16450000  0.33333333  1.0
  O2-  O1  1  0.16666667  0.16450000  0.66666667  1.0
  O2-  O1  1  0.16666667  0.66450000  0.00000000  1.0
  O2-  O1  1  0.16666667  0.66450000  0.33333333  1.0
  O2-  O1  1  0.16666667  0.66450000  0.66666667  1.0
  O2-  O1  1  0.50000000  0.16450000  0.00000000  1.0
  O2-  O1  1  0.50000000  0.16450000  0.33333333  1.0
  O2-  O1  1  0.50000000  0.16450000  0.66666667  1.0
  O2-  O1  1  0.50000000  0.66450000  0.00000000  1.0
  O2-  O1  1  0.50000000  0.66450000  0.33333333  1.0
  O2-  O1  1  0.50000000  0.66450000  0.66666667  1.0
  O2-  O1  1  0.83333333  0.16450000  0.00000000  1.0
  O2-  O1  1  0.83333333  0.16450000  0.33333333  1.0
  O2-  O1  1  0.83333333  0.16450000  0.66666667  1.0
  O2-  O1  1  0.83333333  0.66450000  0.00000000  1.0
  O2-  O1  1  0.83333333  0.66450000  0.33333333  1.0
  O2-  O1  1  0.83333333  0.66450000  0.66666667  1.0
  O2-  O2  1  0.00000000  0.33250000  0.00000000  1.0
  O2-  O2  1  0.00000000  0.33250000  0.33333333  1.0
  O2-  O2  1  0.00000000  0.33250000  0.66666667  1.0
  O2-  O2  1  0.00000000  0.83250000  0.00000000  1.0
  O2-  O2  1  0.00000000  0.83250000  0.33333333  1.0
  O2-  O2  1  0.00000000  0.83250000  0.66666667  1.0
  O2-  O2  1  0.33333333  0.33250000  0.00000000  1.0
  O2-  O2  1  0.33333333  0.33250000  0.33333333  1.0
  O2-  O2  1  0.33333333  0.33250000  0.66666667  1.0
  O2-  O2  1  0.33333333  0.83250000  0.00000000  1.0
  O2-  O2  1  0.33333333  0.83250000  0.33333333  1.0
  O2-  O2  1  0.33333333  0.83250000  0.66666667  1.0
  O2-  O2  1  0.66666667  0.33250000  0.00000000  1.0
  O2-  O2  1  0.66666667  0.33250000  0.33333333  1.0
  O2-  O2  1  0.66666667  0.33250000  0.66666667  1.0
  O2-  O2  1  0.66666667  0.83250000  0.00000000  1.0
  O2-  O2  1  0.66666667  0.83250000  0.33333333  1.0
  O2-  O2  1  0.66666667  0.83250000  0.66666667  1.0
  O2-  O2  1  0.16666667  0.33250000  0.00000000  1.0
  O2-  O2  1  0.16666667  0.33250000  0.33333333  1.0
  O2-  O2  1  0.16666667  0.33250000  0.66666667  1.0
  O2-  O2  1  0.16666667  0.83250000  0.00000000  1.0
  O2-  O2  1  0.16666667  0.83250000  0.33333333  1.0
  O2-  O2  1  0.16666667  0.83250000  0.66666667  1.0
  O2-  O2  1  0.50000000  0.33250000  0.00000000  1.0
  O2-  O2  1  0.50000000  0.33250000  0.33333333  1.0
  O2-  O2  1  0.50000000  0.33250000  0.66666667  1.0
  O2-  O2  1  0.50000000  0.83250000  0.00000000  1.0
  O2-  O2  1  0.50000000  0.83250000  0.33333333  1.0
  O2-  O2  1  0.50000000  0.83250000  0.66666667  1.0
  O2-  O2  1  0.83333333  0.33250000  0.00000000  1.0
  O2-  O2  1  0.83333333  0.33250000  0.33333333  1.0
  O2-  O2  1  0.83333333  0.33250000  0.66666667  1.0
  O2-  O2  1  0.83333333  0.83250000  0.00000000  1.0
  O2-  O2  1  0.83333333  0.83250000  0.33333333  1.0
  O2-  O2  1  0.83333333  0.83250000  0.66666667  1.0
  O2-  O3  1  0.00000000  0.16500000  0.16666667  1.0
  O2-  O3  1  0.00000000  0.16500000  0.50000000  1.0
  O2-  O3  1  0.00000000  0.16500000  0.83333333  1.0
  O2-  O3  1  0.00000000  0.66500000  0.16666667  1.0
  O2-  O3  1  0.00000000  0.66500000  0.50000000  1.0
  O2-  O3  1  0.00000000  0.66500000  0.83333333  1.0
  O2-  O3  1  0.33333333  0.16500000  0.16666667  1.0
  O2-  O3  1  0.33333333  0.16500000  0.50000000  1.0
  O2-  O3  1  0.33333333  0.16500000  0.83333333  1.0
  O2-  O3  1  0.33333333  0.66500000  0.16666667  1.0
  O2-  O3  1  0.33333333  0.66500000  0.50000000  1.0
  O2-  O3  1  0.33333333  0.66500000  0.83333333  1.0
  O2-  O3  1  0.66666667  0.16500000  0.16666667  1.0
  O2-  O3  1  0.66666667  0.16500000  0.50000000  1.0
  O2-  O3  1  0.66666667  0.16500000  0.83333333  1.0
  O2-  O3  1  0.66666667  0.66500000  0.16666667  1.0
  O2-  O3  1  0.66666667  0.66500000  0.50000000  1.0
  O2-  O3  1  0.66666667  0.66500000  0.83333333  1.0
  O2-  O3  1  0.16666667  0.16500000  0.16666667  1.0
  O2-  O3  1  0.16666667  0.16500000  0.50000000  1.0
  O2-  O3  1  0.16666667  0.16500000  0.83333333  1.0
  O2-  O3  1  0.16666667  0.66500000  0.16666667  1.0
  O2-  O3  1  0.16666667  0.66500000  0.50000000  1.0
  O2-  O3  1  0.16666667  0.66500000  0.83333333  1.0
  O2-  O3  1  0.50000000  0.16500000  0.16666667  1.0
  O2-  O3  1  0.50000000  0.16500000  0.50000000  1.0
  O2-  O3  1  0.50000000  0.16500000  0.83333333  1.0
  O2-  O3  1  0.50000000  0.66500000  0.16666667  1.0
  O2-  O3  1  0.50000000  0.66500000  0.50000000  1.0
  O2-  O3  1  0.50000000  0.66500000  0.83333333  1.0
  O2-  O3  1  0.83333333  0.16500000  0.16666667  1.0
  O2-  O3  1  0.83333333  0.16500000  0.50000000  1.0
  O2-  O3  1  0.83333333  0.16500000  0.83333333  1.0
  O2-  O3  1  0.83333333  0.66500000  0.16666667  1.0
  O2-  O3  1  0.83333333  0.66500000  0.50000000  1.0
  O2-  O3  1  0.83333333  0.66500000  0.83333333  1.0
  O2-  O4  1  0.00000000  0.33000000  0.16666667  1.0
  O2-  O4  1  0.00000000  0.33000000  0.50000000  1.0
  O2-  O4  1  0.00000000  0.33000000  0.83333333  1.0
  O2-  O4  1  0.00000000  0.83000000  0.16666667  1.0
  O2-  O4  1  0.00000000  0.83000000  0.50000000  1.0
  O2-  O4  1  0.00000000  0.83000000  0.83333333  1.0
  O2-  O4  1  0.33333333  0.33000000  0.16666667  1.0
  O2-  O4  1  0.33333333  0.33000000  0.50000000  1.0
  O2-  O4  1  0.33333333  0.33000000  0.83333333  1.0
  O2-  O4  1  0.33333333  0.83000000  0.16666667  1.0
  O2-  O4  1  0.33333333  0.83000000  0.50000000  1.0
  O2-  O4  1  0.33333333  0.83000000  0.83333333  1.0
  O2-  O4  1  0.66666667  0.33000000  0.16666667  1.0
  O2-  O4  1  0.66666667  0.33000000  0.50000000  1.0
  O2-  O4  1  0.66666667  0.33000000  0.83333333  1.0
  O2-  O4  1  0.66666667  0.83000000  0.16666667  1.0
  O2-  O4  1  0.66666667  0.83000000  0.50000000  1.0
  O2-  O4  1  0.66666667  0.83000000  0.83333333  1.0
  O2-  O4  1  0.16666667  0.33000000  0.16666667  1.0
  O2-  O4  1  0.16666667  0.33000000  0.50000000  1.0
  O2-  O4  1  0.16666667  0.33000000  0.83333333  1.0
  O2-  O4  1  0.16666667  0.83000000  0.16666667  1.0
  O2-  O4  1  0.16666667  0.83000000  0.50000000  1.0
  O2-  O4  1  0.16666667  0.83000000  0.83333333  1.0
  O2-  O4  1  0.50000000  0.33000000  0.16666667  1.0
  O2-  O4  1  0.50000000  0.33000000  0.50000000  1.0
  O2-  O4  1  0.50000000  0.33000000  0.83333333  1.0
  O2-  O4  1  0.50000000  0.83000000  0.16666667  1.0
  O2-  O4  1  0.50000000  0.83000000  0.50000000  1.0
  O2-  O4  1  0.50000000  0.83000000  0.83333333  1.0
  O2-  O4  1  0.83333333  0.33000000  0.16666667  1.0
  O2-  O4  1  0.83333333  0.33000000  0.50000000  1.0
  O2-  O4  1  0.83333333  0.33000000  0.83333333  1.0
  O2-  O4  1  0.83333333  0.83000000  0.16666667  1.0
  O2-  O4  1  0.83333333  0.83000000  0.50000000  1.0
  O2-  O4  1  0.83333333  0.83000000  0.83333333  1.0
  O2-  O6  1  0.08333333  0.08500000  0.08333333  1.0
  O2-  O6  1  0.08333333  0.08500000  0.41666667  1.0
  O2-  O6  1  0.08333333  0.08500000  0.75000000  1.0
  O2-  O6  1  0.08333333  0.58500000  0.08333333  1.0
  O2-  O6  1  0.08333333  0.58500000  0.41666667  1.0
  O2-  O6  1  0.08333333  0.58500000  0.75000000  1.0
  O2-  O6  1  0.41666667  0.08500000  0.08333333  1.0
  O2-  O6  1  0.41666667  0.08500000  0.41666667  1.0
  O2-  O6  1  0.41666667  0.08500000  0.75000000  1.0
  O2-  O6  1  0.41666667  0.58500000  0.08333333  1.0
  O2-  O6  1  0.41666667  0.58500000  0.41666667  1.0
  O2-  O6  1  0.41666667  0.58500000  0.75000000  1.0
  O2-  O6  1  0.75000000  0.08500000  0.08333333  1.0
  O2-  O6  1  0.75000000  0.08500000  0.41666667  1.0
  O2-  O6  1  0.75000000  0.08500000  0.75000000  1.0
  O2-  O6  1  0.75000000  0.58500000  0.08333333  1.0
  O2-  O6  1  0.75000000  0.58500000  0.41666667  1.0
  O2-  O6  1  0.75000000  0.58500000  0.75000000  1.0
  O2-  O6  1  0.25000000  0.08500000  0.25000000  1.0
  O2-  O6  1  0.25000000  0.08500000  0.58333333  1.0
  O2-  O6  1  0.25000000  0.08500000  0.91666667  1.0
  O2-  O6  1  0.25000000  0.58500000  0.25000000  1.0
  O2-  O6  1  0.25000000  0.58500000  0.58333333  1.0
  O2-  O6  1  0.25000000  0.58500000  0.91666667  1.0
  O2-  O6  1  0.58333333  0.08500000  0.25000000  1.0
  O2-  O6  1  0.58333333  0.08500000  0.58333333  1.0
  O2-  O6  1  0.58333333  0.08500000  0.91666667  1.0
  O2-  O6  1  0.58333333  0.58500000  0.25000000  1.0
  O2-  O6  1  0.58333333  0.58500000  0.58333333  1.0
  O2-  O6  1  0.58333333  0.58500000  0.91666667  1.0
  O2-  O6  1  0.91666667  0.08500000  0.25000000  1.0
  O2-  O6  1  0.91666667  0.08500000  0.58333333  1.0
  O2-  O6  1  0.91666667  0.08500000  0.91666667  1.0
  O2-  O6  1  0.91666667  0.58500000  0.25000000  1.0
  O2-  O6  1  0.91666667  0.58500000  0.58333333  1.0
  O2-  O6  1  0.91666667  0.58500000  0.91666667  1.0
  O2-  O7  1  0.08333333  0.41450000  0.08333333  1.0
  O2-  O7  1  0.08333333  0.41450000  0.41666667  1.0
  O2-  O7  1  0.08333333  0.41450000  0.75000000  1.0
  O2-  O7  1  0.08333333  0.91450000  0.08333333  1.0
  O2-  O7  1  0.08333333  0.91450000  0.41666667  1.0
  O2-  O7  1  0.08333333  0.91450000  0.75000000  1.0
  O2-  O7  1  0.41666667  0.41450000  0.08333333  1.0
  O2-  O7  1  0.41666667  0.41450000  0.41666667  1.0
  O2-  O7  1  0.41666667  0.41450000  0.75000000  1.0
  O2-  O7  1  0.41666667  0.91450000  0.08333333  1.0
  O2-  O7  1  0.41666667  0.91450000  0.41666667  1.0
  O2-  O7  1  0.41666667  0.91450000  0.75000000  1.0
  O2-  O7  1  0.75000000  0.41450000  0.08333333  1.0
  O2-  O7  1  0.75000000  0.41450000  0.41666667  1.0
  O2-  O7  1  0.75000000  0.41450000  0.75000000  1.0
  O2-  O7  1  0.75000000  0.91450000  0.08333333  1.0
  O2-  O7  1  0.75000000  0.91450000  0.41666667  1.0
  O2-  O7  1  0.75000000  0.91450000  0.75000000  1.0
  O2-  O7  1  0.25000000  0.41450000  0.25000000  1.0
  O2-  O7  1  0.25000000  0.41450000  0.58333333  1.0
  O2-  O7  1  0.25000000  0.41450000  0.91666667  1.0
  O2-  O7  1  0.25000000  0.91450000  0.25000000  1.0
  O2-  O7  1  0.25000000  0.91450000  0.58333333  1.0
  O2-  O7  1  0.25000000  0.91450000  0.91666667  1.0
  O2-  O7  1  0.58333333  0.41450000  0.25000000  1.0
  O2-  O7  1  0.58333333  0.41450000  0.58333333  1.0
  O2-  O7  1  0.58333333  0.41450000  0.91666667  1.0
  O2-  O7  1  0.58333333  0.91450000  0.25000000  1.0
  O2-  O7  1  0.58333333  0.91450000  0.58333333  1.0
  O2-  O7  1  0.58333333  0.91450000  0.91666667  1.0
  O2-  O7  1  0.91666667  0.41450000  0.25000000  1.0
  O2-  O7  1  0.91666667  0.41450000  0.58333333  1.0
  O2-  O7  1  0.91666667  0.41450000  0.91666667  1.0
  O2-  O7  1  0.91666667  0.91450000  0.25000000  1.0
  O2-  O7  1  0.91666667  0.91450000  0.58333333  1.0
  O2-  O7  1  0.91666667  0.91450000  0.91666667  1.0
  O2-  O8  1  0.00000000  0.00500000  0.00000000  1.0
  O2-  O8  1  0.00000000  0.00500000  0.33333333  1.0
  O2-  O8  1  0.00000000  0.00500000  0.66666667  1.0
  O2-  O8  1  0.00000000  0.50500000  0.00000000  1.0
  O2-  O8  1  0.00000000  0.50500000  0.33333333  1.0
  O2-  O8  1  0.00000000  0.50500000  0.66666667  1.0
  O2-  O8  1  0.33333333  0.00500000  0.00000000  1.0
  O2-  O8  1  0.33333333  0.00500000  0.33333333  1.0
  O2-  O8  1  0.33333333  0.00500000  0.66666667  1.0
  O2-  O8  1  0.33333333  0.50500000  0.00000000  1.0
  O2-  O8  1  0.33333333  0.50500000  0.33333333  1.0
  O2-  O8  1  0.33333333  0.50500000  0.66666667  1.0
  O2-  O8  1  0.66666667  0.00500000  0.00000000  1.0
  O2-  O8  1  0.66666667  0.00500000  0.33333333  1.0
  O2-  O8  1  0.66666667  0.00500000  0.66666667  1.0
  O2-  O8  1  0.66666667  0.50500000  0.00000000  1.0
  O2-  O8  1  0.66666667  0.50500000  0.33333333  1.0
  O2-  O8  1  0.66666667  0.50500000  0.66666667  1.0
  O2-  O8  1  0.16666667  0.00500000  0.00000000  1.0
  O2-  O8  1  0.16666667  0.00500000  0.33333333  1.0
  O2-  O8  1  0.16666667  0.00500000  0.66666667  1.0
  O2-  O8  1  0.16666667  0.50500000  0.00000000  1.0
  O2-  O8  1  0.16666667  0.50500000  0.33333333  1.0
  O2-  O8  1  0.16666667  0.50500000  0.66666667  1.0
  O2-  O8  1  0.50000000  0.00500000  0.00000000  1.0
  O2-  O8  1  0.50000000  0.00500000  0.33333333  1.0
  O2-  O8  1  0.50000000  0.00500000  0.66666667  1.0
  O2-  O8  1  0.50000000  0.50500000  0.00000000  1.0
  O2-  O8  1  0.50000000  0.50500000  0.33333333  1.0
  O2-  O8  1  0.50000000  0.50500000  0.66666667  1.0
  O2-  O8  1  0.83333333  0.00500000  0.00000000  1.0
  O2-  O8  1  0.83333333  0.00500000  0.33333333  1.0
  O2-  O8  1  0.83333333  0.00500000  0.66666667  1.0
  O2-  O8  1  0.83333333  0.50500000  0.00000000  1.0
  O2-  O8  1  0.83333333  0.50500000  0.33333333  1.0
  O2-  O8  1  0.83333333  0.50500000  0.66666667  1.0
  O2-  O5  1  0.41666667  0.25000000  0.08333333  1.0
  O2-  O5  1  0.91666667  0.25000000  0.25000000  1.0
  O2-  O5  1  0.25000000  0.25000000  0.25000000  1.0
  O2-  O5  1  0.91666667  0.75000000  0.25000000  1.0
  O2-  O5  1  0.08333333  0.25000000  0.75000000  1.0
  O2-  O5  1  0.41666667  0.75000000  0.08333333  1.0
  O2-  O5  1  0.75000000  0.75000000  0.08333333  1.0
  O2-  O5  1  0.08333333  0.75000000  0.08333333  1.0
  O2-  O5  1  0.75000000  0.25000000  0.75000000  1.0
  O2-  O5  1  0.75000000  0.75000000  0.75000000  1.0
  O2-  O5  1  0.58333333  0.25000000  0.25000000  1.0
  O2-  O5  1  0.41666667  0.25000000  0.41666667  1.0
  O2-  O5  1  0.91666667  0.75000000  0.58333333  1.0
  O2-  O5  1  0.08333333  0.75000000  0.75000000  1.0
  O2-  O5  1  0.41666667  0.25000000  0.75000000  1.0
  O2-  O5  1  0.41666667  0.75000000  0.41666667  1.0
  O2-  O5  1  0.58333333  0.25000000  0.91666667  1.0
  O2-  O5  1  0.58333333  0.75000000  0.25000000  1.0
  O2-  O5  1  0.75000000  0.25000000  0.41666667  1.0
  O2-  O5  1  0.91666667  0.75000000  0.91666667  1.0
  O2-  O5  1  0.08333333  0.75000000  0.41666667  1.0
  O2-  O5  1  0.58333333  0.25000000  0.58333333  1.0
  O2-  O5  1  0.08333333  0.25000000  0.08333333  1.0
  O2-  O5  1  0.75000000  0.25000000  0.08333333  1.0
  O2-  O5  1  0.08333333  0.25000000  0.41666667  1.0
