# generated using pymatgen
data_AgSbTe2
_symmetry_space_group_name_H-M   'P 1'
_cell_length_a   12.24050803
_cell_length_b   12.23807681
_cell_length_c   12.22129137
_cell_angle_alpha   89.99869826
_cell_angle_beta   89.99358738
_cell_angle_gamma   89.99838630
_symmetry_Int_Tables_number   1
_chemical_formula_structural   AgSbTe2
_chemical_formula_sum   'Ag16 Sb16 Te32'
_cell_volume   1830.75282487
_cell_formula_units_Z   16
loop_
 _symmetry_equiv_pos_site_id
 _symmetry_equiv_pos_as_xyz
  1  'x, y, z'
loop_
 _atom_site_type_symbol
 _atom_site_label
 _atom_site_symmetry_multiplicity
 _atom_site_fract_x
 _atom_site_fract_y
 _atom_site_fract_z
 _atom_site_occupancy
  Ag  Ag0  1  0.24767796  0.74583831  0.49674573  1
  Ag  Ag1  1  0.24471201  0.25466774  0.49573927  1
  Ag  Ag2  1  0.75022873  0.00369416  0.74329793  1
  Ag  Ag3  1  0.24710063  0.49611593  0.25898847  1
  Ag  Ag4  1  0.51401133  0.49610758  0.49995201  1
  Ag  Ag5  1  0.50436277  0.24974263  0.74400941  1
  Ag  Ag6  1  0.24533388  0.00390470  0.25585779  1
  Ag  Ag7  1  0.50134863  0.00355129  -0.00074281  1
  Ag  Ag8  1  -0.00063822  0.00386734  0.00204489  1
  Ag  Ag9  1  0.75327563  0.26371686  0.50129894  1
  Ag  Ag10  1  0.00137491  0.24972296  0.25789061  1
  Ag  Ag11  1  0.74913209  0.49598038  0.73491377  1
  Ag  Ag12  1  -0.00118506  0.00598952  0.49695702  1
  Ag  Ag13  1  0.75200018  0.73522905  0.50050208  1
  Ag  Ag14  1  -0.01243332  0.49491090  0.49575390  1
  Ag  Ag15  1  0.75279567  0.49667451  0.26501011  1
  Sb  Sb16  1  0.24996477  0.49664104  0.73784417  1
  Sb  Sb17  1  -0.00106831  0.49611480  0.00391480  1
  Sb  Sb18  1  -0.00156131  0.75051973  0.74485196  1
  Sb  Sb19  1  0.00035809  0.74971583  0.25487672  1
  Sb  Sb20  1  0.75045757  0.24859866  -0.00133721  1
  Sb  Sb21  1  0.24947200  0.24854986  0.00443011  1
  Sb  Sb22  1  0.49932799  0.25013176  0.25502661  1
  Sb  Sb23  1  0.24948457  0.75274595  0.00381604  1
  Sb  Sb24  1  -0.00349934  0.24929048  0.74079379  1
  Sb  Sb25  1  0.50048432  0.00334108  0.49990775  1
  Sb  Sb26  1  0.75389112  0.00298450  0.25678100  1
  Sb  Sb27  1  0.75074474  0.75227414  0.00102265  1
  Sb  Sb28  1  0.50231788  0.75022438  0.74610894  1
  Sb  Sb29  1  0.24915733  0.00253105  0.74501314  1
  Sb  Sb30  1  0.49992479  0.75024360  0.25381317  1
  Sb  Sb31  1  0.50064812  0.49722522  0.00013888  1
  Te  Te32  1  0.24951526  0.24947210  0.25417639  1
  Te  Te33  1  0.25571652  0.25070110  0.74322412  1
  Te  Te34  1  0.25066427  0.74982865  0.25604643  1
  Te  Te35  1  0.25016642  0.74916102  0.74112263  1
  Te  Te36  1  0.75179635  0.25314649  0.25390176  1
  Te  Te37  1  0.74856707  0.24924380  0.74745998  1
  Te  Te38  1  0.74937083  0.74325735  0.25615508  1
  Te  Te39  1  0.74989594  0.75043230  0.74465423  1
  Te  Te40  1  0.24724510  -0.00147017  0.00469898  1
  Te  Te41  1  0.24944962  0.00091717  0.49712977  1
  Te  Te42  1  0.24947541  0.50155874  0.01020689  1
  Te  Te43  1  0.24745377  0.49829275  0.49838362  1
  Te  Te44  1  0.75134612  -0.00168885  -0.00353473  1
  Te  Te45  1  0.75125533  0.00109516  0.50150102  1
  Te  Te46  1  0.75019025  0.50148874  -0.00012826  1
  Te  Te47  1  0.75068528  0.49900591  0.49962401  1
  Te  Te48  1  0.00101161  0.24380163  0.00887804  1
  Te  Te49  1  -0.00011010  0.24967327  0.49840241  1
  Te  Te50  1  0.00077574  0.76066903  -0.00119084  1
  Te  Te51  1  -0.00035148  0.75003103  0.49994453  1
  Te  Te52  1  0.49955671  0.24459737  -0.00792062  1
  Te  Te53  1  0.50203764  0.25319755  0.50240812  1
  Te  Te54  1  0.49930294  0.75920247  -0.00146015  1
  Te  Te55  1  0.50062327  0.74317279  0.50020795  1
  Te  Te56  1  0.00114951  0.00312853  0.25531135  1
  Te  Te57  1  -0.00370879  0.00125463  0.74798179  1
  Te  Te58  1  0.00011933  0.49677269  0.25091035  1
  Te  Te59  1  -0.00494445  0.49899629  0.74943838  1
  Te  Te60  1  0.49564553  0.00077835  0.24585899  1
  Te  Te61  1  0.50327642  0.00323109  0.75170677  1
  Te  Te62  1  0.49988803  0.49991660  0.25096359  1
  Te  Te63  1  0.50373243  0.49628847  0.74871575  1
