# generated using pymatgen
data_AgSbTe2
_symmetry_space_group_name_H-M   'P 1'
_cell_length_a   12.21956017
_cell_length_b   12.22478597
_cell_length_c   12.23225357
_cell_angle_alpha   89.99635622
_cell_angle_beta   90.00225911
_cell_angle_gamma   90.00181710
_symmetry_Int_Tables_number   1
_chemical_formula_structural   AgSbTe2
_chemical_formula_sum   'Ag16 Sb16 Te32'
_cell_volume   1827.27247642
_cell_formula_units_Z   16
loop_
 _symmetry_equiv_pos_site_id
 _symmetry_equiv_pos_as_xyz
  1  'x, y, z'
loop_
 _atom_site_type_symbol
 _atom_site_label
 _atom_site_symmetry_multiplicity
 _atom_site_fract_x
 _atom_site_fract_y
 _atom_site_fract_z
 _atom_site_occupancy
  Ag  Ag0  1  0.24397295  -0.00311541  0.24760537  1
  Ag  Ag1  1  0.75517041  0.74890988  0.50360571  1
  Ag  Ag2  1  0.00095727  0.25426790  0.75438041  1
  Ag  Ag3  1  -0.00217849  -0.00272532  -0.00160815  1
  Ag  Ag4  1  0.24212962  0.50432754  0.75071622  1
  Ag  Ag5  1  0.24319398  0.25223612  -0.00065633  1
  Ag  Ag6  1  0.00223213  0.50237169  -0.00351847  1
  Ag  Ag7  1  0.75539442  -0.00600031  0.24701793  1
  Ag  Ag8  1  0.24398281  0.74594703  0.50222389  1
  Ag  Ag9  1  0.24254501  0.50331125  0.24922323  1
  Ag  Ag10  1  -0.00292444  0.74643297  0.75046364  1
  Ag  Ag11  1  0.75802791  0.50669647  0.24908380  1
  Ag  Ag12  1  0.75569871  -0.00770140  0.75283369  1
  Ag  Ag13  1  0.00219489  0.50596554  0.50256622  1
  Ag  Ag14  1  0.50307160  0.74914813  0.74986087  1
  Ag  Ag15  1  0.75637996  0.75181450  -0.00297109  1
  Sb  Sb16  1  0.00102020  0.25163680  0.24543539  1
  Sb  Sb17  1  0.49938411  0.25123029  0.75197150  1
  Sb  Sb18  1  -0.00100426  -0.00662162  0.50081782  1
  Sb  Sb19  1  -0.00159190  0.74829275  0.24939855  1
  Sb  Sb20  1  0.50052866  -0.00386950  0.50123118  1
  Sb  Sb21  1  0.49919550  0.50298608  -0.00158340  1
  Sb  Sb22  1  0.49942100  0.50412857  0.50143902  1
  Sb  Sb23  1  0.50170675  0.74970237  0.24878480  1
  Sb  Sb24  1  0.24492101  0.25323429  0.50090704  1
  Sb  Sb25  1  0.49910446  0.25025638  0.24860214  1
  Sb  Sb26  1  0.24402146  -0.00375129  0.75215212  1
  Sb  Sb27  1  0.24305948  0.74825800  -0.00080802  1
  Sb  Sb28  1  0.75616642  0.24965910  -0.00218396  1
  Sb  Sb29  1  0.75979599  0.50934154  0.75123735  1
  Sb  Sb30  1  0.75531107  0.25292864  0.50185376  1
  Sb  Sb31  1  0.50195362  -0.00279092  -0.00140575  1
  Te  Te32  1  0.25000537  0.25053374  0.24724460  1
  Te  Te33  1  0.24734961  0.25176636  0.75200421  1
  Te  Te34  1  0.25197502  0.74870055  0.25271425  1
  Te  Te35  1  0.24674428  0.74915711  0.74842997  1
  Te  Te36  1  0.74953724  0.24772962  0.25017994  1
  Te  Te37  1  0.75280208  0.24109458  0.74982688  1
  Te  Te38  1  0.74821106  0.75078885  0.25055649  1
  Te  Te39  1  0.75362628  0.74995019  0.74898693  1
  Te  Te40  1  0.24536029  -0.00038580  0.00407057  1
  Te  Te41  1  0.24907752  -0.00504360  0.49246158  1
  Te  Te42  1  0.24607412  0.50160847  0.00236527  1
  Te  Te43  1  0.24638641  0.50321521  0.49767660  1
  Te  Te44  1  0.75378711  -0.00024996  0.00249205  1
  Te  Te45  1  0.75121532  -0.00518179  0.49623865  1
  Te  Te46  1  0.75429378  0.50053096  0.00377325  1
  Te  Te47  1  0.75415339  0.50383537  0.49551729  1
  Te  Te48  1  0.00400787  0.25104386  -0.00448216  1
  Te  Te49  1  0.00004437  0.25984454  0.51053558  1
  Te  Te50  1  -0.00383273  0.74975309  -0.00374993  1
  Te  Te51  1  -0.00004857  0.74639968  0.50425536  1
  Te  Te52  1  0.48777659  0.25011718  -0.00084379  1
  Te  Te53  1  0.49997850  0.25000455  0.50081974  1
  Te  Te54  1  0.51087645  0.74988106  -0.00744633  1
  Te  Te55  1  0.50138451  0.74946891  0.50732302  1
  Te  Te56  1  -0.00109507  0.00170580  0.24667024  1
  Te  Te57  1  -0.00206129  -0.00247946  0.75211511  1
  Te  Te58  1  0.00136261  0.49859262  0.24828770  1
  Te  Te59  1  0.00098394  0.50246280  0.75279505  1
  Te  Te60  1  0.50155938  -0.00007007  0.24982933  1
  Te  Te61  1  0.50742672  -0.00481469  0.75044527  1
  Te  Te62  1  0.49844137  0.50013854  0.24973573  1
  Te  Te63  1  0.48975416  0.50339365  0.75049508  1
