# generated using pymatgen
data_AgSbTe2
_symmetry_space_group_name_H-M   'P 1'
_cell_length_a   12.22462204
_cell_length_b   12.23034709
_cell_length_c   12.23742850
_cell_angle_alpha   90.00036154
_cell_angle_beta   89.99933672
_cell_angle_gamma   89.99711812
_symmetry_Int_Tables_number   1
_chemical_formula_structural   AgSbTe2
_chemical_formula_sum   'Ag16 Sb16 Te32'
_cell_volume   1829.63470502
_cell_formula_units_Z   16
loop_
 _symmetry_equiv_pos_site_id
 _symmetry_equiv_pos_as_xyz
  1  'x, y, z'
loop_
 _atom_site_type_symbol
 _atom_site_label
 _atom_site_symmetry_multiplicity
 _atom_site_fract_x
 _atom_site_fract_y
 _atom_site_fract_z
 _atom_site_occupancy
  Ag  Ag0  1  0.49778083  0.74787733  0.75682175  1
  Ag  Ag1  1  0.00595025  0.50037911  0.50162702  1
  Ag  Ag2  1  0.24856918  0.49887844  0.23480154  1
  Ag  Ag3  1  0.01523530  0.50125987  -0.00171342  1
  Ag  Ag4  1  0.74615340  -0.00415634  0.75083971  1
  Ag  Ag5  1  0.49668559  0.74659203  0.24123906  1
  Ag  Ag6  1  0.24911023  0.25775722  0.50142866  1
  Ag  Ag7  1  0.25133589  0.50115923  0.76457909  1
  Ag  Ag8  1  0.25214174  0.26569893  -0.00164104  1
  Ag  Ag9  1  0.00188414  0.74449429  0.75223052  1
  Ag  Ag10  1  0.25610661  0.73528350  -0.00343469  1
  Ag  Ag11  1  0.49679803  -0.00497951  -0.00461655  1
  Ag  Ag12  1  0.48525205  0.50506364  -0.00409724  1
  Ag  Ag13  1  0.00621640  0.25629048  0.24888411  1
  Ag  Ag14  1  0.49466645  0.25279534  0.75489776  1
  Ag  Ag15  1  0.74946659  0.74817956  0.50501437  1
  Sb  Sb16  1  0.25179618  -0.00029891  0.24762818  1
  Sb  Sb17  1  0.74858179  0.50229103  0.75009106  1
  Sb  Sb18  1  0.00009525  -0.00132692  0.50247839  1
  Sb  Sb19  1  0.74963594  0.50177791  0.24975724  1
  Sb  Sb20  1  0.25201114  -0.00125748  0.75232837  1
  Sb  Sb21  1  0.25025438  0.74391771  0.50292157  1
  Sb  Sb22  1  0.49476335  0.50065115  0.50278397  1
  Sb  Sb23  1  0.50029772  -0.00145551  0.50389205  1
  Sb  Sb24  1  0.00217779  0.74507751  0.24793251  1
  Sb  Sb25  1  0.74833074  0.25098898  -0.00189341  1
  Sb  Sb26  1  0.75079019  0.25215112  0.50335724  1
  Sb  Sb27  1  0.74724244  -0.00260038  0.24867975  1
  Sb  Sb28  1  0.74400551  0.74930360  -0.00330475  1
  Sb  Sb29  1  0.00536116  0.25533110  0.75094583  1
  Sb  Sb30  1  0.49466320  0.25288079  0.24579128  1
  Sb  Sb31  1  0.00267396  -0.00081720  -0.00268742  1
  Te  Te32  1  0.24860005  0.25329033  0.24780311  1
  Te  Te33  1  0.25300844  0.25149457  0.75295394  1
  Te  Te34  1  0.25365743  0.74680674  0.24856121  1
  Te  Te35  1  0.25165931  0.74836461  0.75080071  1
  Te  Te36  1  0.75737627  0.24913135  0.25147664  1
  Te  Te37  1  0.74184527  0.24416359  0.74896513  1
  Te  Te38  1  0.74517920  0.75070454  0.25722506  1
  Te  Te39  1  0.74810653  0.75146874  0.74765725  1
  Te  Te40  1  0.25436509  -0.00055437  0.00012126  1
  Te  Te41  1  0.25011193  0.01250584  0.49948792  1
  Te  Te42  1  0.25000903  0.50073109  -0.00204263  1
  Te  Te43  1  0.24608790  0.49620133  0.50128789  1
  Te  Te44  1  0.74431830  0.00018675  -0.00438950  1
  Te  Te45  1  0.74991036  -0.00521665  0.50470369  1
  Te  Te46  1  0.75215893  0.50003589  0.00030882  1
  Te  Te47  1  0.75888278  0.50422849  0.49975522  1
  Te  Te48  1  0.00370527  0.25178026  0.00037390  1
  Te  Te49  1  0.00295158  0.25402916  0.50007498  1
  Te  Te50  1  0.00338333  0.74764158  -0.00185959  1
  Te  Te51  1  -0.00098817  0.74723924  0.50174552  1
  Te  Te52  1  0.49763503  0.25319349  -0.00167886  1
  Te  Te53  1  0.49671035  0.24975989  0.50290302  1
  Te  Te54  1  0.49951744  0.74679809  -0.00276366  1
  Te  Te55  1  0.50136005  0.74958473  0.50370563  1
  Te  Te56  1  -0.00095576  0.00796643  0.24981309  1
  Te  Te57  1  -0.00590733  -0.00868118  0.75062166  1
  Te  Te58  1  0.00288345  0.49836490  0.24784694  1
  Te  Te59  1  0.00107839  0.50330057  0.75214105  1
  Te  Te60  1  0.50050916  -0.00539397  0.24314783  1
  Te  Te61  1  0.50151415  -0.00291328  0.75293027  1
  Te  Te62  1  0.49667134  0.50317932  0.24733576  1
  Te  Te63  1  0.49862146  0.50142028  0.75142424  1
