# generated using pymatgen
data_AgSbTe2
_symmetry_space_group_name_H-M   'P 1'
_cell_length_a   12.24366240
_cell_length_b   12.24377059
_cell_length_c   12.22829497
_cell_angle_alpha   89.99531469
_cell_angle_beta   89.99806681
_cell_angle_gamma   89.99378744
_symmetry_Int_Tables_number   1
_chemical_formula_structural   AgSbTe2
_chemical_formula_sum   'Ag16 Sb16 Te32'
_cell_volume   1833.12648347
_cell_formula_units_Z   16
loop_
 _symmetry_equiv_pos_site_id
 _symmetry_equiv_pos_as_xyz
  1  'x, y, z'
loop_
 _atom_site_type_symbol
 _atom_site_label
 _atom_site_symmetry_multiplicity
 _atom_site_fract_x
 _atom_site_fract_y
 _atom_site_fract_z
 _atom_site_occupancy
  Ag  Ag0  1  0.75074947  0.00503367  0.26678506  1
  Ag  Ag1  1  -0.00693168  0.25054976  0.25786973  1
  Ag  Ag2  1  0.75138789  0.00145179  0.73480757  1
  Ag  Ag3  1  0.50747508  0.49293870  0.50441609  1
  Ag  Ag4  1  -0.00195176  0.49893713  -0.00694221  1
  Ag  Ag5  1  -0.01574905  -0.00075174  0.50178266  1
  Ag  Ag6  1  0.50692538  0.24884132  0.26185851  1
  Ag  Ag7  1  0.75434849  0.76240834  0.50374539  1
  Ag  Ag8  1  0.74624544  0.23777557  0.50068298  1
  Ag  Ag9  1  0.51554185  0.00774265  0.50104406  1
  Ag  Ag10  1  0.24455093  0.50068320  0.74366389  1
  Ag  Ag11  1  -0.00349105  0.74407259  0.74297784  1
  Ag  Ag12  1  -0.00679958  0.50207387  0.50587046  1
  Ag  Ag13  1  0.75460506  0.49920721  0.74215501  1
  Ag  Ag14  1  0.24503387  0.74687630  0.50354822  1
  Ag  Ag15  1  0.50566023  0.25231895  0.73855190  1
  Sb  Sb16  1  0.24860951  0.49945500  0.25836771  1
  Sb  Sb17  1  0.25411572  0.25480173  0.50186347  1
  Sb  Sb18  1  -0.00768544  0.25685222  0.73868319  1
  Sb  Sb19  1  0.75103446  0.49287228  0.26445125  1
  Sb  Sb20  1  0.50393474  0.00307843  -0.00217215  1
  Sb  Sb21  1  0.75203550  0.25227388  -0.00105131  1
  Sb  Sb22  1  0.24855386  -0.00062206  0.74249550  1
  Sb  Sb23  1  -0.00369848  0.00191026  -0.00180747  1
  Sb  Sb24  1  0.75382801  0.74749748  -0.00582345  1
  Sb  Sb25  1  0.24949786  0.00178054  0.25813532  1
  Sb  Sb26  1  0.24505167  0.74508226  -0.00744084  1
  Sb  Sb27  1  -0.00343839  0.74985798  0.26142016  1
  Sb  Sb28  1  0.50434724  0.75189188  0.25882694  1
  Sb  Sb29  1  0.24677218  0.25356025  -0.00294654  1
  Sb  Sb30  1  0.50447812  0.74816290  0.74366665  1
  Sb  Sb31  1  0.50331070  0.49683674  -0.00544235  1
  Te  Te32  1  0.25132187  0.25012219  0.24902208  1
  Te  Te33  1  0.26082547  0.25613295  0.75045677  1
  Te  Te34  1  0.25023768  0.74982058  0.25907290  1
  Te  Te35  1  0.24439544  0.74535508  0.74430440  1
  Te  Te36  1  0.74953941  0.24753679  0.25304799  1
  Te  Te37  1  0.74716479  0.24979097  0.74705557  1
  Te  Te38  1  0.74997268  0.75996539  0.25716417  1
  Te  Te39  1  0.75301227  0.74971695  0.74571575  1
  Te  Te40  1  0.25000739  -0.00193346  0.00009048  1
  Te  Te41  1  0.24954732  -0.00990967  0.50117247  1
  Te  Te42  1  0.24299894  0.50134158  -0.01024503  1
  Te  Te43  1  0.24944183  0.50447036  0.50445687  1
  Te  Te44  1  0.75035626  -0.00119070  -0.00175315  1
  Te  Te45  1  0.75006976  0.00237016  0.50120066  1
  Te  Te46  1  0.75538133  0.50155940  -0.01247050  1
  Te  Te47  1  0.74987246  0.49828881  0.50085392  1
  Te  Te48  1  0.00036718  0.25572354  0.01241208  1
  Te  Te49  1  -0.00114244  0.24983562  0.49804087  1
  Te  Te50  1  0.00023360  0.74298323  -0.00978208  1
  Te  Te51  1  -0.00358009  0.74864167  0.50189411  1
  Te  Te52  1  0.49969482  0.25074817  0.00275289  1
  Te  Te53  1  0.49913766  0.25048990  0.49998839  1
  Te  Te54  1  0.49833685  0.74890209  0.00224922  1
  Te  Te55  1  0.50291962  0.74894034  0.50027479  1
  Te  Te56  1  -0.00319556  0.00385919  0.25257340  1
  Te  Te57  1  -0.00313123  -0.00225717  0.74693745  1
  Te  Te58  1  0.00001165  0.49578940  0.25279040  1
  Te  Te59  1  -0.00250679  0.49800379  0.74502171  1
  Te  Te60  1  0.50348400  0.00503197  0.25367775  1
  Te  Te61  1  0.50388259  0.00349108  0.74692430  1
  Te  Te62  1  0.49975530  0.49277592  0.25413840  1
  Te  Te63  1  0.50324011  0.49815278  0.74691776  1
