# generated using pymatgen
data_AgSbTe2
_symmetry_space_group_name_H-M   'P 1'
_cell_length_a   12.23370044
_cell_length_b   12.23920324
_cell_length_c   12.22943050
_cell_angle_alpha   89.99214990
_cell_angle_beta   90.00249030
_cell_angle_gamma   90.00759273
_symmetry_Int_Tables_number   1
_chemical_formula_structural   AgSbTe2
_chemical_formula_sum   'Ag16 Sb16 Te32'
_cell_volume   1831.12171718
_cell_formula_units_Z   16
loop_
 _symmetry_equiv_pos_site_id
 _symmetry_equiv_pos_as_xyz
  1  'x, y, z'
loop_
 _atom_site_type_symbol
 _atom_site_label
 _atom_site_symmetry_multiplicity
 _atom_site_fract_x
 _atom_site_fract_y
 _atom_site_fract_z
 _atom_site_occupancy
  Ag  Ag0  1  0.25036314  0.73606534  0.49262171  1
  Ag  Ag1  1  0.24616494  0.49621791  0.73522371  1
  Ag  Ag2  1  0.24626849  0.50269224  0.26372255  1
  Ag  Ag3  1  0.24344064  0.25304687  0.00226816  1
  Ag  Ag4  1  0.75271137  -0.00005489  0.25312067  1
  Ag  Ag5  1  0.49423696  0.00014772  0.49400960  1
  Ag  Ag6  1  0.48476697  0.49982149  0.49672106  1
  Ag  Ag7  1  0.24796393  -0.00351649  0.25502410  1
  Ag  Ag8  1  0.00417610  0.00256432  0.00607715  1
  Ag  Ag9  1  0.49028070  0.75124383  0.25601118  1
  Ag  Ag10  1  0.00516564  0.25344742  0.74716495  1
  Ag  Ag11  1  0.00752167  0.49699175  0.00287455  1
  Ag  Ag12  1  0.01447815  0.49658683  0.49755414  1
  Ag  Ag13  1  0.00798416  0.74939312  0.25260789  1
  Ag  Ag14  1  0.75231459  0.25051799  0.49804618  1
  Ag  Ag15  1  0.24736377  0.26433970  0.49790198  1
  Sb  Sb16  1  0.75767795  0.24850024  0.00251452  1
  Sb  Sb17  1  0.24741196  0.74777497  0.00863006  1
  Sb  Sb18  1  0.75309684  0.00394970  0.74630512  1
  Sb  Sb19  1  0.49450791  0.74763277  0.74299230  1
  Sb  Sb20  1  0.00475885  0.25190583  0.25163569  1
  Sb  Sb21  1  0.75395671  0.49684563  0.74646517  1
  Sb  Sb22  1  0.49467858  0.25167025  0.74502534  1
  Sb  Sb23  1  0.75286171  0.75066879  0.00429355  1
  Sb  Sb24  1  0.49549923  0.00050623  0.00721379  1
  Sb  Sb25  1  0.49118797  0.49963871  0.00413331  1
  Sb  Sb26  1  0.75019951  0.75027043  0.49635931  1
  Sb  Sb27  1  0.00414146  0.74818351  0.74784298  1
  Sb  Sb28  1  0.75310614  0.49911309  0.25317745  1
  Sb  Sb29  1  0.24785769  0.00307663  0.74640975  1
  Sb  Sb30  1  0.49588281  0.24956224  0.25414693  1
  Sb  Sb31  1  0.00471416  0.00236743  0.49400068  1
  Te  Te32  1  0.25086906  0.25078330  0.25238138  1
  Te  Te33  1  0.24585639  0.25270677  0.74773775  1
  Te  Te34  1  0.24807756  0.75043604  0.25263284  1
  Te  Te35  1  0.25020110  0.74405636  0.74059431  1
  Te  Te36  1  0.74802140  0.24395103  0.25532201  1
  Te  Te37  1  0.75787756  0.24977792  0.74398630  1
  Te  Te38  1  0.75258099  0.75586181  0.25023243  1
  Te  Te39  1  0.74922435  0.75045247  0.75158729  1
  Te  Te40  1  0.24734383  0.00290859  0.00225591  1
  Te  Te41  1  0.25110796  0.00181518  0.49709816  1
  Te  Te42  1  0.24627855  0.49768561  0.00333923  1
  Te  Te43  1  0.24882753  0.49802136  0.49609464  1
  Te  Te44  1  0.75351466  0.00120656  0.00604057  1
  Te  Te45  1  0.74747982  0.00340303  0.49546365  1
  Te  Te46  1  0.75833089  0.49864743  -0.00074985  1
  Te  Te47  1  0.75015447  0.49450001  0.49939362  1
  Te  Te48  1  0.00343170  0.25212877  -0.00215365  1
  Te  Te49  1  0.00373980  0.25121417  0.50212753  1
  Te  Te50  1  0.00075868  0.74918923  0.00389648  1
  Te  Te51  1  0.00170499  0.74722984  0.49607783  1
  Te  Te52  1  0.49274571  0.25040427  -0.00285810  1
  Te  Te53  1  0.49734499  0.25148864  0.50076422  1
  Te  Te54  1  0.50084539  0.74986086  0.00830514  1
  Te  Te55  1  0.49905480  0.74922659  0.49574776  1
  Te  Te56  1  0.00390117  -0.00297310  0.24835706  1
  Te  Te57  1  -0.00017043  0.00257879  0.75924199  1
  Te  Te58  1  0.00100970  0.50249916  0.25165388  1
  Te  Te59  1  0.00338736  0.49837255  0.74848900  1
  Te  Te60  1  0.49566573  -0.00239614  0.25381558  1
  Te  Te61  1  0.50111348  -0.00080850  0.74230543  1
  Te  Te62  1  0.49846587  0.50387130  0.25339687  1
  Te  Te63  1  0.49451425  0.50072848  0.74532719  1
