# generated using pymatgen
data_AgSbTe2
_symmetry_space_group_name_H-M   'P 1'
_cell_length_a   12.21185879
_cell_length_b   12.23436069
_cell_length_c   12.21967363
_cell_angle_alpha   90.00210426
_cell_angle_beta   89.98812205
_cell_angle_gamma   90.00203496
_symmetry_Int_Tables_number   1
_chemical_formula_structural   AgSbTe2
_chemical_formula_sum   'Ag16 Sb16 Te32'
_cell_volume   1825.67156266
_cell_formula_units_Z   16
loop_
 _symmetry_equiv_pos_site_id
 _symmetry_equiv_pos_as_xyz
  1  'x, y, z'
loop_
 _atom_site_type_symbol
 _atom_site_label
 _atom_site_symmetry_multiplicity
 _atom_site_fract_x
 _atom_site_fract_y
 _atom_site_fract_z
 _atom_site_occupancy
  Ag  Ag0  1  0.24986750  -0.00280927  0.24660870  1
  Ag  Ag1  1  0.75774081  0.75102002  0.00102883  1
  Ag  Ag2  1  0.74899496  0.75087034  0.49823331  1
  Ag  Ag3  1  -0.00402231  0.50791131  -0.00290291  1
  Ag  Ag4  1  0.74985301  0.50141929  0.24917618  1
  Ag  Ag5  1  0.75097688  0.24880837  0.00137663  1
  Ag  Ag6  1  0.00126490  0.75062761  0.75769892  1
  Ag  Ag7  1  -0.00146058  -0.00736182  -0.00118474  1
  Ag  Ag8  1  0.24115694  0.75381257  -0.00487630  1
  Ag  Ag9  1  0.50456803  0.00147530  0.50112163  1
  Ag  Ag10  1  0.74451162  0.24911828  0.49961533  1
  Ag  Ag11  1  0.50173156  0.24931551  0.74650899  1
  Ag  Ag12  1  0.24988447  0.50315215  0.75238589  1
  Ag  Ag13  1  0.24989012  -0.00342077  0.75329100  1
  Ag  Ag14  1  0.74992754  -0.00131149  0.24897613  1
  Ag  Ag15  1  0.50531000  0.49850043  0.50263816  1
  Sb  Sb16  1  0.25508161  0.24857338  0.50292923  1
  Sb  Sb17  1  0.50461021  0.24872072  0.25279671  1
  Sb  Sb18  1  -0.00136037  0.24894363  0.75226235  1
  Sb  Sb19  1  -0.00419681  0.50296981  0.50221837  1
  Sb  Sb20  1  0.24932464  0.75177337  0.50252762  1
  Sb  Sb21  1  0.74985227  0.50108766  0.75075248  1
  Sb  Sb22  1  0.74972624  -0.00114121  0.75124546  1
  Sb  Sb23  1  0.50324047  0.75138325  0.25120539  1
  Sb  Sb24  1  0.50328600  0.49913416  -0.00237893  1
  Sb  Sb25  1  0.49809351  0.75091290  0.74898231  1
  Sb  Sb26  1  0.50088891  0.00068660  -0.00071845  1
  Sb  Sb27  1  -0.00365656  0.24923826  0.24803963  1
  Sb  Sb28  1  0.25034485  0.50315132  0.24726757  1
  Sb  Sb29  1  -0.00333739  0.75090941  0.24211356  1
  Sb  Sb30  1  -0.00374551  -0.00233024  0.50049432  1
  Sb  Sb31  1  0.24955047  0.24719586  -0.00224891  1
  Te  Te32  1  0.25048794  0.24122459  0.25012960  1
  Te  Te33  1  0.25441576  0.24967976  0.75003714  1
  Te  Te34  1  0.24951851  0.75605663  0.24469571  1
  Te  Te35  1  0.24809735  0.75083084  0.75276127  1
  Te  Te36  1  0.74918916  0.24819335  0.24863941  1
  Te  Te37  1  0.74596794  0.24988387  0.74976989  1
  Te  Te38  1  0.75053978  0.75160928  0.24922683  1
  Te  Te39  1  0.75390170  0.75019456  0.75233874  1
  Te  Te40  1  0.24980385  -0.00156607  -0.00051073  1
  Te  Te41  1  0.25302737  -0.00101812  0.49960266  1
  Te  Te42  1  0.24737612  0.50224229  0.00015777  1
  Te  Te43  1  0.25424836  0.50057608  0.50104319  1
  Te  Te44  1  0.75071885  -0.00185948  0.00173168  1
  Te  Te45  1  0.74816555  -0.00097974  0.49805801  1
  Te  Te46  1  0.75178069  0.50204373  0.00188542  1
  Te  Te47  1  0.74802468  0.50098934  0.49814479  1
  Te  Te48  1  -0.00700687  0.24915098  -0.00109052  1
  Te  Te49  1  -0.01136620  0.25060206  0.50105681  1
  Te  Te50  1  -0.00191840  0.75111622  -0.00365004  1
  Te  Te51  1  -0.00661566  0.74961090  0.51053856  1
  Te  Te52  1  0.50765735  0.25063241  -0.00824781  1
  Te  Te53  1  0.50402266  0.24906572  0.50451657  1
  Te  Te54  1  0.50295444  0.74918150  -0.00099969  1
  Te  Te55  1  0.50635302  0.75068617  0.50074960  1
  Te  Te56  1  -0.00116988  0.00024299  0.24506276  1
  Te  Te57  1  0.00565501  -0.00226001  0.75418572  1
  Te  Te58  1  -0.00390821  0.49946146  0.24414822  1
  Te  Te59  1  0.00566985  0.50268843  0.75387693  1
  Te  Te60  1  0.50205303  0.00044186  0.25597449  1
  Te  Te61  1  0.49537515  0.00306487  0.74548161  1
  Te  Te62  1  0.50407827  0.49925094  0.25743518  1
  Te  Te63  1  0.49500483  0.49662591  0.74606580  1
