# generated using pymatgen
data_AgSbTe2
_symmetry_space_group_name_H-M   'P 1'
_cell_length_a   12.21979105
_cell_length_b   12.21548281
_cell_length_c   12.22219306
_cell_angle_alpha   89.99443380
_cell_angle_beta   89.99959717
_cell_angle_gamma   89.99797541
_symmetry_Int_Tables_number   1
_chemical_formula_structural   AgSbTe2
_chemical_formula_sum   'Ag16 Sb16 Te32'
_cell_volume   1824.41466167
_cell_formula_units_Z   16
loop_
 _symmetry_equiv_pos_site_id
 _symmetry_equiv_pos_as_xyz
  1  'x, y, z'
loop_
 _atom_site_type_symbol
 _atom_site_label
 _atom_site_symmetry_multiplicity
 _atom_site_fract_x
 _atom_site_fract_y
 _atom_site_fract_z
 _atom_site_occupancy
  Ag  Ag0  1  0.74455587  0.00150211  0.75136755  1
  Ag  Ag1  1  0.00065980  0.49919070  0.00335462  1
  Ag  Ag2  1  0.50095238  0.00265292  0.50676186  1
  Ag  Ag3  1  0.00228425  0.25212263  0.74913425  1
  Ag  Ag4  1  0.75081679  -0.00047796  0.24799490  1
  Ag  Ag5  1  0.49435670  0.49658151  0.50293044  1
  Ag  Ag6  1  0.75610017  0.50073855  0.25169818  1
  Ag  Ag7  1  -0.00148683  0.74472193  0.24943811  1
  Ag  Ag8  1  0.49989011  0.75358899  0.74798934  1
  Ag  Ag9  1  0.24457781  0.49940938  0.25612575  1
  Ag  Ag10  1  0.50409314  0.00098731  -0.00638072  1
  Ag  Ag11  1  0.00537849  0.49769305  0.49685053  1
  Ag  Ag12  1  -0.00374182  0.00142886  -0.00062341  1
  Ag  Ag13  1  0.25157628  0.25655682  0.50394893  1
  Ag  Ag14  1  0.24971585  0.49578374  0.74350942  1
  Ag  Ag15  1  0.49824743  0.24665030  0.74565092  1
  Sb  Sb16  1  0.49835322  0.24977682  0.25496230  1
  Sb  Sb17  1  0.25526380  0.00396247  0.74870895  1
  Sb  Sb18  1  0.75032543  0.75199210  0.00014785  1
  Sb  Sb19  1  0.75085374  0.24813047  -0.00097256  1
  Sb  Sb20  1  0.75079308  0.49878597  0.74860861  1
  Sb  Sb21  1  0.00091624  0.74877991  0.75073201  1
  Sb  Sb22  1  -0.00121668  0.00306482  0.50059435  1
  Sb  Sb23  1  0.24934249  0.25202981  -0.00456190  1
  Sb  Sb24  1  0.00117086  0.25592394  0.25100209  1
  Sb  Sb25  1  0.74768090  0.25052979  0.50110811  1
  Sb  Sb26  1  0.50012790  0.49842962  -0.00266028  1
  Sb  Sb27  1  0.74962633  0.74952033  0.50005172  1
  Sb  Sb28  1  0.25073941  0.74208506  0.50054753  1
  Sb  Sb29  1  0.24994044  0.74874162  -0.00054657  1
  Sb  Sb30  1  0.50101481  0.75012475  0.25144741  1
  Sb  Sb31  1  0.24821537  0.00011333  0.25212364  1
  Te  Te32  1  0.25068234  0.25688381  0.25785908  1
  Te  Te33  1  0.24957331  0.25377513  0.74632730  1
  Te  Te34  1  0.24400739  0.74333194  0.24991885  1
  Te  Te35  1  0.25496504  0.74130116  0.74990861  1
  Te  Te36  1  0.74957926  0.24848384  0.25036323  1
  Te  Te37  1  0.75008479  0.24522121  0.74967305  1
  Te  Te38  1  0.75465201  0.75046478  0.25027749  1
  Te  Te39  1  0.74411408  0.75687024  0.74985867  1
  Te  Te40  1  0.24767596  0.00098520  0.00176074  1
  Te  Te41  1  0.25565207  0.00847342  0.49793989  1
  Te  Te42  1  0.24578187  0.49895366  0.00084139  1
  Te  Te43  1  0.25109600  0.49738558  0.50097400  1
  Te  Te44  1  0.75107391  0.00042796  0.00130352  1
  Te  Te45  1  0.74578305  0.00049448  0.49910880  1
  Te  Te46  1  0.75526810  0.49926393  0.00612981  1
  Te  Te47  1  0.74940239  0.49954721  0.49583003  1
  Te  Te48  1  0.00108288  0.24898908  -0.00708545  1
  Te  Te49  1  0.00547995  0.25371970  0.50603860  1
  Te  Te50  1  0.00090608  0.75023638  0.00311418  1
  Te  Te51  1  0.00093152  0.74438077  0.49560126  1
  Te  Te52  1  0.49836650  0.24462399  -0.00865053  1
  Te  Te53  1  0.49674978  0.25192432  0.50368692  1
  Te  Te54  1  0.49904138  0.75629119  -0.00593763  1
  Te  Te55  1  0.49934761  0.75015367  0.50432958  1
  Te  Te56  1  -0.00366805  -0.00209454  0.24789335  1
  Te  Te57  1  -0.00201354  -0.00012392  0.75187484  1
  Te  Te58  1  -0.00111014  0.49883746  0.24984697  1
  Te  Te59  1  -0.00112466  0.50041340  0.75015939  1
  Te  Te60  1  0.50444750  -0.00144551  0.24950222  1
  Te  Te61  1  0.49921769  0.00166913  0.74919432  1
  Te  Te62  1  0.50101503  0.50133855  0.25182346  1
  Te  Te63  1  0.50081520  0.49810111  0.74949017  1
