# generated using pymatgen
data_AgSbTe2
_symmetry_space_group_name_H-M   'P 1'
_cell_length_a   12.20800459
_cell_length_b   12.20816521
_cell_length_c   12.20874217
_cell_angle_alpha   90.00044300
_cell_angle_beta   89.99790659
_cell_angle_gamma   90.00011699
_symmetry_Int_Tables_number   1
_chemical_formula_structural   AgSbTe2
_chemical_formula_sum   'Ag16 Sb16 Te32'
_cell_volume   1819.55841885
_cell_formula_units_Z   16
loop_
 _symmetry_equiv_pos_site_id
 _symmetry_equiv_pos_as_xyz
  1  'x, y, z'
loop_
 _atom_site_type_symbol
 _atom_site_label
 _atom_site_symmetry_multiplicity
 _atom_site_fract_x
 _atom_site_fract_y
 _atom_site_fract_z
 _atom_site_occupancy
  Ag  Ag0  1  0.25324733  0.75159115  0.00332701  1
  Ag  Ag1  1  0.74769184  -0.00427153  0.25165711  1
  Ag  Ag2  1  0.50054333  0.75090966  0.25072637  1
  Ag  Ag3  1  0.74761237  0.50479759  0.25470184  1
  Ag  Ag4  1  -0.00245346  -0.00362352  0.49875774  1
  Ag  Ag5  1  0.74916026  0.50577490  0.74506203  1
  Ag  Ag6  1  -0.00202335  -0.00346951  0.00147635  1
  Ag  Ag7  1  -0.00097771  0.50362428  0.49783131  1
  Ag  Ag8  1  0.25035446  0.74841720  0.49598401  1
  Ag  Ag9  1  0.50356326  0.75165589  0.74902709  1
  Ag  Ag10  1  0.25189129  0.50377358  0.25462071  1
  Ag  Ag11  1  0.50178272  -0.00469538  0.00297206  1
  Ag  Ag12  1  0.25005911  0.25089059  0.49619112  1
  Ag  Ag13  1  0.74913545  -0.00564394  0.74814871  1
  Ag  Ag14  1  0.49980860  0.24936705  0.25149887  1
  Ag  Ag15  1  0.74962769  0.75004884  0.49898890  1
  Sb  Sb16  1  0.74795120  0.24640034  0.00276823  1
  Sb  Sb17  1  -0.00072060  0.24908613  0.74792257  1
  Sb  Sb18  1  0.74948457  0.25040848  0.49707249  1
  Sb  Sb19  1  0.00168987  0.24834744  0.25240919  1
  Sb  Sb20  1  0.50077397  0.24756923  0.74766512  1
  Sb  Sb21  1  0.50267125  0.50383062  0.49674142  1
  Sb  Sb22  1  0.25187681  -0.00411395  0.74843153  1
  Sb  Sb23  1  0.25239997  0.24816959  0.00624088  1
  Sb  Sb24  1  0.49966076  0.50647870  0.00317764  1
  Sb  Sb25  1  0.25387862  -0.00623521  0.25174146  1
  Sb  Sb26  1  -0.00666528  0.75100721  0.74694945  1
  Sb  Sb27  1  0.00013705  0.50559814  0.00202296  1
  Sb  Sb28  1  0.25089817  0.50509299  0.74254374  1
  Sb  Sb29  1  0.50465035  -0.00406767  0.49635117  1
  Sb  Sb30  1  0.74570792  0.75395418  0.00212618  1
  Sb  Sb31  1  -0.00167619  0.75134179  0.25298358  1
  Te  Te32  1  0.25561585  0.25664842  0.25441486  1
  Te  Te33  1  0.25214033  0.25178437  0.74071897  1
  Te  Te34  1  0.25468071  0.74767549  0.25317676  1
  Te  Te35  1  0.25959811  0.74867819  0.74806246  1
  Te  Te36  1  0.74254477  0.25090769  0.25118989  1
  Te  Te37  1  0.74797819  0.25030241  0.74929827  1
  Te  Te38  1  0.74636022  0.74959736  0.25190482  1
  Te  Te39  1  0.74545861  0.75093216  0.74713779  1
  Te  Te40  1  0.24910010  -0.00425388  -0.00018162  1
  Te  Te41  1  0.24176900  -0.00316182  0.49989662  1
  Te  Te42  1  0.24735222  0.50555778  0.00694144  1
  Te  Te43  1  0.24510739  0.50415666  0.49720528  1
  Te  Te44  1  0.75081636  -0.00105489  0.00078825  1
  Te  Te45  1  0.75361414  -0.00154472  0.49928521  1
  Te  Te46  1  0.75309476  0.50001000  0.00183570  1
  Te  Te47  1  0.75310417  0.50137980  0.49771397  1
  Te  Te48  1  0.00252406  0.23852366  -0.00028462  1
  Te  Te49  1  0.00708750  0.24892630  0.49928197  1
  Te  Te50  1  0.00922142  0.75704721  -0.00123805  1
  Te  Te51  1  0.00049782  0.75096333  0.50049219  1
  Te  Te52  1  0.49800603  0.24005870  0.00646954  1
  Te  Te53  1  0.49258789  0.24844171  0.49465918  1
  Te  Te54  1  0.49627880  0.75468785  0.00155749  1
  Te  Te55  1  0.49966040  0.75112826  0.49891226  1
  Te  Te56  1  -0.00753779  0.00132252  0.25089116  1
  Te  Te57  1  -0.00773649  0.00032867  0.74909121  1
  Te  Te58  1  -0.00190701  0.49886553  0.25410639  1
  Te  Te59  1  -0.00775732  0.49942080  0.74484818  1
  Te  Te60  1  0.50370162  -0.00252999  0.24734693  1
  Te  Te61  1  0.50581100  -0.00310438  0.75538757  1
  Te  Te62  1  0.50200019  0.50172687  0.24872684  1
  Te  Te63  1  0.50748531  0.50456310  0.75224425  1
