# generated using pymatgen
data_AgSbTe2
_symmetry_space_group_name_H-M   'P 1'
_cell_length_a   12.22443476
_cell_length_b   12.23145190
_cell_length_c   12.22519983
_cell_angle_alpha   89.99763554
_cell_angle_beta   89.99839593
_cell_angle_gamma   89.99241153
_symmetry_Int_Tables_number   1
_chemical_formula_structural   AgSbTe2
_chemical_formula_sum   'Ag16 Sb16 Te32'
_cell_volume   1827.94347117
_cell_formula_units_Z   16
loop_
 _symmetry_equiv_pos_site_id
 _symmetry_equiv_pos_as_xyz
  1  'x, y, z'
loop_
 _atom_site_type_symbol
 _atom_site_label
 _atom_site_symmetry_multiplicity
 _atom_site_fract_x
 _atom_site_fract_y
 _atom_site_fract_z
 _atom_site_occupancy
  Ag  Ag0  1  0.49413958  0.25035694  0.24640284  1
  Ag  Ag1  1  0.24919804  0.00248391  0.24316101  1
  Ag  Ag2  1  0.74827165  0.24826927  0.00874334  1
  Ag  Ag3  1  0.00708079  0.00120892  0.00546836  1
  Ag  Ag4  1  0.74997018  0.25001970  0.49149298  1
  Ag  Ag5  1  0.00511544  0.49749076  0.49580485  1
  Ag  Ag6  1  0.24974051  0.25237255  0.49172763  1
  Ag  Ag7  1  0.24833611  0.00269427  0.75801410  1
  Ag  Ag8  1  0.00857321  0.75175658  0.24737067  1
  Ag  Ag9  1  0.25172731  0.49678242  0.24544005  1
  Ag  Ag10  1  0.25026723  0.75107364  0.00792401  1
  Ag  Ag11  1  0.75043535  0.00585668  0.24691803  1
  Ag  Ag12  1  0.24981077  0.49744321  0.75412339  1
  Ag  Ag13  1  0.49240272  0.49670013  0.00508194  1
  Ag  Ag14  1  0.25225232  0.24926432  0.00829395  1
  Ag  Ag15  1  0.49136109  0.74941816  0.24600651  1
  Sb  Sb16  1  0.49208197  0.00324606  0.00460360  1
  Sb  Sb17  1  0.49555784  0.49659325  0.49479784  1
  Sb  Sb18  1  0.00736902  0.24804625  0.24966377  1
  Sb  Sb19  1  0.74893072  0.75201852  0.00534844  1
  Sb  Sb20  1  0.00301845  0.00155088  0.49436331  1
  Sb  Sb21  1  0.49388765  0.74782028  0.75615717  1
  Sb  Sb22  1  0.00761046  0.49890657  0.00400000  1
  Sb  Sb23  1  0.49778556  0.00229196  0.49567390  1
  Sb  Sb24  1  0.75177465  0.74971580  0.49336673  1
  Sb  Sb25  1  0.00439254  0.25048100  0.75034073  1
  Sb  Sb26  1  0.24867214  0.74722511  0.49087356  1
  Sb  Sb27  1  0.74943482  0.49237973  0.24919058  1
  Sb  Sb28  1  0.75267890  0.00333721  0.75411618  1
  Sb  Sb29  1  0.00524290  0.74963828  0.75331894  1
  Sb  Sb30  1  0.49553808  0.25131608  0.75512326  1
  Sb  Sb31  1  0.75068029  0.49706446  0.75142042  1
  Te  Te32  1  0.24977450  0.24984039  0.24863621  1
  Te  Te33  1  0.25138926  0.25030351  0.75061885  1
  Te  Te34  1  0.25097288  0.75118159  0.24827748  1
  Te  Te35  1  0.25074235  0.75034896  0.75706472  1
  Te  Te36  1  0.74703720  0.24725895  0.24857610  1
  Te  Te37  1  0.74777525  0.24928371  0.74943282  1
  Te  Te38  1  0.74870636  0.75820654  0.24987360  1
  Te  Te39  1  0.74851662  0.75125599  0.74868025  1
  Te  Te40  1  0.24958278  0.00225103  0.00345361  1
  Te  Te41  1  0.24850342  0.00652571  0.49841040  1
  Te  Te42  1  0.24950373  0.49724473  0.00312653  1
  Te  Te43  1  0.24834167  0.49694748  0.49823261  1
  Te  Te44  1  0.75500955  0.00428570  0.00198724  1
  Te  Te45  1  0.75101670  0.00729814  0.49722961  1
  Te  Te46  1  0.74564972  0.49341296  -0.00211234  1
  Te  Te47  1  0.75481379  0.49309799  0.50188161  1
  Te  Te48  1  0.00045097  0.24781599  -0.00035329  1
  Te  Te49  1  0.00147811  0.25323071  0.50027803  1
  Te  Te50  1  0.00320090  0.75211895  0.00448290  1
  Te  Te51  1  -0.00034972  0.74490748  0.49364485  1
  Te  Te52  1  0.49730470  0.25216435  0.00462358  1
  Te  Te53  1  0.49918747  0.25114230  0.49228025  1
  Te  Te54  1  0.49663765  0.74456402  0.00587940  1
  Te  Te55  1  0.50133353  0.74889411  0.48998940  1
  Te  Te56  1  0.00254128  -0.00314082  0.24709181  1
  Te  Te57  1  0.00613205  -0.00151909  0.75698550  1
  Te  Te58  1  0.00313147  0.50588585  0.25195464  1
  Te  Te59  1  0.00671039  0.50136346  0.74430332  1
  Te  Te60  1  0.49855398  0.00123816  0.24927048  1
  Te  Te61  1  0.49203735  -0.00135113  0.74833279  1
  Te  Te62  1  0.49780302  0.49796783  0.24712243  1
  Te  Te63  1  0.49317278  0.50115156  0.75641254  1
