# generated using pymatgen
data_AgSbTe2
_symmetry_space_group_name_H-M   'P 1'
_cell_length_a   12.29876518
_cell_length_b   12.27358849
_cell_length_c   12.28558546
_cell_angle_alpha   90.00863469
_cell_angle_beta   89.99747473
_cell_angle_gamma   89.98283094
_symmetry_Int_Tables_number   1
_chemical_formula_structural   AgSbTe2
_chemical_formula_sum   'Ag16 Sb16 Te32'
_cell_volume   1854.50880775
_cell_formula_units_Z   16
loop_
 _symmetry_equiv_pos_site_id
 _symmetry_equiv_pos_as_xyz
  1  'x, y, z'
loop_
 _atom_site_type_symbol
 _atom_site_label
 _atom_site_symmetry_multiplicity
 _atom_site_fract_x
 _atom_site_fract_y
 _atom_site_fract_z
 _atom_site_occupancy
  Ag  Ag0  1  0.75579931  0.00604821  0.25569442  1
  Ag  Ag1  1  0.01449739  0.76431709  0.25359007  1
  Ag  Ag2  1  0.50053651  0.24946204  0.74896711  1
  Ag  Ag3  1  0.25495289  0.75803519  0.48290663  1
  Ag  Ag4  1  0.24618002  -0.00755510  0.25407610  1
  Ag  Ag5  1  0.49708018  0.49362181  0.00467020  1
  Ag  Ag6  1  0.49878549  0.00278280  0.49177941  1
  Ag  Ag7  1  -0.00122542  0.23583141  0.25266004  1
  Ag  Ag8  1  0.25382509  0.75417038  0.01550238  1
  Ag  Ag9  1  0.00105010  0.00602904  0.48924225  1
  Ag  Ag10  1  0.74757090  0.24406410  0.49410309  1
  Ag  Ag11  1  0.74798123  0.24838564  0.00453747  1
  Ag  Ag12  1  -0.00090939  0.24451409  0.74980368  1
  Ag  Ag13  1  0.25316875  0.24840533  0.00603323  1
  Ag  Ag14  1  0.49902482  0.49594482  0.49623699  1
  Ag  Ag15  1  0.48607899  0.75682640  0.25479663  1
  Sb  Sb16  1  0.00524499  0.75933127  0.74791835  1
  Sb  Sb17  1  0.74799182  0.75434757  0.49419153  1
  Sb  Sb18  1  0.00274875  0.49799302  0.49794485  1
  Sb  Sb19  1  0.00320640  0.49701027  0.00139262  1
  Sb  Sb20  1  0.74680406  0.75194195  0.00940564  1
  Sb  Sb21  1  0.25248196  0.50415113  0.25007154  1
  Sb  Sb22  1  0.74750937  0.49074892  0.25087933  1
  Sb  Sb23  1  0.74948766  0.00479855  0.74397169  1
  Sb  Sb24  1  0.00085243  0.00220918  0.00954177  1
  Sb  Sb25  1  0.25027142  0.00406771  0.74583408  1
  Sb  Sb26  1  0.74808042  0.49592273  0.74948209  1
  Sb  Sb27  1  0.25047011  0.24602680  0.49082997  1
  Sb  Sb28  1  0.49885097  0.24443021  0.25033994  1
  Sb  Sb29  1  0.49779879  0.75312192  0.74794805  1
  Sb  Sb30  1  0.49852261  0.00238726  0.00622582  1
  Sb  Sb31  1  0.25116577  0.49566581  0.74961823  1
  Te  Te32  1  0.24764936  0.24567432  0.24551431  1
  Te  Te33  1  0.25092565  0.24817030  0.76231870  1
  Te  Te34  1  0.24928115  0.75009946  0.24936715  1
  Te  Te35  1  0.24734063  0.75079658  0.75752557  1
  Te  Te36  1  0.74925183  0.24502197  0.25161916  1
  Te  Te37  1  0.74915002  0.24759922  0.75254673  1
  Te  Te38  1  0.75357233  0.76198255  0.24891276  1
  Te  Te39  1  0.75382967  0.75075485  0.75303123  1
  Te  Te40  1  0.24971687  -0.00071573  0.00717641  1
  Te  Te41  1  0.25128335  -0.00148664  0.49611931  1
  Te  Te42  1  0.25526952  0.49660662  0.00093484  1
  Te  Te43  1  0.25696911  0.50982344  0.49942357  1
  Te  Te44  1  0.75046054  0.00619167  0.00892830  1
  Te  Te45  1  0.74919013  0.00463098  0.49629749  1
  Te  Te46  1  0.74022041  0.49190832  -0.00022519  1
  Te  Te47  1  0.74164900  0.48935495  0.50006415  1
  Te  Te48  1  0.00004205  0.24996197  0.00209611  1
  Te  Te49  1  0.00467199  0.25157377  0.49394623  1
  Te  Te50  1  0.00514810  0.74868890  0.00103144  1
  Te  Te51  1  -0.00005847  0.74776932  0.49874608  1
  Te  Te52  1  0.49792809  0.24901973  0.00341679  1
  Te  Te53  1  0.49585109  0.24977314  0.49637479  1
  Te  Te54  1  0.49759619  0.74953780  -0.00296427  1
  Te  Te55  1  0.49996083  0.75205798  0.50176993  1
  Te  Te56  1  0.00287093  0.00104210  0.25360360  1
  Te  Te57  1  -0.00032836  0.00630160  0.73314742  1
  Te  Te58  1  -0.00084682  0.50125698  0.25072750  1
  Te  Te59  1  -0.00023489  0.48543875  0.74941959  1
  Te  Te60  1  0.49562378  -0.00385042  0.25362667  1
  Te  Te61  1  0.50004315  0.00625685  0.73623200  1
  Te  Te62  1  0.50051293  0.51096088  0.25247839  1
  Te  Te63  1  0.49957541  0.49276023  0.74659802  1
