# generated using pymatgen
data_AgSbTe2
_symmetry_space_group_name_H-M   'P 1'
_cell_length_a   12.20590623
_cell_length_b   12.20183234
_cell_length_c   12.20617033
_cell_angle_alpha   89.99550700
_cell_angle_beta   90.00156445
_cell_angle_gamma   90.00059896
_symmetry_Int_Tables_number   1
_chemical_formula_structural   AgSbTe2
_chemical_formula_sum   'Ag16 Sb16 Te32'
_cell_volume   1817.91890790
_cell_formula_units_Z   16
loop_
 _symmetry_equiv_pos_site_id
 _symmetry_equiv_pos_as_xyz
  1  'x, y, z'
loop_
 _atom_site_type_symbol
 _atom_site_label
 _atom_site_symmetry_multiplicity
 _atom_site_fract_x
 _atom_site_fract_y
 _atom_site_fract_z
 _atom_site_occupancy
  Ag  Ag0  1  0.49653062  0.24581764  0.24868390  1
  Ag  Ag1  1  0.75444113  0.50111403  0.24978242  1
  Ag  Ag2  1  0.49687974  0.00092770  0.00257112  1
  Ag  Ag3  1  0.75473559  -0.00081619  0.25104592  1
  Ag  Ag4  1  0.00189561  -0.00184176  0.49475979  1
  Ag  Ag5  1  -0.00308583  0.75383693  0.25189109  1
  Ag  Ag6  1  0.24898881  0.24550871  0.00570131  1
  Ag  Ag7  1  0.75264457  0.50435411  0.75007083  1
  Ag  Ag8  1  -0.00121648  0.50004771  0.00282249  1
  Ag  Ag9  1  0.00372893  0.24577944  0.25020054  1
  Ag  Ag10  1  -0.00253023  0.75113604  0.74817029  1
  Ag  Ag11  1  0.24863501  -0.00032219  0.75054620  1
  Ag  Ag12  1  0.24753362  0.24473662  0.49421842  1
  Ag  Ag13  1  0.75363943  0.75119851  0.49917135  1
  Ag  Ag14  1  0.24592945  0.00604094  0.24980038  1
  Ag  Ag15  1  0.50152159  0.75222190  0.74983767  1
  Sb  Sb16  1  0.24746151  0.50214735  0.75209649  1
  Sb  Sb17  1  0.49823943  0.24781225  0.75183781  1
  Sb  Sb18  1  0.50378420  0.75411560  0.25016522  1
  Sb  Sb19  1  0.49754439  0.00028263  0.49776428  1
  Sb  Sb20  1  0.75151659  -0.00578720  0.74857072  1
  Sb  Sb21  1  0.75208516  0.24902346  0.00396319  1
  Sb  Sb22  1  0.75171962  0.75008977  0.00095831  1
  Sb  Sb23  1  0.24478899  0.49267524  0.24804678  1
  Sb  Sb24  1  0.50154663  0.49999312  0.49904356  1
  Sb  Sb25  1  0.24550417  0.75603121  0.49846433  1
  Sb  Sb26  1  0.24871348  0.75535679  0.00098563  1
  Sb  Sb27  1  0.50092544  0.49832210  0.00124103  1
  Sb  Sb28  1  0.00316082  0.00096756  0.00683004  1
  Sb  Sb29  1  0.75285500  0.24733632  0.49542945  1
  Sb  Sb30  1  -0.00232522  0.50230300  0.49748309  1
  Sb  Sb31  1  0.00137770  0.24820120  0.75003129  1
  Te  Te32  1  0.24838449  0.24872993  0.24947137  1
  Te  Te33  1  0.25072688  0.24418956  0.75026024  1
  Te  Te34  1  0.24556682  0.75593923  0.25173435  1
  Te  Te35  1  0.24855348  0.75437605  0.74916566  1
  Te  Te36  1  0.75118612  0.24966163  0.25171812  1
  Te  Te37  1  0.74901672  0.25841822  0.74836654  1
  Te  Te38  1  0.75206477  0.75023798  0.25323732  1
  Te  Te39  1  0.75294695  0.74817068  0.74677295  1
  Te  Te40  1  0.25220101  0.00436118  0.00085754  1
  Te  Te41  1  0.24667154  0.00343006  0.49890365  1
  Te  Te42  1  0.24441088  0.49160124  -0.00093443  1
  Te  Te43  1  0.24989035  0.49025203  0.50110775  1
  Te  Te44  1  0.74378694  0.00140258  0.00614133  1
  Te  Te45  1  0.75495481  -0.00337346  0.49572883  1
  Te  Te46  1  0.75449830  0.49928501  0.00132586  1
  Te  Te47  1  0.75116868  0.50497001  0.49914441  1
  Te  Te48  1  0.00440898  0.25311660  0.00447626  1
  Te  Te49  1  0.00369336  0.24477910  0.49531964  1
  Te  Te50  1  0.00139044  0.74542659  0.00013837  1
  Te  Te51  1  -0.00276674  0.75327346  0.49935877  1
  Te  Te52  1  0.49450242  0.24665531  0.00408511  1
  Te  Te53  1  0.49387401  0.24931317  0.49385976  1
  Te  Te54  1  0.49868235  0.75483805  -0.00572398  1
  Te  Te55  1  0.50598069  0.75048956  0.50590866  1
  Te  Te56  1  0.00023288  0.00000561  0.24854997  1
  Te  Te57  1  0.00252150  -0.00396597  0.74757249  1
  Te  Te58  1  -0.00411094  0.50077422  0.24742642  1
  Te  Te59  1  -0.00361264  0.50475753  0.75331997  1
  Te  Te60  1  0.49917060  0.00202561  0.24743745  1
  Te  Te61  1  0.49742931  -0.00369605  0.75338567  1
  Te  Te62  1  0.50812340  0.49595413  0.24802529  1
  Te  Te63  1  0.50528218  0.50599064  0.75167365  1
