# generated using pymatgen
data_AgSbTe2
_symmetry_space_group_name_H-M   'P 1'
_cell_length_a   12.21770239
_cell_length_b   12.21333318
_cell_length_c   12.21099092
_cell_angle_alpha   90.00128117
_cell_angle_beta   90.01023735
_cell_angle_gamma   89.99545722
_symmetry_Int_Tables_number   1
_chemical_formula_structural   AgSbTe2
_chemical_formula_sum   'Ag16 Sb16 Te32'
_cell_volume   1822.11023114
_cell_formula_units_Z   16
loop_
 _symmetry_equiv_pos_site_id
 _symmetry_equiv_pos_as_xyz
  1  'x, y, z'
loop_
 _atom_site_type_symbol
 _atom_site_label
 _atom_site_symmetry_multiplicity
 _atom_site_fract_x
 _atom_site_fract_y
 _atom_site_fract_z
 _atom_site_occupancy
  Ag  Ag0  1  0.49752566  0.75699078  0.75124908  1
  Ag  Ag1  1  0.74595426  -0.00022069  0.75222328  1
  Ag  Ag2  1  0.24724602  0.50036447  0.74848885  1
  Ag  Ag3  1  0.00149742  0.50227376  0.50511989  1
  Ag  Ag4  1  0.50123083  0.24534225  0.24900271  1
  Ag  Ag5  1  0.74990603  0.24745081  0.50402797  1
  Ag  Ag6  1  0.25311777  0.24730076  -0.00763280  1
  Ag  Ag7  1  0.24654278  0.74988257  0.50770560  1
  Ag  Ag8  1  0.00326491  0.75096512  0.74736282  1
  Ag  Ag9  1  0.74846136  0.00004089  0.24870887  1
  Ag  Ag10  1  -0.00102471  0.75165435  0.25123162  1
  Ag  Ag11  1  0.50187226  0.00196500  -0.00677033  1
  Ag  Ag12  1  0.25385110  0.00024890  0.75145040  1
  Ag  Ag13  1  0.00278929  0.24868688  0.74861674  1
  Ag  Ag14  1  0.49706505  0.24252604  0.75238384  1
  Ag  Ag15  1  0.74991909  0.75600571  -0.00381987  1
  Sb  Sb16  1  0.25102686  0.75296174  -0.00874844  1
  Sb  Sb17  1  -0.00019894  -0.00207952  0.50453500  1
  Sb  Sb18  1  0.75314472  0.49919981  0.74834469  1
  Sb  Sb19  1  0.50122542  0.75578214  0.24897040  1
  Sb  Sb20  1  0.49862026  0.49732503  -0.00331852  1
  Sb  Sb21  1  -0.00126744  0.24783126  0.25171057  1
  Sb  Sb22  1  0.00178058  0.50028468  -0.00530626  1
  Sb  Sb23  1  0.24803557  0.50051583  0.25151639  1
  Sb  Sb24  1  0.75169256  0.49994891  0.25167452  1
  Sb  Sb25  1  0.50050374  0.00089961  0.50940397  1
  Sb  Sb26  1  0.49832794  0.49957057  0.50350675  1
  Sb  Sb27  1  0.74668079  0.24354632  -0.00416084  1
  Sb  Sb28  1  -0.00197003  -0.00052093  -0.00433084  1
  Sb  Sb29  1  0.24905270  0.25020614  0.50872876  1
  Sb  Sb30  1  0.75345397  0.75278974  0.50415988  1
  Sb  Sb31  1  0.25199295  0.00010096  0.24790268  1
  Te  Te32  1  0.25351186  0.24862265  0.24515050  1
  Te  Te33  1  0.25039657  0.24765370  0.74971962  1
  Te  Te34  1  0.24539270  0.75056383  0.25499621  1
  Te  Te35  1  0.24833005  0.75162545  0.75026360  1
  Te  Te36  1  0.74821854  0.24522057  0.25124368  1
  Te  Te37  1  0.74975241  0.24740472  0.74982234  1
  Te  Te38  1  0.75235369  0.75480876  0.24885418  1
  Te  Te39  1  0.75073177  0.75305434  0.74988783  1
  Te  Te40  1  0.25638695  0.00394245  -0.00460954  1
  Te  Te41  1  0.25001893  -0.00571086  0.50626676  1
  Te  Te42  1  0.24982605  0.49378375  -0.00668216  1
  Te  Te43  1  0.24498567  0.50391852  0.50531889  1
  Te  Te44  1  0.74565600  -0.00322557  -0.00299093  1
  Te  Te45  1  0.75006519  0.00529476  0.50071394  1
  Te  Te46  1  0.75029410  0.51125597  0.00063171  1
  Te  Te47  1  0.75660584  0.49275867  0.49986455  1
  Te  Te48  1  0.00435975  0.25111412  -0.00499348  1
  Te  Te49  1  -0.00207950  0.25479932  0.50370883  1
  Te  Te50  1  -0.00285740  0.74931055  -0.00158693  1
  Te  Te51  1  0.00095889  0.74677487  0.50435089  1
  Te  Te52  1  0.49887480  0.24729839  -0.00416746  1
  Te  Te53  1  0.50355691  0.25110475  0.50145371  1
  Te  Te54  1  0.50219554  0.75412469  -0.00398198  1
  Te  Te55  1  0.49577114  0.74796471  0.50492652  1
  Te  Te56  1  -0.00556343  -0.00532245  0.24890225  1
  Te  Te57  1  -0.00084531  -0.00042895  0.75086015  1
  Te  Te58  1  0.00056230  0.50599608  0.25694607  1
  Te  Te59  1  0.00345816  0.50094143  0.74629704  1
  Te  Te60  1  0.50359440  0.00373259  0.24277452  1
  Te  Te61  1  0.50115843  0.00078665  0.75215647  1
  Te  Te62  1  0.49947639  0.49127870  0.25014830  1
  Te  Te63  1  0.49353183  0.49971299  0.74981654  1
