# generated using pymatgen
data_AgSbTe2
_symmetry_space_group_name_H-M   'P 1'
_cell_length_a   12.24437484
_cell_length_b   12.22021513
_cell_length_c   12.24507824
_cell_angle_alpha   90.00177821
_cell_angle_beta   90.00520394
_cell_angle_gamma   90.00521909
_symmetry_Int_Tables_number   1
_chemical_formula_structural   AgSbTe2
_chemical_formula_sum   'Ag16 Sb16 Te32'
_cell_volume   1832.21750558
_cell_formula_units_Z   16
loop_
 _symmetry_equiv_pos_site_id
 _symmetry_equiv_pos_as_xyz
  1  'x, y, z'
loop_
 _atom_site_type_symbol
 _atom_site_label
 _atom_site_symmetry_multiplicity
 _atom_site_fract_x
 _atom_site_fract_y
 _atom_site_fract_z
 _atom_site_occupancy
  Ag  Ag0  1  0.74885080  0.01239685  0.24917258  1
  Ag  Ag1  1  0.25332079  0.49044827  0.75298465  1
  Ag  Ag2  1  0.74664604  0.49073064  0.75294319  1
  Ag  Ag3  1  -0.00205469  0.00987303  0.49784537  1
  Ag  Ag4  1  -0.00473666  0.25076156  0.25449544  1
  Ag  Ag5  1  0.50059650  0.49025259  0.00093846  1
  Ag  Ag6  1  0.74379461  0.25353966  0.00174135  1
  Ag  Ag7  1  0.25711380  0.25460800  -0.00213681  1
  Ag  Ag8  1  0.50082083  0.25482547  0.75649549  1
  Ag  Ag9  1  0.75490617  0.25076715  0.49667439  1
  Ag  Ag10  1  0.50130343  0.74650805  0.24708752  1
  Ag  Ag11  1  -0.00084703  0.25182925  0.74571410  1
  Ag  Ag12  1  0.25418524  0.49160402  0.24674254  1
  Ag  Ag13  1  0.74657135  0.48929558  0.24671425  1
  Ag  Ag14  1  0.50213717  0.01185217  0.00199847  1
  Ag  Ag15  1  0.24556429  0.25201597  0.50112750  1
  Sb  Sb16  1  -0.00017401  0.49152563  0.49981032  1
  Sb  Sb17  1  -0.00032874  0.74848672  0.25154872  1
  Sb  Sb18  1  0.50610792  0.25256923  0.24231824  1
  Sb  Sb19  1  0.25057235  0.74716865  0.49774281  1
  Sb  Sb20  1  0.49988551  0.74544445  0.75210584  1
  Sb  Sb21  1  0.50030829  0.49454292  0.49772420  1
  Sb  Sb22  1  0.25175046  0.01030935  0.24856012  1
  Sb  Sb23  1  0.74726354  0.74624627  0.00127614  1
  Sb  Sb24  1  0.25047573  0.01124706  0.75072764  1
  Sb  Sb25  1  0.25394447  0.74413678  0.00191849  1
  Sb  Sb26  1  0.74937352  0.74876761  0.49785102  1
  Sb  Sb27  1  0.74905477  0.01113537  0.75100196  1
  Sb  Sb28  1  -0.00107970  0.49462774  0.00026301  1
  Sb  Sb29  1  -0.00005245  0.74689928  0.74786388  1
  Sb  Sb30  1  0.50099945  0.00766330  0.49760095  1
  Sb  Sb31  1  -0.00243627  0.00857257  0.00103484  1
  Te  Te32  1  0.24697137  0.25324439  0.25018399  1
  Te  Te33  1  0.24902809  0.25301178  0.75121564  1
  Te  Te34  1  0.25252273  0.73961122  0.25070890  1
  Te  Te35  1  0.24913950  0.73622871  0.74943292  1
  Te  Te36  1  0.74920495  0.25153410  0.24975208  1
  Te  Te37  1  0.75093388  0.25221877  0.75105450  1
  Te  Te38  1  0.74780850  0.74579989  0.25098912  1
  Te  Te39  1  0.75092527  0.73628441  0.74946700  1
  Te  Te40  1  0.25582069  0.00589858  -0.00011085  1
  Te  Te41  1  0.24764779  0.00578493  0.50005677  1
  Te  Te42  1  0.25220181  0.49548663  0.00173814  1
  Te  Te43  1  0.24956528  0.49494015  0.49864158  1
  Te  Te44  1  0.74643745  0.00347233  0.00323713  1
  Te  Te45  1  0.75151278  0.00440697  0.49661929  1
  Te  Te46  1  0.74799956  0.49677416  0.00254669  1
  Te  Te47  1  0.75046708  0.49505363  0.49786824  1
  Te  Te48  1  -0.00073230  0.25001040  -0.00001466  1
  Te  Te49  1  -0.00125821  0.24916512  0.49919762  1
  Te  Te50  1  0.00073862  0.75471428  -0.00112283  1
  Te  Te51  1  0.00062080  0.76554460  0.50067798  1
  Te  Te52  1  0.50070261  0.25212624  -0.00197224  1
  Te  Te53  1  0.49951071  0.24941082  0.51151661  1
  Te  Te54  1  0.49980285  0.74980045  0.00401605  1
  Te  Te55  1  0.49941981  0.75350054  0.49312338  1
  Te  Te56  1  -0.00349355  0.00296214  0.25151105  1
  Te  Te57  1  -0.00023749  0.00429221  0.74699868  1
  Te  Te58  1  -0.00185462  0.49662176  0.25069721  1
  Te  Te59  1  -0.00070357  0.49580904  0.74927061  1
  Te  Te60  1  0.50288137  -0.00355818  0.24585053  1
  Te  Te61  1  0.50043142  0.00042176  0.75637481  1
  Te  Te62  1  0.50130906  0.50056422  0.24774456  1
  Te  Te63  1  0.50083829  0.49821274  0.75284284  1
