# generated using pymatgen
data_AgSbTe2
_symmetry_space_group_name_H-M   'P 1'
_cell_length_a   12.32880099
_cell_length_b   12.29887988
_cell_length_c   12.31741804
_cell_angle_alpha   89.99988584
_cell_angle_beta   89.99889736
_cell_angle_gamma   89.98642680
_symmetry_Int_Tables_number   1
_chemical_formula_structural   AgSbTe2
_chemical_formula_sum   'Ag16 Sb16 Te32'
_cell_volume   1867.69549437
_cell_formula_units_Z   16
loop_
 _symmetry_equiv_pos_site_id
 _symmetry_equiv_pos_as_xyz
  1  'x, y, z'
loop_
 _atom_site_type_symbol
 _atom_site_label
 _atom_site_symmetry_multiplicity
 _atom_site_fract_x
 _atom_site_fract_y
 _atom_site_fract_z
 _atom_site_occupancy
  Ag  Ag0  1  -0.00120068  0.51790331  0.50178765  1
  Ag  Ag1  1  0.75435816  -0.01357405  0.74028212  1
  Ag  Ag2  1  -0.01753123  0.75764055  0.73533754  1
  Ag  Ag3  1  0.52064179  0.75665479  0.74187018  1
  Ag  Ag4  1  0.24714284  -0.00843064  0.73666594  1
  Ag  Ag5  1  0.75998929  0.75696216  0.51676981  1
  Ag  Ag6  1  0.49154622  -0.00874944  0.50381843  1
  Ag  Ag7  1  0.24276742  -0.00679951  0.26358485  1
  Ag  Ag8  1  0.24227453  0.23937004  0.49738220  1
  Ag  Ag9  1  0.00563649  -0.00911896  0.50006618  1
  Ag  Ag10  1  0.75332213  0.75150925  -0.01814281  1
  Ag  Ag11  1  -0.00030108  0.75412900  0.26192097  1
  Ag  Ag12  1  0.75438781  0.52040757  0.74395167  1
  Ag  Ag13  1  0.00510024  0.23852848  0.26056629  1
  Ag  Ag14  1  0.49917784  0.75664489  0.25773108  1
  Ag  Ag15  1  0.24569055  0.75446465  -0.00277703  1
  Sb  Sb16  1  0.24741359  0.51008900  0.25330046  1
  Sb  Sb17  1  0.49499096  0.23667693  0.25760822  1
  Sb  Sb18  1  0.24765348  0.51623802  0.74537037  1
  Sb  Sb19  1  0.00167397  0.24344598  0.74302011  1
  Sb  Sb20  1  0.24706688  0.24336259  0.00002524  1
  Sb  Sb21  1  0.75181336  0.24686358  0.50099312  1
  Sb  Sb22  1  0.24501481  0.75385973  0.50129434  1
  Sb  Sb23  1  -0.00162306  0.50575008  -0.00370011  1
  Sb  Sb24  1  0.50170678  0.50881350  -0.00222118  1
  Sb  Sb25  1  0.75398337  -0.00546410  0.25685278  1
  Sb  Sb26  1  0.49915829  -0.00386237  -0.00345918  1
  Sb  Sb27  1  0.75301102  0.50680586  0.25333894  1
  Sb  Sb28  1  0.49777320  0.51299090  0.50212793  1
  Sb  Sb29  1  0.00049735  -0.00346910  -0.00117065  1
  Sb  Sb30  1  0.75359906  0.24576561  -0.00306792  1
  Sb  Sb31  1  0.49899182  0.24101972  0.74440202  1
  Te  Te32  1  0.24812062  0.24230371  0.24793305  1
  Te  Te33  1  0.25066321  0.23628710  0.75411592  1
  Te  Te34  1  0.24713201  0.75361360  0.25243499  1
  Te  Te35  1  0.24745839  0.75546467  0.74940756  1
  Te  Te36  1  0.75561262  0.25100824  0.24660721  1
  Te  Te37  1  0.75027765  0.24794930  0.75291851  1
  Te  Te38  1  0.75358323  0.75243641  0.24968460  1
  Te  Te39  1  0.75062973  0.75164912  0.74937542  1
  Te  Te40  1  0.25013562  -0.00611428  -0.00062757  1
  Te  Te41  1  0.24647855  -0.00073679  0.49960568  1
  Te  Te42  1  0.25075146  0.50843462  -0.00107987  1
  Te  Te43  1  0.24553989  0.48169526  0.50058323  1
  Te  Te44  1  0.74991027  -0.00259449  -0.01296719  1
  Te  Te45  1  0.75423050  -0.00135404  0.50229551  1
  Te  Te46  1  0.75035490  0.50406971  -0.00769629  1
  Te  Te47  1  0.75173555  0.49891741  0.50217600  1
  Te  Te48  1  -0.00078844  0.25297561  0.01801995  1
  Te  Te49  1  0.00032490  0.24083367  0.49756163  1
  Te  Te50  1  -0.00179168  0.75046296  0.00136171  1
  Te  Te51  1  -0.00036401  0.75308508  0.50182356  1
  Te  Te52  1  0.50181428  0.25330189  0.00292196  1
  Te  Te53  1  0.49585943  0.23836391  0.49926390  1
  Te  Te54  1  0.50324649  0.75212489  0.00211961  1
  Te  Te55  1  0.50254316  0.75463026  0.49984498  1
  Te  Te56  1  -0.00034082  -0.00743051  0.25067112  1
  Te  Te57  1  0.00197897  -0.00103105  0.75003031  1
  Te  Te58  1  0.00117809  0.51184551  0.25927195  1
  Te  Te59  1  0.00008159  0.50058881  0.74509688  1
  Te  Te60  1  0.49866141  -0.00511938  0.25457457  1
  Te  Te61  1  0.49669111  -0.00320453  0.74793972  1
  Te  Te62  1  0.49982078  0.51150776  0.25073295  1
  Te  Te63  1  0.50274333  0.50760754  0.74846885  1
