# generated using pymatgen
data_AgSbTe2
_symmetry_space_group_name_H-M   'P 1'
_cell_length_a   12.20830760
_cell_length_b   12.21761067
_cell_length_c   12.22144597
_cell_angle_alpha   90.00362549
_cell_angle_beta   89.99880525
_cell_angle_gamma   90.00672765
_symmetry_Int_Tables_number   1
_chemical_formula_structural   AgSbTe2
_chemical_formula_sum   'Ag16 Sb16 Te32'
_cell_volume   1822.90624508
_cell_formula_units_Z   16
loop_
 _symmetry_equiv_pos_site_id
 _symmetry_equiv_pos_as_xyz
  1  'x, y, z'
loop_
 _atom_site_type_symbol
 _atom_site_label
 _atom_site_symmetry_multiplicity
 _atom_site_fract_x
 _atom_site_fract_y
 _atom_site_fract_z
 _atom_site_occupancy
  Ag  Ag0  1  0.00243208  0.00985235  0.50053042  1
  Ag  Ag1  1  0.24790890  0.00466040  0.25192815  1
  Ag  Ag2  1  0.49627513  0.25290924  0.74444278  1
  Ag  Ag3  1  -0.00094615  0.00330849  -0.00109128  1
  Ag  Ag4  1  0.49892561  0.74989570  0.25106371  1
  Ag  Ag5  1  0.49504719  0.24988381  0.25527791  1
  Ag  Ag6  1  0.50081870  0.74830042  0.74901564  1
  Ag  Ag7  1  0.00313565  0.25059663  0.74437673  1
  Ag  Ag8  1  0.00466513  0.49078891  0.50336990  1
  Ag  Ag9  1  0.00083332  0.49631444  -0.00260720  1
  Ag  Ag10  1  0.49534546  0.49529766  0.50318601  1
  Ag  Ag11  1  0.00503359  0.24763389  0.25567025  1
  Ag  Ag12  1  0.75213410  0.00076122  0.75092589  1
  Ag  Ag13  1  0.24590419  0.25229680  0.50032518  1
  Ag  Ag14  1  0.75012857  0.75163616  -0.00220093  1
  Ag  Ag15  1  0.24938140  0.49561291  0.74590230  1
  Sb  Sb16  1  0.74793308  0.75147675  0.50238274  1
  Sb  Sb17  1  0.49709701  0.00654776  0.50008832  1
  Sb  Sb18  1  0.75264898  -0.00053396  0.24954172  1
  Sb  Sb19  1  0.75020704  0.50046508  0.24934938  1
  Sb  Sb20  1  0.25148881  0.74761618  0.50064229  1
  Sb  Sb21  1  0.75510050  0.24947856  0.50144665  1
  Sb  Sb22  1  0.00155156  0.75159589  0.24959428  1
  Sb  Sb23  1  0.24969306  0.49538704  0.25386245  1
  Sb  Sb24  1  0.24698656  0.25006636  0.00009766  1
  Sb  Sb25  1  0.75396146  0.24867987  -0.00222508  1
  Sb  Sb26  1  0.24711412  0.00437102  0.74833673  1
  Sb  Sb27  1  0.24987972  0.74990089  -0.00050727  1
  Sb  Sb28  1  0.75061910  0.49947806  0.75065543  1
  Sb  Sb29  1  0.49890925  0.49989790  -0.00285855  1
  Sb  Sb30  1  0.50078198  -0.00019532  -0.00058661  1
  Sb  Sb31  1  -0.00063761  0.74941079  0.75083206  1
  Te  Te32  1  0.25007572  0.24761708  0.25327144  1
  Te  Te33  1  0.25027205  0.25191375  0.74663148  1
  Te  Te34  1  0.25714173  0.75643790  0.25007913  1
  Te  Te35  1  0.25847332  0.74479121  0.74995141  1
  Te  Te36  1  0.74738705  0.24920201  0.24862742  1
  Te  Te37  1  0.74910542  0.24395356  0.75138409  1
  Te  Te38  1  0.74181180  0.75107591  0.24449617  1
  Te  Te39  1  0.74426993  0.75496887  0.75311238  1
  Te  Te40  1  0.24202005  -0.00077393  0.00537061  1
  Te  Te41  1  0.24442667  0.00509794  0.49677923  1
  Te  Te42  1  0.24259243  0.50082209  -0.00737114  1
  Te  Te43  1  0.24899999  0.49632817  0.50341184  1
  Te  Te44  1  0.75561644  -0.00426973  -0.00455538  1
  Te  Te45  1  0.75913314  -0.00127721  0.50653257  1
  Te  Te46  1  0.75787598  0.50702348  -0.00041653  1
  Te  Te47  1  0.75138802  0.50117660  0.49984620  1
  Te  Te48  1  -0.00060288  0.25010911  -0.00041718  1
  Te  Te49  1  0.00112877  0.25145850  0.50064688  1
  Te  Te50  1  -0.00447179  0.75004635  0.00122535  1
  Te  Te51  1  -0.00010368  0.74715255  0.49824143  1
  Te  Te52  1  0.50070989  0.25117393  0.00043552  1
  Te  Te53  1  0.49687262  0.25242275  0.50053152  1
  Te  Te54  1  0.50451146  0.74909601  -0.00004240  1
  Te  Te55  1  0.49984060  0.74432113  0.50010162  1
  Te  Te56  1  0.00161222  0.00277728  0.25068721  1
  Te  Te57  1  0.00069206  0.00127808  0.75018803  1
  Te  Te58  1  0.00147589  0.49577205  0.25123796  1
  Te  Te59  1  0.00083667  0.49849839  0.74771392  1
  Te  Te60  1  0.49701648  0.00300187  0.25030563  1
  Te  Te61  1  0.50149731  0.00156991  0.74985266  1
  Te  Te62  1  0.49865350  0.49724946  0.25291180  1
  Te  Te63  1  0.49938366  0.49659302  0.74846148  1
