# generated using pymatgen
data_AgSbTe2
_symmetry_space_group_name_H-M   'P 1'
_cell_length_a   12.23328985
_cell_length_b   12.21478640
_cell_length_c   12.23378949
_cell_angle_alpha   89.99935535
_cell_angle_beta   90.00308092
_cell_angle_gamma   89.99918489
_symmetry_Int_Tables_number   1
_chemical_formula_structural   AgSbTe2
_chemical_formula_sum   'Ag16 Sb16 Te32'
_cell_volume   1828.05873485
_cell_formula_units_Z   16
loop_
 _symmetry_equiv_pos_site_id
 _symmetry_equiv_pos_as_xyz
  1  'x, y, z'
loop_
 _atom_site_type_symbol
 _atom_site_label
 _atom_site_symmetry_multiplicity
 _atom_site_fract_x
 _atom_site_fract_y
 _atom_site_fract_z
 _atom_site_occupancy
  Ag  Ag0  1  0.74926050  0.25847965  0.00044750  1
  Ag  Ag1  1  0.75060033  -0.00802809  0.24929369  1
  Ag  Ag2  1  -0.00171750  0.50590594  0.00035867  1
  Ag  Ag3  1  0.74791767  0.74743806  0.49575382  1
  Ag  Ag4  1  0.25274403  0.50724215  0.24300171  1
  Ag  Ag5  1  0.50139472  0.50744250  -0.00325184  1
  Ag  Ag6  1  0.50178165  0.50667688  0.50244191  1
  Ag  Ag7  1  0.25427423  0.74243023  -0.00111324  1
  Ag  Ag8  1  0.74567477  0.74380640  0.00312255  1
  Ag  Ag9  1  -0.00504315  0.74828533  0.24720628  1
  Ag  Ag10  1  0.74407495  0.50617117  0.75674966  1
  Ag  Ag11  1  0.50421693  0.74544636  0.24520491  1
  Ag  Ag12  1  -0.00194060  -0.00629247  0.49845345  1
  Ag  Ag13  1  0.49973718  0.74289071  0.75486130  1
  Ag  Ag14  1  0.25110669  -0.00832814  0.75189436  1
  Ag  Ag15  1  0.25635726  0.50734313  0.75612350  1
  Sb  Sb16  1  0.00123423  0.74827365  0.75341362  1
  Sb  Sb17  1  0.74976314  0.25358520  0.49921216  1
  Sb  Sb18  1  0.50041974  -0.00951583  -0.00022096  1
  Sb  Sb19  1  0.25240841  0.74810409  0.50220884  1
  Sb  Sb20  1  -0.00113549  0.25087836  0.75213423  1
  Sb  Sb21  1  -0.00076739  -0.00623302  0.00133621  1
  Sb  Sb22  1  0.74672583  0.50903758  0.24169603  1
  Sb  Sb23  1  0.24996733  -0.00906489  0.24864839  1
  Sb  Sb24  1  0.25013154  0.25153011  0.50064442  1
  Sb  Sb25  1  -0.00245623  0.25363313  0.24709317  1
  Sb  Sb26  1  0.50130338  0.25866809  0.75238243  1
  Sb  Sb27  1  0.74848876  -0.00684189  0.75046082  1
  Sb  Sb28  1  0.50280007  0.25617685  0.24678956  1
  Sb  Sb29  1  -0.00245958  0.50602887  0.49899700  1
  Sb  Sb30  1  0.50109153  -0.00750910  0.50033940  1
  Sb  Sb31  1  0.25076498  0.25882262  -0.00090800  1
  Te  Te32  1  0.25037348  0.25788846  0.24931944  1
  Te  Te33  1  0.25019916  0.25092146  0.75064899  1
  Te  Te34  1  0.25134914  0.74692714  0.24736785  1
  Te  Te35  1  0.25093410  0.74672410  0.75178440  1
  Te  Te36  1  0.74977343  0.23871511  0.24599968  1
  Te  Te37  1  0.74940222  0.25558231  0.75554489  1
  Te  Te38  1  0.74924255  0.75010259  0.24877317  1
  Te  Te39  1  0.74841084  0.74753103  0.75185746  1
  Te  Te40  1  0.24947108  -0.00411141  -0.00457873  1
  Te  Te41  1  0.24680015  0.00070740  0.50417941  1
  Te  Te42  1  0.25060647  0.50203614  -0.00218258  1
  Te  Te43  1  0.25176416  0.49981028  0.50351442  1
  Te  Te44  1  0.75022206  -0.00377852  0.00173785  1
  Te  Te45  1  0.75197949  -0.00307184  0.49902457  1
  Te  Te46  1  0.74978852  0.50461938  0.00059265  1
  Te  Te47  1  0.74875707  0.50302199  0.50538780  1
  Te  Te48  1  -0.00580774  0.25883630  0.00043863  1
  Te  Te49  1  -0.00054640  0.24043433  0.49939452  1
  Te  Te50  1  -0.00042475  0.74576753  0.00308151  1
  Te  Te51  1  -0.00533249  0.75244027  0.49433316  1
  Te  Te52  1  0.50566393  0.25958457  0.00054530  1
  Te  Te53  1  0.50052217  0.26062765  0.49933432  1
  Te  Te54  1  0.50043991  0.74727932  -0.00000278  1
  Te  Te55  1  0.50301848  0.74546729  0.49961057  1
  Te  Te56  1  -0.00133680  -0.00501323  0.25170156  1
  Te  Te57  1  0.00457165  0.00003827  0.74632973  1
  Te  Te58  1  0.00457320  0.50435916  0.24798449  1
  Te  Te59  1  0.00110082  0.50042037  0.75237875  1
  Te  Te60  1  0.50242963  -0.00742738  0.25078443  1
  Te  Te61  1  0.49520173  -0.00751730  0.74890758  1
  Te  Te62  1  0.49858044  0.50520216  0.24898545  1
  Te  Te63  1  0.49955237  0.50339145  0.75244598  1
