# generated using pymatgen
data_AgSbTe2
_symmetry_space_group_name_H-M   'P 1'
_cell_length_a   12.20535532
_cell_length_b   12.20507413
_cell_length_c   12.20428619
_cell_angle_alpha   90.00634053
_cell_angle_beta   89.98993531
_cell_angle_gamma   90.00843941
_symmetry_Int_Tables_number   1
_chemical_formula_structural   AgSbTe2
_chemical_formula_sum   'Ag16 Sb16 Te32'
_cell_volume   1818.03909408
_cell_formula_units_Z   16
loop_
 _symmetry_equiv_pos_site_id
 _symmetry_equiv_pos_as_xyz
  1  'x, y, z'
loop_
 _atom_site_type_symbol
 _atom_site_label
 _atom_site_symmetry_multiplicity
 _atom_site_fract_x
 _atom_site_fract_y
 _atom_site_fract_z
 _atom_site_occupancy
  Ag  Ag0  1  0.74732046  0.49963889  0.24853791  1
  Ag  Ag1  1  0.00590052  0.75179428  0.24994084  1
  Ag  Ag2  1  0.49713093  0.24594774  0.24980363  1
  Ag  Ag3  1  0.25311970  0.50375532  0.24996021  1
  Ag  Ag4  1  0.49334127  0.75446239  0.24774562  1
  Ag  Ag5  1  0.74772550  0.24754363  0.00132627  1
  Ag  Ag6  1  0.25559027  -0.00351313  0.25214655  1
  Ag  Ag7  1  0.25406284  0.75141397  0.00534609  1
  Ag  Ag8  1  0.74723069  0.00111849  0.75062188  1
  Ag  Ag9  1  0.25084503  0.24632673  0.49775685  1
  Ag  Ag10  1  0.49669769  0.75393547  0.75153101  1
  Ag  Ag11  1  0.00143985  0.24746654  0.74863472  1
  Ag  Ag12  1  0.49663067  0.00019054  0.49583875  1
  Ag  Ag13  1  0.49875848  -0.00185378  0.00352389  1
  Ag  Ag14  1  0.00333927  0.00154876  0.49843587  1
  Ag  Ag15  1  0.25163188  0.50033188  0.74980480  1
  Sb  Sb16  1  0.00368355  0.49862510  0.49821951  1
  Sb  Sb17  1  0.49659370  0.49935900  0.49676047  1
  Sb  Sb18  1  0.00234351  0.24761712  0.25167741  1
  Sb  Sb19  1  0.74503300  0.75298880  0.00237726  1
  Sb  Sb20  1  0.00141265  -0.00006219  0.00228456  1
  Sb  Sb21  1  0.00100841  0.49999612  0.00163069  1
  Sb  Sb22  1  0.74880676  0.75259155  0.49816829  1
  Sb  Sb23  1  0.49881572  0.50212043  0.00329537  1
  Sb  Sb24  1  0.74826891  0.24648078  0.49803547  1
  Sb  Sb25  1  0.25263532  0.24838625  0.00243929  1
  Sb  Sb26  1  0.25247466  -0.00084795  0.74747096  1
  Sb  Sb27  1  0.00453123  0.75301485  0.74951697  1
  Sb  Sb28  1  0.74295631  0.00118713  0.24853980  1
  Sb  Sb29  1  0.74847653  0.49845915  0.75217861  1
  Sb  Sb30  1  0.49876536  0.24586787  0.75038311  1
  Sb  Sb31  1  0.25110584  0.75515816  0.49181403  1
  Te  Te32  1  0.25205807  0.25061263  0.25055023  1
  Te  Te33  1  0.24767990  0.25339622  0.74874954  1
  Te  Te34  1  0.25281804  0.74942729  0.25007711  1
  Te  Te35  1  0.25226114  0.74672788  0.75493823  1
  Te  Te36  1  0.74748672  0.25320627  0.24682174  1
  Te  Te37  1  0.75243055  0.24972760  0.75360415  1
  Te  Te38  1  0.74869380  0.74492734  0.24780724  1
  Te  Te39  1  0.74551124  0.75198787  0.75188452  1
  Te  Te40  1  0.25455496  -0.00293209  0.00436862  1
  Te  Te41  1  0.25149011  0.00425820  0.49704314  1
  Te  Te42  1  0.25040763  0.50367558  0.00212129  1
  Te  Te43  1  0.24987955  0.49194415  0.49835593  1
  Te  Te44  1  0.74533066  0.00372180  -0.00400529  1
  Te  Te45  1  0.74911231  0.00147364  0.50560404  1
  Te  Te46  1  0.74988413  0.49338915  0.00538763  1
  Te  Te47  1  0.75076046  0.49907056  0.49229616  1
  Te  Te48  1  -0.00532404  0.24873882  -0.00554902  1
  Te  Te49  1  0.00444546  0.24356953  0.50321502  1
  Te  Te50  1  0.00688463  0.75101045  0.00553758  1
  Te  Te51  1  -0.00045471  0.75824742  0.49512648  1
  Te  Te52  1  0.50279674  0.24371464  0.00355437  1
  Te  Te53  1  0.49583342  0.24352292  0.49596981  1
  Te  Te54  1  0.49642771  0.75472191  0.00211268  1
  Te  Te55  1  0.49982102  0.75764117  0.49923886  1
  Te  Te56  1  0.00293396  -0.00272538  0.25366419  1
  Te  Te57  1  -0.00283355  0.00165933  0.74590284  1
  Te  Te58  1  0.00268288  0.50443588  0.25131624  1
  Te  Te59  1  0.00374219  0.49623305  0.74870778  1
  Te  Te60  1  0.50071667  -0.00111891  0.25065547  1
  Te  Te61  1  0.50172085  -0.00266363  0.74975094  1
  Te  Te62  1  0.49670256  0.50097325  0.25085114  1
  Te  Te63  1  0.49586843  0.50637557  0.74859464  1
