# generated using pymatgen
data_AgSbTe2
_symmetry_space_group_name_H-M   'P 1'
_cell_length_a   12.22012476
_cell_length_b   12.23057360
_cell_length_c   12.23096110
_cell_angle_alpha   90.00129425
_cell_angle_beta   90.00700274
_cell_angle_gamma   90.00489225
_symmetry_Int_Tables_number   1
_chemical_formula_structural   AgSbTe2
_chemical_formula_sum   'Ag16 Sb16 Te32'
_cell_volume   1828.02884916
_cell_formula_units_Z   16
loop_
 _symmetry_equiv_pos_site_id
 _symmetry_equiv_pos_as_xyz
  1  'x, y, z'
loop_
 _atom_site_type_symbol
 _atom_site_label
 _atom_site_symmetry_multiplicity
 _atom_site_fract_x
 _atom_site_fract_y
 _atom_site_fract_z
 _atom_site_occupancy
  Ag  Ag0  1  0.24579246  0.00295216  0.24847667  1
  Ag  Ag1  1  -0.00077329  0.24809909  0.24030330  1
  Ag  Ag2  1  0.75505317  0.49649304  0.75940771  1
  Ag  Ag3  1  -0.00803043  0.49802608  -0.00080120  1
  Ag  Ag4  1  -0.00236500  0.75221514  0.76075355  1
  Ag  Ag5  1  -0.00231939  0.75193881  0.23937111  1
  Ag  Ag6  1  0.75591454  0.49852082  0.24019562  1
  Ag  Ag7  1  0.49488181  0.00422658  0.50341382  1
  Ag  Ag8  1  0.49984521  0.24435951  0.75295512  1
  Ag  Ag9  1  0.49969326  0.00339519  -0.00313070  1
  Ag  Ag10  1  0.75772219  0.25259917  -0.00274688  1
  Ag  Ag11  1  0.75800680  0.74752101  -0.00073252  1
  Ag  Ag12  1  0.24851426  0.00510973  0.75138512  1
  Ag  Ag13  1  0.24931808  0.24369117  0.50255202  1
  Ag  Ag14  1  -0.00089744  0.00195224  -0.00102313  1
  Ag  Ag15  1  -0.00115930  0.24795905  0.75945348  1
  Sb  Sb16  1  0.50217641  0.75339181  0.24583690  1
  Sb  Sb17  1  0.50007865  0.24685545  0.24644974  1
  Sb  Sb18  1  0.24854549  0.75534918  0.50055469  1
  Sb  Sb19  1  0.50136454  0.49614776  0.50257377  1
  Sb  Sb20  1  0.24180020  0.24505829  -0.00196321  1
  Sb  Sb21  1  0.24517972  0.49593228  0.75184772  1
  Sb  Sb22  1  0.50223869  0.75529178  0.75414493  1
  Sb  Sb23  1  0.75209807  0.75060877  0.50130616  1
  Sb  Sb24  1  0.75089573  0.24970747  0.50230351  1
  Sb  Sb25  1  0.24317179  0.49743108  0.24808112  1
  Sb  Sb26  1  -0.00106625  0.49847478  0.50077162  1
  Sb  Sb27  1  0.24042360  0.75529402  -0.00011678  1
  Sb  Sb28  1  0.75582543  0.00123722  0.24496086  1
  Sb  Sb29  1  0.75244848  0.00299570  0.75516823  1
  Sb  Sb30  1  0.50922946  0.49608753  -0.00253110  1
  Sb  Sb31  1  0.00363789  0.00243383  0.50137312  1
  Te  Te32  1  0.24615054  0.24636144  0.25369460  1
  Te  Te33  1  0.24857631  0.24671361  0.74868736  1
  Te  Te34  1  0.24353949  0.75406670  0.25090542  1
  Te  Te35  1  0.24422062  0.75473921  0.74876982  1
  Te  Te36  1  0.75479539  0.25245720  0.24697250  1
  Te  Te37  1  0.75349890  0.25226721  0.75205335  1
  Te  Te38  1  0.75543113  0.74712494  0.24671169  1
  Te  Te39  1  0.75466403  0.74554681  0.75266962  1
  Te  Te40  1  0.24943571  0.00008485  -0.00062621  1
  Te  Te41  1  0.25306542  0.00379993  0.50122213  1
  Te  Te42  1  0.24267278  0.50180107  0.00060883  1
  Te  Te43  1  0.25208818  0.49094727  0.49948439  1
  Te  Te44  1  0.75287589  0.00137439  0.00028976  1
  Te  Te45  1  0.73865292  -0.00002605  0.49848780  1
  Te  Te46  1  0.75281178  0.49821664  -0.00065469  1
  Te  Te47  1  0.74861024  0.50061547  0.49985566  1
  Te  Te48  1  -0.00213750  0.24705336  -0.00087076  1
  Te  Te49  1  0.00281115  0.24905480  0.50103059  1
  Te  Te50  1  -0.00341509  0.75282658  -0.00063422  1
  Te  Te51  1  0.00002298  0.75034892  0.50013900  1
  Te  Te52  1  0.50651035  0.24576313  -0.00417257  1
  Te  Te53  1  0.49714385  0.24553195  0.50398524  1
  Te  Te54  1  0.50989986  0.75626021  -0.00021443  1
  Te  Te55  1  0.49934571  0.75768338  0.49987353  1
  Te  Te56  1  0.00309833  0.00125429  0.24883968  1
  Te  Te57  1  0.00207880  0.00181161  0.75128146  1
  Te  Te58  1  -0.00294086  0.49894975  0.24770292  1
  Te  Te59  1  -0.00252381  0.49826034  0.75250519  1
  Te  Te60  1  0.49265354  0.00015543  0.24586862  1
  Te  Te61  1  0.49736843  0.00311311  0.75437884  1
  Te  Te62  1  0.50727676  0.50051378  0.24990244  1
  Te  Te63  1  0.50447335  0.49397292  0.75065806  1
