# generated using pymatgen
data_AgSbTe2
_symmetry_space_group_name_H-M   'P 1'
_cell_length_a   12.30034214
_cell_length_b   12.28445069
_cell_length_c   12.29399145
_cell_angle_alpha   90.01504203
_cell_angle_beta   90.00026220
_cell_angle_gamma   90.01701432
_symmetry_Int_Tables_number   1
_chemical_formula_structural   AgSbTe2
_chemical_formula_sum   'Ag16 Sb16 Te32'
_cell_volume   1857.65818639
_cell_formula_units_Z   16
loop_
 _symmetry_equiv_pos_site_id
 _symmetry_equiv_pos_as_xyz
  1  'x, y, z'
loop_
 _atom_site_type_symbol
 _atom_site_label
 _atom_site_symmetry_multiplicity
 _atom_site_fract_x
 _atom_site_fract_y
 _atom_site_fract_z
 _atom_site_occupancy
  Ag  Ag0  1  0.74238235  -0.00783593  0.74826936  1
  Ag  Ag1  1  0.50619869  0.73964081  0.26643839  1
  Ag  Ag2  1  0.49995577  0.25200200  0.74576964  1
  Ag  Ag3  1  0.73679686  0.74463134  0.50848400  1
  Ag  Ag4  1  -0.00640347  0.74489513  0.26018314  1
  Ag  Ag5  1  0.73800839  0.25240173  -0.00646803  1
  Ag  Ag6  1  0.25753798  0.00017886  0.74649959  1
  Ag  Ag7  1  0.50778343  0.74668650  0.73471467  1
  Ag  Ag8  1  0.26204866  0.25094132  0.50673934  1
  Ag  Ag9  1  0.26234718  0.24649984  -0.00738321  1
  Ag  Ag10  1  0.26209634  0.74814761  0.50637501  1
  Ag  Ag11  1  0.74154204  0.50745046  0.74410331  1
  Ag  Ag12  1  -0.00848430  0.75017655  0.73967786  1
  Ag  Ag13  1  0.50351737  0.50734334  0.50110760  1
  Ag  Ag14  1  0.50166520  0.25875034  0.25529278  1
  Ag  Ag15  1  0.74121458  0.50746569  0.25594544  1
  Sb  Sb16  1  0.50138597  0.49912265  -0.00289449  1
  Sb  Sb17  1  0.25293829  0.75512939  -0.00625162  1
  Sb  Sb18  1  -0.00633672  0.50208942  0.50143939  1
  Sb  Sb19  1  0.25808393  0.50024730  0.74758731  1
  Sb  Sb20  1  -0.00247935  0.50067422  -0.00195160  1
  Sb  Sb21  1  0.25927075  0.50101867  0.25260244  1
  Sb  Sb22  1  0.00004299  -0.00209505  0.50155922  1
  Sb  Sb23  1  0.74801752  -0.00348822  0.25297527  1
  Sb  Sb24  1  0.74942196  0.74965737  -0.00324107  1
  Sb  Sb25  1  -0.00091389  0.25345275  0.74856557  1
  Sb  Sb26  1  -0.00132585  0.00052893  -0.00244259  1
  Sb  Sb27  1  -0.00288532  0.25780964  0.25251795  1
  Sb  Sb28  1  0.25151512  -0.00070280  0.25392038  1
  Sb  Sb29  1  0.73738125  0.25497410  0.50343246  1
  Sb  Sb30  1  0.50069961  -0.00690938  0.50160450  1
  Sb  Sb31  1  0.50103949  0.00232686  -0.00214471  1
  Te  Te32  1  0.25349416  0.24863765  0.25244445  1
  Te  Te33  1  0.24808580  0.25298777  0.74705532  1
  Te  Te34  1  0.25610232  0.75128264  0.25266260  1
  Te  Te35  1  0.25643466  0.74727507  0.74985396  1
  Te  Te36  1  0.74749004  0.24575967  0.25479038  1
  Te  Te37  1  0.75156568  0.25052881  0.74546601  1
  Te  Te38  1  0.74285200  0.75219178  0.24383093  1
  Te  Te39  1  0.74373423  0.74953366  0.75351327  1
  Te  Te40  1  0.25023330  0.00655661  -0.01095610  1
  Te  Te41  1  0.24999491  -0.00299019  0.50582896  1
  Te  Te42  1  0.24913310  0.48702045  0.00064259  1
  Te  Te43  1  0.26035768  0.50434269  0.49969671  1
  Te  Te44  1  0.74965265  0.01075957  -0.00998784  1
  Te  Te45  1  0.75076747  -0.01092854  0.50676476  1
  Te  Te46  1  0.75014826  0.49346066  -0.00059480  1
  Te  Te47  1  0.74506198  0.50412802  0.50065937  1
  Te  Te48  1  0.00197721  0.25041706  0.00146693  1
  Te  Te49  1  0.02148290  0.25140217  0.49730091  1
  Te  Te50  1  0.00190276  0.74954491  0.00134392  1
  Te  Te51  1  0.00358203  0.74854123  0.50201933  1
  Te  Te52  1  0.50029148  0.25058319  -0.00268384  1
  Te  Te53  1  0.49785334  0.25459979  0.50219862  1
  Te  Te54  1  0.49730493  0.74909573  0.00336187  1
  Te  Te55  1  0.50008117  0.74782363  0.50209365  1
  Te  Te56  1  -0.00022290  -0.01475999  0.25066747  1
  Te  Te57  1  -0.00125611  -0.00727269  0.74895563  1
  Te  Te58  1  -0.01509503  0.50618160  0.25029989  1
  Te  Te59  1  -0.01512697  0.50672613  0.74941766  1
  Te  Te60  1  0.49998484  0.00194628  0.24808726  1
  Te  Te61  1  0.50064119  0.00251482  0.74942367  1
  Te  Te62  1  0.50392350  0.50015999  0.25255700  1
  Te  Te63  1  0.50350461  0.49873840  0.74879218  1
