# generated using pymatgen
data_AgSbTe2
_symmetry_space_group_name_H-M   'P 1'
_cell_length_a   12.22125484
_cell_length_b   12.23680278
_cell_length_c   12.23910102
_cell_angle_alpha   90.00093825
_cell_angle_beta   89.99796579
_cell_angle_gamma   90.00625946
_symmetry_Int_Tables_number   1
_chemical_formula_structural   AgSbTe2
_chemical_formula_sum   'Ag16 Sb16 Te32'
_cell_volume   1830.34634867
_cell_formula_units_Z   16
loop_
 _symmetry_equiv_pos_site_id
 _symmetry_equiv_pos_as_xyz
  1  'x, y, z'
loop_
 _atom_site_type_symbol
 _atom_site_label
 _atom_site_symmetry_multiplicity
 _atom_site_fract_x
 _atom_site_fract_y
 _atom_site_fract_z
 _atom_site_occupancy
  Ag  Ag0  1  0.24415664  0.50046099  0.25621881  1
  Ag  Ag1  1  -0.00831627  0.74854319  0.74161793  1
  Ag  Ag2  1  -0.00708165  -0.00083494  0.50061870  1
  Ag  Ag3  1  -0.00666051  0.25211726  0.74181861  1
  Ag  Ag4  1  0.50253041  0.50246947  0.50234410  1
  Ag  Ag5  1  0.75455272  -0.00407881  0.74474195  1
  Ag  Ag6  1  -0.00550503  0.74819581  0.25872124  1
  Ag  Ag7  1  0.50930597  0.74749278  0.74634252  1
  Ag  Ag8  1  0.75707054  0.75228798  0.50505693  1
  Ag  Ag9  1  0.75526233  -0.00047629  0.25602709  1
  Ag  Ag10  1  0.24562011  0.50127304  0.74376302  1
  Ag  Ag11  1  0.75280404  0.75168896  -0.00561206  1
  Ag  Ag12  1  -0.00515929  0.25171584  0.25822609  1
  Ag  Ag13  1  0.75371654  0.24835695  -0.00156777  1
  Ag  Ag14  1  0.75696136  0.24774035  0.50165263  1
  Ag  Ag15  1  -0.00246399  0.50114699  0.50080607  1
  Sb  Sb16  1  0.24377796  0.25249206  -0.00066697  1
  Sb  Sb17  1  -0.00516112  -0.00018364  -0.00151917  1
  Sb  Sb18  1  0.75772690  0.50032327  0.25461297  1
  Sb  Sb19  1  0.50783468  0.74650945  0.25495419  1
  Sb  Sb20  1  0.50243207  0.50224869  -0.00399136  1
  Sb  Sb21  1  0.24527729  0.74784293  -0.00109568  1
  Sb  Sb22  1  0.50711948  -0.00163289  -0.00188128  1
  Sb  Sb23  1  0.75557114  0.50618190  0.74482888  1
  Sb  Sb24  1  0.23933460  0.25484733  0.50037989  1
  Sb  Sb25  1  0.24018628  -0.00079030  0.25355926  1
  Sb  Sb26  1  0.24331598  -0.00132609  0.74699802  1
  Sb  Sb27  1  0.51131843  -0.00377043  0.50227305  1
  Sb  Sb28  1  0.50955080  0.25396346  0.74642212  1
  Sb  Sb29  1  0.50757356  0.25280567  0.25317643  1
  Sb  Sb30  1  0.24054763  0.74581854  0.50056980  1
  Sb  Sb31  1  -0.00176444  0.50022530  -0.00198990  1
  Te  Te32  1  0.24146552  0.25334332  0.24820138  1
  Te  Te33  1  0.24254917  0.25378043  0.75175762  1
  Te  Te34  1  0.24232781  0.74699358  0.24796755  1
  Te  Te35  1  0.24730618  0.74705674  0.75134249  1
  Te  Te36  1  0.75468198  0.24799112  0.25141260  1
  Te  Te37  1  0.75358940  0.24702189  0.74831119  1
  Te  Te38  1  0.75394362  0.75176666  0.25121281  1
  Te  Te39  1  0.75328017  0.74912425  0.74840063  1
  Te  Te40  1  0.25317270  0.00089771  0.00056051  1
  Te  Te41  1  0.24093616  0.00106418  0.49953114  1
  Te  Te42  1  0.25112636  0.49983045  0.00002002  1
  Te  Te43  1  0.24852695  0.50012580  0.50096513  1
  Te  Te44  1  0.75101228  -0.00084769  -0.00146042  1
  Te  Te45  1  0.75335341  -0.00086182  0.50122216  1
  Te  Te46  1  0.74909375  0.49995841  0.00209166  1
  Te  Te47  1  0.75281553  0.50030725  0.49985173  1
  Te  Te48  1  -0.00662246  0.24992631  -0.00044379  1
  Te  Te49  1  -0.00358509  0.25279245  0.50063965  1
  Te  Te50  1  -0.00594992  0.75020706  -0.00089062  1
  Te  Te51  1  -0.00238296  0.74703427  0.50062689  1
  Te  Te52  1  0.51104268  0.25011584  -0.00000012  1
  Te  Te53  1  0.51042512  0.25650850  0.50047468  1
  Te  Te54  1  0.50879888  0.74919146  -0.00681410  1
  Te  Te55  1  0.50727913  0.74620610  0.50369619  1
  Te  Te56  1  -0.00401737  -0.00047831  0.25395486  1
  Te  Te57  1  -0.00318600  -0.00093883  0.74680950  1
  Te  Te58  1  0.00261642  0.50051375  0.25290323  1
  Te  Te59  1  0.00244204  0.50048806  0.74774603  1
  Te  Te60  1  0.50698718  -0.00013687  0.25103480  1
  Te  Te61  1  0.50449157  -0.00684258  0.74846681  1
  Te  Te62  1  0.48864065  0.50066339  0.25713119  1
  Te  Te63  1  0.49240400  0.50354232  0.74587048  1
