# generated using pymatgen
data_AgSbTe2
_symmetry_space_group_name_H-M   'P 1'
_cell_length_a   12.21950127
_cell_length_b   12.22653655
_cell_length_c   12.22648715
_cell_angle_alpha   90.00112456
_cell_angle_beta   89.99647371
_cell_angle_gamma   90.00141650
_symmetry_Int_Tables_number   1
_chemical_formula_structural   AgSbTe2
_chemical_formula_sum   'Ag16 Sb16 Te32'
_cell_volume   1826.66381612
_cell_formula_units_Z   16
loop_
 _symmetry_equiv_pos_site_id
 _symmetry_equiv_pos_as_xyz
  1  'x, y, z'
loop_
 _atom_site_type_symbol
 _atom_site_label
 _atom_site_symmetry_multiplicity
 _atom_site_fract_x
 _atom_site_fract_y
 _atom_site_fract_z
 _atom_site_occupancy
  Ag  Ag0  1  0.00535344  0.24826915  0.75524757  1
  Ag  Ag1  1  0.75372413  0.00131677  0.75212607  1
  Ag  Ag2  1  0.24364537  0.24388431  0.00223395  1
  Ag  Ag3  1  0.49061290  0.00200657  -0.00156886  1
  Ag  Ag4  1  0.49424200  0.75213083  0.75214180  1
  Ag  Ag5  1  0.75346397  0.49861579  0.75274192  1
  Ag  Ag6  1  0.48946837  0.24600016  0.24679348  1
  Ag  Ag7  1  0.24664294  0.49915961  0.75386774  1
  Ag  Ag8  1  0.00667045  0.00429836  0.50273587  1
  Ag  Ag9  1  0.00551723  0.49266863  -0.00528375  1
  Ag  Ag10  1  0.24739566  0.00697780  0.24542821  1
  Ag  Ag11  1  0.24896183  0.75406736  0.50461473  1
  Ag  Ag12  1  0.00884914  0.00687290  -0.00213614  1
  Ag  Ag13  1  0.24565031  0.24507521  0.49807811  1
  Ag  Ag14  1  0.00922456  0.24551062  0.24467552  1
  Ag  Ag15  1  0.24944066  0.75566968  -0.00378494  1
  Sb  Sb16  1  0.75202124  0.00234199  0.24805110  1
  Sb  Sb17  1  0.49400963  0.24765604  0.75286663  1
  Sb  Sb18  1  0.75008810  0.75150699  -0.00414681  1
  Sb  Sb19  1  0.49747408  0.49903705  0.50135983  1
  Sb  Sb20  1  0.75754312  0.24926680  -0.00276514  1
  Sb  Sb21  1  0.24639236  0.00062355  0.75565928  1
  Sb  Sb22  1  0.00492530  0.75472019  0.24847999  1
  Sb  Sb23  1  0.49205311  0.00117731  0.50244886  1
  Sb  Sb24  1  0.75137954  0.75308500  0.50576884  1
  Sb  Sb25  1  0.75428880  0.24815294  0.50323626  1
  Sb  Sb26  1  0.75410818  0.49665219  0.24550428  1
  Sb  Sb27  1  0.00611502  0.75162669  0.75079637  1
  Sb  Sb28  1  0.00352817  0.49566389  0.50540743  1
  Sb  Sb29  1  0.24755380  0.49222566  0.24631578  1
  Sb  Sb30  1  0.49315241  0.75393327  0.24768622  1
  Sb  Sb31  1  0.49475895  0.49773030  -0.00251115  1
  Te  Te32  1  0.24773308  0.24803946  0.24853830  1
  Te  Te33  1  0.24778598  0.25200894  0.75079928  1
  Te  Te34  1  0.25068008  0.75639103  0.24924765  1
  Te  Te35  1  0.25229478  0.74820282  0.75139371  1
  Te  Te36  1  0.75026958  0.25063262  0.25149133  1
  Te  Te37  1  0.75389657  0.25009690  0.74911359  1
  Te  Te38  1  0.74814877  0.74801547  0.25191234  1
  Te  Te39  1  0.74264987  0.74958660  0.74974486  1
  Te  Te40  1  0.24853254  0.00169560  -0.00083128  1
  Te  Te41  1  0.24713281  0.00205270  0.49740971  1
  Te  Te42  1  0.24656345  0.49961976  -0.00304874  1
  Te  Te43  1  0.24853238  0.50066329  0.50561219  1
  Te  Te44  1  0.75134182  -0.00094932  -0.00394934  1
  Te  Te45  1  0.75817634  -0.00075515  0.50498749  1
  Te  Te46  1  0.75720702  0.50079447  -0.00630060  1
  Te  Te47  1  0.75075658  0.50098526  0.50935648  1
  Te  Te48  1  0.00212911  0.24721709  -0.00218380  1
  Te  Te49  1  0.00425367  0.24686485  0.50156142  1
  Te  Te50  1  0.00586079  0.75248000  0.00062194  1
  Te  Te51  1  0.00737342  0.75596866  0.49924892  1
  Te  Te52  1  0.49391068  0.24667422  0.00157860  1
  Te  Te53  1  0.49158150  0.24939943  0.49539474  1
  Te  Te54  1  0.49459193  0.75332206  -0.00301127  1
  Te  Te55  1  0.49263083  0.74973456  0.50388297  1
  Te  Te56  1  0.00179498  0.00388376  0.24730326  1
  Te  Te57  1  -0.00218701  0.00120155  0.75233045  1
  Te  Te58  1  -0.00110504  0.49209760  0.24288793  1
  Te  Te59  1  0.00225986  0.49852384  0.75286148  1
  Te  Te60  1  0.49883133  0.00453372  0.24533029  1
  Te  Te61  1  0.50601614  -0.00123151  0.75346941  1
  Te  Te62  1  0.50223275  0.49162387  0.24977420  1
  Te  Te63  1  0.49986865  0.50270222  0.75140344  1
