# generated using pymatgen
data_AgSbTe2
_symmetry_space_group_name_H-M   'P 1'
_cell_length_a   12.29070911
_cell_length_b   12.30429963
_cell_length_c   12.30777105
_cell_angle_alpha   90.00059735
_cell_angle_beta   90.00234877
_cell_angle_gamma   89.99503735
_symmetry_Int_Tables_number   1
_chemical_formula_structural   AgSbTe2
_chemical_formula_sum   'Ag16 Sb16 Te32'
_cell_volume   1861.28657751
_cell_formula_units_Z   16
loop_
 _symmetry_equiv_pos_site_id
 _symmetry_equiv_pos_as_xyz
  1  'x, y, z'
loop_
 _atom_site_type_symbol
 _atom_site_label
 _atom_site_symmetry_multiplicity
 _atom_site_fract_x
 _atom_site_fract_y
 _atom_site_fract_z
 _atom_site_occupancy
  Ag  Ag0  1  0.00984979  0.49544821  0.49127912  1
  Ag  Ag1  1  0.24908569  0.25726241  0.01767783  1
  Ag  Ag2  1  0.49436877  0.25067674  0.75710353  1
  Ag  Ag3  1  0.24531819  0.48227740  0.25622636  1
  Ag  Ag4  1  0.74985375  0.24675114  0.00930843  1
  Ag  Ag5  1  0.01951134  0.25497388  0.24522307  1
  Ag  Ag6  1  0.24823395  0.48873407  0.74408213  1
  Ag  Ag7  1  0.49318910  0.75237999  0.24890182  1
  Ag  Ag8  1  0.24904362  0.26117018  0.48013262  1
  Ag  Ag9  1  0.25346119  0.01909365  0.24987286  1
  Ag  Ag10  1  0.74725930  0.00684546  0.76278240  1
  Ag  Ag11  1  0.48486803  0.24818382  0.24598409  1
  Ag  Ag12  1  0.00539339  0.49291769  0.00780295  1
  Ag  Ag13  1  0.24956457  0.73598574  0.48883256  1
  Ag  Ag14  1  0.74670372  0.00823270  0.24377706  1
  Ag  Ag15  1  0.75122629  0.75554652  0.00720876  1
  Sb  Sb16  1  0.00237216  0.00406659  0.49685515  1
  Sb  Sb17  1  0.49541963  0.49681689  0.00190854  1
  Sb  Sb18  1  0.00115235  0.74753318  0.25000947  1
  Sb  Sb19  1  0.49285903  0.49820003  0.49784432  1
  Sb  Sb20  1  0.50105744  0.00216124  0.00200334  1
  Sb  Sb21  1  0.75073593  0.74856788  0.49557274  1
  Sb  Sb22  1  0.00089213  0.74626329  0.75045743  1
  Sb  Sb23  1  0.25159045  0.00639047  0.74973821  1
  Sb  Sb24  1  0.74991058  0.49422366  0.24683525  1
  Sb  Sb25  1  0.24823499  0.74648837  0.00614995  1
  Sb  Sb26  1  -0.00088305  0.00452991  0.00338490  1
  Sb  Sb27  1  0.00152304  0.25305311  0.75221769  1
  Sb  Sb28  1  0.74981776  0.25066864  0.49543457  1
  Sb  Sb29  1  0.74875714  0.49708900  0.75419817  1
  Sb  Sb30  1  0.50024256  0.00136060  0.49761832  1
  Sb  Sb31  1  0.49827758  0.74959951  0.75195618  1
  Te  Te32  1  0.24945540  0.24852631  0.24863616  1
  Te  Te33  1  0.25298256  0.24879592  0.75235477  1
  Te  Te34  1  0.25249849  0.75138597  0.24998419  1
  Te  Te35  1  0.25236205  0.75245982  0.74692279  1
  Te  Te36  1  0.74324087  0.24972742  0.24920583  1
  Te  Te37  1  0.74715309  0.24947379  0.74961327  1
  Te  Te38  1  0.74898402  0.75231540  0.24788005  1
  Te  Te39  1  0.74730661  0.75296263  0.75330497  1
  Te  Te40  1  0.24936763  0.00356317  0.00386432  1
  Te  Te41  1  0.25037822  0.00300055  0.49826712  1
  Te  Te42  1  0.24736287  0.49826793  0.00252345  1
  Te  Te43  1  0.24968567  0.49664037  0.49721916  1
  Te  Te44  1  0.74944387  0.00503720  0.00484641  1
  Te  Te45  1  0.74998933  -0.00069993  0.49227780  1
  Te  Te46  1  0.75773624  0.49262672  0.00035930  1
  Te  Te47  1  0.76743494  0.50133694  0.50166593  1
  Te  Te48  1  -0.00057269  0.25115249  0.00141519  1
  Te  Te49  1  0.00114932  0.25195358  0.49734397  1
  Te  Te50  1  -0.00405459  0.74160591  -0.00125911  1
  Te  Te51  1  0.00562374  0.74382871  0.50116087  1
  Te  Te52  1  0.50087116  0.24982511  0.00393116  1
  Te  Te53  1  0.49857191  0.25134635  0.49433705  1
  Te  Te54  1  0.50590626  0.74840577  0.00579198  1
  Te  Te55  1  0.49586364  0.74891824  0.49261760  1
  Te  Te56  1  -0.00005736  0.00758179  0.24938008  1
  Te  Te57  1  -0.01176634  -0.00190909  0.74975988  1
  Te  Te58  1  0.00062486  0.49708781  0.24767440  1
  Te  Te59  1  0.00685595  0.50110186  0.75187837  1
  Te  Te60  1  0.49853669  0.00431118  0.24938292  1
  Te  Te61  1  0.50671264  0.00618100  0.74938798  1
  Te  Te62  1  0.49715991  0.49568646  0.25128773  1
  Te  Te63  1  0.49430263  0.49401060  0.74860457  1
