# generated using pymatgen
data_AgSbTe2
_symmetry_space_group_name_H-M   'P 1'
_cell_length_a   12.21982135
_cell_length_b   12.22048139
_cell_length_c   12.22217748
_cell_angle_alpha   89.99916793
_cell_angle_beta   90.00443268
_cell_angle_gamma   90.00071664
_symmetry_Int_Tables_number   1
_chemical_formula_structural   AgSbTe2
_chemical_formula_sum   'Ag16 Sb16 Te32'
_cell_volume   1825.16341663
_cell_formula_units_Z   16
loop_
 _symmetry_equiv_pos_site_id
 _symmetry_equiv_pos_as_xyz
  1  'x, y, z'
loop_
 _atom_site_type_symbol
 _atom_site_label
 _atom_site_symmetry_multiplicity
 _atom_site_fract_x
 _atom_site_fract_y
 _atom_site_fract_z
 _atom_site_occupancy
  Ag  Ag0  1  0.49423768  -0.00426639  0.49909535  1
  Ag  Ag1  1  0.25441196  0.74753207  -0.00253177  1
  Ag  Ag2  1  0.25035229  0.50843072  0.74375292  1
  Ag  Ag3  1  0.25423340  0.50425597  0.25635389  1
  Ag  Ag4  1  0.49510604  0.50582655  0.00595161  1
  Ag  Ag5  1  0.75167356  0.25314557  0.49652939  1
  Ag  Ag6  1  0.49325240  0.50435679  0.49405655  1
  Ag  Ag7  1  0.00544043  -0.00164191  0.50069033  1
  Ag  Ag8  1  0.00019462  0.25346258  0.25591669  1
  Ag  Ag9  1  0.49552835  0.74471434  0.25158773  1
  Ag  Ag10  1  0.25093131  0.74567668  0.50346096  1
  Ag  Ag11  1  0.25032999  -0.00831934  0.74514990  1
  Ag  Ag12  1  0.00623800  0.50125527  0.49757351  1
  Ag  Ag13  1  0.00836367  0.74906110  0.74490236  1
  Ag  Ag14  1  0.74698216  0.49957117  0.25465650  1
  Ag  Ag15  1  0.49509127  -0.00514579  0.00129325  1
  Sb  Sb16  1  0.00686686  -0.00368322  -0.00141591  1
  Sb  Sb17  1  0.00581168  0.50272127  0.00181567  1
  Sb  Sb18  1  0.00564599  0.74656212  0.25596592  1
  Sb  Sb19  1  0.74838358  0.00057357  0.25249743  1
  Sb  Sb20  1  0.25205532  -0.00427434  0.25536392  1
  Sb  Sb21  1  0.74310601  0.74795195  0.00198610  1
  Sb  Sb22  1  0.49112554  0.74971464  0.74748283  1
  Sb  Sb23  1  0.24830950  0.25523189  0.49857676  1
  Sb  Sb24  1  0.49941873  0.25690688  0.25291397  1
  Sb  Sb25  1  0.74757206  0.74710818  0.49816585  1
  Sb  Sb26  1  0.49852476  0.25020964  0.74723660  1
  Sb  Sb27  1  0.74928917  -0.00175592  0.74717952  1
  Sb  Sb28  1  0.74837769  0.50143294  0.74555614  1
  Sb  Sb29  1  0.00194866  0.25111511  0.74361914  1
  Sb  Sb30  1  0.74912979  0.25296751  0.00473549  1
  Sb  Sb31  1  0.25100209  0.25232733  0.00179499  1
  Te  Te32  1  0.24407948  0.25911130  0.24931479  1
  Te  Te33  1  0.24925327  0.25005816  0.75104527  1
  Te  Te34  1  0.25314696  0.74568437  0.25131567  1
  Te  Te35  1  0.24873565  0.74872409  0.74713471  1
  Te  Te36  1  0.75453871  0.25540628  0.25444294  1
  Te  Te37  1  0.75093234  0.25012765  0.74189314  1
  Te  Te38  1  0.74277006  0.74322529  0.24944888  1
  Te  Te39  1  0.76455358  0.74936925  0.75082090  1
  Te  Te40  1  0.25473706  -0.00391237  -0.00366696  1
  Te  Te41  1  0.25136752  -0.00227669  0.50132130  1
  Te  Te42  1  0.25361917  0.50272976  -0.00105497  1
  Te  Te43  1  0.25079234  0.50027493  0.50051308  1
  Te  Te44  1  0.73942150  0.00066838  -0.00037375  1
  Te  Te45  1  0.74876303  0.00410890  0.50029164  1
  Te  Te46  1  0.74151600  0.49963992  0.00524991  1
  Te  Te47  1  0.74953516  0.49829420  0.49747976  1
  Te  Te48  1  -0.00155450  0.24910066  0.00841745  1
  Te  Te49  1  -0.00209574  0.25095673  0.49689329  1
  Te  Te50  1  0.00786880  0.75107925  -0.00528766  1
  Te  Te51  1  0.00280748  0.74957470  0.50058495  1
  Te  Te52  1  0.50079963  0.24846200  0.00084721  1
  Te  Te53  1  0.50521863  0.24893913  0.49856645  1
  Te  Te54  1  0.49575526  0.74868550  0.00207060  1
  Te  Te55  1  0.49761521  0.74946058  0.49896023  1
  Te  Te56  1  -0.00029387  0.00306986  0.25598908  1
  Te  Te57  1  0.00445313  -0.00140971  0.74573654  1
  Te  Te58  1  0.00067071  0.50027881  0.25311110  1
  Te  Te59  1  0.00384016  0.50132522  0.74651476  1
  Te  Te60  1  0.49953431  -0.00438258  0.25243530  1
  Te  Te61  1  0.49518225  -0.00014224  0.74702875  1
  Te  Te62  1  0.49737240  0.50037578  0.25258716  1
  Te  Te63  1  0.49612976  0.50036795  0.74845491  1
