# generated using pymatgen
data_AgSbTe2
_symmetry_space_group_name_H-M   'P 1'
_cell_length_a   12.23645631
_cell_length_b   12.24022915
_cell_length_c   12.22732500
_cell_angle_alpha   89.99791766
_cell_angle_beta   89.99238731
_cell_angle_gamma   89.98732021
_symmetry_Int_Tables_number   1
_chemical_formula_structural   AgSbTe2
_chemical_formula_sum   'Ag16 Sb16 Te32'
_cell_volume   1831.37235131
_cell_formula_units_Z   16
loop_
 _symmetry_equiv_pos_site_id
 _symmetry_equiv_pos_as_xyz
  1  'x, y, z'
loop_
 _atom_site_type_symbol
 _atom_site_label
 _atom_site_symmetry_multiplicity
 _atom_site_fract_x
 _atom_site_fract_y
 _atom_site_fract_z
 _atom_site_occupancy
  Ag  Ag0  1  0.00007512  0.74656666  0.75584904  1
  Ag  Ag1  1  0.75203228  0.74686528  -0.00557209  1
  Ag  Ag2  1  0.49689772  0.00230403  -0.01012085  1
  Ag  Ag3  1  0.24530306  0.48563683  0.75297593  1
  Ag  Ag4  1  0.01418492  0.25303988  0.75789538  1
  Ag  Ag5  1  0.48598750  0.24376296  0.75287918  1
  Ag  Ag6  1  0.25400120  0.01377605  0.75376079  1
  Ag  Ag7  1  0.49633871  0.00263211  0.51210786  1
  Ag  Ag8  1  0.75567237  0.50035703  0.75591673  1
  Ag  Ag9  1  0.00244466  0.00655692  -0.00686919  1
  Ag  Ag10  1  0.24441344  0.24798061  -0.01322410  1
  Ag  Ag11  1  0.75402577  0.49846111  0.24300599  1
  Ag  Ag12  1  0.00130498  0.25205895  0.24115889  1
  Ag  Ag13  1  0.25013636  0.24836694  0.51586193  1
  Ag  Ag14  1  0.49921321  0.75543490  0.75310828  1
  Ag  Ag15  1  -0.00182399  0.49446953  -0.00733611  1
  Sb  Sb16  1  0.00116810  0.49845071  0.50896773  1
  Sb  Sb17  1  0.24821615  0.00313331  0.24580574  1
  Sb  Sb18  1  0.75212482  0.00269923  0.24516496  1
  Sb  Sb19  1  0.24899466  0.75180053  -0.00547686  1
  Sb  Sb20  1  0.49843996  0.49735768  0.50574934  1
  Sb  Sb21  1  0.74690961  -0.00027963  0.75314732  1
  Sb  Sb22  1  0.74845543  0.74856368  0.50718073  1
  Sb  Sb23  1  -0.00349294  0.74824479  0.24173429  1
  Sb  Sb24  1  0.50085071  0.49765148  -0.00474039  1
  Sb  Sb25  1  0.49964740  0.24949558  0.24693506  1
  Sb  Sb26  1  0.75613193  0.25325851  -0.00363765  1
  Sb  Sb27  1  0.50356529  0.75090975  0.24546201  1
  Sb  Sb28  1  0.25176260  0.75196995  0.50834093  1
  Sb  Sb29  1  0.00368972  0.00392556  0.50996091  1
  Sb  Sb30  1  0.24523341  0.49466439  0.24507973  1
  Sb  Sb31  1  0.74982900  0.25009853  0.50438351  1
  Te  Te32  1  0.24529564  0.25090066  0.24851901  1
  Te  Te33  1  0.25078865  0.24906284  0.75194893  1
  Te  Te34  1  0.25010528  0.74842660  0.25327338  1
  Te  Te35  1  0.25078881  0.74985001  0.75009663  1
  Te  Te36  1  0.75511711  0.25562611  0.25107834  1
  Te  Te37  1  0.74976593  0.25647032  0.74970407  1
  Te  Te38  1  0.75056476  0.74314204  0.24372754  1
  Te  Te39  1  0.75044376  0.74689255  0.75344719  1
  Te  Te40  1  0.24926102  0.00136135  -0.00329611  1
  Te  Te41  1  0.25373510  0.00360224  0.50435895  1
  Te  Te42  1  0.24680453  0.49671510  -0.00428821  1
  Te  Te43  1  0.25003608  0.49381121  0.50559957  1
  Te  Te44  1  0.75086369  -0.00573171  0.00051335  1
  Te  Te45  1  0.74066372  -0.00081113  0.49724330  1
  Te  Te46  1  0.75149461  0.50240297  -0.00419908  1
  Te  Te47  1  0.75015724  0.50078020  0.50105691  1
  Te  Te48  1  -0.00055488  0.24965918  -0.00317564  1
  Te  Te49  1  0.00426728  0.24847373  0.50162093  1
  Te  Te50  1  -0.00094910  0.74974879  -0.00461972  1
  Te  Te51  1  -0.00011453  0.75162243  0.50848900  1
  Te  Te52  1  0.49586090  0.24664553  -0.00219811  1
  Te  Te53  1  0.49630560  0.24659143  0.50166453  1
  Te  Te54  1  0.50184957  0.75395743  -0.00462312  1
  Te  Te55  1  0.49995096  0.75672952  0.50635053  1
  Te  Te56  1  -0.00033626  0.00413388  0.24232979  1
  Te  Te57  1  0.00008981  0.00165845  0.75339748  1
  Te  Te58  1  -0.00313049  0.49709647  0.24368187  1
  Te  Te59  1  0.00059436  0.49885596  0.75202604  1
  Te  Te60  1  0.50027261  -0.00027263  0.24649995  1
  Te  Te61  1  0.50131692  0.00146020  0.75333110  1
  Te  Te62  1  0.50781364  0.50074173  0.25062860  1
  Te  Te63  1  0.49914455  0.50018271  0.75035797  1
