# generated using pymatgen
data_AgSbTe2
_symmetry_space_group_name_H-M   'P 1'
_cell_length_a   12.22337225
_cell_length_b   12.22186125
_cell_length_c   12.22439711
_cell_angle_alpha   90.00749645
_cell_angle_beta   89.99781386
_cell_angle_gamma   89.99556806
_symmetry_Int_Tables_number   1
_chemical_formula_structural   AgSbTe2
_chemical_formula_sum   'Ag16 Sb16 Te32'
_cell_volume   1826.23150840
_cell_formula_units_Z   16
loop_
 _symmetry_equiv_pos_site_id
 _symmetry_equiv_pos_as_xyz
  1  'x, y, z'
loop_
 _atom_site_type_symbol
 _atom_site_label
 _atom_site_symmetry_multiplicity
 _atom_site_fract_x
 _atom_site_fract_y
 _atom_site_fract_z
 _atom_site_occupancy
  Ag  Ag0  1  0.24707745  0.48527411  0.74503926  1
  Ag  Ag1  1  0.24936697  -0.00017808  0.25934959  1
  Ag  Ag2  1  0.24928505  0.01493904  0.74137700  1
  Ag  Ag3  1  0.00360539  0.50051282  -0.00275705  1
  Ag  Ag4  1  0.00611476  0.50059845  0.50338475  1
  Ag  Ag5  1  0.75083186  0.74973275  0.49704820  1
  Ag  Ag6  1  0.01507087  0.25235674  0.74670101  1
  Ag  Ag7  1  0.00007175  0.75046952  0.25425282  1
  Ag  Ag8  1  0.48446224  0.25013320  0.74573710  1
  Ag  Ag9  1  0.49390582  0.50088643  0.50230623  1
  Ag  Ag10  1  0.00925645  -0.00058928  0.50062785  1
  Ag  Ag11  1  0.24917417  0.24640091  0.51405105  1
  Ag  Ag12  1  0.24841475  0.25093026  -0.01542562  1
  Ag  Ag13  1  0.49068182  -0.00068099  0.50055231  1
  Ag  Ag14  1  0.75220100  0.74822294  0.00259170  1
  Ag  Ag15  1  0.49958644  0.75156935  0.25538001  1
  Sb  Sb16  1  0.00462382  0.24851691  0.25341980  1
  Sb  Sb17  1  0.24903822  0.50031568  0.25637021  1
  Sb  Sb18  1  0.49619332  0.50093354  -0.00263318  1
  Sb  Sb19  1  0.75067946  0.50370222  0.25093123  1
  Sb  Sb20  1  0.49453900  0.24798688  0.25514338  1
  Sb  Sb21  1  0.75038754  0.25074481  0.50187830  1
  Sb  Sb22  1  0.75094252  -0.00022292  0.74730771  1
  Sb  Sb23  1  0.24847056  0.75459351  0.49894469  1
  Sb  Sb24  1  0.49842306  0.75016208  0.74385210  1
  Sb  Sb25  1  0.00148196  0.74856416  0.74572258  1
  Sb  Sb26  1  0.49673426  -0.00072440  -0.00083130  1
  Sb  Sb27  1  0.24830091  0.74773529  0.00111141  1
  Sb  Sb28  1  0.00346852  -0.00100510  -0.00121778  1
  Sb  Sb29  1  0.75058253  -0.00440229  0.25263211  1
  Sb  Sb30  1  0.75257243  0.25250571  -0.00314683  1
  Sb  Sb31  1  0.75311810  0.50033466  0.74857227  1
  Te  Te32  1  0.25036558  0.24325253  0.25099376  1
  Te  Te33  1  0.24920453  0.24972249  0.74731942  1
  Te  Te34  1  0.24957876  0.75538793  0.24841737  1
  Te  Te35  1  0.25032531  0.75059942  0.75266235  1
  Te  Te36  1  0.74888654  0.24856017  0.24747899  1
  Te  Te37  1  0.74964066  0.24938584  0.75112411  1
  Te  Te38  1  0.75100393  0.75100895  0.25215423  1
  Te  Te39  1  0.74977241  0.75040140  0.75023776  1
  Te  Te40  1  0.24980184  0.00499415  -0.00186977  1
  Te  Te41  1  0.24939536  0.00018881  0.50107942  1
  Te  Te42  1  0.24561182  0.49623513  -0.00352368  1
  Te  Te43  1  0.24842037  0.49722603  0.50138217  1
  Te  Te44  1  0.74971908  -0.00743036  -0.00030448  1
  Te  Te45  1  0.75051232  -0.00480099  0.50043297  1
  Te  Te46  1  0.75694897  0.50455373  -0.00018195  1
  Te  Te47  1  0.75133739  0.50448036  0.50030785  1
  Te  Te48  1  0.00190282  0.25355201  -0.00268598  1
  Te  Te49  1  0.00044590  0.25126435  0.50159853  1
  Te  Te50  1  -0.00293703  0.74741352  0.00393384  1
  Te  Te51  1  -0.00198960  0.74881598  0.49775159  1
  Te  Te52  1  0.49692331  0.25127408  -0.00575215  1
  Te  Te53  1  0.50025348  0.25021887  0.50253151  1
  Te  Te54  1  0.50533901  0.74844765  0.00730540  1
  Te  Te55  1  0.50278555  0.74974497  0.49768279  1
  Te  Te56  1  0.00416541  -0.00333174  0.25449324  1
  Te  Te57  1  0.00386246  0.00302378  0.74596232  1
  Te  Te58  1  0.00078984  0.50471210  0.25256733  1
  Te  Te59  1  0.00292606  0.49859467  0.74641134  1
  Te  Te60  1  0.49556707  -0.00306005  0.25490767  1
  Te  Te61  1  0.49591660  0.00196163  0.74531147  1
  Te  Te62  1  0.49947659  0.50504055  0.25638878  1
  Te  Te63  1  0.49538465  0.49824313  0.74560888  1
