# generated using pymatgen
data_AgSbTe2
_symmetry_space_group_name_H-M   'P 1'
_cell_length_a   12.21846139
_cell_length_b   12.21220012
_cell_length_c   12.21014637
_cell_angle_alpha   89.99673196
_cell_angle_beta   89.99632631
_cell_angle_gamma   89.99940107
_symmetry_Int_Tables_number   1
_chemical_formula_structural   AgSbTe2
_chemical_formula_sum   'Ag16 Sb16 Te32'
_cell_volume   1821.92838519
_cell_formula_units_Z   16
loop_
 _symmetry_equiv_pos_site_id
 _symmetry_equiv_pos_as_xyz
  1  'x, y, z'
loop_
 _atom_site_type_symbol
 _atom_site_label
 _atom_site_symmetry_multiplicity
 _atom_site_fract_x
 _atom_site_fract_y
 _atom_site_fract_z
 _atom_site_occupancy
  Ag  Ag0  1  0.49995679  0.50110545  0.50191893  1
  Ag  Ag1  1  -0.00010008  0.24568298  0.75487079  1
  Ag  Ag2  1  0.75189519  0.24479321  -0.00252517  1
  Ag  Ag3  1  0.49937119  0.25059472  0.75248769  1
  Ag  Ag4  1  0.24517475  -0.00361346  0.24492625  1
  Ag  Ag5  1  0.25002703  0.75366774  0.00204448  1
  Ag  Ag6  1  0.74875528  0.50167999  0.24844597  1
  Ag  Ag7  1  0.75217484  0.00349420  0.75405097  1
  Ag  Ag8  1  0.75558823  -0.00209688  0.24580250  1
  Ag  Ag9  1  0.24780848  0.24675138  -0.00334303  1
  Ag  Ag10  1  0.49994826  0.75080746  0.24822492  1
  Ag  Ag11  1  0.25351065  0.49808863  0.75200702  1
  Ag  Ag12  1  0.49846357  0.74899119  0.75189453  1
  Ag  Ag13  1  -0.00086746  0.00031489  0.49693311  1
  Ag  Ag14  1  0.00013158  0.75752289  0.24720745  1
  Ag  Ag15  1  -0.00017347  0.00215936  0.00319885  1
  Sb  Sb16  1  0.75030324  0.24811564  0.50247869  1
  Sb  Sb17  1  -0.00037221  0.49746602  0.00064716  1
  Sb  Sb18  1  0.25096544  0.50300512  0.24826481  1
  Sb  Sb19  1  0.00107742  0.75374696  0.75259672  1
  Sb  Sb20  1  -0.00035953  0.49915101  0.49906114  1
  Sb  Sb21  1  0.49979400  0.50053335  -0.00143860  1
  Sb  Sb22  1  0.74673059  0.49750166  0.75181749  1
  Sb  Sb23  1  0.75070165  0.75565256  0.00278076  1
  Sb  Sb24  1  0.74981155  0.75090415  0.49774285  1
  Sb  Sb25  1  0.24949247  0.24839545  0.50411786  1
  Sb  Sb26  1  0.24862163  0.00107261  0.75596510  1
  Sb  Sb27  1  0.50083420  0.25013486  0.24790405  1
  Sb  Sb28  1  0.25058557  0.75124673  0.49908735  1
  Sb  Sb29  1  0.50049871  -0.00005998  0.00036444  1
  Sb  Sb30  1  0.49981910  -0.00042658  0.50023706  1
  Sb  Sb31  1  -0.00056029  0.24153944  0.24549391  1
  Te  Te32  1  0.25088061  0.24733545  0.24146839  1
  Te  Te33  1  0.25168679  0.25031869  0.75413729  1
  Te  Te34  1  0.25183149  0.75113231  0.24574386  1
  Te  Te35  1  0.25360025  0.74892052  0.75480843  1
  Te  Te36  1  0.74919433  0.24730267  0.24389227  1
  Te  Te37  1  0.74932510  0.24830820  0.75414939  1
  Te  Te38  1  0.74799865  0.75327445  0.24770722  1
  Te  Te39  1  0.74483428  0.75315126  0.75241432  1
  Te  Te40  1  0.24680376  0.00049337  0.00251623  1
  Te  Te41  1  0.24412325  0.00066576  0.49104196  1
  Te  Te42  1  0.24934734  0.49851077  -0.00430013  1
  Te  Te43  1  0.25438762  0.49945355  0.50528093  1
  Te  Te44  1  0.75326921  0.00301456  0.00084807  1
  Te  Te45  1  0.75531057  0.00069333  0.49859577  1
  Te  Te46  1  0.75108227  0.49227470  0.00542305  1
  Te  Te47  1  0.74563990  0.49930439  0.49349753  1
  Te  Te48  1  0.00098070  0.24682931  -0.00325712  1
  Te  Te49  1  0.00068164  0.24496827  0.50763806  1
  Te  Te50  1  0.00430572  0.75470170  0.00335948  1
  Te  Te51  1  0.00002029  0.75589369  0.49497962  1
  Te  Te52  1  0.49886987  0.25011316  -0.00546020  1
  Te  Te53  1  0.49939074  0.25484494  0.50763342  1
  Te  Te54  1  0.49458630  0.75020792  0.00029771  1
  Te  Te55  1  0.49994676  0.74645651  0.50068633  1
  Te  Te56  1  -0.00201539  -0.00093348  0.24812979  1
  Te  Te57  1  -0.00264487  0.00134397  0.75160001  1
  Te  Te58  1  -0.00397956  0.50748717  0.25262506  1
  Te  Te59  1  0.00314661  0.49652665  0.74782153  1
  Te  Te60  1  0.50183086  -0.00471368  0.25229132  1
  Te  Te61  1  0.50417258  -0.00069827  0.74765403  1
  Te  Te62  1  0.50257506  0.50374078  0.25424244  1
  Te  Te63  1  0.49920890  0.50115468  0.74726791  1
