# generated using pymatgen
data_AgSbTe2
_symmetry_space_group_name_H-M   'P 1'
_cell_length_a   12.20230816
_cell_length_b   12.20194523
_cell_length_c   12.20580437
_cell_angle_alpha   90.00009721
_cell_angle_beta   89.99713777
_cell_angle_gamma   89.99876340
_symmetry_Int_Tables_number   1
_chemical_formula_structural   AgSbTe2
_chemical_formula_sum   'Ag16 Sb16 Te32'
_cell_volume   1817.34534980
_cell_formula_units_Z   16
loop_
 _symmetry_equiv_pos_site_id
 _symmetry_equiv_pos_as_xyz
  1  'x, y, z'
loop_
 _atom_site_type_symbol
 _atom_site_label
 _atom_site_symmetry_multiplicity
 _atom_site_fract_x
 _atom_site_fract_y
 _atom_site_fract_z
 _atom_site_occupancy
  Ag  Ag0  1  0.25082634  0.50044640  0.25126926  1
  Ag  Ag1  1  0.50369077  0.50245908  0.00178008  1
  Ag  Ag2  1  -0.00224419  0.00196885  -0.00185627  1
  Ag  Ag3  1  0.75267789  0.25214442  -0.00012890  1
  Ag  Ag4  1  0.24550402  0.25086120  0.49859415  1
  Ag  Ag5  1  0.00051555  -0.00057935  0.50171545  1
  Ag  Ag6  1  0.50282685  0.74832999  0.75083322  1
  Ag  Ag7  1  0.24830474  0.74928514  0.49948247  1
  Ag  Ag8  1  -0.00298424  0.75106087  0.74715965  1
  Ag  Ag9  1  0.50073413  0.74655548  0.24899551  1
  Ag  Ag10  1  0.75017102  0.50262182  0.75135752  1
  Ag  Ag11  1  0.50221440  -0.00246067  -0.00010442  1
  Ag  Ag12  1  -0.00032764  0.25048054  0.25028630  1
  Ag  Ag13  1  0.74856627  0.50078800  0.24811323  1
  Ag  Ag14  1  -0.00176539  0.24853219  0.74991576  1
  Ag  Ag15  1  0.75140853  0.74841831  0.50221265  1
  Sb  Sb16  1  -0.00485261  0.49767366  -0.00023378  1
  Sb  Sb17  1  0.75022590  -0.00125745  0.24823401  1
  Sb  Sb18  1  0.75650445  0.25148284  0.50023910  1
  Sb  Sb19  1  0.50272416  0.25203922  0.75195263  1
  Sb  Sb20  1  0.50072082  0.25435054  0.24831014  1
  Sb  Sb21  1  0.75239566  -0.00397462  0.75117424  1
  Sb  Sb22  1  0.25128349  0.74842511  0.00166912  1
  Sb  Sb23  1  0.24756300  -0.00120961  0.74908153  1
  Sb  Sb24  1  0.24569375  0.25171647  0.00177058  1
  Sb  Sb25  1  0.74838310  0.74648938  -0.00241927  1
  Sb  Sb26  1  -0.00082331  0.74930761  0.25369840  1
  Sb  Sb27  1  0.25074395  0.50122423  0.74908928  1
  Sb  Sb28  1  0.24976270  -0.00048293  0.25160086  1
  Sb  Sb29  1  0.50049243  0.50346897  0.49758916  1
  Sb  Sb30  1  0.00023359  0.50137971  0.50038483  1
  Sb  Sb31  1  0.50031486  -0.00456321  0.50075504  1
  Te  Te32  1  0.24597946  0.25522508  0.25359836  1
  Te  Te33  1  0.24284055  0.25277549  0.74399215  1
  Te  Te34  1  0.25254779  0.74447834  0.25570861  1
  Te  Te35  1  0.24958601  0.74757763  0.74241934  1
  Te  Te36  1  0.75334102  0.25634177  0.24860898  1
  Te  Te37  1  0.75435730  0.25698052  0.75148633  1
  Te  Te38  1  0.74750819  0.74388269  0.25385809  1
  Te  Te39  1  0.75046063  0.74567413  0.74773384  1
  Te  Te40  1  0.25003181  0.00086009  0.00068215  1
  Te  Te41  1  0.24442986  -0.00115225  0.49913489  1
  Te  Te42  1  0.25837935  0.49921721  0.00688963  1
  Te  Te43  1  0.25088957  0.50105153  0.49467047  1
  Te  Te44  1  0.75089548  0.00657848  0.00098511  1
  Te  Te45  1  0.75566012  -0.00559951  0.49912198  1
  Te  Te46  1  0.74643844  0.49729050  0.00091515  1
  Te  Te47  1  0.74909575  0.50446544  0.49992007  1
  Te  Te48  1  -0.00252320  0.24647233  -0.00096815  1
  Te  Te49  1  0.00165932  0.24536077  0.50064146  1
  Te  Te50  1  -0.00001734  0.75752239  -0.00600973  1
  Te  Te51  1  0.00060731  0.75364248  0.50206449  1
  Te  Te52  1  0.50461229  0.24875809  -0.00085527  1
  Te  Te53  1  0.49159569  0.24663530  0.50070350  1
  Te  Te54  1  0.50031075  0.75040719  -0.00041476  1
  Te  Te55  1  0.49956547  0.75248608  0.50101543  1
  Te  Te56  1  -0.00020658  0.00476006  0.24869170  1
  Te  Te57  1  -0.00067159  -0.00005541  0.75088606  1
  Te  Te58  1  -0.00067878  0.49614673  0.24821062  1
  Te  Te59  1  -0.00445916  0.50113908  0.75175911  1
  Te  Te60  1  0.50010909  -0.00693740  0.24337437  1
  Te  Te61  1  0.50066464  -0.00629089  0.75666386  1
  Te  Te62  1  0.50163430  0.50325037  0.24692479  1
  Te  Te63  1  0.50387146  0.50407349  0.75506582  1
