# generated using pymatgen
data_AgSbTe2
_symmetry_space_group_name_H-M   'P 1'
_cell_length_a   12.22476348
_cell_length_b   12.21324086
_cell_length_c   12.22491673
_cell_angle_alpha   90.00478245
_cell_angle_beta   89.99950797
_cell_angle_gamma   90.00208480
_symmetry_Int_Tables_number   1
_chemical_formula_structural   AgSbTe2
_chemical_formula_sum   'Ag16 Sb16 Te32'
_cell_volume   1825.22872477
_cell_formula_units_Z   16
loop_
 _symmetry_equiv_pos_site_id
 _symmetry_equiv_pos_as_xyz
  1  'x, y, z'
loop_
 _atom_site_type_symbol
 _atom_site_label
 _atom_site_symmetry_multiplicity
 _atom_site_fract_x
 _atom_site_fract_y
 _atom_site_fract_z
 _atom_site_occupancy
  Ag  Ag0  1  0.75092828  0.24345099  0.49965542  1
  Ag  Ag1  1  0.50449797  0.24108896  0.25033919  1
  Ag  Ag2  1  0.50733519  0.24584080  0.75012685  1
  Ag  Ag3  1  -0.00692858  0.00593009  0.49388211  1
  Ag  Ag4  1  -0.00416247  0.24265778  0.25061267  1
  Ag  Ag5  1  0.74886604  0.00890131  0.74692061  1
  Ag  Ag6  1  0.25118097  0.00383521  0.24662413  1
  Ag  Ag7  1  0.75015439  0.49030071  0.74776226  1
  Ag  Ag8  1  0.49940393  0.76011399  0.24974964  1
  Ag  Ag9  1  -0.00047901  0.00549191  0.00607840  1
  Ag  Ag10  1  0.50640720  0.00506291  0.49364007  1
  Ag  Ag11  1  0.24905898  0.24398561  0.00417974  1
  Ag  Ag12  1  0.75010414  0.24432182  0.00047113  1
  Ag  Ag13  1  0.74899950  0.00751259  0.25358136  1
  Ag  Ag14  1  0.25026468  0.75690224  0.00425510  1
  Ag  Ag15  1  -0.00461428  0.49325609  0.49878452  1
  Sb  Sb16  1  -0.00862928  0.24844912  0.74784577  1
  Sb  Sb17  1  -0.00266210  0.49302047  0.00113167  1
  Sb  Sb18  1  0.00069023  0.75985421  0.24904051  1
  Sb  Sb19  1  0.75139381  0.49002089  0.25291208  1
  Sb  Sb20  1  0.24952600  0.49513491  0.75036403  1
  Sb  Sb21  1  0.25158027  0.00378129  0.75458743  1
  Sb  Sb22  1  0.74983191  0.75762532  0.00272728  1
  Sb  Sb23  1  0.74945659  0.75839640  0.49759560  1
  Sb  Sb24  1  -0.00045767  0.75166878  0.75064209  1
  Sb  Sb25  1  0.50244931  0.49655862  0.00003490  1
  Sb  Sb26  1  0.24869739  0.24664332  0.49559206  1
  Sb  Sb27  1  0.50044618  0.00364619  0.00846370  1
  Sb  Sb28  1  0.24895444  0.49606519  0.24921209  1
  Sb  Sb29  1  0.50119831  0.75631184  0.75091912  1
  Sb  Sb30  1  0.50552773  0.49321555  0.50029562  1
  Sb  Sb31  1  0.25148440  0.75408253  0.49514812  1
  Te  Te32  1  0.25130076  0.24666804  0.24628352  1
  Te  Te33  1  0.26050053  0.24998444  0.75922830  1
  Te  Te34  1  0.25403487  0.75451802  0.24519719  1
  Te  Te35  1  0.25157311  0.74900464  0.76011557  1
  Te  Te36  1  0.74881609  0.24757195  0.25001329  1
  Te  Te37  1  0.74825014  0.24682321  0.75001808  1
  Te  Te38  1  0.74379332  0.75721943  0.24852116  1
  Te  Te39  1  0.74848594  0.75087743  0.75110655  1
  Te  Te40  1  0.24627998  0.00354525  0.00253019  1
  Te  Te41  1  0.24835781  0.00003719  0.49512584  1
  Te  Te42  1  0.24798395  0.49803875  -0.00061691  1
  Te  Te43  1  0.23998856  0.50147372  0.50126651  1
  Te  Te44  1  0.75339478  0.00362856  0.00023498  1
  Te  Te45  1  0.75093827  0.00244993  0.49858852  1
  Te  Te46  1  0.75199529  0.49292329  -0.00631280  1
  Te  Te47  1  0.75428663  0.49371843  0.50307488  1
  Te  Te48  1  -0.00098243  0.24698632  0.00292809  1
  Te  Te49  1  -0.00105893  0.24555184  0.49820702  1
  Te  Te50  1  0.00490524  0.75593312  0.00112742  1
  Te  Te51  1  0.00052571  0.75255772  0.49944111  1
  Te  Te52  1  0.50201465  0.24908731  0.00210039  1
  Te  Te53  1  0.50111993  0.24701572  0.49757383  1
  Te  Te54  1  0.49529080  0.74898774  0.00479790  1
  Te  Te55  1  0.49886615  0.75604919  0.49460397  1
  Te  Te56  1  -0.00089575  0.00227615  0.25088127  1
  Te  Te57  1  -0.00446693  0.00029564  0.74802691  1
  Te  Te58  1  -0.00052126  0.49292022  0.25525419  1
  Te  Te59  1  -0.00576827  0.50039740  0.74427520  1
  Te  Te60  1  0.50060073  0.00354424  0.25067705  1
  Te  Te61  1  0.50371461  0.00339833  0.74274577  1
  Te  Te62  1  0.50015612  0.49861876  0.25188773  1
  Te  Te63  1  0.50601515  0.49477037  0.74792201  1
