# generated using pymatgen
data_AgSbTe2
_symmetry_space_group_name_H-M   'P 1'
_cell_length_a   12.23175169
_cell_length_b   12.23097956
_cell_length_c   12.22321901
_cell_angle_alpha   89.99681952
_cell_angle_beta   89.99806058
_cell_angle_gamma   89.99546402
_symmetry_Int_Tables_number   1
_chemical_formula_structural   AgSbTe2
_chemical_formula_sum   'Ag16 Sb16 Te32'
_cell_volume   1828.67062141
_cell_formula_units_Z   16
loop_
 _symmetry_equiv_pos_site_id
 _symmetry_equiv_pos_as_xyz
  1  'x, y, z'
loop_
 _atom_site_type_symbol
 _atom_site_label
 _atom_site_symmetry_multiplicity
 _atom_site_fract_x
 _atom_site_fract_y
 _atom_site_fract_z
 _atom_site_occupancy
  Ag  Ag0  1  0.74424951  0.75137501  0.49828287  1
  Ag  Ag1  1  0.50505558  0.24425274  0.24189471  1
  Ag  Ag2  1  0.50558039  0.75172309  0.75095463  1
  Ag  Ag3  1  0.74395035  0.00307094  0.24142402  1
  Ag  Ag4  1  0.50600857  0.49687833  0.00336880  1
  Ag  Ag5  1  0.74514819  0.50208554  0.75483424  1
  Ag  Ag6  1  0.74472573  0.49752622  0.24492439  1
  Ag  Ag7  1  0.25534680  0.24608833  0.00515699  1
  Ag  Ag8  1  0.74540648  0.24501581  0.00665579  1
  Ag  Ag9  1  0.25612258  0.75252673  0.49683489  1
  Ag  Ag10  1  0.25632391  0.00125898  0.24517567  1
  Ag  Ag11  1  -0.00718105  0.00434602  0.00443707  1
  Ag  Ag12  1  0.50578398  0.00378232  0.00677313  1
  Ag  Ag13  1  -0.00519329  0.24576421  0.24418992  1
  Ag  Ag14  1  0.50425167  0.75555186  0.24870094  1
  Ag  Ag15  1  0.74594848  -0.00205122  0.75845194  1
  Sb  Sb16  1  0.25627045  0.75421520  0.00370305  1
  Sb  Sb17  1  0.25684933  0.50286203  0.75414756  1
  Sb  Sb18  1  0.25537955  -0.00222617  0.75474188  1
  Sb  Sb19  1  0.25573590  0.49964189  0.24716795  1
  Sb  Sb20  1  0.50310636  0.24770038  0.75973970  1
  Sb  Sb21  1  -0.00274965  0.50077414  0.49809888  1
  Sb  Sb22  1  0.74549156  0.75586635  0.00218957  1
  Sb  Sb23  1  -0.00352228  0.24727442  0.75621957  1
  Sb  Sb24  1  0.74886211  0.24825948  0.49283479  1
  Sb  Sb25  1  -0.00717487  0.75221571  0.75049181  1
  Sb  Sb26  1  -0.00850447  0.49537134  0.00291023  1
  Sb  Sb27  1  -0.00241600  -0.00043368  0.49563372  1
  Sb  Sb28  1  0.25212562  0.24718745  0.49330493  1
  Sb  Sb29  1  0.50127816  -0.00374475  0.49167640  1
  Sb  Sb30  1  -0.00448235  0.75330234  0.24911223  1
  Sb  Sb31  1  0.50249481  0.50318499  0.49655932  1
  Te  Te32  1  0.25271881  0.24782122  0.24743013  1
  Te  Te33  1  0.24917841  0.25028214  0.75463437  1
  Te  Te34  1  0.25326168  0.75209614  0.25318487  1
  Te  Te35  1  0.25681062  0.75002807  0.74338345  1
  Te  Te36  1  0.74672395  0.24763855  0.24917016  1
  Te  Te37  1  0.74966591  0.24897499  0.75286504  1
  Te  Te38  1  0.74763883  0.75115467  0.25160765  1
  Te  Te39  1  0.74647382  0.75123993  0.74734997  1
  Te  Te40  1  0.25367113  0.00370148  0.00335822  1
  Te  Te41  1  0.24876497  -0.00430056  0.49500720  1
  Te  Te42  1  0.25606067  0.49276019  -0.00072424  1
  Te  Te43  1  0.24874983  0.50704941  0.50128721  1
  Te  Te44  1  0.74661252  0.00016898  0.00246091  1
  Te  Te45  1  0.75075477  -0.00381742  0.50063110  1
  Te  Te46  1  0.74727028  0.49698653  0.00228032  1
  Te  Te47  1  0.75009979  0.50461476  0.49978478  1
  Te  Te48  1  -0.00263021  0.24626441  0.00441639  1
  Te  Te49  1  0.00156963  0.25004016  0.49015711  1
  Te  Te50  1  0.00468156  0.75855148  -0.00033968  1
  Te  Te51  1  -0.00012347  0.75007545  0.50024669  1
  Te  Te52  1  0.50322108  0.24832101  0.00287585  1
  Te  Te53  1  0.49846466  0.25150214  0.48973649  1
  Te  Te54  1  0.49893535  0.74996665  0.00224549  1
  Te  Te55  1  0.50235852  0.75011955  0.49882029  1
  Te  Te56  1  -0.00186683  0.00202384  0.24618062  1
  Te  Te57  1  -0.00669092  0.00030534  0.75711571  1
  Te  Te58  1  -0.00827028  0.49490470  0.24858423  1
  Te  Te59  1  -0.01013219  0.49971757  0.75029873  1
  Te  Te60  1  0.50195787  -0.00229982  0.24787345  1
  Te  Te61  1  0.50420570  -0.00259108  0.75607434  1
  Te  Te62  1  0.50402129  0.50273526  0.24627679  1
  Te  Te63  1  0.50557012  0.50331824  0.75513477  1
