# generated using pymatgen
data_AgSbTe2
_symmetry_space_group_name_H-M   'P 1'
_cell_length_a   12.28579284
_cell_length_b   12.28320615
_cell_length_c   12.28526066
_cell_angle_alpha   89.99212027
_cell_angle_beta   89.99496819
_cell_angle_gamma   90.00440910
_symmetry_Int_Tables_number   1
_chemical_formula_structural   AgSbTe2
_chemical_formula_sum   'Ag16 Sb16 Te32'
_cell_volume   1853.95546375
_cell_formula_units_Z   16
loop_
 _symmetry_equiv_pos_site_id
 _symmetry_equiv_pos_as_xyz
  1  'x, y, z'
loop_
 _atom_site_type_symbol
 _atom_site_label
 _atom_site_symmetry_multiplicity
 _atom_site_fract_x
 _atom_site_fract_y
 _atom_site_fract_z
 _atom_site_occupancy
  Ag  Ag0  1  0.25368729  0.74207339  0.01241104  1
  Ag  Ag1  1  0.50827389  -0.01015587  0.00479059  1
  Ag  Ag2  1  0.50349707  0.51085088  0.00760266  1
  Ag  Ag3  1  -0.00753811  0.50237251  0.49383648  1
  Ag  Ag4  1  0.74700880  -0.00783938  0.24697579  1
  Ag  Ag5  1  0.75309073  0.26264574  0.49804570  1
  Ag  Ag6  1  0.50118693  0.74485266  0.24602019  1
  Ag  Ag7  1  0.25008866  0.73982497  0.49029729  1
  Ag  Ag8  1  -0.00355278  0.50698390  0.00702457  1
  Ag  Ag9  1  0.75072942  0.50224207  0.74218876  1
  Ag  Ag10  1  -0.00835774  -0.00937155  0.00223520  1
  Ag  Ag11  1  0.25038316  0.50901030  0.25395536  1
  Ag  Ag12  1  0.75055521  0.50683155  0.25615601  1
  Ag  Ag13  1  0.24675137  0.26367908  0.49403370  1
  Ag  Ag14  1  0.74926756  -0.00289409  0.75235811  1
  Ag  Ag15  1  0.75026399  0.73921311  0.49316119  1
  Sb  Sb16  1  0.50112078  0.25461555  0.25042348  1
  Sb  Sb17  1  0.25018650  0.25693225  0.00706074  1
  Sb  Sb18  1  -0.00456211  -0.00409387  0.49565420  1
  Sb  Sb19  1  0.50404965  0.50293141  0.49434953  1
  Sb  Sb20  1  0.74768540  0.74868431  0.00863999  1
  Sb  Sb21  1  0.50273101  0.25145708  0.74948017  1
  Sb  Sb22  1  -0.00090911  0.25159894  0.25125070  1
  Sb  Sb23  1  0.74976118  0.25243678  0.00474485  1
  Sb  Sb24  1  0.50342178  0.74909373  0.75441777  1
  Sb  Sb25  1  -0.00264489  0.74878273  0.24929705  1
  Sb  Sb26  1  0.50322872  -0.00364738  0.49480103  1
  Sb  Sb27  1  0.25323315  -0.00834529  0.24825237  1
  Sb  Sb28  1  0.25052925  -0.00087487  0.75321036  1
  Sb  Sb29  1  -0.00437719  0.74978223  0.75219526  1
  Sb  Sb30  1  0.25064898  0.50098223  0.74792006  1
  Sb  Sb31  1  -0.00214819  0.25048225  0.74900677  1
  Te  Te32  1  0.25032007  0.26106232  0.25692751  1
  Te  Te33  1  0.25125556  0.24837855  0.73292709  1
  Te  Te34  1  0.25379389  0.74632378  0.25044592  1
  Te  Te35  1  0.25194383  0.75138213  0.74154622  1
  Te  Te36  1  0.74979085  0.25252525  0.25539229  1
  Te  Te37  1  0.74952688  0.25133364  0.73920329  1
  Te  Te38  1  0.74753779  0.74693388  0.25220107  1
  Te  Te39  1  0.74899800  0.74900684  0.73586203  1
  Te  Te40  1  0.24792693  -0.00171123  0.00018925  1
  Te  Te41  1  0.24758270  -0.00599100  0.50000441  1
  Te  Te42  1  0.24519384  0.50148683  -0.00332181  1
  Te  Te43  1  0.25248455  0.50469125  0.50193595  1
  Te  Te44  1  0.75155735  0.00027855  0.00341108  1
  Te  Te45  1  0.75311929  -0.00325121  0.49763262  1
  Te  Te46  1  0.75533961  0.49893343  0.00641399  1
  Te  Te47  1  0.74767383  0.50263274  0.49552471  1
  Te  Te48  1  0.00056040  0.25509605  0.00005562  1
  Te  Te49  1  -0.00056801  0.25793057  0.49918191  1
  Te  Te50  1  0.00747355  0.74488866  -0.00032203  1
  Te  Te51  1  0.00226933  0.74459916  0.50009568  1
  Te  Te52  1  0.49933620  0.24736743  -0.00004618  1
  Te  Te53  1  0.49865604  0.24841460  0.49974671  1
  Te  Te54  1  0.49947970  0.74834782  0.00472452  1
  Te  Te55  1  0.49701006  0.75029210  0.49133125  1
  Te  Te56  1  -0.00788760  0.00016038  0.24382467  1
  Te  Te57  1  -0.00817798  -0.00075823  0.76074052  1
  Te  Te58  1  -0.00370092  0.50056577  0.24848601  1
  Te  Te59  1  -0.00770912  0.50057823  0.75273697  1
  Te  Te60  1  0.50280930  -0.00504515  0.24625031  1
  Te  Te61  1  0.50741799  0.00009433  0.76183687  1
  Te  Te62  1  0.50250734  0.50256540  0.24639217  1
  Te  Te63  1  0.50918836  0.49974979  0.76687244  1
