# generated using pymatgen
data_AgSbTe2
_symmetry_space_group_name_H-M   'P 1'
_cell_length_a   12.23487630
_cell_length_b   12.22773208
_cell_length_c   12.22335633
_cell_angle_alpha   90.01013047
_cell_angle_beta   89.99818536
_cell_angle_gamma   89.99871696
_symmetry_Int_Tables_number   1
_chemical_formula_structural   AgSbTe2
_chemical_formula_sum   'Ag16 Sb16 Te32'
_cell_volume   1828.67261961
_cell_formula_units_Z   16
loop_
 _symmetry_equiv_pos_site_id
 _symmetry_equiv_pos_as_xyz
  1  'x, y, z'
loop_
 _atom_site_type_symbol
 _atom_site_label
 _atom_site_symmetry_multiplicity
 _atom_site_fract_x
 _atom_site_fract_y
 _atom_site_fract_z
 _atom_site_occupancy
  Ag  Ag0  1  0.25186551  0.25107942  0.00269769  1
  Ag  Ag1  1  0.49489450  0.24156784  0.25761123  1
  Ag  Ag2  1  0.25154659  0.75780794  0.49087222  1
  Ag  Ag3  1  0.49789692  0.00391374  0.49320631  1
  Ag  Ag4  1  0.74277262  0.24139522  0.49640141  1
  Ag  Ag5  1  0.74554650  -0.00148874  0.25750666  1
  Ag  Ag6  1  0.25733245  0.24298817  0.49670436  1
  Ag  Ag7  1  0.24931150  0.74920693  0.00845961  1
  Ag  Ag8  1  0.74830223  0.75884006  0.49394442  1
  Ag  Ag9  1  0.25413584  -0.00386232  0.25709693  1
  Ag  Ag10  1  0.49515717  0.24848633  0.74182432  1
  Ag  Ag11  1  0.00213878  -0.00220328  0.49429390  1
  Ag  Ag12  1  0.49331258  0.75833685  0.25585371  1
  Ag  Ag13  1  0.00728218  0.75434679  0.25380324  1
  Ag  Ag14  1  0.25028538  0.49758847  0.75082155  1
  Ag  Ag15  1  0.00660360  0.50128213  0.00182971  1
  Sb  Sb16  1  0.74952107  0.49820691  0.74784159  1
  Sb  Sb17  1  0.49435190  0.50054801  0.00007234  1
  Sb  Sb18  1  0.49591119  0.75226964  0.74234301  1
  Sb  Sb19  1  0.00376320  0.50209066  0.49760179  1
  Sb  Sb20  1  0.74772386  0.00142875  0.73985824  1
  Sb  Sb21  1  0.00580690  0.24570347  0.25229687  1
  Sb  Sb22  1  0.75030105  0.50001312  0.25159638  1
  Sb  Sb23  1  0.00479963  -0.00090007  0.00616419  1
  Sb  Sb24  1  0.24983988  0.50351315  0.24873768  1
  Sb  Sb25  1  0.25198004  0.00248080  0.74154064  1
  Sb  Sb26  1  0.49593253  -0.00024205  0.00899290  1
  Sb  Sb27  1  0.75073999  0.75125106  0.00746482  1
  Sb  Sb28  1  0.00445666  0.25100985  0.74820209  1
  Sb  Sb29  1  0.00256694  0.74984840  0.74667375  1
  Sb  Sb30  1  0.49671157  0.49522139  0.49962985  1
  Sb  Sb31  1  0.74767453  0.24844079  0.00376453  1
  Te  Te32  1  0.25149426  0.24917446  0.25174292  1
  Te  Te33  1  0.25320546  0.25142205  0.74954428  1
  Te  Te34  1  0.25166768  0.74942880  0.25185967  1
  Te  Te35  1  0.25156957  0.74592487  0.75116305  1
  Te  Te36  1  0.74587404  0.24690626  0.25362147  1
  Te  Te37  1  0.74267308  0.25052301  0.74532725  1
  Te  Te38  1  0.74748471  0.75248910  0.25403145  1
  Te  Te39  1  0.74890390  0.74947658  0.74182380  1
  Te  Te40  1  0.24916257  -0.00006882  0.00661686  1
  Te  Te41  1  0.25162075  -0.00008075  0.49750844  1
  Te  Te42  1  0.24732836  0.49942897  -0.00206029  1
  Te  Te43  1  0.24806623  0.49912016  0.50529466  1
  Te  Te44  1  0.75184440  0.00004163  0.00934383  1
  Te  Te45  1  0.74867109  0.00032707  0.49652330  1
  Te  Te46  1  0.75965412  0.49985574  -0.00131254  1
  Te  Te47  1  0.75229796  0.49969745  0.50097901  1
  Te  Te48  1  0.00555162  0.25226299  -0.00026896  1
  Te  Te49  1  0.00066288  0.24713972  0.49951638  1
  Te  Te50  1  0.00335279  0.74884017  0.00308719  1
  Te  Te51  1  0.00220009  0.75216400  0.49713872  1
  Te  Te52  1  0.49562400  0.24958674  0.00245430  1
  Te  Te53  1  0.49777685  0.24966354  0.49632510  1
  Te  Te54  1  0.49532801  0.75016800  0.00528472  1
  Te  Te55  1  0.49783894  0.75220278  0.49736408  1
  Te  Te56  1  0.00270421  -0.00398540  0.25489109  1
  Te  Te57  1  -0.00083348  0.00041157  0.74007435  1
  Te  Te58  1  -0.00101809  0.50863097  0.24589725  1
  Te  Te59  1  0.00551788  0.50001221  0.75608101  1
  Te  Te60  1  0.49687363  -0.00006572  0.25308813  1
  Te  Te61  1  0.50053752  0.00555438  0.74158608  1
  Te  Te62  1  0.50114698  0.49998395  0.24863695  1
  Te  Te63  1  0.49475269  0.49359409  0.75112850  1
