# generated using pymatgen
data_AgSbTe2
_symmetry_space_group_name_H-M   'P 1'
_cell_length_a   12.22144625
_cell_length_b   12.21140154
_cell_length_c   12.23131730
_cell_angle_alpha   90.00115411
_cell_angle_beta   89.99767281
_cell_angle_gamma   89.99159645
_symmetry_Int_Tables_number   1
_chemical_formula_structural   AgSbTe2
_chemical_formula_sum   'Ag16 Sb16 Te32'
_cell_volume   1825.41385131
_cell_formula_units_Z   16
loop_
 _symmetry_equiv_pos_site_id
 _symmetry_equiv_pos_as_xyz
  1  'x, y, z'
loop_
 _atom_site_type_symbol
 _atom_site_label
 _atom_site_symmetry_multiplicity
 _atom_site_fract_x
 _atom_site_fract_y
 _atom_site_fract_z
 _atom_site_occupancy
  Ag  Ag0  1  0.24620409  0.24486952  -0.00304972  1
  Ag  Ag1  1  0.25182497  0.75508640  -0.00062184  1
  Ag  Ag2  1  0.74666670  0.75544069  0.50042171  1
  Ag  Ag3  1  0.25283862  -0.00075902  0.24615596  1
  Ag  Ag4  1  0.74670642  -0.00432643  0.25100155  1
  Ag  Ag5  1  0.00083747  0.49738522  -0.00051645  1
  Ag  Ag6  1  0.50213430  0.76064118  0.75059403  1
  Ag  Ag7  1  0.00180944  0.24834259  0.24737255  1
  Ag  Ag8  1  0.49764526  0.23824847  0.75124486  1
  Ag  Ag9  1  0.50214604  0.75783261  0.24899486  1
  Ag  Ag10  1  -0.00207623  0.49926453  0.50061652  1
  Ag  Ag11  1  0.74812291  0.75373301  -0.00058619  1
  Ag  Ag12  1  0.50304233  -0.00358576  0.50484495  1
  Ag  Ag13  1  0.74250181  -0.00321675  0.74876266  1
  Ag  Ag14  1  0.00244089  0.24823868  0.75300918  1
  Ag  Ag15  1  0.25664510  0.00176378  0.75338976  1
  Sb  Sb16  1  -0.00076348  0.75301311  0.75227148  1
  Sb  Sb17  1  0.50049761  0.50314594  -0.00071909  1
  Sb  Sb18  1  -0.00315051  -0.00053819  0.50067409  1
  Sb  Sb19  1  0.49836493  -0.00286059  -0.00674387  1
  Sb  Sb20  1  -0.00063502  0.75284392  0.24794289  1
  Sb  Sb21  1  0.50233504  0.50270120  0.50128389  1
  Sb  Sb22  1  0.24896167  0.24686037  0.50338636  1
  Sb  Sb23  1  0.24798048  0.50061608  0.24726419  1
  Sb  Sb24  1  0.75236703  0.24619603  -0.00158717  1
  Sb  Sb25  1  0.00214561  0.00297834  -0.00065633  1
  Sb  Sb26  1  0.75252896  0.50441747  0.24936420  1
  Sb  Sb27  1  0.75067817  0.24519084  0.50097206  1
  Sb  Sb28  1  0.49804704  0.23977160  0.24784420  1
  Sb  Sb29  1  0.24867144  0.49885079  0.75238066  1
  Sb  Sb30  1  0.25256157  0.75394479  0.50114908  1
  Sb  Sb31  1  0.75175597  0.50409849  0.75049062  1
  Te  Te32  1  0.24833992  0.24442610  0.24508602  1
  Te  Te33  1  0.24964832  0.24638614  0.75290041  1
  Te  Te34  1  0.25214530  0.75595032  0.24577801  1
  Te  Te35  1  0.25276024  0.75515292  0.75380346  1
  Te  Te36  1  0.75248478  0.24193648  0.24874175  1
  Te  Te37  1  0.74945799  0.24295161  0.75128864  1
  Te  Te38  1  0.74863274  0.75456177  0.24801982  1
  Te  Te39  1  0.74844328  0.75436938  0.75197778  1
  Te  Te40  1  0.24964954  -0.00147169  -0.00018445  1
  Te  Te41  1  0.25480257  -0.00098622  0.50013045  1
  Te  Te42  1  0.24417230  0.50180968  0.00054905  1
  Te  Te43  1  0.24134385  0.50064531  0.49954884  1
  Te  Te44  1  0.75141946  -0.00572438  0.00024515  1
  Te  Te45  1  0.74675292  -0.00432201  0.50061166  1
  Te  Te46  1  0.75651185  0.50749989  0.00045796  1
  Te  Te47  1  0.75471033  0.50813017  0.49963417  1
  Te  Te48  1  0.00199078  0.25340804  -0.00140686  1
  Te  Te49  1  -0.00075082  0.25438416  0.50065670  1
  Te  Te50  1  0.00125040  0.74319642  -0.00027364  1
  Te  Te51  1  -0.00538635  0.74487373  0.50016798  1
  Te  Te52  1  0.49459321  0.25417925  -0.00547521  1
  Te  Te53  1  0.50037124  0.24684649  0.50590327  1
  Te  Te54  1  0.49936407  0.74777879  -0.00118623  1
  Te  Te55  1  0.50275840  0.75231304  0.50179363  1
  Te  Te56  1  0.00092669  0.00546116  0.25217368  1
  Te  Te57  1  0.00131719  0.00567124  0.74804333  1
  Te  Te58  1  -0.00004487  0.49245873  0.24936993  1
  Te  Te59  1  -0.00050229  0.49260955  0.75065136  1
  Te  Te60  1  0.50058515  -0.00279351  0.25509819  1
  Te  Te61  1  0.50017952  -0.00106834  0.74872761  1
  Te  Te62  1  0.50000227  0.50897739  0.25203689  1
  Te  Te63  1  0.50023341  0.50019947  0.74817899  1
