# generated using pymatgen
data_AgSbTe2
_symmetry_space_group_name_H-M   'P 1'
_cell_length_a   12.24650245
_cell_length_b   12.24725840
_cell_length_c   12.23480501
_cell_angle_alpha   89.99498932
_cell_angle_beta   90.00258485
_cell_angle_gamma   89.99960915
_symmetry_Int_Tables_number   1
_chemical_formula_structural   AgSbTe2
_chemical_formula_sum   'Ag16 Sb16 Te32'
_cell_volume   1835.05043475
_cell_formula_units_Z   16
loop_
 _symmetry_equiv_pos_site_id
 _symmetry_equiv_pos_as_xyz
  1  'x, y, z'
loop_
 _atom_site_type_symbol
 _atom_site_label
 _atom_site_symmetry_multiplicity
 _atom_site_fract_x
 _atom_site_fract_y
 _atom_site_fract_z
 _atom_site_occupancy
  Ag  Ag0  1  0.50007929  0.74343270  0.74238001  1
  Ag  Ag1  1  0.00242610  0.25567117  0.74243869  1
  Ag  Ag2  1  0.24464129  0.73386409  0.49988308  1
  Ag  Ag3  1  0.75541885  0.73428451  0.49767933  1
  Ag  Ag4  1  0.24800973  0.49767171  0.73374820  1
  Ag  Ag5  1  -0.00293993  0.00012159  0.49836503  1
  Ag  Ag6  1  0.75176770  0.50013154  0.73345154  1
  Ag  Ag7  1  0.75786942  0.26627985  0.50048294  1
  Ag  Ag8  1  0.24124576  0.26659916  0.50188342  1
  Ag  Ag9  1  0.75468739  -0.00202786  0.25799214  1
  Ag  Ag10  1  0.75524644  0.50206449  0.26645184  1
  Ag  Ag11  1  -0.00009169  0.49947210  0.49961041  1
  Ag  Ag12  1  0.50007265  0.50236910  0.50227322  1
  Ag  Ag13  1  -0.00229677  0.74543681  0.25763047  1
  Ag  Ag14  1  0.24565743  0.50024088  0.26675104  1
  Ag  Ag15  1  0.24660740  0.25476167  -0.00126751  1
  Sb  Sb16  1  0.49806736  0.50009871  -0.00299782  1
  Sb  Sb17  1  0.50224481  -0.00225788  0.50012301  1
  Sb  Sb18  1  0.24455815  -0.00057990  0.25593224  1
  Sb  Sb19  1  0.50150547  0.74610244  0.25728059  1
  Sb  Sb20  1  0.75096502  0.74788524  0.00202863  1
  Sb  Sb21  1  0.00003723  0.00260213  0.00351875  1
  Sb  Sb22  1  0.75372255  -0.00034449  0.74052155  1
  Sb  Sb23  1  0.00022263  0.74218162  0.73897636  1
  Sb  Sb24  1  0.24849347  0.74469461  -0.00029101  1
  Sb  Sb25  1  0.24781451  0.00278681  0.74516948  1
  Sb  Sb26  1  0.49974448  0.25312230  0.25377624  1
  Sb  Sb27  1  0.49975648  0.00052576  0.00002932  1
  Sb  Sb28  1  0.00150956  0.49913366  0.00076551  1
  Sb  Sb29  1  0.00002614  0.25589893  0.25995193  1
  Sb  Sb30  1  0.75420112  0.25262645  -0.00045369  1
  Sb  Sb31  1  0.49821369  0.25611240  0.74543628  1
  Te  Te32  1  0.24995727  0.25415551  0.25531917  1
  Te  Te33  1  0.24938362  0.25266473  0.74280620  1
  Te  Te34  1  0.24904334  0.74660827  0.25205731  1
  Te  Te35  1  0.24911748  0.74569070  0.74786996  1
  Te  Te36  1  0.74988248  0.25575493  0.25224025  1
  Te  Te37  1  0.75099193  0.25349804  0.74760104  1
  Te  Te38  1  0.75068371  0.74381560  0.25184954  1
  Te  Te39  1  0.75104006  0.74607242  0.74790017  1
  Te  Te40  1  0.25022040  0.00986979  0.00166683  1
  Te  Te41  1  0.24553155  -0.00007288  0.49857729  1
  Te  Te42  1  0.25091025  0.49476229  0.00056063  1
  Te  Te43  1  0.24926995  0.50097766  0.50006662  1
  Te  Te44  1  0.74981774  0.00096439  0.01195204  1
  Te  Te45  1  0.75307830  -0.00010130  0.49648393  1
  Te  Te46  1  0.74908055  0.49878760  0.00116753  1
  Te  Te47  1  0.75077034  0.49998813  0.50049459  1
  Te  Te48  1  0.00558487  0.24860224  -0.01191250  1
  Te  Te49  1  -0.00083539  0.25350984  0.50029830  1
  Te  Te50  1  0.00089336  0.75220086  0.01341367  1
  Te  Te51  1  -0.00041434  0.74715981  0.49923642  1
  Te  Te52  1  0.49003813  0.24862649  -0.00137699  1
  Te  Te53  1  0.50097699  0.25401564  0.50029858  1
  Te  Te54  1  0.49919092  0.75140784  -0.01232076  1
  Te  Te55  1  0.49970153  0.74748152  0.50303540  1
  Te  Te56  1  -0.00424236  -0.00559214  0.25515846  1
  Te  Te57  1  -0.00085634  0.00827825  0.74354993  1
  Te  Te58  1  0.00003994  0.50152723  0.25184291  1
  Te  Te59  1  0.00051067  0.49779096  0.74842987  1
  Te  Te60  1  0.51086390  -0.00125523  0.24961658  1
  Te  Te61  1  0.50077675  -0.01111778  0.75052467  1
  Te  Te62  1  0.49942230  0.50028161  0.25536837  1
  Te  Te63  1  0.50008634  0.50268467  0.74670276  1
