# generated using pymatgen
data_AgSbTe2
_symmetry_space_group_name_H-M   'P 1'
_cell_length_a   12.22630958
_cell_length_b   12.22488251
_cell_length_c   12.21480921
_cell_angle_alpha   90.00992492
_cell_angle_beta   90.00334160
_cell_angle_gamma   89.99698580
_symmetry_Int_Tables_number   1
_chemical_formula_structural   AgSbTe2
_chemical_formula_sum   'Ag16 Sb16 Te32'
_cell_volume   1825.68884588
_cell_formula_units_Z   16
loop_
 _symmetry_equiv_pos_site_id
 _symmetry_equiv_pos_as_xyz
  1  'x, y, z'
loop_
 _atom_site_type_symbol
 _atom_site_label
 _atom_site_symmetry_multiplicity
 _atom_site_fract_x
 _atom_site_fract_y
 _atom_site_fract_z
 _atom_site_occupancy
  Ag  Ag0  1  -0.00067490  -0.00057804  0.49595145  1
  Ag  Ag1  1  0.25141221  0.50250942  0.23572192  1
  Ag  Ag2  1  0.49930900  0.25271225  0.24630611  1
  Ag  Ag3  1  0.24598673  0.73667860  0.00342067  1
  Ag  Ag4  1  0.00329265  -0.00714573  0.00346807  1
  Ag  Ag5  1  0.00026112  0.75159467  0.24224410  1
  Ag  Ag6  1  0.75451237  0.74658639  0.00446529  1
  Ag  Ag7  1  0.48599130  0.50269167  0.00368511  1
  Ag  Ag8  1  0.75354616  -0.00237323  0.24780239  1
  Ag  Ag9  1  0.75104436  0.50088333  0.75652227  1
  Ag  Ag10  1  0.75063731  0.24926077  0.49692526  1
  Ag  Ag11  1  0.24898668  0.50080604  0.76490325  1
  Ag  Ag12  1  0.01372431  0.50558324  0.00162049  1
  Ag  Ag13  1  0.24670878  -0.00124312  0.75691280  1
  Ag  Ag14  1  0.49918531  0.74732438  0.24312097  1
  Ag  Ag15  1  0.24969662  0.26439615  0.00165146  1
  Sb  Sb16  1  0.49980285  0.00136365  0.49637363  1
  Sb  Sb17  1  0.74933960  0.25203668  0.00175441  1
  Sb  Sb18  1  0.00020449  0.24937016  0.24726765  1
  Sb  Sb19  1  0.75269738  -0.00073063  0.75260575  1
  Sb  Sb20  1  0.24632851  -0.00187766  0.24360474  1
  Sb  Sb21  1  0.00103988  0.74955148  0.75908430  1
  Sb  Sb22  1  0.00101064  0.25045732  0.75165178  1
  Sb  Sb23  1  0.74913250  0.50170651  0.24349345  1
  Sb  Sb24  1  0.24976041  0.24899339  0.49822156  1
  Sb  Sb25  1  0.75222392  0.75013453  0.49632440  1
  Sb  Sb26  1  0.49849912  0.74750777  0.75668537  1
  Sb  Sb27  1  0.49720496  -0.00276288  0.00289402  1
  Sb  Sb28  1  0.50060425  0.49922122  0.49645655  1
  Sb  Sb29  1  0.24809247  0.75068401  0.49709631  1
  Sb  Sb30  1  0.49869027  0.25221878  0.75438537  1
  Sb  Sb31  1  -0.00068944  0.50125820  0.49835420  1
  Te  Te32  1  0.25363706  0.25239937  0.24689981  1
  Te  Te33  1  0.25102640  0.25298340  0.75386956  1
  Te  Te34  1  0.24991224  0.74841726  0.24716069  1
  Te  Te35  1  0.25096193  0.74734229  0.75420200  1
  Te  Te36  1  0.74680950  0.24751360  0.25154361  1
  Te  Te37  1  0.74852098  0.25345939  0.74587859  1
  Te  Te38  1  0.75067953  0.75198980  0.24631412  1
  Te  Te39  1  0.74889372  0.74583929  0.75550538  1
  Te  Te40  1  0.24683834  -0.00121005  -0.00180947  1
  Te  Te41  1  0.24429196  0.00130732  0.50748055  1
  Te  Te42  1  0.24877292  0.50041978  0.00074307  1
  Te  Te43  1  0.24860632  0.49874812  0.50356183  1
  Te  Te44  1  0.75407913  -0.00170149  0.00096204  1
  Te  Te45  1  0.75404648  0.00185599  0.49994588  1
  Te  Te46  1  0.75168777  0.50157749  -0.00269547  1
  Te  Te47  1  0.75162014  0.49671532  0.50877460  1
  Te  Te48  1  0.00424400  0.25124752  0.00088740  1
  Te  Te49  1  -0.00449543  0.24453161  0.49919178  1
  Te  Te50  1  0.00083519  0.74931282  0.00271808  1
  Te  Te51  1  -0.00029526  0.75536636  0.48884841  1
  Te  Te52  1  0.49727532  0.25355235  0.00518933  1
  Te  Te53  1  0.50438146  0.24990207  0.49097211  1
  Te  Te54  1  0.49935211  0.74784261  0.00507081  1
  Te  Te55  1  0.50018106  0.75020489  0.48755274  1
  Te  Te56  1  -0.00220724  -0.00172918  0.24627506  1
  Te  Te57  1  0.00432423  -0.00046953  0.75289498  1
  Te  Te58  1  0.00239916  0.50295080  0.24706720  1
  Te  Te59  1  0.00242783  0.50038819  0.75323405  1
  Te  Te60  1  0.50510954  -0.00059226  0.24991905  1
  Te  Te61  1  0.49240892  -0.00029228  0.74915705  1
  Te  Te62  1  0.49887023  0.50108766  0.24680473  1
  Te  Te63  1  0.49724263  0.50022017  0.75490532  1
