# generated using pymatgen
data_AgSbTe2
_symmetry_space_group_name_H-M   'P 1'
_cell_length_a   12.27564192
_cell_length_b   12.25641617
_cell_length_c   12.28151339
_cell_angle_alpha   90.00045560
_cell_angle_beta   90.00230561
_cell_angle_gamma   90.00905052
_symmetry_Int_Tables_number   1
_chemical_formula_structural   AgSbTe2
_chemical_formula_sum   'Ag16 Sb16 Te32'
_cell_volume   1847.81969217
_cell_formula_units_Z   16
loop_
 _symmetry_equiv_pos_site_id
 _symmetry_equiv_pos_as_xyz
  1  'x, y, z'
loop_
 _atom_site_type_symbol
 _atom_site_label
 _atom_site_symmetry_multiplicity
 _atom_site_fract_x
 _atom_site_fract_y
 _atom_site_fract_z
 _atom_site_occupancy
  Ag  Ag0  1  0.50429671  0.74613421  0.25005893  1
  Ag  Ag1  1  0.24987931  0.25341689  0.00535253  1
  Ag  Ag2  1  0.00449172  0.24635423  0.24934632  1
  Ag  Ag3  1  -0.00259831  0.75330150  0.74988752  1
  Ag  Ag4  1  0.24984755  0.74729922  0.00537776  1
  Ag  Ag5  1  0.00434703  0.24726905  0.75066183  1
  Ag  Ag6  1  0.25360235  0.50182842  0.24839590  1
  Ag  Ag7  1  0.49441249  0.25513114  0.24951958  1
  Ag  Ag8  1  0.50249315  0.74651677  0.75002771  1
  Ag  Ag9  1  -0.00605496  -0.00496652  0.49468464  1
  Ag  Ag10  1  0.75055473  0.75236049  0.49211571  1
  Ag  Ag11  1  0.50017499  0.50436154  0.49517973  1
  Ag  Ag12  1  -0.00574936  0.75483834  0.25033436  1
  Ag  Ag13  1  0.49564438  0.25311115  0.75024981  1
  Ag  Ag14  1  0.74985616  0.75328155  0.00808410  1
  Ag  Ag15  1  0.75410567  -0.00930041  0.25238246  1
  Sb  Sb16  1  0.74533972  0.50784378  0.25201100  1
  Sb  Sb17  1  0.49912139  0.50151282  0.00512172  1
  Sb  Sb18  1  0.75275052  -0.00343787  0.74707049  1
  Sb  Sb19  1  -0.00188348  0.50358236  0.49724890  1
  Sb  Sb20  1  0.25015997  0.25166767  0.49383303  1
  Sb  Sb21  1  0.74988834  0.24717132  0.00472141  1
  Sb  Sb22  1  0.75031354  0.24756560  0.49742239  1
  Sb  Sb23  1  0.25033256  0.74834159  0.49405883  1
  Sb  Sb24  1  0.24858271  -0.00073265  0.74990673  1
  Sb  Sb25  1  -0.00141593  -0.00183847  0.00504639  1
  Sb  Sb26  1  0.24649602  -0.00153133  0.25033271  1
  Sb  Sb27  1  0.50133397  -0.00216530  0.00236956  1
  Sb  Sb28  1  0.74801050  0.50159276  0.74822271  1
  Sb  Sb29  1  0.25219275  0.50093051  0.75127241  1
  Sb  Sb30  1  0.50562384  -0.00363800  0.49659372  1
  Sb  Sb31  1  0.00065254  0.50168629  0.00380994  1
  Te  Te32  1  0.25092817  0.24718784  0.24580977  1
  Te  Te33  1  0.25008776  0.25144196  0.75956037  1
  Te  Te34  1  0.25115867  0.75219143  0.24536417  1
  Te  Te35  1  0.25009559  0.74820795  0.76071214  1
  Te  Te36  1  0.75144854  0.24583354  0.24683390  1
  Te  Te37  1  0.75016876  0.24845971  0.75237625  1
  Te  Te38  1  0.75071198  0.74972268  0.24985070  1
  Te  Te39  1  0.75008151  0.75230952  0.75146062  1
  Te  Te40  1  0.25079591  -0.00049958  -0.00049912  1
  Te  Te41  1  0.23362484  0.00002132  0.50053374  1
  Te  Te42  1  0.24918054  0.50021164  0.00991177  1
  Te  Te43  1  0.26053343  0.50047742  0.48747802  1
  Te  Te44  1  0.74938183  -0.01196462  0.01287267  1
  Te  Te45  1  0.75652421  -0.00804843  0.49240012  1
  Te  Te46  1  0.75066714  0.51602677  -0.00025030  1
  Te  Te47  1  0.74060543  0.51242402  0.49957819  1
  Te  Te48  1  0.00047827  0.25010683  -0.00086994  1
  Te  Te49  1  -0.00217339  0.25167564  0.50075589  1
  Te  Te50  1  0.00344146  0.74984135  -0.00110266  1
  Te  Te51  1  0.00024403  0.74759381  0.50057641  1
  Te  Te52  1  0.49934694  0.25073492  -0.00069522  1
  Te  Te53  1  0.50231554  0.24983017  0.50065474  1
  Te  Te54  1  0.49643042  0.74963724  -0.00108937  1
  Te  Te55  1  0.49895192  0.75199295  0.50067093  1
  Te  Te56  1  -0.00261894  -0.00120562  0.25328227  1
  Te  Te57  1  -0.00157666  -0.00004548  0.74160976  1
  Te  Te58  1  0.00675583  0.49695389  0.25282751  1
  Te  Te59  1  0.00132555  0.49765003  0.74536368  1
  Te  Te60  1  0.50624789  0.00048555  0.25293628  1
  Te  Te61  1  0.50118735  0.00204947  0.74589924  1
  Te  Te62  1  0.49838347  0.49943587  0.25372250  1
  Te  Te63  1  0.49846343  0.49977156  0.74076412  1
