# generated using pymatgen
data_AgSbTe2
_symmetry_space_group_name_H-M   'P 1'
_cell_length_a   12.21331921
_cell_length_b   12.21349021
_cell_length_c   12.22121041
_cell_angle_alpha   90.00009397
_cell_angle_beta   90.00124949
_cell_angle_gamma   89.99693357
_symmetry_Int_Tables_number   1
_chemical_formula_structural   AgSbTe2
_chemical_formula_sum   'Ag16 Sb16 Te32'
_cell_volume   1823.00440118
_cell_formula_units_Z   16
loop_
 _symmetry_equiv_pos_site_id
 _symmetry_equiv_pos_as_xyz
  1  'x, y, z'
loop_
 _atom_site_type_symbol
 _atom_site_label
 _atom_site_symmetry_multiplicity
 _atom_site_fract_x
 _atom_site_fract_y
 _atom_site_fract_z
 _atom_site_occupancy
  Ag  Ag0  1  0.74513712  0.25227447  0.49750370  1
  Ag  Ag1  1  0.25164840  -0.00115482  0.24951263  1
  Ag  Ag2  1  0.50365854  0.25202248  0.25351194  1
  Ag  Ag3  1  0.00252966  -0.00165577  0.00004465  1
  Ag  Ag4  1  -0.00251103  0.50133277  0.50006896  1
  Ag  Ag5  1  0.25171036  0.74852313  0.50249595  1
  Ag  Ag6  1  0.74785190  0.00145963  0.74627259  1
  Ag  Ag7  1  0.74520296  0.49805740  0.25750049  1
  Ag  Ag8  1  0.50324807  0.49764476  0.49976646  1
  Ag  Ag9  1  0.25175754  -0.00266518  0.75041511  1
  Ag  Ag10  1  0.25121181  0.75291069  -0.00194978  1
  Ag  Ag11  1  0.74765370  0.00252657  0.25420480  1
  Ag  Ag12  1  0.49880620  0.49901293  -0.00047419  1
  Ag  Ag13  1  0.25467367  0.50158939  0.74649279  1
  Ag  Ag14  1  0.74835854  0.74690387  0.49899708  1
  Ag  Ag15  1  0.50036350  0.25193563  0.74678477  1
  Sb  Sb16  1  0.00192633  0.75034300  0.74891656  1
  Sb  Sb17  1  0.74858641  0.75076961  -0.00035809  1
  Sb  Sb18  1  0.50036867  0.74837519  0.25193161  1
  Sb  Sb19  1  -0.00130054  -0.00090183  0.49996824  1
  Sb  Sb20  1  0.25440578  0.25145538  0.50070937  1
  Sb  Sb21  1  0.74685555  0.24953043  0.00169266  1
  Sb  Sb22  1  0.74435081  0.49812588  0.74193475  1
  Sb  Sb23  1  -0.00407974  0.24959327  0.25291461  1
  Sb  Sb24  1  0.49775430  0.74801387  0.74816442  1
  Sb  Sb25  1  0.50119308  0.00333672  0.50017516  1
  Sb  Sb26  1  -0.00153678  0.24971530  0.74716460  1
  Sb  Sb27  1  0.25512173  0.50080117  0.25275489  1
  Sb  Sb28  1  0.25229203  0.24745305  -0.00043885  1
  Sb  Sb29  1  0.00193447  0.50203029  0.00017674  1
  Sb  Sb30  1  0.49731405  -0.00057221  -0.00017467  1
  Sb  Sb31  1  0.00008063  0.75053492  0.25098729  1
  Te  Te32  1  0.25705685  0.24307893  0.25139996  1
  Te  Te33  1  0.25605097  0.24822772  0.74872748  1
  Te  Te34  1  0.25066916  0.75588765  0.25229455  1
  Te  Te35  1  0.25096009  0.75283374  0.74696711  1
  Te  Te36  1  0.74629251  0.24759112  0.25311110  1
  Te  Te37  1  0.74477820  0.24602795  0.74597410  1
  Te  Te38  1  0.74948513  0.75303616  0.25511087  1
  Te  Te39  1  0.74859400  0.75722545  0.74453068  1
  Te  Te40  1  0.24970429  -0.00357932  -0.00145673  1
  Te  Te41  1  0.24887827  -0.00486628  0.50159484  1
  Te  Te42  1  0.24985876  0.50454839  -0.00161197  1
  Te  Te43  1  0.25142869  0.50268794  0.50056245  1
  Te  Te44  1  0.75221817  -0.00278789  0.00097154  1
  Te  Te45  1  0.75127941  -0.00156842  0.49842609  1
  Te  Te46  1  0.74880343  0.50309020  0.00558440  1
  Te  Te47  1  0.74751625  0.50202163  0.49982625  1
  Te  Te48  1  -0.00021848  0.24272041  -0.00026743  1
  Te  Te49  1  -0.00879322  0.25739812  0.50011842  1
  Te  Te50  1  0.00731725  0.75498924  -0.00016886  1
  Te  Te51  1  0.00048614  0.74350579  0.49999888  1
  Te  Te52  1  0.50023230  0.25779740  -0.00049537  1
  Te  Te53  1  0.50400591  0.25330633  0.49977172  1
  Te  Te54  1  0.49381521  0.74207543  0.00037430  1
  Te  Te55  1  0.49919377  0.74234813  0.49958383  1
  Te  Te56  1  -0.00021532  0.00114248  0.24678718  1
  Te  Te57  1  0.00230616  0.00140684  0.75324198  1
  Te  Te58  1  -0.00643545  0.49819076  0.25303450  1
  Te  Te59  1  0.00782197  0.49822174  0.74750844  1
  Te  Te60  1  0.50201738  0.00643575  0.24920121  1
  Te  Te61  1  0.49875481  0.00690386  0.75091511  1
  Te  Te62  1  0.50207950  0.49544493  0.25173212  1
  Te  Te63  1  0.49749017  0.49533585  0.74898397  1
