# generated using pymatgen
data_AgSbTe2
_symmetry_space_group_name_H-M   'P 1'
_cell_length_a   12.21055019
_cell_length_b   12.21358396
_cell_length_c   12.20862345
_cell_angle_alpha   90.00023986
_cell_angle_beta   90.00455893
_cell_angle_gamma   89.99483752
_symmetry_Int_Tables_number   1
_chemical_formula_structural   AgSbTe2
_chemical_formula_sum   'Ag16 Sb16 Te32'
_cell_volume   1820.72791673
_cell_formula_units_Z   16
loop_
 _symmetry_equiv_pos_site_id
 _symmetry_equiv_pos_as_xyz
  1  'x, y, z'
loop_
 _atom_site_type_symbol
 _atom_site_label
 _atom_site_symmetry_multiplicity
 _atom_site_fract_x
 _atom_site_fract_y
 _atom_site_fract_z
 _atom_site_occupancy
  Ag  Ag0  1  0.24838966  0.25222505  0.49856164  1
  Ag  Ag1  1  -0.00158972  0.24982570  0.75218979  1
  Ag  Ag2  1  -0.00147220  0.75014714  0.75165262  1
  Ag  Ag3  1  -0.00201133  0.00042907  -0.00207717  1
  Ag  Ag4  1  0.75152665  -0.00004221  0.25043915  1
  Ag  Ag5  1  0.00276152  0.50011747  -0.00207525  1
  Ag  Ag6  1  0.75451331  0.00002818  0.74993986  1
  Ag  Ag7  1  0.50171215  -0.00009817  0.49868502  1
  Ag  Ag8  1  0.00285862  0.49988128  0.50169905  1
  Ag  Ag9  1  0.75164595  0.75229528  0.50137460  1
  Ag  Ag10  1  0.75472349  0.24796712  -0.00142774  1
  Ag  Ag11  1  0.24901447  0.49992410  0.25006234  1
  Ag  Ag12  1  0.49715348  0.49974171  0.49857166  1
  Ag  Ag13  1  0.49706029  0.50012283  0.00120128  1
  Ag  Ag14  1  0.24560199  0.74764145  0.00128966  1
  Ag  Ag15  1  0.24830341  0.00012007  0.25032436  1
  Sb  Sb16  1  0.75384356  0.49982869  0.74984267  1
  Sb  Sb17  1  0.50119043  0.24912411  0.74968815  1
  Sb  Sb18  1  0.50113240  0.00006717  0.00160987  1
  Sb  Sb19  1  0.00044226  0.75020340  0.24833690  1
  Sb  Sb20  1  0.24580822  -0.00004973  0.74947518  1
  Sb  Sb21  1  0.24670229  0.50006911  0.74982804  1
  Sb  Sb22  1  0.49999822  0.74988574  0.25030769  1
  Sb  Sb23  1  0.24518952  0.25252992  0.00099732  1
  Sb  Sb24  1  0.50165919  0.75087855  0.74952138  1
  Sb  Sb25  1  0.00023985  0.24980084  0.24881477  1
  Sb  Sb26  1  0.24822118  0.74769604  0.49890942  1
  Sb  Sb27  1  0.75199270  0.24746345  0.50186304  1
  Sb  Sb28  1  0.75474348  0.75179985  -0.00196221  1
  Sb  Sb29  1  0.49955719  0.25011047  0.25089363  1
  Sb  Sb30  1  0.75082147  0.50004509  0.25010905  1
  Sb  Sb31  1  -0.00072277  -0.00027123  0.50159790  1
  Te  Te32  1  0.24955403  0.24915784  0.25589512  1
  Te  Te33  1  0.24224067  0.24839467  0.74314043  1
  Te  Te34  1  0.24960890  0.75075939  0.24485876  1
  Te  Te35  1  0.24166489  0.75163542  0.75678470  1
  Te  Te36  1  0.75038558  0.24174252  0.24385885  1
  Te  Te37  1  0.75656253  0.24406890  0.75354247  1
  Te  Te38  1  0.75044815  0.75824857  0.25673977  1
  Te  Te39  1  0.75612931  0.75603457  0.74632626  1
  Te  Te40  1  0.24939247  -0.00053561  0.00501457  1
  Te  Te41  1  0.25234304  0.00018598  0.49512415  1
  Te  Te42  1  0.24776367  0.49957231  0.00401219  1
  Te  Te43  1  0.25036203  0.50056168  0.49602917  1
  Te  Te44  1  0.75062970  0.00068663  0.00078798  1
  Te  Te45  1  0.74828790  -0.00037664  0.49864250  1
  Te  Te46  1  0.75190390  0.49785236  0.00219725  1
  Te  Te47  1  0.74916218  0.50220386  0.49769307  1
  Te  Te48  1  -0.00164456  0.25084835  -0.00492675  1
  Te  Te49  1  0.00261083  0.25506491  0.50570216  1
  Te  Te50  1  0.00132697  0.74840376  -0.00468592  1
  Te  Te51  1  -0.00285380  0.74550603  0.50624550  1
  Te  Te52  1  0.50521753  0.25681274  -0.00279991  1
  Te  Te53  1  0.49610548  0.25299906  0.50201004  1
  Te  Te54  1  0.49445914  0.74269532  -0.00261621  1
  Te  Te55  1  0.50394465  0.74790006  0.50214152  1
  Te  Te56  1  0.00135047  -0.00003855  0.24508971  1
  Te  Te57  1  -0.00335020  0.00003317  0.75301364  1
  Te  Te58  1  0.00390994  0.50004478  0.24959563  1
  Te  Te59  1  -0.00125492  0.50000248  0.75137211  1
  Te  Te60  1  0.49887785  0.00000893  0.25484730  1
  Te  Te61  1  0.50718309  0.00000277  0.74422730  1
  Te  Te62  1  0.49536752  0.49999019  0.25204972  1
  Te  Te63  1  0.50130015  0.50002598  0.74784325  1
