# generated using pymatgen
data_AgSbTe2
_symmetry_space_group_name_H-M   'P 1'
_cell_length_a   12.21236256
_cell_length_b   12.21125929
_cell_length_c   12.21240563
_cell_angle_alpha   90.00249737
_cell_angle_beta   89.99358767
_cell_angle_gamma   90.00570094
_symmetry_Int_Tables_number   1
_chemical_formula_structural   AgSbTe2
_chemical_formula_sum   'Ag16 Sb16 Te32'
_cell_volume   1821.21558344
_cell_formula_units_Z   16
loop_
 _symmetry_equiv_pos_site_id
 _symmetry_equiv_pos_as_xyz
  1  'x, y, z'
loop_
 _atom_site_type_symbol
 _atom_site_label
 _atom_site_symmetry_multiplicity
 _atom_site_fract_x
 _atom_site_fract_y
 _atom_site_fract_z
 _atom_site_occupancy
  Ag  Ag0  1  0.49622585  0.49938176  0.49598480  1
  Ag  Ag1  1  0.49695430  0.24474251  0.25298168  1
  Ag  Ag2  1  0.74940413  0.75209314  0.00559243  1
  Ag  Ag3  1  0.24814822  0.00178248  0.74931110  1
  Ag  Ag4  1  0.74704023  0.50385642  0.24987865  1
  Ag  Ag5  1  0.00872534  0.00079168  0.49844827  1
  Ag  Ag6  1  0.25402895  -0.00244188  0.25007420  1
  Ag  Ag7  1  0.49294176  -0.00358169  0.00652509  1
  Ag  Ag8  1  0.25216974  0.24405088  0.50080230  1
  Ag  Ag9  1  0.00171068  0.75514784  0.24691296  1
  Ag  Ag10  1  0.00692977  -0.00361334  0.00211619  1
  Ag  Ag11  1  0.25052240  0.75723273  0.00392189  1
  Ag  Ag12  1  0.49153238  0.00148320  0.49273845  1
  Ag  Ag13  1  0.00621591  0.24584405  0.74880909  1
  Ag  Ag14  1  0.49821746  0.75527858  0.24791829  1
  Ag  Ag15  1  0.25048845  0.49877671  0.74835697  1
  Sb  Sb16  1  0.74879663  0.74978060  0.49423146  1
  Sb  Sb17  1  0.74697834  0.24958644  0.49749201  1
  Sb  Sb18  1  0.25303662  0.50191253  0.25190860  1
  Sb  Sb19  1  0.00521583  0.49933298  0.49904993  1
  Sb  Sb20  1  0.49769864  0.50321938  0.00400246  1
  Sb  Sb21  1  0.74390067  -0.00423255  0.24869205  1
  Sb  Sb22  1  0.25067497  0.75844705  0.49501827  1
  Sb  Sb23  1  0.74905748  0.24812641  0.00295387  1
  Sb  Sb24  1  0.49646341  0.75163270  0.75290142  1
  Sb  Sb25  1  0.74845432  0.50035382  0.74981308  1
  Sb  Sb26  1  0.25040730  0.24122183  -0.00061922  1
  Sb  Sb27  1  0.00210463  0.50381612  0.00080265  1
  Sb  Sb28  1  0.49362659  0.24758001  0.74683987  1
  Sb  Sb29  1  0.75202251  -0.00013711  0.75132453  1
  Sb  Sb30  1  0.00315475  0.24273782  0.25091444  1
  Sb  Sb31  1  0.00397122  0.75461544  0.75292831  1
  Te  Te32  1  0.25396558  0.24731492  0.25372215  1
  Te  Te33  1  0.24726142  0.24725927  0.74754041  1
  Te  Te34  1  0.25084476  0.75257337  0.24653750  1
  Te  Te35  1  0.24934708  0.75144017  0.75684980  1
  Te  Te36  1  0.74398472  0.25879350  0.24944848  1
  Te  Te37  1  0.75979548  0.25176382  0.75050968  1
  Te  Te38  1  0.74912968  0.74682444  0.24559790  1
  Te  Te39  1  0.75116675  0.74827904  0.76050594  1
  Te  Te40  1  0.25027117  -0.00094353  0.00085408  1
  Te  Te41  1  0.25117763  -0.00032666  0.49971367  1
  Te  Te42  1  0.25078033  0.50720345  -0.00555305  1
  Te  Te43  1  0.25383789  0.49511590  0.50333618  1
  Te  Te44  1  0.75005670  -0.00507312  -0.00075573  1
  Te  Te45  1  0.74918634  -0.00038799  0.50086942  1
  Te  Te46  1  0.74969683  0.50629174  0.00357629  1
  Te  Te47  1  0.74298671  0.50049007  0.49663363  1
  Te  Te48  1  -0.00043431  0.24224870  -0.00257847  1
  Te  Te49  1  0.00436734  0.24523679  0.50144591  1
  Te  Te50  1  0.00197384  0.75429239  0.00331025  1
  Te  Te51  1  -0.00064057  0.75601827  0.49406412  1
  Te  Te52  1  0.50060879  0.24365980  0.00568107  1
  Te  Te53  1  0.49699094  0.24695949  0.49691124  1
  Te  Te54  1  0.49818683  0.75357450  0.00366393  1
  Te  Te55  1  0.50032181  0.75168351  0.49405569  1
  Te  Te56  1  0.00252384  -0.00153087  0.24986237  1
  Te  Te57  1  0.00378431  0.00202257  0.74913533  1
  Te  Te58  1  -0.00399426  0.50549799  0.25137603  1
  Te  Te59  1  0.00552013  0.49461243  0.74871050  1
  Te  Te60  1  0.50001738  -0.00180186  0.25086077  1
  Te  Te61  1  0.49452229  0.00118999  0.74905618  1
  Te  Te62  1  0.50039528  0.50164311  0.25306692  1
  Te  Te63  1  0.49554783  0.49925631  0.74336573  1
