# generated using pymatgen
data_AgSbTe2
_symmetry_space_group_name_H-M   'P 1'
_cell_length_a   12.20641010
_cell_length_b   12.21364956
_cell_length_c   12.21094946
_cell_angle_alpha   90.00099940
_cell_angle_beta   90.00614061
_cell_angle_gamma   89.99851884
_symmetry_Int_Tables_number   1
_chemical_formula_structural   AgSbTe2
_chemical_formula_sum   'Ag16 Sb16 Te32'
_cell_volume   1820.46713342
_cell_formula_units_Z   16
loop_
 _symmetry_equiv_pos_site_id
 _symmetry_equiv_pos_as_xyz
  1  'x, y, z'
loop_
 _atom_site_type_symbol
 _atom_site_label
 _atom_site_symmetry_multiplicity
 _atom_site_fract_x
 _atom_site_fract_y
 _atom_site_fract_z
 _atom_site_occupancy
  Ag  Ag0  1  0.50765545  0.00066401  0.49638982  1
  Ag  Ag1  1  0.74758274  0.75003344  0.50193133  1
  Ag  Ag2  1  0.25032246  0.24795100  0.00055666  1
  Ag  Ag3  1  -0.00472208  0.74847115  0.74776437  1
  Ag  Ag4  1  0.74757656  0.24975313  0.49774630  1
  Ag  Ag5  1  0.50461344  0.75508644  0.25421182  1
  Ag  Ag6  1  0.25199215  0.00066747  0.75009183  1
  Ag  Ag7  1  0.50144169  0.00199923  0.00243864  1
  Ag  Ag8  1  0.74778891  -0.00152178  0.74348360  1
  Ag  Ag9  1  -0.00885145  0.49933088  0.50224137  1
  Ag  Ag10  1  0.74377804  0.00262589  0.25588116  1
  Ag  Ag11  1  0.50871772  0.49933852  0.49926901  1
  Ag  Ag12  1  0.75283903  0.50107327  0.74294867  1
  Ag  Ag13  1  -0.00240391  0.49791120  -0.00121976  1
  Ag  Ag14  1  -0.00362027  0.25005389  0.25116245  1
  Ag  Ag15  1  0.50418349  0.24488810  0.25312625  1
  Sb  Sb16  1  0.50570327  0.75323266  0.74509910  1
  Sb  Sb17  1  0.74952396  0.24943967  0.00397268  1
  Sb  Sb18  1  -0.00935536  0.00132640  0.50099808  1
  Sb  Sb19  1  0.74971088  0.75037292  -0.00177278  1
  Sb  Sb20  1  -0.00606620  0.75011685  0.25284332  1
  Sb  Sb21  1  0.24992496  0.49839755  0.25001053  1
  Sb  Sb22  1  -0.00256795  0.25232130  0.74845768  1
  Sb  Sb23  1  0.50259606  0.49744141  0.00032042  1
  Sb  Sb24  1  0.24779221  0.49962926  0.74986165  1
  Sb  Sb25  1  0.25231918  0.75206841  0.50175087  1
  Sb  Sb26  1  0.25086128  0.75283277  -0.00237877  1
  Sb  Sb27  1  0.50174851  0.24728664  0.74587832  1
  Sb  Sb28  1  -0.00038183  0.00246808  -0.00062425  1
  Sb  Sb29  1  0.25166110  0.24782768  0.49957762  1
  Sb  Sb30  1  0.25816568  0.00260408  0.24992697  1
  Sb  Sb31  1  0.74959653  0.49606736  0.25953720  1
  Te  Te32  1  0.24926172  0.24837017  0.24569615  1
  Te  Te33  1  0.24957795  0.24388832  0.75548589  1
  Te  Te34  1  0.25757276  0.75071276  0.24973017  1
  Te  Te35  1  0.24196987  0.75602190  0.75006016  1
  Te  Te36  1  0.74890830  0.24704321  0.25370210  1
  Te  Te37  1  0.75058660  0.24837160  0.74367705  1
  Te  Te38  1  0.74645091  0.75596450  0.25511619  1
  Te  Te39  1  0.75289636  0.75164841  0.74616828  1
  Te  Te40  1  0.25420449  0.00389905  -0.00494131  1
  Te  Te41  1  0.25856867  0.00073313  0.50657681  1
  Te  Te42  1  0.24566971  0.49391943  -0.00175043  1
  Te  Te43  1  0.25075042  0.49993976  0.50166709  1
  Te  Te44  1  0.74492170  0.00081128  -0.00199493  1
  Te  Te45  1  0.74821132  0.00083447  0.50164701  1
  Te  Te46  1  0.75446580  0.49944337  -0.00987785  1
  Te  Te47  1  0.74926074  0.49941670  0.50152531  1
  Te  Te48  1  0.00235014  0.25376560  0.00482031  1
  Te  Te49  1  -0.00256790  0.25432660  0.49551676  1
  Te  Te50  1  0.00069734  0.74321848  -0.00276140  1
  Te  Te51  1  -0.00425441  0.74487180  0.50151488  1
  Te  Te52  1  0.49762625  0.24805326  0.00654057  1
  Te  Te53  1  0.50207060  0.24989298  0.49655099  1
  Te  Te54  1  0.49954460  0.75363750  0.00764119  1
  Te  Te55  1  0.50331193  0.75013173  0.49721647  1
  Te  Te56  1  -0.00611952  0.00389418  0.24919747  1
  Te  Te57  1  -0.00311869  -0.00402943  0.75058800  1
  Te  Te58  1  -0.00065791  0.49707029  0.25047168  1
  Te  Te59  1  -0.00258281  0.50185562  0.74759846  1
  Te  Te60  1  0.50162404  0.00221440  0.25166377  1
  Te  Te61  1  0.50365587  -0.00129851  0.74994053  1
  Te  Te62  1  0.50061990  0.49835764  0.25375515  1
  Te  Te63  1  0.50439700  0.50126090  0.74577528  1
