# generated using pymatgen
data_AgSbTe2
_symmetry_space_group_name_H-M   'P 1'
_cell_length_a   12.22119397
_cell_length_b   12.21989190
_cell_length_c   12.22260509
_cell_angle_alpha   90.00262662
_cell_angle_beta   90.00038921
_cell_angle_gamma   90.00731998
_symmetry_Int_Tables_number   1
_chemical_formula_structural   AgSbTe2
_chemical_formula_sum   'Ag16 Sb16 Te32'
_cell_volume   1825.34422971
_cell_formula_units_Z   16
loop_
 _symmetry_equiv_pos_site_id
 _symmetry_equiv_pos_as_xyz
  1  'x, y, z'
loop_
 _atom_site_type_symbol
 _atom_site_label
 _atom_site_symmetry_multiplicity
 _atom_site_fract_x
 _atom_site_fract_y
 _atom_site_fract_z
 _atom_site_occupancy
  Ag  Ag0  1  0.75049019  0.75974454  0.49583905  1
  Ag  Ag1  1  0.75088217  0.75594059  0.00442226  1
  Ag  Ag2  1  0.25208937  0.49907649  0.74626090  1
  Ag  Ag3  1  -0.00414579  0.76423973  0.25132020  1
  Ag  Ag4  1  0.75005707  -0.00259994  0.74395082  1
  Ag  Ag5  1  0.50339650  0.75206875  0.74837514  1
  Ag  Ag6  1  0.23559751  -0.00009096  0.25323679  1
  Ag  Ag7  1  0.00080129  0.23567204  0.25438363  1
  Ag  Ag8  1  0.50435817  0.75336827  0.25154934  1
  Ag  Ag9  1  0.75271641  0.24034064  0.49842291  1
  Ag  Ag10  1  -0.00551247  0.00139990  0.48653463  1
  Ag  Ag11  1  0.76334471  -0.00539774  0.25574737  1
  Ag  Ag12  1  -0.00353946  -0.00180388  0.01445846  1
  Ag  Ag13  1  0.50028078  0.24771935  0.74615616  1
  Ag  Ag14  1  0.24780309  0.24759673  0.49710250  1
  Ag  Ag15  1  0.24826672  0.50029429  0.25317204  1
  Sb  Sb16  1  0.74651554  0.50145978  0.74786743  1
  Sb  Sb17  1  0.24852495  0.24763634  0.00298676  1
  Sb  Sb18  1  0.24809671  0.75247933  0.00239512  1
  Sb  Sb19  1  0.49739028  0.50092692  0.49961010  1
  Sb  Sb20  1  -0.00401586  0.75295078  0.74759809  1
  Sb  Sb21  1  0.75289867  0.24211429  0.00169631  1
  Sb  Sb22  1  0.24882339  0.75459748  0.49674074  1
  Sb  Sb23  1  0.49925569  0.50178111  0.00048565  1
  Sb  Sb24  1  0.00235062  0.49871437  0.49690252  1
  Sb  Sb25  1  0.00033882  0.50294963  0.00363589  1
  Sb  Sb26  1  0.50883674  -0.00087158  0.49869462  1
  Sb  Sb27  1  0.49933646  0.24699633  0.25475945  1
  Sb  Sb28  1  0.75120638  0.50665213  0.25205822  1
  Sb  Sb29  1  0.50470267  -0.00219896  0.00180924  1
  Sb  Sb30  1  0.25088601  0.00088755  0.74478472  1
  Sb  Sb31  1  -0.00058695  0.24716309  0.74392905  1
  Te  Te32  1  0.25164971  0.24886935  0.25326034  1
  Te  Te33  1  0.25283993  0.25126628  0.74546102  1
  Te  Te34  1  0.25029672  0.75090592  0.25140300  1
  Te  Te35  1  0.25796768  0.74698976  0.74915028  1
  Te  Te36  1  0.74946005  0.24776208  0.25357336  1
  Te  Te37  1  0.74778584  0.24821256  0.74628399  1
  Te  Te38  1  0.74989369  0.74942877  0.25292168  1
  Te  Te39  1  0.74667025  0.75152673  0.74695253  1
  Te  Te40  1  0.24069647  -0.00018926  0.00682657  1
  Te  Te41  1  0.24182778  0.00427489  0.49650016  1
  Te  Te42  1  0.24921419  0.49982513  0.00103679  1
  Te  Te43  1  0.24858919  0.49319345  0.49885871  1
  Te  Te44  1  0.75386134  -0.00402211  0.00102682  1
  Te  Te45  1  0.75169056  0.00019303  0.49906402  1
  Te  Te46  1  0.75055679  0.51110181  -0.00073605  1
  Te  Te47  1  0.75137518  0.49813869  0.50035481  1
  Te  Te48  1  -0.00164757  0.24362837  0.00910034  1
  Te  Te49  1  -0.00123250  0.24729742  0.49599787  1
  Te  Te50  1  -0.00445160  0.75414414  0.00444524  1
  Te  Te51  1  -0.00396876  0.75455222  0.49644681  1
  Te  Te52  1  0.50086727  0.25006931  -0.01099861  1
  Te  Te53  1  0.50064450  0.25039835  0.50478572  1
  Te  Te54  1  0.50648100  0.75080814  -0.00013724  1
  Te  Te55  1  0.50545154  0.74976505  0.49985988  1
  Te  Te56  1  -0.00087217  -0.00070515  0.25148959  1
  Te  Te57  1  -0.00472142  -0.00065689  0.74933324  1
  Te  Te58  1  0.00675907  0.50028533  0.24906066  1
  Te  Te59  1  0.01047294  0.50020625  0.75164092  1
  Te  Te60  1  0.50009934  -0.00514191  0.24871664  1
  Te  Te61  1  0.50383012  -0.00208948  0.75133514  1
  Te  Te62  1  0.49168047  0.50630092  0.24957446  1
  Te  Te63  1  0.49478601  0.50185348  0.75052522  1
