# generated using pymatgen
data_AgSbTe2
_symmetry_space_group_name_H-M   'P 1'
_cell_length_a   12.21909161
_cell_length_b   12.21786081
_cell_length_c   12.22138817
_cell_angle_alpha   90.00214063
_cell_angle_beta   90.00021362
_cell_angle_gamma   89.99464395
_symmetry_Int_Tables_number   1
_chemical_formula_structural   AgSbTe2
_chemical_formula_sum   'Ag16 Sb16 Te32'
_cell_volume   1824.54521395
_cell_formula_units_Z   16
loop_
 _symmetry_equiv_pos_site_id
 _symmetry_equiv_pos_as_xyz
  1  'x, y, z'
loop_
 _atom_site_type_symbol
 _atom_site_label
 _atom_site_symmetry_multiplicity
 _atom_site_fract_x
 _atom_site_fract_y
 _atom_site_fract_z
 _atom_site_occupancy
  Ag  Ag0  1  0.25381184  0.50115705  0.24577393  1
  Ag  Ag1  1  0.75005928  0.50747561  0.75562172  1
  Ag  Ag2  1  0.25477186  -0.00202059  0.75282727  1
  Ag  Ag3  1  0.74569613  -0.00705140  0.75319222  1
  Ag  Ag4  1  0.25176962  0.25416120  -0.00234697  1
  Ag  Ag5  1  0.74834979  0.74504483  -0.00547961  1
  Ag  Ag6  1  0.25049388  0.50224857  0.75496749  1
  Ag  Ag7  1  0.50329569  0.50627258  0.49944000  1
  Ag  Ag8  1  0.50272974  -0.00196609  -0.00528979  1
  Ag  Ag9  1  0.74870088  0.25507014  -0.00195075  1
  Ag  Ag10  1  -0.00529233  0.74670131  0.75236533  1
  Ag  Ag11  1  -0.00355407  0.50169898  -0.00356372  1
  Ag  Ag12  1  0.74488722  0.74724960  0.50464052  1
  Ag  Ag13  1  0.50231678  -0.00531917  0.50445025  1
  Ag  Ag14  1  0.50351434  0.74575949  0.25096486  1
  Ag  Ag15  1  0.74641398  0.50396459  0.24501569  1
  Sb  Sb16  1  0.25281321  0.25178025  0.50291999  1
  Sb  Sb17  1  0.50783102  0.75081877  0.74901493  1
  Sb  Sb18  1  -0.00349755  -0.00465211  0.50515900  1
  Sb  Sb19  1  0.25367022  0.74571977  -0.00286708  1
  Sb  Sb20  1  0.50453034  0.50398916  -0.00001737  1
  Sb  Sb21  1  -0.00271286  0.50382412  0.50428595  1
  Sb  Sb22  1  0.25700316  0.74950785  0.50267591  1
  Sb  Sb23  1  0.74603816  -0.00394177  0.24702673  1
  Sb  Sb24  1  0.50044647  0.25647918  0.24661587  1
  Sb  Sb25  1  0.74720289  0.25231566  0.50274564  1
  Sb  Sb26  1  -0.00164703  -0.00357854  -0.00377747  1
  Sb  Sb27  1  0.25577541  -0.00069574  0.24620532  1
  Sb  Sb28  1  0.50085537  0.24937424  0.75385837  1
  Sb  Sb29  1  -0.00066717  0.25358923  0.24599974  1
  Sb  Sb30  1  -0.00364808  0.74585844  0.24648918  1
  Sb  Sb31  1  -0.00089993  0.25473650  0.75345441  1
  Te  Te32  1  0.24939715  0.25678419  0.24284224  1
  Te  Te33  1  0.24879242  0.25161556  0.75532016  1
  Te  Te34  1  0.25339815  0.74385988  0.25051393  1
  Te  Te35  1  0.24310262  0.74794779  0.75005341  1
  Te  Te36  1  0.75061569  0.25776289  0.24300212  1
  Te  Te37  1  0.75110763  0.25051531  0.75525600  1
  Te  Te38  1  0.74808194  0.74597252  0.24963708  1
  Te  Te39  1  0.74978781  0.74859840  0.75165395  1
  Te  Te40  1  0.25174188  0.00326788  -0.00406877  1
  Te  Te41  1  0.25683647  0.00082368  0.50637623  1
  Te  Te42  1  0.25157448  0.49918432  -0.00295935  1
  Te  Te43  1  0.25410173  0.49878331  0.50161837  1
  Te  Te44  1  0.74844608  0.00007639  -0.00276691  1
  Te  Te45  1  0.74537843  -0.00116586  0.50378598  1
  Te  Te46  1  0.74642887  0.50056691  -0.00247846  1
  Te  Te47  1  0.74715188  0.50089200  0.50157088  1
  Te  Te48  1  -0.00105587  0.25685288  -0.00029726  1
  Te  Te49  1  0.00003339  0.24941480  0.49877556  1
  Te  Te50  1  -0.00691919  0.74548108  -0.00374686  1
  Te  Te51  1  -0.01035741  0.74965101  0.50604037  1
  Te  Te52  1  0.50073623  0.24122515  0.00134837  1
  Te  Te53  1  0.50021674  0.24780137  0.49723900  1
  Te  Te54  1  0.50468764  0.75472149  0.00505118  1
  Te  Te55  1  0.50477151  0.74912343  0.49668939  1
  Te  Te56  1  0.00146988  -0.00114863  0.25130177  1
  Te  Te57  1  0.00000336  -0.00672372  0.75000415  1
  Te  Te58  1  0.00020105  0.50194984  0.24441663  1
  Te  Te59  1  -0.00034331  0.50384265  0.75335862  1
  Te  Te60  1  0.49914256  -0.00745230  0.25200598  1
  Te  Te61  1  0.50030055  -0.00041258  0.75025260  1
  Te  Te62  1  0.50099509  0.50429988  0.25184004  1
  Te  Te63  1  0.49911634  0.50031676  0.74594605  1
