# generated using pymatgen
data_AgSbTe2
_symmetry_space_group_name_H-M   'P 1'
_cell_length_a   12.30071866
_cell_length_b   12.27956548
_cell_length_c   12.30063780
_cell_angle_alpha   90.00762753
_cell_angle_beta   89.99575035
_cell_angle_gamma   90.00221495
_symmetry_Int_Tables_number   1
_chemical_formula_structural   AgSbTe2
_chemical_formula_sum   'Ag16 Sb16 Te32'
_cell_volume   1857.98032104
_cell_formula_units_Z   16
loop_
 _symmetry_equiv_pos_site_id
 _symmetry_equiv_pos_as_xyz
  1  'x, y, z'
loop_
 _atom_site_type_symbol
 _atom_site_label
 _atom_site_symmetry_multiplicity
 _atom_site_fract_x
 _atom_site_fract_y
 _atom_site_fract_z
 _atom_site_occupancy
  Ag  Ag0  1  0.24862190  0.75369152  -0.02185520  1
  Ag  Ag1  1  0.75678153  0.24674097  -0.00670091  1
  Ag  Ag2  1  0.75429695  0.74649123  0.50663004  1
  Ag  Ag3  1  0.01116231  0.25010390  0.74731514  1
  Ag  Ag4  1  0.00498103  0.75005097  0.25739799  1
  Ag  Ag5  1  0.49431276  0.50277050  0.50727791  1
  Ag  Ag6  1  0.24418283  0.24545756  -0.01624026  1
  Ag  Ag7  1  0.24147056  0.25425379  0.51633353  1
  Ag  Ag8  1  0.00204998  0.24996804  0.25280831  1
  Ag  Ag9  1  0.47810958  0.75016502  0.74512892  1
  Ag  Ag10  1  0.24677813  0.74588222  0.52060408  1
  Ag  Ag11  1  0.25037629  0.51828891  0.74565755  1
  Ag  Ag12  1  0.49172723  0.00108259  -0.00840367  1
  Ag  Ag13  1  0.75733308  0.25285474  0.50561993  1
  Ag  Ag14  1  0.25026550  -0.01814485  0.75331571  1
  Ag  Ag15  1  0.01855032  0.75005455  0.74383231  1
  Sb  Sb16  1  0.00428737  0.00154507  -0.00217872  1
  Sb  Sb17  1  0.75046763  0.49994024  0.25349867  1
  Sb  Sb18  1  0.00357629  0.49978459  0.50184550  1
  Sb  Sb19  1  0.24995260  0.49991826  0.25492065  1
  Sb  Sb20  1  0.75293409  0.75350312  -0.00448603  1
  Sb  Sb21  1  0.49647494  0.24973788  0.25137702  1
  Sb  Sb22  1  0.00224121  0.49885011  -0.00173706  1
  Sb  Sb23  1  0.00287470  0.00026612  0.50116723  1
  Sb  Sb24  1  0.74768832  0.49770214  0.74738373  1
  Sb  Sb25  1  0.24986543  -0.00008719  0.24614383  1
  Sb  Sb26  1  0.48767745  0.24953935  0.74887546  1
  Sb  Sb27  1  0.74846777  0.00293906  0.75024794  1
  Sb  Sb28  1  0.49368682  0.75023235  0.25336841  1
  Sb  Sb29  1  0.49543729  0.49957376  -0.00652924  1
  Sb  Sb30  1  0.75018150  0.00038284  0.25037763  1
  Sb  Sb31  1  0.49673205  -0.00076631  0.50530557  1
  Te  Te32  1  0.24455730  0.25022174  0.25107981  1
  Te  Te33  1  0.24957827  0.24942868  0.74861817  1
  Te  Te34  1  0.24380362  0.74970151  0.25122539  1
  Te  Te35  1  0.24990769  0.75054787  0.75108222  1
  Te  Te36  1  0.75912267  0.25009833  0.25626120  1
  Te  Te37  1  0.76068203  0.24990832  0.74495486  1
  Te  Te38  1  0.76146409  0.74978506  0.25451269  1
  Te  Te39  1  0.75659478  0.75013747  0.74702672  1
  Te  Te40  1  0.25216469  0.00153498  -0.00217129  1
  Te  Te41  1  0.25074048  0.00218592  0.50619328  1
  Te  Te42  1  0.25016997  0.49930542  -0.00724357  1
  Te  Te43  1  0.25248604  0.49828272  0.50350437  1
  Te  Te44  1  0.74020409  0.00582202  -0.00107267  1
  Te  Te45  1  0.74577819  0.00373375  0.50035880  1
  Te  Te46  1  0.74697458  0.48738005  -0.00057897  1
  Te  Te47  1  0.74144462  0.49805899  0.50157683  1
  Te  Te48  1  0.00428067  0.25011813  -0.00350898  1
  Te  Te49  1  0.00198544  0.24979333  0.50366019  1
  Te  Te50  1  -0.00062039  0.74969221  -0.00370742  1
  Te  Te51  1  0.00156755  0.75024941  0.50342472  1
  Te  Te52  1  0.49523022  0.25227310  0.00035668  1
  Te  Te53  1  0.50089613  0.24792095  0.49957750  1
  Te  Te54  1  0.50194966  0.74770930  0.00138763  1
  Te  Te55  1  0.49787559  0.75252788  0.49923522  1
  Te  Te56  1  0.00070631  0.00020225  0.24950097  1
  Te  Te57  1  0.00761238  -0.00022118  0.74973840  1
  Te  Te58  1  0.00093546  0.49991309  0.24898724  1
  Te  Te59  1  0.00748628  0.50027108  0.74991178  1
  Te  Te60  1  0.50020174  -0.00043522  0.23360299  1
  Te  Te61  1  0.49488635  -0.00479439  0.75437292  1
  Te  Te62  1  0.50036022  0.50038845  0.26513682  1
  Te  Te63  1  0.49542782  0.50548572  0.74469355  1
