# generated using pymatgen
data_AgSbTe2
_symmetry_space_group_name_H-M   'P 1'
_cell_length_a   12.23279745
_cell_length_b   12.22465366
_cell_length_c   12.22731668
_cell_angle_alpha   89.99982059
_cell_angle_beta   90.00601669
_cell_angle_gamma   89.99432037
_symmetry_Int_Tables_number   1
_chemical_formula_structural   AgSbTe2
_chemical_formula_sum   'Ag16 Sb16 Te32'
_cell_volume   1828.49385156
_cell_formula_units_Z   16
loop_
 _symmetry_equiv_pos_site_id
 _symmetry_equiv_pos_as_xyz
  1  'x, y, z'
loop_
 _atom_site_type_symbol
 _atom_site_label
 _atom_site_symmetry_multiplicity
 _atom_site_fract_x
 _atom_site_fract_y
 _atom_site_fract_z
 _atom_site_occupancy
  Ag  Ag0  1  0.49796653  -0.00145913  0.00511345  1
  Ag  Ag1  1  0.24427011  0.50364685  0.24955847  1
  Ag  Ag2  1  0.00367496  -0.00249802  0.49327173  1
  Ag  Ag3  1  0.75133564  0.74666893  0.00770693  1
  Ag  Ag4  1  0.49444406  0.50122036  0.00511747  1
  Ag  Ag5  1  0.24511628  -0.00366263  0.24905221  1
  Ag  Ag6  1  0.75433332  -0.00522387  0.24759162  1
  Ag  Ag7  1  0.75617237  0.50557937  0.24635180  1
  Ag  Ag8  1  0.00611342  0.50068911  0.00689694  1
  Ag  Ag9  1  0.49190855  0.50252488  0.49507132  1
  Ag  Ag10  1  0.00126797  0.74469723  0.25156958  1
  Ag  Ag11  1  0.24804050  0.25690935  0.00155994  1
  Ag  Ag12  1  0.00758823  0.50333253  0.49311242  1
  Ag  Ag13  1  0.24569555  0.49922901  0.75141859  1
  Ag  Ag14  1  0.24540756  0.74342052  0.49423030  1
  Ag  Ag15  1  0.00454120  0.25499682  0.75133988  1
  Sb  Sb16  1  0.00151427  -0.00097641  0.00757744  1
  Sb  Sb17  1  0.49709700  0.74803834  0.75107595  1
  Sb  Sb18  1  0.75305313  0.25102633  0.49856258  1
  Sb  Sb19  1  0.49756502  0.25400279  0.24771710  1
  Sb  Sb20  1  0.00182781  0.25689522  0.24901946  1
  Sb  Sb21  1  0.75275446  0.50092301  0.75221358  1
  Sb  Sb22  1  0.75446921  0.74770522  0.49277808  1
  Sb  Sb23  1  0.24692727  0.25697773  0.49871047  1
  Sb  Sb24  1  0.24674173  0.00036148  0.75128407  1
  Sb  Sb25  1  0.00273402  0.74679256  0.74863120  1
  Sb  Sb26  1  0.49806419  0.74650287  0.24955657  1
  Sb  Sb27  1  0.75217843  0.25298408  0.00171468  1
  Sb  Sb28  1  0.75345598  -0.00136707  0.75266822  1
  Sb  Sb29  1  0.49618074  -0.00267081  0.49455172  1
  Sb  Sb30  1  0.24847920  0.74389527  0.00566832  1
  Sb  Sb31  1  0.49535655  0.25338311  0.75383343  1
  Te  Te32  1  0.24967600  0.24917574  0.24349931  1
  Te  Te33  1  0.24550432  0.25465023  0.75608022  1
  Te  Te34  1  0.24471633  0.74881519  0.25269989  1
  Te  Te35  1  0.24927098  0.74404228  0.74138107  1
  Te  Te36  1  0.75011797  0.24882557  0.24994449  1
  Te  Te37  1  0.75972279  0.24960925  0.74929499  1
  Te  Te38  1  0.75616397  0.74795091  0.24673809  1
  Te  Te39  1  0.75012756  0.75056251  0.76089011  1
  Te  Te40  1  0.25262493  0.00049262  0.00311438  1
  Te  Te41  1  0.24986472  -0.00225211  0.49591007  1
  Te  Te42  1  0.25006357  0.50226705  0.00306250  1
  Te  Te43  1  0.24779631  0.49930829  0.49593442  1
  Te  Te44  1  0.74771788  -0.00163131  0.00460982  1
  Te  Te45  1  0.75088177  -0.00056941  0.49323731  1
  Te  Te46  1  0.74879041  0.50073401  0.00342415  1
  Te  Te47  1  0.75113773  0.50151367  0.49497115  1
  Te  Te48  1  0.00388251  0.25417043  -0.00429281  1
  Te  Te49  1  0.00093849  0.25108384  0.50569905  1
  Te  Te50  1  -0.00233506  0.74640379  0.00381364  1
  Te  Te51  1  0.00245485  0.74755239  0.49697372  1
  Te  Te52  1  0.49489534  0.25260987  -0.00109257  1
  Te  Te53  1  0.50089157  0.25840154  0.50214521  1
  Te  Te54  1  0.50352644  0.74770589  -0.00046094  1
  Te  Te55  1  0.49446665  0.74378880  0.50102667  1
  Te  Te56  1  0.00166035  -0.00268229  0.25300333  1
  Te  Te57  1  0.00026028  0.00390290  0.74131939  1
  Te  Te58  1  0.00098905  0.50057721  0.24998653  1
  Te  Te59  1  0.00290488  0.49858263  0.74951663  1
  Te  Te60  1  0.49938769  0.00002856  0.24652716  1
  Te  Te61  1  0.50062947  0.00065955  0.75691455  1
  Te  Te62  1  0.49929240  0.50016246  0.24767090  1
  Te  Te63  1  0.49570260  0.49901287  0.75193209  1
