# generated using pymatgen
data_AgSbTe2
_symmetry_space_group_name_H-M   'P 1'
_cell_length_a   12.23137173
_cell_length_b   12.25501729
_cell_length_c   12.24812205
_cell_angle_alpha   89.99326036
_cell_angle_beta   89.99325857
_cell_angle_gamma   90.00165187
_symmetry_Int_Tables_number   1
_chemical_formula_structural   AgSbTe2
_chemical_formula_sum   'Ag16 Sb16 Te32'
_cell_volume   1835.94045919
_cell_formula_units_Z   16
loop_
 _symmetry_equiv_pos_site_id
 _symmetry_equiv_pos_as_xyz
  1  'x, y, z'
loop_
 _atom_site_type_symbol
 _atom_site_label
 _atom_site_symmetry_multiplicity
 _atom_site_fract_x
 _atom_site_fract_y
 _atom_site_fract_z
 _atom_site_occupancy
  Ag  Ag0  1  -0.00693465  0.00449290  0.50316854  1
  Ag  Ag1  1  0.24183460  0.49758554  0.75317834  1
  Ag  Ag2  1  0.50809629  0.75175335  0.24544255  1
  Ag  Ag3  1  0.75128774  0.00646966  0.24332900  1
  Ag  Ag4  1  -0.00727551  0.49693213  -0.00672826  1
  Ag  Ag5  1  0.75341828  0.01400649  0.75524319  1
  Ag  Ag6  1  0.75384943  0.49294439  0.24177466  1
  Ag  Ag7  1  -0.00760826  0.74501681  0.75270276  1
  Ag  Ag8  1  0.50932962  0.00109365  -0.00085470  1
  Ag  Ag9  1  0.75115152  0.75015200  -0.00188117  1
  Ag  Ag10  1  -0.01283596  0.25381112  0.75162624  1
  Ag  Ag11  1  -0.00825213  0.25070155  0.24859435  1
  Ag  Ag12  1  0.51566258  0.25003510  0.75269156  1
  Ag  Ag13  1  0.75302947  0.25042594  -0.01264216  1
  Ag  Ag14  1  0.75346253  0.24766039  0.51390004  1
  Ag  Ag15  1  0.75515470  0.48607575  0.75818851  1
  Sb  Sb16  1  -0.00810355  0.00270003  -0.00187606  1
  Sb  Sb17  1  0.50763666  0.74936475  0.75307264  1
  Sb  Sb18  1  -0.00421974  0.49723120  0.50602171  1
  Sb  Sb19  1  0.24624467  0.00173731  0.75130943  1
  Sb  Sb20  1  0.24785713  0.74850868  -0.00260199  1
  Sb  Sb21  1  0.24735845  0.74951717  0.50211095  1
  Sb  Sb22  1  0.24649043  0.25074725  -0.00184793  1
  Sb  Sb23  1  0.75203390  0.75166810  0.50136776  1
  Sb  Sb24  1  0.24624706  0.49949541  0.24699897  1
  Sb  Sb25  1  0.24579483  0.24963724  0.50324324  1
  Sb  Sb26  1  0.24796380  0.00083353  0.24848664  1
  Sb  Sb27  1  0.50481738  0.49848336  0.50095197  1
  Sb  Sb28  1  0.51238559  0.24976913  0.24714157  1
  Sb  Sb29  1  0.50663949  0.00265292  0.50021705  1
  Sb  Sb30  1  -0.00684128  0.74994488  0.24746487  1
  Sb  Sb31  1  0.50898328  0.49854058  -0.00126894  1
  Te  Te32  1  0.23865983  0.25109017  0.25062466  1
  Te  Te33  1  0.24835131  0.25346956  0.74969040  1
  Te  Te34  1  0.25896978  0.74916446  0.25012942  1
  Te  Te35  1  0.24368073  0.74559729  0.75042175  1
  Te  Te36  1  0.75131939  0.24979920  0.24731084  1
  Te  Te37  1  0.75067731  0.24839470  0.75243508  1
  Te  Te38  1  0.74903747  0.75039297  0.24862731  1
  Te  Te39  1  0.75278022  0.75010220  0.75241388  1
  Te  Te40  1  0.26513670  -0.00060808  0.00088791  1
  Te  Te41  1  0.24034436  -0.00008832  0.49909957  1
  Te  Te42  1  0.24012744  0.50039703  -0.00511321  1
  Te  Te43  1  0.25089015  0.49983480  0.50780637  1
  Te  Te44  1  0.75004610  0.00046558  -0.00009910  1
  Te  Te45  1  0.75321555  0.00253630  0.50087488  1
  Te  Te46  1  0.75165265  0.49899061  0.00008019  1
  Te  Te47  1  0.75017833  0.49481543  0.49809754  1
  Te  Te48  1  -0.00282441  0.25097907  -0.00158869  1
  Te  Te49  1  -0.00336698  0.24764833  0.50133535  1
  Te  Te50  1  -0.00391763  0.74754244  -0.00379486  1
  Te  Te51  1  0.00024102  0.75681347  0.50544172  1
  Te  Te52  1  0.50347581  0.24834239  -0.00368193  1
  Te  Te53  1  0.50493098  0.24965033  0.50627269  1
  Te  Te54  1  0.50486956  0.75182301  0.00213737  1
  Te  Te55  1  0.49861112  0.75061418  0.49224323  1
  Te  Te56  1  -0.00333365  0.00109030  0.24999121  1
  Te  Te57  1  -0.00170992  0.00353233  0.75132638  1
  Te  Te58  1  -0.00307207  0.49905351  0.24772110  1
  Te  Te59  1  -0.00522967  0.49761306  0.74978762  1
  Te  Te60  1  0.50307937  -0.00033989  0.24925344  1
  Te  Te61  1  0.50145758  0.00131943  0.75125206  1
  Te  Te62  1  0.50230268  0.50158315  0.25014169  1
  Te  Te63  1  0.50476055  0.49839266  0.75034882  1
