# generated using pymatgen
data_AgSbTe2
_symmetry_space_group_name_H-M   'P 1'
_cell_length_a   12.28364629
_cell_length_b   12.30078294
_cell_length_c   12.30192832
_cell_angle_alpha   89.99999994
_cell_angle_beta   90.00000006
_cell_angle_gamma   90.00175420
_symmetry_Int_Tables_number   1
_chemical_formula_structural   AgSbTe2
_chemical_formula_sum   'Ag16 Sb16 Te32'
_cell_volume   1858.80250526
_cell_formula_units_Z   16
loop_
 _symmetry_equiv_pos_site_id
 _symmetry_equiv_pos_as_xyz
  1  'x, y, z'
loop_
 _atom_site_type_symbol
 _atom_site_label
 _atom_site_symmetry_multiplicity
 _atom_site_fract_x
 _atom_site_fract_y
 _atom_site_fract_z
 _atom_site_occupancy
  Ag  Ag0  1  -0.01910041  0.24804601  0.74999971  1
  Ag  Ag1  1  0.75016327  0.75624819  0.50594479  1
  Ag  Ag2  1  0.75103197  0.48072836  0.74999990  1
  Ag  Ag3  1  0.74676193  0.24457096  0.51930967  1
  Ag  Ag4  1  0.25331255  0.75140363  0.48688265  1
  Ag  Ag5  1  0.75072603  0.01668703  0.74999991  1
  Ag  Ag6  1  0.26153632  -0.01183032  0.24999998  1
  Ag  Ag7  1  0.25702357  0.51536020  0.25000001  1
  Ag  Ag8  1  -0.01405098  0.75119203  0.74999995  1
  Ag  Ag9  1  0.51948209  0.24820316  0.74999958  1
  Ag  Ag10  1  0.75016326  0.75624814  -0.00594482  1
  Ag  Ag11  1  0.49627714  0.75567394  0.25000001  1
  Ag  Ag12  1  0.74213271  -0.00326170  0.25000000  1
  Ag  Ag13  1  0.25331256  0.75140360  0.01311719  1
  Ag  Ag14  1  0.74676194  0.24457080  -0.01931040  1
  Ag  Ag15  1  0.50893586  0.24263050  0.24999999  1
  Sb  Sb16  1  0.50040356  0.50062277  -0.00018755  1
  Sb  Sb17  1  0.25230898  -0.00469126  0.75000003  1
  Sb  Sb18  1  0.25174249  0.24662894  0.00335084  1
  Sb  Sb19  1  0.50253708  -0.00052171  0.00220497  1
  Sb  Sb20  1  0.50040355  0.50062280  0.50018755  1
  Sb  Sb21  1  0.50994663  0.75311607  0.74999998  1
  Sb  Sb22  1  -0.00136231  0.75019794  0.25000001  1
  Sb  Sb23  1  -0.00244984  -0.00148322  -0.00078589  1
  Sb  Sb24  1  0.74542912  0.50283850  0.25000002  1
  Sb  Sb25  1  -0.00078971  0.50125139  0.50090718  1
  Sb  Sb26  1  0.25152560  0.50383535  0.75000000  1
  Sb  Sb27  1  0.25174257  0.24662895  0.49664916  1
  Sb  Sb28  1  -0.00244983  -0.00148317  0.50078587  1
  Sb  Sb29  1  -0.00078971  0.50125142  -0.00090719  1
  Sb  Sb30  1  0.50253707  -0.00052171  0.49779503  1
  Sb  Sb31  1  -0.01188976  0.24877894  0.24999999  1
  Te  Te32  1  0.25610455  0.24236692  0.25000003  1
  Te  Te33  1  0.24937136  0.24917977  0.74999996  1
  Te  Te34  1  0.24538530  0.75424339  0.25000014  1
  Te  Te35  1  0.25053033  0.75220375  0.75000002  1
  Te  Te36  1  0.74721661  0.25439747  0.25000045  1
  Te  Te37  1  0.74944921  0.24901251  0.75000088  1
  Te  Te38  1  0.75558656  0.74672894  0.25000007  1
  Te  Te39  1  0.74731345  0.75411942  0.74999996  1
  Te  Te40  1  0.24919646  -0.00631893  0.00496799  1
  Te  Te41  1  0.24919645  -0.00631890  0.49503203  1
  Te  Te42  1  0.24973708  0.50868342  0.00198383  1
  Te  Te43  1  0.24973708  0.50868338  0.49801614  1
  Te  Te44  1  0.75000876  -0.00385241  0.00393051  1
  Te  Te45  1  0.75000874  -0.00385213  0.49606957  1
  Te  Te46  1  0.74978515  0.50365866  -0.00144907  1
  Te  Te47  1  0.74978514  0.50365814  0.50144917  1
  Te  Te48  1  -0.00570623  0.25109380  -0.00545541  1
  Te  Te49  1  -0.00570675  0.25109378  0.50545540  1
  Te  Te50  1  -0.00757666  0.74924152  -0.00662773  1
  Te  Te51  1  -0.00757668  0.74924150  0.50662782  1
  Te  Te52  1  0.50327539  0.25101368  0.00422719  1
  Te  Te53  1  0.50327581  0.25101370  0.49577295  1
  Te  Te54  1  0.50312294  0.74927513  0.00492045  1
  Te  Te55  1  0.50312298  0.74927512  0.49507956  1
  Te  Te56  1  -0.00554574  0.00187220  0.25000000  1
  Te  Te57  1  -0.00413681  -0.00049456  0.75000003  1
  Te  Te58  1  0.01606414  0.49728667  0.25000001  1
  Te  Te59  1  -0.00362415  0.50106163  0.75000000  1
  Te  Te60  1  0.50551132  -0.00202320  0.24999999  1
  Te  Te61  1  0.50471031  0.00663482  0.75000000  1
  Te  Te62  1  0.49473788  0.50228677  0.24999999  1
  Te  Te63  1  0.50432474  0.49058753  0.74999998  1
