# generated using pymatgen
data_AgSbTe2
_symmetry_space_group_name_H-M   'P 1'
_cell_length_a   12.21074730
_cell_length_b   12.22269188
_cell_length_c   12.21908820
_cell_angle_alpha   90.00252718
_cell_angle_beta   89.99845318
_cell_angle_gamma   89.99552346
_symmetry_Int_Tables_number   1
_chemical_formula_structural   AgSbTe2
_chemical_formula_sum   'Ag16 Sb16 Te32'
_cell_volume   1823.67693462
_cell_formula_units_Z   16
loop_
 _symmetry_equiv_pos_site_id
 _symmetry_equiv_pos_as_xyz
  1  'x, y, z'
loop_
 _atom_site_type_symbol
 _atom_site_label
 _atom_site_symmetry_multiplicity
 _atom_site_fract_x
 _atom_site_fract_y
 _atom_site_fract_z
 _atom_site_occupancy
  Ag  Ag0  1  0.74749389  0.50168606  0.75417864  1
  Ag  Ag1  1  0.25064959  0.00121138  0.74851612  1
  Ag  Ag2  1  0.24711574  0.75438565  0.49775041  1
  Ag  Ag3  1  0.25087456  0.24615255  0.49730572  1
  Ag  Ag4  1  0.50537732  0.00578054  0.00094913  1
  Ag  Ag5  1  0.74869519  -0.00232174  0.75454985  1
  Ag  Ag6  1  0.74159028  0.24498230  0.00098297  1
  Ag  Ag7  1  -0.00234142  0.75263472  0.25338731  1
  Ag  Ag8  1  0.49822316  0.24882611  0.24293859  1
  Ag  Ag9  1  0.25811609  0.24781063  0.00372700  1
  Ag  Ag10  1  0.75290416  0.75496820  0.49850624  1
  Ag  Ag11  1  0.74853189  0.75516314  0.00055945  1
  Ag  Ag12  1  0.00043392  -0.00378206  0.49883233  1
  Ag  Ag13  1  0.50279521  0.49356068  0.00227934  1
  Ag  Ag14  1  0.25222067  0.49760736  0.24933877  1
  Ag  Ag15  1  0.74922105  -0.00267206  0.24584892  1
  Sb  Sb16  1  0.25252437  0.49969906  0.75163309  1
  Sb  Sb17  1  -0.00576576  -0.00095402  0.00135977  1
  Sb  Sb18  1  0.49970286  0.00161263  0.49975237  1
  Sb  Sb19  1  -0.00071936  0.50406100  0.49747079  1
  Sb  Sb20  1  0.74772066  0.50125219  0.24665016  1
  Sb  Sb21  1  0.25109379  0.75262297  0.00133701  1
  Sb  Sb22  1  0.50273364  0.75092007  0.75128392  1
  Sb  Sb23  1  -0.00291616  0.50079226  0.00198207  1
  Sb  Sb24  1  0.50093860  0.49794627  0.49781651  1
  Sb  Sb25  1  0.50008890  0.24886738  0.75814012  1
  Sb  Sb26  1  0.25082131  0.00134180  0.25053850  1
  Sb  Sb27  1  0.00108887  0.24735722  0.25057978  1
  Sb  Sb28  1  0.00001979  0.24740969  0.74948832  1
  Sb  Sb29  1  -0.00266820  0.75302657  0.74660749  1
  Sb  Sb30  1  0.50183334  0.75183807  0.24844177  1
  Sb  Sb31  1  0.74891131  0.24529750  0.49989207  1
  Te  Te32  1  0.25076807  0.25130635  0.24786759  1
  Te  Te33  1  0.25001073  0.24658231  0.74991718  1
  Te  Te34  1  0.24763641  0.74826560  0.25324401  1
  Te  Te35  1  0.24835778  0.75375636  0.74461742  1
  Te  Te36  1  0.74818737  0.24872790  0.24739475  1
  Te  Te37  1  0.75024187  0.24676111  0.75273810  1
  Te  Te38  1  0.75109792  0.75152319  0.25126644  1
  Te  Te39  1  0.75109491  0.75431555  0.75012194  1
  Te  Te40  1  0.25240569  0.00162760  -0.00248445  1
  Te  Te41  1  0.25064388  -0.00091873  0.50128301  1
  Te  Te42  1  0.25415595  0.49804577  -0.00015688  1
  Te  Te43  1  0.25045604  0.50002733  0.49925433  1
  Te  Te44  1  0.75065323  0.00044116  -0.00148947  1
  Te  Te45  1  0.74945499  -0.00163233  0.50167258  1
  Te  Te46  1  0.74708357  0.49933733  -0.00130737  1
  Te  Te47  1  0.74946683  0.50453112  0.50474391  1
  Te  Te48  1  0.00153620  0.25012420  0.00108376  1
  Te  Te49  1  0.00632216  0.24321918  0.49889829  1
  Te  Te50  1  -0.00612879  0.75020080  0.00833643  1
  Te  Te51  1  -0.00107381  0.75355149  0.49564545  1
  Te  Te52  1  0.50043198  0.24844907  0.00313738  1
  Te  Te53  1  0.49378947  0.25054489  0.48972960  1
  Te  Te54  1  0.50505612  0.75144865  0.00110577  1
  Te  Te55  1  0.50002795  0.74939853  0.49873688  1
  Te  Te56  1  -0.00495741  -0.00397505  0.25499620  1
  Te  Te57  1  -0.00052225  -0.00036179  0.74342135  1
  Te  Te58  1  0.00708531  0.50637678  0.25020559  1
  Te  Te59  1  -0.00873952  0.50017548  0.74980042  1
  Te  Te60  1  0.50464722  0.00417119  0.24449624  1
  Te  Te61  1  0.50160726  0.00005028  0.75630716  1
  Te  Te62  1  0.49564781  0.49502549  0.24504699  1
  Te  Te63  1  0.50624580  0.49981909  0.75774487  1
