# generated using pymatgen
data_AgSbTe2
_symmetry_space_group_name_H-M   'P 1'
_cell_length_a   12.22017775
_cell_length_b   12.21853937
_cell_length_c   12.23281573
_cell_angle_alpha   90.00001289
_cell_angle_beta   90.00376617
_cell_angle_gamma   90.01794481
_symmetry_Int_Tables_number   1
_chemical_formula_structural   AgSbTe2
_chemical_formula_sum   'Ag16 Sb16 Te32'
_cell_volume   1826.51493204
_cell_formula_units_Z   16
loop_
 _symmetry_equiv_pos_site_id
 _symmetry_equiv_pos_as_xyz
  1  'x, y, z'
loop_
 _atom_site_type_symbol
 _atom_site_label
 _atom_site_symmetry_multiplicity
 _atom_site_fract_x
 _atom_site_fract_y
 _atom_site_fract_z
 _atom_site_occupancy
  Ag  Ag0  1  -0.00339144  0.24505780  0.24373159  1
  Ag  Ag1  1  0.24975234  0.75508655  0.00374209  1
  Ag  Ag2  1  -0.00500092  0.24574230  0.75652607  1
  Ag  Ag3  1  0.75742304  0.24154559  0.00069390  1
  Ag  Ag4  1  0.25280482  0.75509741  0.49672675  1
  Ag  Ag5  1  0.75156048  0.23925302  0.49920148  1
  Ag  Ag6  1  0.24782042  -0.00308598  0.24739434  1
  Ag  Ag7  1  0.50307135  -0.00097581  0.00032767  1
  Ag  Ag8  1  0.74921192  0.00210330  0.74903734  1
  Ag  Ag9  1  0.74631789  0.76109309  0.50062666  1
  Ag  Ag10  1  -0.00406772  0.00561663  0.00291713  1
  Ag  Ag11  1  0.50109503  0.75695716  0.74788684  1
  Ag  Ag12  1  0.00086082  0.49475737  0.00258062  1
  Ag  Ag13  1  0.50643986  -0.00430791  0.50025650  1
  Ag  Ag14  1  0.24559927  0.50277676  0.24753417  1
  Ag  Ag15  1  0.75171742  0.00340986  0.25035654  1
  Sb  Sb16  1  0.74881351  0.75873489  -0.00017181  1
  Sb  Sb17  1  0.24974363  -0.00222476  0.75151584  1
  Sb  Sb18  1  0.75387740  0.49800237  0.24830171  1
  Sb  Sb19  1  0.50537523  0.24317123  0.75135721  1
  Sb  Sb20  1  0.24691267  0.50252522  0.75238636  1
  Sb  Sb21  1  -0.00169109  0.75425067  0.75217689  1
  Sb  Sb22  1  0.49851113  0.75507937  0.25174866  1
  Sb  Sb23  1  0.50434015  0.24518238  0.24910662  1
  Sb  Sb24  1  0.00172998  0.75481587  0.24819417  1
  Sb  Sb25  1  0.24276162  0.24520519  0.00273509  1
  Sb  Sb26  1  0.25046026  0.24375045  0.49634981  1
  Sb  Sb27  1  -0.00625650  0.00116679  0.49656415  1
  Sb  Sb28  1  0.49928837  0.50152734  0.00027567  1
  Sb  Sb29  1  0.49925930  0.50376033  0.49984279  1
  Sb  Sb30  1  0.00144935  0.49805036  0.49683621  1
  Sb  Sb31  1  0.75232833  0.49831913  0.75090756  1
  Te  Te32  1  0.24382835  0.24665422  0.25112229  1
  Te  Te33  1  0.24199882  0.25121101  0.74848048  1
  Te  Te34  1  0.24896779  0.75477711  0.24974132  1
  Te  Te35  1  0.25250538  0.75031946  0.74844154  1
  Te  Te36  1  0.75365736  0.24762828  0.25047087  1
  Te  Te37  1  0.75272768  0.24649090  0.74946424  1
  Te  Te38  1  0.75078739  0.75424595  0.25559729  1
  Te  Te39  1  0.74699959  0.75447627  0.74644493  1
  Te  Te40  1  0.25119791  -0.00240662  0.00239621  1
  Te  Te41  1  0.25446729  -0.00376739  0.49652375  1
  Te  Te42  1  0.24746796  0.50449793  0.00363516  1
  Te  Te43  1  0.25063313  0.50685973  0.49452957  1
  Te  Te44  1  0.75015722  0.00024359  0.00198414  1
  Te  Te45  1  0.74996090  -0.00029680  0.49874797  1
  Te  Te46  1  0.75475320  0.49385886  0.00208435  1
  Te  Te47  1  0.74939169  0.50055999  0.49865474  1
  Te  Te48  1  -0.00079212  0.24645320  0.00164310  1
  Te  Te49  1  -0.00508225  0.25066667  0.49949350  1
  Te  Te50  1  0.00378297  0.75127404  -0.00100206  1
  Te  Te51  1  0.00112267  0.74894042  0.50143961  1
  Te  Te52  1  0.50728885  0.24403055  -0.00214681  1
  Te  Te53  1  0.50624301  0.24430662  0.50157736  1
  Te  Te54  1  0.49741728  0.75398258  -0.00389115  1
  Te  Te55  1  0.50063805  0.75345980  0.50234273  1
  Te  Te56  1  -0.00018346  0.00344189  0.24699753  1
  Te  Te57  1  -0.00416786  0.00418085  0.75572727  1
  Te  Te58  1  0.00434991  0.49458335  0.24545731  1
  Te  Te59  1  -0.00009646  0.49290603  0.75766851  1
  Te  Te60  1  0.50031150  0.00062594  0.24872490  1
  Te  Te61  1  0.50272607  -0.00286274  0.75015560  1
  Te  Te62  1  0.48940292  0.49790629  0.24875762  1
  Te  Te63  1  0.49941938  0.50930802  0.75106950  1
