# generated using pymatgen
data_AgSbTe2
_symmetry_space_group_name_H-M   'P 1'
_cell_length_a   12.20695162
_cell_length_b   12.21043506
_cell_length_c   12.21343129
_cell_angle_alpha   90.00340122
_cell_angle_beta   90.00560961
_cell_angle_gamma   89.99446033
_symmetry_Int_Tables_number   1
_chemical_formula_structural   AgSbTe2
_chemical_formula_sum   'Ag16 Sb16 Te32'
_cell_volume   1820.43866165
_cell_formula_units_Z   16
loop_
 _symmetry_equiv_pos_site_id
 _symmetry_equiv_pos_as_xyz
  1  'x, y, z'
loop_
 _atom_site_type_symbol
 _atom_site_label
 _atom_site_symmetry_multiplicity
 _atom_site_fract_x
 _atom_site_fract_y
 _atom_site_fract_z
 _atom_site_occupancy
  Ag  Ag0  1  -0.00132116  0.00535320  0.00252538  1
  Ag  Ag1  1  0.49761695  0.74535589  0.25213786  1
  Ag  Ag2  1  0.75041474  0.74582811  0.00030959  1
  Ag  Ag3  1  -0.00415042  0.25459100  0.75288429  1
  Ag  Ag4  1  0.75245465  0.25604365  0.49845919  1
  Ag  Ag5  1  -0.00151040  0.25374501  0.24644372  1
  Ag  Ag6  1  0.25020839  0.50005494  0.25313108  1
  Ag  Ag7  1  0.25232818  0.74550321  0.49594637  1
  Ag  Ag8  1  -0.00086480  0.49636338  0.49818743  1
  Ag  Ag9  1  0.75214290  0.49793137  0.75083030  1
  Ag  Ag10  1  0.50083164  0.25436804  0.25104086  1
  Ag  Ag11  1  0.75668626  0.25401992  0.00145681  1
  Ag  Ag12  1  -0.00427409  0.49447554  0.00152039  1
  Ag  Ag13  1  0.24886233  0.00034540  0.24999995  1
  Ag  Ag14  1  0.50191025  0.74564433  0.74869449  1
  Ag  Ag15  1  0.50009378  0.50148042  0.49609581  1
  Sb  Sb16  1  0.75083637  0.49738293  0.24870750  1
  Sb  Sb17  1  0.24834035  0.25527375  0.49587577  1
  Sb  Sb18  1  0.25044096  0.74805708  0.00372197  1
  Sb  Sb19  1  -0.00237699  0.74498978  0.75096950  1
  Sb  Sb20  1  0.00216882  0.74517677  0.24935947  1
  Sb  Sb21  1  0.00185232  0.00405142  0.49711833  1
  Sb  Sb22  1  0.24823359  0.50124802  0.74737497  1
  Sb  Sb23  1  0.50010101  0.00133105  0.00274196  1
  Sb  Sb24  1  0.74717055  0.74218422  0.49956712  1
  Sb  Sb25  1  0.50473245  0.49964046  0.00478762  1
  Sb  Sb26  1  0.24140951  0.25139802  0.00408252  1
  Sb  Sb27  1  0.50529616  0.25547183  0.74842683  1
  Sb  Sb28  1  0.75287817  0.00218748  0.24837233  1
  Sb  Sb29  1  0.75170846  0.00152185  0.75177076  1
  Sb  Sb30  1  0.49881704  -0.00082259  0.49768303  1
  Sb  Sb31  1  0.24745221  -0.00141167  0.75029193  1
  Te  Te32  1  0.25113034  0.25131737  0.25069421  1
  Te  Te33  1  0.24399974  0.24912184  0.74919451  1
  Te  Te34  1  0.25316465  0.74793563  0.25220670  1
  Te  Te35  1  0.25660511  0.75018569  0.74466619  1
  Te  Te36  1  0.75054100  0.24942990  0.24892863  1
  Te  Te37  1  0.75240599  0.25378549  0.75114994  1
  Te  Te38  1  0.74317367  0.75163999  0.24606995  1
  Te  Te39  1  0.74632317  0.74577696  0.75271178  1
  Te  Te40  1  0.24314464  -0.00086338  0.00634910  1
  Te  Te41  1  0.24857144  -0.00830776  0.49347525  1
  Te  Te42  1  0.24209662  0.50102886  0.00597720  1
  Te  Te43  1  0.25009944  0.50335460  0.49659275  1
  Te  Te44  1  0.75640864  0.00076173  -0.00017583  1
  Te  Te45  1  0.75128540  0.01017151  0.50016240  1
  Te  Te46  1  0.75357584  0.49884308  -0.00276741  1
  Te  Te47  1  0.75126919  0.49679221  0.50354885  1
  Te  Te48  1  -0.00263136  0.25259878  0.00294098  1
  Te  Te49  1  -0.00211633  0.25378084  0.49781702  1
  Te  Te50  1  -0.00561527  0.74832940  -0.00044934  1
  Te  Te51  1  0.00234173  0.74425160  0.50081369  1
  Te  Te52  1  0.50905970  0.24984137  0.00464124  1
  Te  Te53  1  0.50339144  0.25454488  0.49648176  1
  Te  Te54  1  0.50490750  0.74957160  0.00127670  1
  Te  Te55  1  0.50004043  0.74630709  0.49687516  1
  Te  Te56  1  0.00426155  0.00501044  0.24633558  1
  Te  Te57  1  0.00095526  0.00691219  0.75571204  1
  Te  Te58  1  0.00216542  0.49742589  0.25116265  1
  Te  Te59  1  -0.00213521  0.49669824  0.74948008  1
  Te  Te60  1  0.49294558  0.00094177  0.24955171  1
  Te  Te61  1  0.49886913  -0.00810941  0.75031751  1
  Te  Te62  1  0.49701400  0.49932446  0.25230997  1
  Te  Te63  1  0.50226138  0.50281335  0.74543390  1
