# generated using pymatgen
data_AgSbTe2
_symmetry_space_group_name_H-M   'P 1'
_cell_length_a   12.21743591
_cell_length_b   12.21921304
_cell_length_c   12.23238204
_cell_angle_alpha   90.00182366
_cell_angle_beta   90.00620711
_cell_angle_gamma   89.98346755
_symmetry_Int_Tables_number   1
_chemical_formula_structural   AgSbTe2
_chemical_formula_sum   'Ag16 Sb16 Te32'
_cell_volume   1826.14106022
_cell_formula_units_Z   16
loop_
 _symmetry_equiv_pos_site_id
 _symmetry_equiv_pos_as_xyz
  1  'x, y, z'
loop_
 _atom_site_type_symbol
 _atom_site_label
 _atom_site_symmetry_multiplicity
 _atom_site_fract_x
 _atom_site_fract_y
 _atom_site_fract_z
 _atom_site_occupancy
  Ag  Ag0  1  0.24800000  0.75487621  0.00781920  1
  Ag  Ag1  1  0.00117622  0.24675287  0.75665494  1
  Ag  Ag2  1  0.50083042  0.50517317  0.49518819  1
  Ag  Ag3  1  0.00462710  -0.00053374  0.49855167  1
  Ag  Ag4  1  0.24027252  0.24442059  0.00388333  1
  Ag  Ag5  1  0.49418853  0.74633702  0.25368527  1
  Ag  Ag6  1  0.75996928  0.25082639  0.00136887  1
  Ag  Ag7  1  0.24495164  -0.00364250  0.24626065  1
  Ag  Ag8  1  0.25077272  0.75174644  0.49219966  1
  Ag  Ag9  1  0.74959070  0.74613701  0.49608361  1
  Ag  Ag10  1  0.00712480  0.00693867  0.00136190  1
  Ag  Ag11  1  0.25088699  0.50435922  0.25054531  1
  Ag  Ag12  1  0.00370909  0.24777722  0.24358145  1
  Ag  Ag13  1  0.24388973  0.00040610  0.75289002  1
  Ag  Ag14  1  0.75163910  0.49842118  0.74832253  1
  Ag  Ag15  1  0.74916255  0.50087116  0.25304414  1
  Sb  Sb16  1  0.00120609  0.75260519  0.75024667  1
  Sb  Sb17  1  0.49731198  0.25218070  0.24892623  1
  Sb  Sb18  1  0.24679718  0.24792870  0.49668828  1
  Sb  Sb19  1  0.49145888  -0.00115004  0.00186224  1
  Sb  Sb20  1  0.49864662  0.25167572  0.75157461  1
  Sb  Sb21  1  0.49936737  0.74821546  0.74687441  1
  Sb  Sb22  1  0.00042047  0.49285539  0.00180296  1
  Sb  Sb23  1  -0.00012164  0.50211081  0.49759716  1
  Sb  Sb24  1  0.49906209  0.50126971  0.00446013  1
  Sb  Sb25  1  0.75493983  0.00009259  0.25009816  1
  Sb  Sb26  1  0.75561760  0.00139176  0.74981832  1
  Sb  Sb27  1  0.75385724  0.25311290  0.49856571  1
  Sb  Sb28  1  0.75250913  0.75014006  0.00406671  1
  Sb  Sb29  1  0.24866867  0.49946159  0.74983360  1
  Sb  Sb30  1  0.00682836  0.75218175  0.24995923  1
  Sb  Sb31  1  0.49646134  -0.00416432  0.49702887  1
  Te  Te32  1  0.24803347  0.25106449  0.24710564  1
  Te  Te33  1  0.24666404  0.24840879  0.75459835  1
  Te  Te34  1  0.24897261  0.74812702  0.25112922  1
  Te  Te35  1  0.24981957  0.75166987  0.74949241  1
  Te  Te36  1  0.75196589  0.25264222  0.24703486  1
  Te  Te37  1  0.75298452  0.25293761  0.75330497  1
  Te  Te38  1  0.74636302  0.74593285  0.25122945  1
  Te  Te39  1  0.74967498  0.74492387  0.74755751  1
  Te  Te40  1  0.24780237  0.00101402  0.00244188  1
  Te  Te41  1  0.24788759  -0.00242075  0.49851709  1
  Te  Te42  1  0.25022164  0.50081456  0.00306241  1
  Te  Te43  1  0.25078858  0.50435907  0.49713629  1
  Te  Te44  1  0.75710057  0.00407918  -0.00085226  1
  Te  Te45  1  0.75353978  -0.00680691  0.50067147  1
  Te  Te46  1  0.74978677  0.49739663  0.00168874  1
  Te  Te47  1  0.75046742  0.50373610  0.49604063  1
  Te  Te48  1  0.00133173  0.24839429  0.00134108  1
  Te  Te49  1  -0.00011694  0.24257460  0.49930180  1
  Te  Te50  1  0.00581455  0.75904888  -0.00113887  1
  Te  Te51  1  0.00110052  0.75607444  0.50032946  1
  Te  Te52  1  0.50109990  0.24975274  -0.00008730  1
  Te  Te53  1  0.50052349  0.25820800  0.50003064  1
  Te  Te54  1  0.49476720  0.75033957  0.00667579  1
  Te  Te55  1  0.49888884  0.74687890  0.49681516  1
  Te  Te56  1  0.00358351  0.00412828  0.25039729  1
  Te  Te57  1  0.00393195  0.00386385  0.74965438  1
  Te  Te58  1  0.00057675  0.49304803  0.25073033  1
  Te  Te59  1  -0.00523445  0.49215118  0.74929927  1
  Te  Te60  1  0.49255693  -0.00549700  0.25091757  1
  Te  Te61  1  0.49020558  0.00014186  0.74923521  1
  Te  Te62  1  0.49905562  0.50249654  0.25334509  1
  Te  Te63  1  0.50601937  0.49974223  0.74215037  1
