# generated using pymatgen
data_AgSbTe2
_symmetry_space_group_name_H-M   'P 1'
_cell_length_a   12.22189737
_cell_length_b   12.21616639
_cell_length_c   12.22978344
_cell_angle_alpha   89.99054891
_cell_angle_beta   89.99774060
_cell_angle_gamma   89.99583938
_symmetry_Int_Tables_number   1
_chemical_formula_structural   AgSbTe2
_chemical_formula_sum   'Ag16 Sb16 Te32'
_cell_volume   1825.96450672
_cell_formula_units_Z   16
loop_
 _symmetry_equiv_pos_site_id
 _symmetry_equiv_pos_as_xyz
  1  'x, y, z'
loop_
 _atom_site_type_symbol
 _atom_site_label
 _atom_site_symmetry_multiplicity
 _atom_site_fract_x
 _atom_site_fract_y
 _atom_site_fract_z
 _atom_site_occupancy
  Ag  Ag0  1  0.50543687  0.00015616  0.00466935  1
  Ag  Ag1  1  0.50171043  0.00167411  0.49541403  1
  Ag  Ag2  1  -0.00212224  0.24866295  0.24938940  1
  Ag  Ag3  1  0.74705748  -0.00713310  0.75166218  1
  Ag  Ag4  1  -0.01140889  0.50153807  0.00071091  1
  Ag  Ag5  1  0.74988851  0.75386513  0.50342696  1
  Ag  Ag6  1  0.25704747  0.00441332  0.25163963  1
  Ag  Ag7  1  0.74308652  0.00040524  0.24820728  1
  Ag  Ag8  1  0.51046963  0.50028542  0.00248166  1
  Ag  Ag9  1  0.25190726  0.24408716  0.49625506  1
  Ag  Ag10  1  0.74949747  0.74665912  -0.00348756  1
  Ag  Ag11  1  0.25326753  -0.00035114  0.74853597  1
  Ag  Ag12  1  0.75052697  0.50756616  0.75870962  1
  Ag  Ag13  1  0.74844151  0.50019006  0.24164057  1
  Ag  Ag14  1  -0.00746329  0.75080978  0.75189840  1
  Ag  Ag15  1  0.50143602  0.24353212  0.24955984  1
  Sb  Sb16  1  -0.00061708  0.25006747  0.75096906  1
  Sb  Sb17  1  0.50469002  0.49862868  0.49742056  1
  Sb  Sb18  1  0.25176493  0.49573967  0.24839197  1
  Sb  Sb19  1  0.74809330  0.24504065  0.49603758  1
  Sb  Sb20  1  0.50006500  0.24691565  0.75068908  1
  Sb  Sb21  1  0.25069199  0.75631504  0.50199641  1
  Sb  Sb22  1  0.24976129  0.50109845  0.75135051  1
  Sb  Sb23  1  0.25084473  0.24641327  0.00316335  1
  Sb  Sb24  1  -0.00298423  -0.00008338  0.49931408  1
  Sb  Sb25  1  -0.00380195  0.49976406  0.49853556  1
  Sb  Sb26  1  -0.00825617  -0.00115138  0.00093813  1
  Sb  Sb27  1  0.25065165  0.75353032  -0.00106805  1
  Sb  Sb28  1  0.50350901  0.75710267  0.24930478  1
  Sb  Sb29  1  -0.00519798  0.74957735  0.24780128  1
  Sb  Sb30  1  0.74911601  0.25366386  0.00268005  1
  Sb  Sb31  1  0.50795819  0.75240415  0.75081615  1
  Te  Te32  1  0.25065408  0.24619657  0.25246370  1
  Te  Te33  1  0.24892713  0.24316298  0.74379969  1
  Te  Te34  1  0.24716524  0.75882795  0.25167550  1
  Te  Te35  1  0.24053546  0.75581610  0.74855844  1
  Te  Te36  1  0.75011453  0.24833637  0.25207985  1
  Te  Te37  1  0.75145094  0.24801862  0.74709655  1
  Te  Te38  1  0.75185496  0.75034103  0.24872121  1
  Te  Te39  1  0.75181963  0.75151132  0.75203000  1
  Te  Te40  1  0.25771618  -0.00130301  -0.00050994  1
  Te  Te41  1  0.25410783  0.00140440  0.49950315  1
  Te  Te42  1  0.25323433  0.50113652  -0.00063438  1
  Te  Te43  1  0.25150349  0.49464349  0.50068982  1
  Te  Te44  1  0.74701314  -0.00236313  0.00017310  1
  Te  Te45  1  0.74725317  -0.00317607  0.49970392  1
  Te  Te46  1  0.74844717  0.50072450  0.00090695  1
  Te  Te47  1  0.74819612  0.50650695  0.49972383  1
  Te  Te48  1  0.00105635  0.25664297  0.00570451  1
  Te  Te49  1  0.00569599  0.25040102  0.49337156  1
  Te  Te50  1  -0.00508072  0.74576602  -0.00305182  1
  Te  Te51  1  -0.00589073  0.74931070  0.50602785  1
  Te  Te52  1  0.49947150  0.24866561  0.00558212  1
  Te  Te53  1  0.49741864  0.24553798  0.49468232  1
  Te  Te54  1  0.50519651  0.74959449  0.00002493  1
  Te  Te55  1  0.50538403  0.75556376  0.50023855  1
  Te  Te56  1  -0.00212636  0.00474713  0.24864417  1
  Te  Te57  1  -0.00251297  -0.00099159  0.75113748  1
  Te  Te58  1  -0.00254674  0.49708214  0.24656402  1
  Te  Te59  1  -0.00292362  0.50082971  0.75397043  1
  Te  Te60  1  0.50296834  0.00146378  0.24823100  1
  Te  Te61  1  0.50203221  0.00160320  0.75184300  1
  Te  Te62  1  0.50255528  0.49442465  0.24651056  1
  Te  Te63  1  0.50424092  0.49818674  0.75548413  1
