# generated using pymatgen
data_AgSbTe2
_symmetry_space_group_name_H-M   'P 1'
_cell_length_a   12.22773326
_cell_length_b   12.22302776
_cell_length_c   12.21800191
_cell_angle_alpha   89.99293982
_cell_angle_beta   90.00010118
_cell_angle_gamma   89.99887634
_symmetry_Int_Tables_number   1
_chemical_formula_structural   AgSbTe2
_chemical_formula_sum   'Ag16 Sb16 Te32'
_cell_volume   1826.10161132
_cell_formula_units_Z   16
loop_
 _symmetry_equiv_pos_site_id
 _symmetry_equiv_pos_as_xyz
  1  'x, y, z'
loop_
 _atom_site_type_symbol
 _atom_site_label
 _atom_site_symmetry_multiplicity
 _atom_site_fract_x
 _atom_site_fract_y
 _atom_site_fract_z
 _atom_site_occupancy
  Ag  Ag0  1  0.74930740  0.50465436  0.25117547  1
  Ag  Ag1  1  -0.00327437  -0.00620968  -0.00355929  1
  Ag  Ag2  1  0.25295081  0.24945893  0.50243319  1
  Ag  Ag3  1  0.74715303  -0.00119688  0.75161822  1
  Ag  Ag4  1  0.25244912  0.75041486  0.49958777  1
  Ag  Ag5  1  -0.00131804  0.50286228  0.50125604  1
  Ag  Ag6  1  0.50093243  0.50247282  0.50135357  1
  Ag  Ag7  1  0.49862609  -0.00194766  0.50410022  1
  Ag  Ag8  1  0.50329912  -0.00527994  -0.00358211  1
  Ag  Ag9  1  0.50172316  0.24803507  0.74622013  1
  Ag  Ag10  1  0.00117755  -0.00304499  0.50346000  1
  Ag  Ag11  1  0.75028470  0.75041503  -0.00046547  1
  Ag  Ag12  1  -0.00403127  0.50614533  -0.00154561  1
  Ag  Ag13  1  0.25040387  0.75147094  0.00039425  1
  Ag  Ag14  1  0.74932889  0.50141785  0.74917057  1
  Ag  Ag15  1  0.50101370  0.74946021  0.25116049  1
  Sb  Sb16  1  0.74797973  0.74792244  0.49966545  1
  Sb  Sb17  1  0.25376116  0.00012835  0.74836882  1
  Sb  Sb18  1  0.74785668  -0.00429425  0.24871926  1
  Sb  Sb19  1  0.74688992  0.25079888  0.50214361  1
  Sb  Sb20  1  -0.00190806  0.74846814  0.24859446  1
  Sb  Sb21  1  0.74887449  0.24909440  -0.00219800  1
  Sb  Sb22  1  0.50466956  0.50689170  -0.00164035  1
  Sb  Sb23  1  0.50160627  0.75234315  0.74796796  1
  Sb  Sb24  1  0.25156229  0.50023215  0.74804662  1
  Sb  Sb25  1  0.25112258  0.50339854  0.25141727  1
  Sb  Sb26  1  -0.00030625  0.25114710  0.25139033  1
  Sb  Sb27  1  -0.00166569  0.24960169  0.74787954  1
  Sb  Sb28  1  0.50022181  0.25105917  0.25266082  1
  Sb  Sb29  1  0.25181670  0.24877561  -0.00236246  1
  Sb  Sb30  1  0.25166165  -0.00342111  0.25126080  1
  Sb  Sb31  1  -0.00150772  0.75064942  0.75082282  1
  Te  Te32  1  0.25008553  0.25137127  0.26025952  1
  Te  Te33  1  0.25841718  0.25047044  0.74324213  1
  Te  Te34  1  0.25839319  0.74954963  0.24995057  1
  Te  Te35  1  0.25024424  0.74941125  0.75047590  1
  Te  Te36  1  0.74971726  0.26259074  0.24986400  1
  Te  Te37  1  0.74377379  0.24958183  0.74980157  1
  Te  Te38  1  0.74433706  0.74510943  0.24431390  1
  Te  Te39  1  0.74992673  0.74999892  0.75674431  1
  Te  Te40  1  0.24733657  -0.00393509  -0.00038250  1
  Te  Te41  1  0.24940830  -0.00417357  0.50051471  1
  Te  Te42  1  0.24246322  0.50458636  -0.00034994  1
  Te  Te43  1  0.24879376  0.50440647  0.50050983  1
  Te  Te44  1  0.75140895  -0.00210988  -0.00127342  1
  Te  Te45  1  0.75122880  -0.00108186  0.50206593  1
  Te  Te46  1  0.75228568  0.50212613  -0.00349176  1
  Te  Te47  1  0.75180106  0.50181580  0.50328560  1
  Te  Te48  1  0.00329686  0.24786989  -0.00002416  1
  Te  Te49  1  0.00644102  0.24919726  0.50089001  1
  Te  Te50  1  0.00114727  0.75147399  0.00114551  1
  Te  Te51  1  0.00445331  0.75077210  0.49867839  1
  Te  Te52  1  0.49657224  0.24099569  -0.00323702  1
  Te  Te53  1  0.49745047  0.24814483  0.50139448  1
  Te  Te54  1  0.49838692  0.75241428  0.00205920  1
  Te  Te55  1  0.49869490  0.75076492  0.49840704  1
  Te  Te56  1  -0.00258232  0.00023808  0.25107406  1
  Te  Te57  1  -0.00798970  0.00157537  0.74923807  1
  Te  Te58  1  -0.00642430  0.50024505  0.25225662  1
  Te  Te59  1  -0.00725041  0.49809373  0.74794621  1
  Te  Te60  1  0.50189912  -0.00336445  0.25143352  1
  Te  Te61  1  0.50405764  0.00154347  0.74757940  1
  Te  Te62  1  0.50440179  0.50217293  0.25357436  1
  Te  Te63  1  0.50516253  0.49622110  0.74653956  1
