# generated using pymatgen
data_AgSbTe2
_symmetry_space_group_name_H-M   'P 1'
_cell_length_a   12.20708626
_cell_length_b   12.20725722
_cell_length_c   12.21079485
_cell_angle_alpha   90.00253317
_cell_angle_beta   89.99680489
_cell_angle_gamma   90.00005711
_symmetry_Int_Tables_number   1
_chemical_formula_structural   AgSbTe2
_chemical_formula_sum   'Ag16 Sb16 Te32'
_cell_volume   1819.59209981
_cell_formula_units_Z   16
loop_
 _symmetry_equiv_pos_site_id
 _symmetry_equiv_pos_as_xyz
  1  'x, y, z'
loop_
 _atom_site_type_symbol
 _atom_site_label
 _atom_site_symmetry_multiplicity
 _atom_site_fract_x
 _atom_site_fract_y
 _atom_site_fract_z
 _atom_site_occupancy
  Ag  Ag0  1  0.75278141  -0.00071179  0.75675116  1
  Ag  Ag1  1  0.50605260  -0.00571853  0.00297539  1
  Ag  Ag2  1  0.25097629  0.50398081  0.75085583  1
  Ag  Ag3  1  0.25244751  0.74730025  0.50235070  1
  Ag  Ag4  1  0.25424954  0.74972868  -0.00207654  1
  Ag  Ag5  1  0.74947309  0.24895973  0.49773448  1
  Ag  Ag6  1  0.49960229  0.50528341  0.00153256  1
  Ag  Ag7  1  0.74585052  0.75661705  -0.00021179  1
  Ag  Ag8  1  0.50448544  0.24865889  0.24904334  1
  Ag  Ag9  1  0.74764827  0.00205320  0.24381489  1
  Ag  Ag10  1  0.49898904  0.50143564  0.49900377  1
  Ag  Ag11  1  0.50106803  0.75091615  0.24390208  1
  Ag  Ag12  1  -0.00605895  -0.00206280  -0.00219621  1
  Ag  Ag13  1  -0.00439476  0.24638403  0.24889487  1
  Ag  Ag14  1  -0.00246279  0.24678366  0.75146040  1
  Ag  Ag15  1  0.00132360  0.75258249  0.75399047  1
  Sb  Sb16  1  0.25344914  0.50167433  0.24861365  1
  Sb  Sb17  1  0.00001600  0.50196838  -0.00145422  1
  Sb  Sb18  1  0.25280845  -0.00096622  0.24724950  1
  Sb  Sb19  1  -0.00174848  0.75473209  0.24582596  1
  Sb  Sb20  1  0.74688011  0.75016222  0.50042297  1
  Sb  Sb21  1  0.25073476  0.25136807  -0.00118079  1
  Sb  Sb22  1  0.50211057  -0.00193485  0.49677469  1
  Sb  Sb23  1  0.74689263  0.49668630  0.24854855  1
  Sb  Sb24  1  0.75003666  0.24124401  0.00255223  1
  Sb  Sb25  1  0.24683444  -0.00359414  0.75340080  1
  Sb  Sb26  1  0.50337603  0.24919098  0.75056805  1
  Sb  Sb27  1  0.00093144  0.50048334  0.50125696  1
  Sb  Sb28  1  0.74922373  0.50012842  0.75234049  1
  Sb  Sb29  1  0.49829910  0.75006386  0.75766016  1
  Sb  Sb30  1  -0.00181827  0.00046510  0.50187899  1
  Sb  Sb31  1  0.25162809  0.25329078  0.50159549  1
  Te  Te32  1  0.24998869  0.24997877  0.25137635  1
  Te  Te33  1  0.24236715  0.25499823  0.74834890  1
  Te  Te34  1  0.25342409  0.75002319  0.24854478  1
  Te  Te35  1  0.24697420  0.74780217  0.75181581  1
  Te  Te36  1  0.74873114  0.24678520  0.25161757  1
  Te  Te37  1  0.75477910  0.24693042  0.74649460  1
  Te  Te38  1  0.74713116  0.75524184  0.24818197  1
  Te  Te39  1  0.75535228  0.75370353  0.75161677  1
  Te  Te40  1  0.25042014  -0.00652649  -0.00117539  1
  Te  Te41  1  0.25063981  -0.00889190  0.50097721  1
  Te  Te42  1  0.25480061  0.50566249  -0.00433896  1
  Te  Te43  1  0.25547911  0.50438604  0.50455757  1
  Te  Te44  1  0.74982033  -0.00155932  0.00010201  1
  Te  Te45  1  0.74919030  0.00419107  0.49968959  1
  Te  Te46  1  0.74330928  0.50994372  -0.00095626  1
  Te  Te47  1  0.74282748  0.49523887  0.50044052  1
  Te  Te48  1  0.00047834  0.24647839  -0.00059247  1
  Te  Te49  1  -0.00318678  0.25048802  0.49959601  1
  Te  Te50  1  0.00000223  0.75250006  -0.00130228  1
  Te  Te51  1  0.00433865  0.74884429  0.50381216  1
  Te  Te52  1  0.49942011  0.25069096  0.00513425  1
  Te  Te53  1  0.50222162  0.25306610  0.49546275  1
  Te  Te54  1  0.50019578  0.75053490  0.00057164  1
  Te  Te55  1  0.49809909  0.74705582  0.49477951  1
  Te  Te56  1  -0.00477263  0.00403588  0.24521491  1
  Te  Te57  1  -0.00277424  0.00024180  0.75353872  1
  Te  Te58  1  0.00007664  0.49033458  0.24942865  1
  Te  Te59  1  0.00440534  0.49966079  0.75103001  1
  Te  Te60  1  0.50269567  0.00041043  0.24641669  1
  Te  Te61  1  0.50611963  0.00175386  0.75670534  1
  Te  Te62  1  0.49986338  0.50002894  0.24847800  1
  Te  Te63  1  0.49589679  0.49881380  0.75055421  1
