# generated using pymatgen
data_AgSbTe2
_symmetry_space_group_name_H-M   'P 1'
_cell_length_a   12.27829294
_cell_length_b   12.26556945
_cell_length_c   12.28692300
_cell_angle_alpha   90.00314038
_cell_angle_beta   89.99463397
_cell_angle_gamma   90.00010806
_symmetry_Int_Tables_number   1
_chemical_formula_structural   AgSbTe2
_chemical_formula_sum   'Ag16 Sb16 Te32'
_cell_volume   1850.41372403
_cell_formula_units_Z   16
loop_
 _symmetry_equiv_pos_site_id
 _symmetry_equiv_pos_as_xyz
  1  'x, y, z'
loop_
 _atom_site_type_symbol
 _atom_site_label
 _atom_site_symmetry_multiplicity
 _atom_site_fract_x
 _atom_site_fract_y
 _atom_site_fract_z
 _atom_site_occupancy
  Ag  Ag0  1  0.00452646  0.00807822  0.00693218  1
  Ag  Ag1  1  0.25023802  0.48184383  0.75026983  1
  Ag  Ag2  1  0.24923769  0.01190409  0.75532239  1
  Ag  Ag3  1  -0.00266068  0.76336581  0.25362884  1
  Ag  Ag4  1  0.49351602  0.24322235  0.75377120  1
  Ag  Ag5  1  0.75848226  0.24283758  0.49975499  1
  Ag  Ag6  1  -0.00071221  0.23852036  0.25061379  1
  Ag  Ag7  1  0.75395578  0.24106901  -0.00010729  1
  Ag  Ag8  1  0.75498081  0.49345897  0.25140747  1
  Ag  Ag9  1  0.49670096  0.00758794  -0.00467047  1
  Ag  Ag10  1  -0.00104846  0.00666784  0.49298677  1
  Ag  Ag11  1  0.23992474  0.00929118  0.24518888  1
  Ag  Ag12  1  0.24749865  0.23945623  -0.00857959  1
  Ag  Ag13  1  0.75214941  0.01019527  0.74954965  1
  Ag  Ag14  1  0.75710600  0.75921152  0.49744656  1
  Ag  Ag15  1  0.24353379  0.24122502  0.50806141  1
  Sb  Sb16  1  0.00024026  0.48703181  0.00089193  1
  Sb  Sb17  1  0.24717070  0.48971105  0.24934082  1
  Sb  Sb18  1  0.76069634  0.00618664  0.25331355  1
  Sb  Sb19  1  0.24639469  0.76355119  0.00062610  1
  Sb  Sb20  1  0.74979557  0.48617159  0.74968483  1
  Sb  Sb21  1  0.00624682  0.24461905  0.74806545  1
  Sb  Sb22  1  0.49970545  0.49689550  0.50024487  1
  Sb  Sb23  1  0.50184684  0.75778643  0.75097542  1
  Sb  Sb24  1  -0.00196614  0.75588924  0.74476794  1
  Sb  Sb25  1  0.50110471  0.24498494  0.24537621  1
  Sb  Sb26  1  0.75451059  0.76219742  0.00340365  1
  Sb  Sb27  1  0.49889227  0.49033660  -0.00177881  1
  Sb  Sb28  1  0.50140774  0.00220851  0.50370125  1
  Sb  Sb29  1  0.50522762  0.75748887  0.25086166  1
  Sb  Sb30  1  0.24130470  0.76169954  0.49761530  1
  Sb  Sb31  1  0.00064586  0.49073353  0.49947252  1
  Te  Te32  1  0.24993059  0.24881781  0.25121037  1
  Te  Te33  1  0.24693900  0.24416136  0.74974365  1
  Te  Te34  1  0.24213892  0.75171991  0.25219350  1
  Te  Te35  1  0.25049594  0.75409604  0.74887392  1
  Te  Te36  1  0.75077701  0.24834947  0.25226486  1
  Te  Te37  1  0.74992152  0.24859167  0.74863580  1
  Te  Te38  1  0.75363507  0.74689870  0.25237943  1
  Te  Te39  1  0.74954046  0.75461891  0.74364072  1
  Te  Te40  1  0.24361138  0.00546245  -0.00379882  1
  Te  Te41  1  0.24916745  0.00426595  0.50316960  1
  Te  Te42  1  0.25010974  0.48663412  -0.00259021  1
  Te  Te43  1  0.24882505  0.48948720  0.50263663  1
  Te  Te44  1  0.75504301  0.00548850  -0.00299701  1
  Te  Te45  1  0.75071334  0.00846804  0.50035934  1
  Te  Te46  1  0.75043394  0.48846038  0.00002670  1
  Te  Te47  1  0.75074614  0.49090237  0.49966465  1
  Te  Te48  1  -0.00137099  0.24425735  0.00392338  1
  Te  Te49  1  -0.00168482  0.24411287  0.49762082  1
  Te  Te50  1  -0.00040339  0.76323690  0.01114090  1
  Te  Te51  1  -0.00552731  0.76027636  0.49494793  1
  Te  Te52  1  0.50016008  0.24320551  -0.00229364  1
  Te  Te53  1  0.50042218  0.24721449  0.50726899  1
  Te  Te54  1  0.50046239  0.76327750  -0.00004399  1
  Te  Te55  1  0.51618404  0.75078100  0.49942109  1
  Te  Te56  1  0.00263221  0.00538091  0.25139809  1
  Te  Te57  1  -0.00006051  0.00214003  0.74953692  1
  Te  Te58  1  -0.00446134  0.49818154  0.25004180  1
  Te  Te59  1  0.00981467  0.50575105  0.75118095  1
  Te  Te60  1  0.48132271  0.00125652  0.24043687  1
  Te  Te61  1  0.49827833  0.00538313  0.75203477  1
  Te  Te62  1  0.50887050  0.50226228  0.24890097  1
  Te  Te63  1  0.49267943  0.49143256  0.75093173  1
