# generated using pymatgen
data_AgSbTe2
_symmetry_space_group_name_H-M   'P 1'
_cell_length_a   12.21129282
_cell_length_b   12.20737793
_cell_length_c   12.21333016
_cell_angle_alpha   89.99860161
_cell_angle_beta   90.00520848
_cell_angle_gamma   89.99535949
_symmetry_Int_Tables_number   1
_chemical_formula_structural   AgSbTe2
_chemical_formula_sum   'Ag16 Sb16 Te32'
_cell_volume   1820.61505403
_cell_formula_units_Z   16
loop_
 _symmetry_equiv_pos_site_id
 _symmetry_equiv_pos_as_xyz
  1  'x, y, z'
loop_
 _atom_site_type_symbol
 _atom_site_label
 _atom_site_symmetry_multiplicity
 _atom_site_fract_x
 _atom_site_fract_y
 _atom_site_fract_z
 _atom_site_occupancy
  Ag  Ag0  1  0.25240595  -0.00549606  0.75078180  1
  Ag  Ag1  1  0.49866475  0.25154770  0.25066377  1
  Ag  Ag2  1  0.50163883  0.50791267  0.49836269  1
  Ag  Ag3  1  0.25055315  0.74691106  -0.00178923  1
  Ag  Ag4  1  0.50140226  -0.00793554  0.49839754  1
  Ag  Ag5  1  0.75058317  0.50756960  0.74835316  1
  Ag  Ag6  1  0.74478812  -0.00526878  0.25128706  1
  Ag  Ag7  1  0.00200139  0.50512567  -0.00154341  1
  Ag  Ag8  1  -0.00159952  0.50551293  0.50203108  1
  Ag  Ag9  1  0.74385049  0.74670451  0.50219537  1
  Ag  Ag10  1  0.50179984  0.74882579  0.25448453  1
  Ag  Ag11  1  -0.00195551  0.74563701  0.75147626  1
  Ag  Ag12  1  0.50227676  0.74859568  0.74613853  1
  Ag  Ag13  1  0.74907126  0.74714861  -0.00268928  1
  Ag  Ag14  1  0.25120380  0.25339472  0.00139981  1
  Ag  Ag15  1  0.25361632  0.50232910  0.24757769  1
  Sb  Sb16  1  0.00220657  0.25486536  0.75180585  1
  Sb  Sb17  1  0.25565616  -0.00277215  0.24960703  1
  Sb  Sb18  1  -0.00045376  0.74724642  0.24917562  1
  Sb  Sb19  1  0.74836975  0.25349484  0.00215519  1
  Sb  Sb20  1  0.49997302  -0.00413166  0.00105778  1
  Sb  Sb21  1  0.49763677  0.50435854  0.00202080  1
  Sb  Sb22  1  0.25759778  0.74879619  0.50179616  1
  Sb  Sb23  1  0.74817714  0.25358273  0.49893288  1
  Sb  Sb24  1  0.49783521  0.25172499  0.75027612  1
  Sb  Sb25  1  -0.00191564  -0.00793082  0.50194033  1
  Sb  Sb26  1  0.24959200  0.50586366  0.75278140  1
  Sb  Sb27  1  0.74689318  -0.01011539  0.74859158  1
  Sb  Sb28  1  0.25197754  0.25217004  0.49856421  1
  Sb  Sb29  1  0.00029253  -0.00603733  -0.00137351  1
  Sb  Sb30  1  0.74522702  0.50566837  0.25135677  1
  Sb  Sb31  1  0.00181413  0.25337110  0.24790534  1
  Te  Te32  1  0.25448575  0.25202295  0.24485162  1
  Te  Te33  1  0.25114677  0.24304927  0.75745791  1
  Te  Te34  1  0.25399471  0.74777940  0.24420340  1
  Te  Te35  1  0.25153131  0.75151876  0.75381972  1
  Te  Te36  1  0.74295832  0.24327853  0.24810315  1
  Te  Te37  1  0.74954595  0.25832048  0.75203107  1
  Te  Te38  1  0.74643591  0.75119478  0.24965693  1
  Te  Te39  1  0.74789072  0.74830871  0.75085613  1
  Te  Te40  1  0.24945953  -0.00254901  -0.00249726  1
  Te  Te41  1  0.25443732  0.00041926  0.50336523  1
  Te  Te42  1  0.24790067  0.50318059  0.00172324  1
  Te  Te43  1  0.25071522  0.50002684  0.49571259  1
  Te  Te44  1  0.75088168  -0.00580713  0.00318895  1
  Te  Te45  1  0.74644546  -0.00472108  0.49815601  1
  Te  Te46  1  0.75425772  0.50479414  -0.00183472  1
  Te  Te47  1  0.74887494  0.50370498  0.50095531  1
  Te  Te48  1  0.00555692  0.25813191  -0.00015077  1
  Te  Te49  1  0.00005545  0.26050747  0.50003287  1
  Te  Te50  1  0.00010216  0.74570095  -0.00224454  1
  Te  Te51  1  -0.00555956  0.74499971  0.50328329  1
  Te  Te52  1  0.49528651  0.25040103  0.00517511  1
  Te  Te53  1  0.50003503  0.25111545  0.49495023  1
  Te  Te54  1  0.50060784  0.74927720  -0.00084162  1
  Te  Te55  1  0.50047863  0.74855532  0.49996668  1
  Te  Te56  1  -0.00725601  0.00101022  0.25139269  1
  Te  Te57  1  0.00451368  -0.00669080  0.74870278  1
  Te  Te58  1  0.00539695  0.49980831  0.25038322  1
  Te  Te59  1  -0.00054738  0.50460871  0.74937101  1
  Te  Te60  1  0.50199452  -0.00294619  0.25400016  1
  Te  Te61  1  0.49760510  -0.00335637  0.74464309  1
  Te  Te62  1  0.49788200  0.50257607  0.25315704  1
  Te  Te63  1  0.50170574  0.50310994  0.74470858  1
