# generated using pymatgen
data_AgSbTe2
_symmetry_space_group_name_H-M   'P 1'
_cell_length_a   12.22534676
_cell_length_b   12.22557430
_cell_length_c   12.21775690
_cell_angle_alpha   89.99403914
_cell_angle_beta   89.99483629
_cell_angle_gamma   90.00027314
_symmetry_Int_Tables_number   1
_chemical_formula_structural   AgSbTe2
_chemical_formula_sum   'Ag16 Sb16 Te32'
_cell_volume   1826.08896079
_cell_formula_units_Z   16
loop_
 _symmetry_equiv_pos_site_id
 _symmetry_equiv_pos_as_xyz
  1  'x, y, z'
loop_
 _atom_site_type_symbol
 _atom_site_label
 _atom_site_symmetry_multiplicity
 _atom_site_fract_x
 _atom_site_fract_y
 _atom_site_fract_z
 _atom_site_occupancy
  Ag  Ag0  1  0.75410036  0.49727323  0.25350992  1
  Ag  Ag1  1  -0.00180429  0.25371031  0.25479119  1
  Ag  Ag2  1  -0.00790084  0.24917013  0.74529690  1
  Ag  Ag3  1  0.50146096  0.00205312  0.51426284  1
  Ag  Ag4  1  0.25062753  0.00240129  0.25115692  1
  Ag  Ag5  1  -0.00822938  0.75148627  0.74909423  1
  Ag  Ag6  1  0.24591012  0.49727285  0.25284224  1
  Ag  Ag7  1  0.50632961  0.23595060  0.74753561  1
  Ag  Ag8  1  0.50147115  -0.00101196  -0.01410521  1
  Ag  Ag9  1  0.73750408  0.00064527  0.74908578  1
  Ag  Ag10  1  0.50697136  0.76379397  0.75082243  1
  Ag  Ag11  1  0.26379704  0.00120424  0.74926985  1
  Ag  Ag12  1  -0.00471839  0.49564419  0.50062028  1
  Ag  Ag13  1  0.75268792  0.25171921  0.50660265  1
  Ag  Ag14  1  0.74859110  0.75083514  -0.00746575  1
  Ag  Ag15  1  0.75236858  0.49888392  0.74706358  1
  Sb  Sb16  1  0.50398621  0.49778507  0.50298969  1
  Sb  Sb17  1  0.24709234  0.49909814  0.74765393  1
  Sb  Sb18  1  -0.00233178  0.50048386  -0.00093725  1
  Sb  Sb19  1  0.24998860  0.75109811  0.50095884  1
  Sb  Sb20  1  -0.00175817  0.00357880  0.50390705  1
  Sb  Sb21  1  0.75010541  0.00264741  0.25036553  1
  Sb  Sb22  1  0.25161951  0.75276664  -0.00221665  1
  Sb  Sb23  1  0.50228239  0.75219556  0.25036103  1
  Sb  Sb24  1  0.75012185  0.74873603  0.50771630  1
  Sb  Sb25  1  -0.00155199  -0.00095755  -0.00367412  1
  Sb  Sb26  1  0.25073673  0.24805908  -0.00026375  1
  Sb  Sb27  1  0.50305296  0.50071873  -0.00252650  1
  Sb  Sb28  1  0.74902154  0.24900843  -0.00718411  1
  Sb  Sb29  1  0.50186241  0.24780291  0.25269591  1
  Sb  Sb30  1  -0.00263813  0.74740094  0.25199954  1
  Sb  Sb31  1  0.24739258  0.24908807  0.50031555  1
  Te  Te32  1  0.24662671  0.24894873  0.24989766  1
  Te  Te33  1  0.24921054  0.24621504  0.74999553  1
  Te  Te34  1  0.24967551  0.75186136  0.24931816  1
  Te  Te35  1  0.25030763  0.75330286  0.75087336  1
  Te  Te36  1  0.75323173  0.25348827  0.25337613  1
  Te  Te37  1  0.75178690  0.25064927  0.74958528  1
  Te  Te38  1  0.75104364  0.74466916  0.24351603  1
  Te  Te39  1  0.75020783  0.74983895  0.75035396  1
  Te  Te40  1  0.25563680  -0.00072502  -0.00084394  1
  Te  Te41  1  0.25443293  0.00028439  0.50074101  1
  Te  Te42  1  0.25101565  0.50073744  0.01006032  1
  Te  Te43  1  0.24489061  0.50014329  0.49382817  1
  Te  Te44  1  0.74598231  -0.00369060  -0.00210353  1
  Te  Te45  1  0.74732283  0.00370510  0.50250616  1
  Te  Te46  1  0.74845141  0.50436973  -0.00176144  1
  Te  Te47  1  0.75205226  0.49750424  0.50193790  1
  Te  Te48  1  0.00001721  0.24951982  -0.00060479  1
  Te  Te49  1  -0.00367494  0.25290942  0.50172190  1
  Te  Te50  1  -0.00609451  0.75076158  -0.00773359  1
  Te  Te51  1  -0.00000168  0.74296949  0.50602112  1
  Te  Te52  1  0.50022121  0.24389593  -0.00673452  1
  Te  Te53  1  0.50556777  0.24698874  0.50396760  1
  Te  Te54  1  0.50396201  0.75400129  -0.00452578  1
  Te  Te55  1  0.49998167  0.75597868  0.50549071  1
  Te  Te56  1  0.00519985  0.00310867  0.25091126  1
  Te  Te57  1  -0.00064433  0.00178399  0.74869618  1
  Te  Te58  1  -0.00185093  0.49840380  0.25151184  1
  Te  Te59  1  -0.00045654  0.49720795  0.74852070  1
  Te  Te60  1  0.49521134  0.00045658  0.25061254  1
  Te  Te61  1  0.50026689  0.00070132  0.74903030  1
  Te  Te62  1  0.50034832  0.49981944  0.25038871  1
  Te  Te63  1  0.50192204  0.49964905  0.74890066  1
