# generated using pymatgen
data_AgSbTe2
_symmetry_space_group_name_H-M   'P 1'
_cell_length_a   12.32137218
_cell_length_b   12.31735230
_cell_length_c   12.29609494
_cell_angle_alpha   90.00081486
_cell_angle_beta   89.99738381
_cell_angle_gamma   89.99936942
_symmetry_Int_Tables_number   1
_chemical_formula_structural   AgSbTe2
_chemical_formula_sum   'Ag16 Sb16 Te32'
_cell_volume   1866.13752733
_cell_formula_units_Z   16
loop_
 _symmetry_equiv_pos_site_id
 _symmetry_equiv_pos_as_xyz
  1  'x, y, z'
loop_
 _atom_site_type_symbol
 _atom_site_label
 _atom_site_symmetry_multiplicity
 _atom_site_fract_x
 _atom_site_fract_y
 _atom_site_fract_z
 _atom_site_occupancy
  Ag  Ag0  1  0.48715062  0.48695898  0.00569543  1
  Ag  Ag1  1  0.76142033  0.25111759  0.48900365  1
  Ag  Ag2  1  0.00469647  0.00852082  0.01162501  1
  Ag  Ag3  1  0.75029714  0.25101012  0.01015649  1
  Ag  Ag4  1  0.49386888  0.01481146  0.00754457  1
  Ag  Ag5  1  0.00356940  0.74919662  0.24448327  1
  Ag  Ag6  1  0.24724622  0.49331976  0.76516470  1
  Ag  Ag7  1  0.75574559  0.74783052  0.00486196  1
  Ag  Ag8  1  0.24478636  0.48552338  0.24287331  1
  Ag  Ag9  1  0.23964770  0.25385163  0.48487896  1
  Ag  Ag10  1  0.00913378  0.49031692  0.00936550  1
  Ag  Ag11  1  0.24407361  0.01269976  0.23994070  1
  Ag  Ag12  1  0.25179260  0.25829749  0.01263601  1
  Ag  Ag13  1  0.49134358  0.25116342  0.24236691  1
  Ag  Ag14  1  0.00778437  0.48713658  0.48775966  1
  Ag  Ag15  1  0.00604638  0.01334185  0.48558901  1
  Sb  Sb16  1  0.49860825  0.25068529  0.75921255  1
  Sb  Sb17  1  0.24961167  0.00585609  0.75478288  1
  Sb  Sb18  1  0.49754250  0.74916169  0.24502629  1
  Sb  Sb19  1  0.49452311  0.00828040  0.48778338  1
  Sb  Sb20  1  0.24702427  0.74729326  0.49519784  1
  Sb  Sb21  1  0.00455570  0.25051178  0.24773892  1
  Sb  Sb22  1  0.75621703  0.49507890  0.24791517  1
  Sb  Sb23  1  0.00022511  0.74883472  0.75502202  1
  Sb  Sb24  1  0.75126690  0.49805162  0.75416872  1
  Sb  Sb25  1  0.49804470  0.74727052  0.75865798  1
  Sb  Sb26  1  0.74986037  0.00106308  0.75269576  1
  Sb  Sb27  1  0.49334716  0.49436705  0.49264611  1
  Sb  Sb28  1  -0.00028325  0.24980293  0.75266597  1
  Sb  Sb29  1  0.24663438  0.74658996  0.00168030  1
  Sb  Sb30  1  0.75918833  0.74931067  0.49348705  1
  Sb  Sb31  1  0.75725130  0.00547883  0.24797938  1
  Te  Te32  1  0.25243016  0.24836003  0.24704085  1
  Te  Te33  1  0.25025202  0.25459946  0.74894144  1
  Te  Te34  1  0.24546431  0.75459968  0.25044865  1
  Te  Te35  1  0.25035423  0.73608188  0.74771160  1
  Te  Te36  1  0.73432832  0.25010036  0.24832570  1
  Te  Te37  1  0.74911906  0.25034547  0.74633028  1
  Te  Te38  1  0.75549588  0.74952483  0.24432304  1
  Te  Te39  1  0.74885233  0.75033463  0.76338155  1
  Te  Te40  1  0.24336113  -0.00100174  -0.00103800  1
  Te  Te41  1  0.24722709  0.00301305  0.50484667  1
  Te  Te42  1  0.24618397  0.50003296  0.00550822  1
  Te  Te43  1  0.24817351  0.49831808  0.48837089  1
  Te  Te44  1  0.75903215  0.01374108  0.00188751  1
  Te  Te45  1  0.75602787  0.00489725  0.49999160  1
  Te  Te46  1  0.75763546  0.48755732  0.00065156  1
  Te  Te47  1  0.75606107  0.49552459  0.50056563  1
  Te  Te48  1  0.00028301  0.25099273  -0.00086328  1
  Te  Te49  1  0.00116412  0.25051549  0.50039881  1
  Te  Te50  1  -0.00191836  0.75074496  0.00409283  1
  Te  Te51  1  -0.00128939  0.75091705  0.49287274  1
  Te  Te52  1  0.49732084  0.25127584  0.00315153  1
  Te  Te53  1  0.50129518  0.24957363  0.49172414  1
  Te  Te54  1  0.51071399  0.74942936  0.00128959  1
  Te  Te55  1  0.50606475  0.75173369  0.50338545  1
  Te  Te56  1  0.00405552  0.00253434  0.24839531  1
  Te  Te57  1  -0.00028288  -0.00146745  0.75005858  1
  Te  Te58  1  0.00195530  0.49766574  0.24822594  1
  Te  Te59  1  0.00311517  0.50029417  0.75205853  1
  Te  Te60  1  0.48928464  -0.00356383  0.24535493  1
  Te  Te61  1  0.50025371  -0.00185861  0.76617289  1
  Te  Te62  1  0.49231822  0.50255523  0.24669732  1
  Te  Te63  1  0.49344705  0.49989509  0.75909205  1
