# generated using pymatgen
data_AgSbTe2
_symmetry_space_group_name_H-M   'P 1'
_cell_length_a   12.28070749
_cell_length_b   12.29209937
_cell_length_c   12.28295646
_cell_angle_alpha   90.00359963
_cell_angle_beta   90.00847845
_cell_angle_gamma   90.00619006
_symmetry_Int_Tables_number   1
_chemical_formula_structural   AgSbTe2
_chemical_formula_sum   'Ag16 Sb16 Te32'
_cell_volume   1854.18197083
_cell_formula_units_Z   16
loop_
 _symmetry_equiv_pos_site_id
 _symmetry_equiv_pos_as_xyz
  1  'x, y, z'
loop_
 _atom_site_type_symbol
 _atom_site_label
 _atom_site_symmetry_multiplicity
 _atom_site_fract_x
 _atom_site_fract_y
 _atom_site_fract_z
 _atom_site_occupancy
  Ag  Ag0  1  -0.00214862  0.48102018  0.50000519  1
  Ag  Ag1  1  -0.00477832  0.24401038  0.27169591  1
  Ag  Ag2  1  0.50089469  -0.01095222  0.00022001  1
  Ag  Ag3  1  -0.00455728  0.75255204  0.73510900  1
  Ag  Ag4  1  0.76676012  0.24456765  0.49897284  1
  Ag  Ag5  1  -0.00153752  0.24780969  0.73085911  1
  Ag  Ag6  1  -0.00598108  0.01748395  0.49621655  1
  Ag  Ag7  1  0.75427556  -0.00478262  0.25719670  1
  Ag  Ag8  1  0.25825276  0.75142701  -0.00001066  1
  Ag  Ag9  1  0.50084642  0.75229103  0.75772656  1
  Ag  Ag10  1  0.49715500  0.51242602  -0.00219366  1
  Ag  Ag11  1  0.50371452  0.75422306  0.24348897  1
  Ag  Ag12  1  0.76283214  0.75498627  0.49642453  1
  Ag  Ag13  1  0.50236743  0.24760141  0.74664081  1
  Ag  Ag14  1  0.22806027  0.24859240  0.50206109  1
  Ag  Ag15  1  -0.00736629  0.75607272  0.26490975  1
  Sb  Sb16  1  0.24941351  0.50070013  0.25097305  1
  Sb  Sb17  1  0.74679432  0.75215585  0.00390466  1
  Sb  Sb18  1  0.50331890  -0.00193155  0.49990606  1
  Sb  Sb19  1  0.75094234  0.50366848  0.25207562  1
  Sb  Sb20  1  0.24286128  0.75200532  0.49992237  1
  Sb  Sb21  1  0.25042528  0.24802910  -0.00051688  1
  Sb  Sb22  1  0.75008159  0.50171738  0.74885038  1
  Sb  Sb23  1  0.75059611  -0.00133327  0.74432327  1
  Sb  Sb24  1  0.74963469  0.24748382  -0.00034188  1
  Sb  Sb25  1  0.25009349  -0.00011449  0.74943342  1
  Sb  Sb26  1  -0.00240556  -0.00253571  0.00055794  1
  Sb  Sb27  1  0.50460544  0.24694092  0.25343228  1
  Sb  Sb28  1  0.49983707  0.50179161  0.49991529  1
  Sb  Sb29  1  0.24669591  -0.00098117  0.25093707  1
  Sb  Sb30  1  0.25009577  0.50023816  0.74924177  1
  Sb  Sb31  1  0.00261808  0.50443134  0.00029121  1
  Te  Te32  1  0.24509305  0.24990606  0.25223632  1
  Te  Te33  1  0.24864405  0.24978584  0.74800905  1
  Te  Te34  1  0.25172143  0.75008415  0.25083851  1
  Te  Te35  1  0.25323873  0.75024146  0.75007303  1
  Te  Te36  1  0.75118878  0.24694811  0.25275601  1
  Te  Te37  1  0.75111478  0.24893635  0.74654426  1
  Te  Te38  1  0.75336911  0.75168798  0.25251162  1
  Te  Te39  1  0.75262554  0.75072129  0.74259720  1
  Te  Te40  1  0.25843224  -0.00535482  0.00015294  1
  Te  Te41  1  0.23903390  0.00561040  0.50058165  1
  Te  Te42  1  0.25652398  0.50691190  -0.00000473  1
  Te  Te43  1  0.24279300  0.49209991  0.50018144  1
  Te  Te44  1  0.74465962  0.00000945  0.01248827  1
  Te  Te45  1  0.75350123  -0.00284978  0.49680481  1
  Te  Te46  1  0.73870024  0.49902370  0.00037488  1
  Te  Te47  1  0.75500249  0.50088229  0.50073539  1
  Te  Te48  1  0.00161561  0.25069852  -0.00470039  1
  Te  Te49  1  -0.00146364  0.24955145  0.49976717  1
  Te  Te50  1  0.00345582  0.74886988  -0.00304282  1
  Te  Te51  1  0.00073117  0.75219642  0.50100656  1
  Te  Te52  1  0.50027022  0.24827416  -0.00491172  1
  Te  Te53  1  0.50483137  0.25122919  0.50435327  1
  Te  Te54  1  0.50047453  0.75189943  -0.00333291  1
  Te  Te55  1  0.49872631  0.74921519  0.50215784  1
  Te  Te56  1  -0.00179328  -0.00384361  0.24738932  1
  Te  Te57  1  -0.00046352  -0.00165749  0.75202634  1
  Te  Te58  1  0.00016141  0.50264327  0.24940279  1
  Te  Te59  1  -0.00002421  0.50118787  0.74920124  1
  Te  Te60  1  0.50284213  -0.00331629  0.25234296  1
  Te  Te61  1  0.50082548  -0.00268862  0.74981487  1
  Te  Te62  1  0.49979376  0.50651061  0.24877578  1
  Te  Te63  1  0.49997667  0.50299084  0.75064072  1
