# generated using pymatgen
data_AgSbTe2
_symmetry_space_group_name_H-M   'P 1'
_cell_length_a   12.24167006
_cell_length_b   12.24432066
_cell_length_c   12.22133408
_cell_angle_alpha   89.99178735
_cell_angle_beta   89.99628140
_cell_angle_gamma   89.99957863
_symmetry_Int_Tables_number   1
_chemical_formula_structural   AgSbTe2
_chemical_formula_sum   'Ag16 Sb16 Te32'
_cell_volume   1831.86715201
_cell_formula_units_Z   16
loop_
 _symmetry_equiv_pos_site_id
 _symmetry_equiv_pos_as_xyz
  1  'x, y, z'
loop_
 _atom_site_type_symbol
 _atom_site_label
 _atom_site_symmetry_multiplicity
 _atom_site_fract_x
 _atom_site_fract_y
 _atom_site_fract_z
 _atom_site_occupancy
  Ag  Ag0  1  0.50010691  0.74837907  0.74896719  1
  Ag  Ag1  1  0.49949817  0.74877886  0.25089650  1
  Ag  Ag2  1  0.49995723  0.25120958  0.25137521  1
  Ag  Ag3  1  -0.00205436  0.50042356  0.49134845  1
  Ag  Ag4  1  0.25646291  -0.00523208  0.24713739  1
  Ag  Ag5  1  0.00007414  0.25582507  0.25318057  1
  Ag  Ag6  1  0.00005136  0.25294229  0.74782270  1
  Ag  Ag7  1  0.50203747  0.50306253  0.49163978  1
  Ag  Ag8  1  0.74786260  0.50484044  0.25531563  1
  Ag  Ag9  1  0.25477360  0.75112471  0.00821773  1
  Ag  Ag10  1  0.25202914  0.50447183  0.25168249  1
  Ag  Ag11  1  0.49838832  -0.00297518  0.00776420  1
  Ag  Ag12  1  0.50003413  0.25152963  0.74831053  1
  Ag  Ag13  1  0.74631339  0.74557789  0.49199002  1
  Ag  Ag14  1  0.74415720  -0.00394957  0.25062536  1
  Ag  Ag15  1  0.00015476  0.74387056  0.25279933  1
  Sb  Sb16  1  0.00152318  0.50061759  0.00920632  1
  Sb  Sb17  1  0.25105043  0.25172983  0.49653125  1
  Sb  Sb18  1  0.74923142  0.25357356  0.49589507  1
  Sb  Sb19  1  0.25364461  -0.00147535  0.75256487  1
  Sb  Sb20  1  0.50186544  -0.00243987  0.49254598  1
  Sb  Sb21  1  0.74652922  -0.00110552  0.74895449  1
  Sb  Sb22  1  0.25317707  0.74768941  0.49139940  1
  Sb  Sb23  1  0.25211230  0.24940512  0.00466793  1
  Sb  Sb24  1  0.00047616  0.74696349  0.74709900  1
  Sb  Sb25  1  0.74797322  0.50100823  0.74468158  1
  Sb  Sb26  1  0.00096198  -0.00104720  0.00495893  1
  Sb  Sb27  1  0.74822731  0.24899992  0.00380510  1
  Sb  Sb28  1  0.25211706  0.50121987  0.74909112  1
  Sb  Sb29  1  0.74642820  0.75186291  0.00895549  1
  Sb  Sb30  1  0.49855207  0.50181984  0.00871153  1
  Sb  Sb31  1  -0.00214584  -0.00021833  0.49534175  1
  Te  Te32  1  0.25057812  0.25128423  0.24887069  1
  Te  Te33  1  0.25229657  0.24947274  0.75167838  1
  Te  Te34  1  0.25085779  0.74926890  0.24939423  1
  Te  Te35  1  0.25502962  0.75109854  0.75747896  1
  Te  Te36  1  0.74945089  0.24961274  0.25073441  1
  Te  Te37  1  0.74776237  0.24910477  0.75012108  1
  Te  Te38  1  0.74958112  0.74912947  0.25073024  1
  Te  Te39  1  0.74538848  0.75070835  0.74460942  1
  Te  Te40  1  0.25446951  -0.00452580  0.00566635  1
  Te  Te41  1  0.24930682  -0.00047175  0.49093976  1
  Te  Te42  1  0.24959999  0.50671158  0.00696164  1
  Te  Te43  1  0.25072202  0.50001190  0.49458941  1
  Te  Te44  1  0.74349693  -0.00021801  0.00644548  1
  Te  Te45  1  0.75028945  -0.00901230  0.49337021  1
  Te  Te46  1  0.75067784  0.50029190  0.00907774  1
  Te  Te47  1  0.74825338  0.50346577  0.49578901  1
  Te  Te48  1  0.00046448  0.25026738  -0.00057008  1
  Te  Te49  1  -0.00033283  0.25414036  0.49700347  1
  Te  Te50  1  0.00490143  0.75016583  0.00191497  1
  Te  Te51  1  -0.00345716  0.74609896  0.49816188  1
  Te  Te52  1  0.49939260  0.24618600  0.00022227  1
  Te  Te53  1  0.50019719  0.25472016  0.49947727  1
  Te  Te54  1  0.49856643  0.75163002  0.00213786  1
  Te  Te55  1  0.50196612  0.74772703  0.49767363  1
  Te  Te56  1  -0.00062188  0.00174542  0.24947904  1
  Te  Te57  1  0.00029184  0.00865362  0.75026364  1
  Te  Te58  1  0.00037685  0.49936865  0.25224500  1
  Te  Te59  1  0.00001086  0.49425685  0.74236696  1
  Te  Te60  1  0.49996882  0.00123717  0.24988109  1
  Te  Te61  1  0.49977591  0.00238549  0.75435326  1
  Te  Te62  1  0.49953261  0.49901069  0.25134736  1
  Te  Te63  1  0.49963501  0.49799064  0.74410250  1
