# generated using pymatgen
data_AgSbTe2
_symmetry_space_group_name_H-M   'P 1'
_cell_length_a   12.39169888
_cell_length_b   12.36408928
_cell_length_c   12.32449275
_cell_angle_alpha   89.98878313
_cell_angle_beta   89.97768326
_cell_angle_gamma   89.99197634
_symmetry_Int_Tables_number   1
_chemical_formula_structural   AgSbTe2
_chemical_formula_sum   'Ag16 Sb16 Te32'
_cell_volume   1888.26086275
_cell_formula_units_Z   16
loop_
 _symmetry_equiv_pos_site_id
 _symmetry_equiv_pos_as_xyz
  1  'x, y, z'
loop_
 _atom_site_type_symbol
 _atom_site_label
 _atom_site_symmetry_multiplicity
 _atom_site_fract_x
 _atom_site_fract_y
 _atom_site_fract_z
 _atom_site_occupancy
  Ag  Ag0  1  -0.00588571  0.26143452  0.73997578  1
  Ag  Ag1  1  0.52522036  0.73609022  0.25444295  1
  Ag  Ag2  1  0.22553350  0.49631787  0.25425161  1
  Ag  Ag3  1  0.50685004  0.49907425  0.00254191  1
  Ag  Ag4  1  0.76839872  0.49631059  0.73169314  1
  Ag  Ag5  1  0.52429879  0.25661237  0.74324233  1
  Ag  Ag6  1  -0.01894095  0.73546207  0.74095473  1
  Ag  Ag7  1  0.76144256  0.73408001  0.50407083  1
  Ag  Ag8  1  -0.00693859  0.48671099  0.48251803  1
  Ag  Ag9  1  0.75786728  0.26293041  0.51007294  1
  Ag  Ag10  1  -0.01230809  0.26496236  0.26587507  1
  Ag  Ag11  1  0.22688946  0.01532329  0.74502314  1
  Ag  Ag12  1  0.75710112  0.02648995  0.74131848  1
  Ag  Ag13  1  0.22754383  0.25822606  0.50849197  1
  Ag  Ag14  1  -0.00513107  0.73806683  0.26822901  1
  Ag  Ag15  1  0.75478407  0.50707752  0.25667401  1
  Sb  Sb16  1  0.50132659  0.00027733  -0.00420637  1
  Sb  Sb17  1  0.25083362  0.74742634  0.00072958  1
  Sb  Sb18  1  0.50392849  0.49867270  0.50013390  1
  Sb  Sb19  1  0.24986107  0.25346776  -0.00303231  1
  Sb  Sb20  1  0.24820193  0.74897059  0.49904044  1
  Sb  Sb21  1  0.50273748  0.25489406  0.25254411  1
  Sb  Sb22  1  0.75061987  0.25485129  -0.00172933  1
  Sb  Sb23  1  -0.00190202  0.00163752  0.50200232  1
  Sb  Sb24  1  0.75284818  -0.00257962  0.25179127  1
  Sb  Sb25  1  0.75079548  0.74606928  -0.00181620  1
  Sb  Sb26  1  -0.00114510  0.00016210  -0.00797736  1
  Sb  Sb27  1  -0.00224439  0.49932031  0.00279135  1
  Sb  Sb28  1  0.24756970  0.49745623  0.74891190  1
  Sb  Sb29  1  0.24638106  0.00141893  0.25261951  1
  Sb  Sb30  1  0.50387662  0.74693957  0.74899831  1
  Sb  Sb31  1  0.50158011  0.00123210  0.49978671  1
  Te  Te32  1  0.25485389  0.25217987  0.25312204  1
  Te  Te33  1  0.22975249  0.25194423  0.74831613  1
  Te  Te34  1  0.22886214  0.74924269  0.25077218  1
  Te  Te35  1  0.25543217  0.75456359  0.74902586  1
  Te  Te36  1  0.75362592  0.24659037  0.25004579  1
  Te  Te37  1  0.75435589  0.25702673  0.75272380  1
  Te  Te38  1  0.75509011  0.75175271  0.25088812  1
  Te  Te39  1  0.74743189  0.72560489  0.75008710  1
  Te  Te40  1  0.25290577  0.00025525  -0.01481020  1
  Te  Te41  1  0.25243348  0.00919666  0.50538333  1
  Te  Te42  1  0.26006087  0.50097093  0.01754117  1
  Te  Te43  1  0.24028899  0.49942137  0.49563334  1
  Te  Te44  1  0.74875867  -0.00015133  -0.01615548  1
  Te  Te45  1  0.74925081  0.00177693  0.50362420  1
  Te  Te46  1  0.74309227  0.49995107  0.01595877  1
  Te  Te47  1  0.74792071  0.50148744  0.49773935  1
  Te  Te48  1  0.00132256  0.24933381  0.00644738  1
  Te  Te49  1  -0.00296756  0.24783870  0.50087278  1
  Te  Te50  1  0.00109386  0.74934944  -0.01166537  1
  Te  Te51  1  -0.00002840  0.75175550  0.50389544  1
  Te  Te52  1  0.49980642  0.25226314  -0.00558516  1
  Te  Te53  1  0.51271517  0.25045925  0.50484294  1
  Te  Te54  1  0.49993392  0.74298652  0.00605469  1
  Te  Te55  1  0.50081367  0.74913757  0.49442720  1
  Te  Te56  1  0.00225853  -0.00416480  0.24508620  1
  Te  Te57  1  -0.00353771  0.00134900  0.74831422  1
  Te  Te58  1  -0.00347540  0.49927190  0.24882277  1
  Te  Te59  1  0.00219111  0.50047980  0.75574545  1
  Te  Te60  1  0.49861636  -0.01454270  0.24521123  1
  Te  Te61  1  0.51377586  0.00445222  0.74982778  1
  Te  Te62  1  0.51998161  0.49780623  0.25149807  1
  Te  Te63  1  0.49138991  0.49502525  0.75634510  1
