# generated using pymatgen
data_AgSbTe2
_symmetry_space_group_name_H-M   'P 1'
_cell_length_a   12.21811602
_cell_length_b   12.22719159
_cell_length_c   12.22290674
_cell_angle_alpha   89.99481112
_cell_angle_beta   89.99581358
_cell_angle_gamma   90.00434036
_symmetry_Int_Tables_number   1
_chemical_formula_structural   AgSbTe2
_chemical_formula_sum   'Ag16 Sb16 Te32'
_cell_volume   1826.01968916
_cell_formula_units_Z   16
loop_
 _symmetry_equiv_pos_site_id
 _symmetry_equiv_pos_as_xyz
  1  'x, y, z'
loop_
 _atom_site_type_symbol
 _atom_site_label
 _atom_site_symmetry_multiplicity
 _atom_site_fract_x
 _atom_site_fract_y
 _atom_site_fract_z
 _atom_site_occupancy
  Ag  Ag0  1  0.00323207  0.49616354  -0.00091615  1
  Ag  Ag1  1  0.76059599  0.24956235  0.00216899  1
  Ag  Ag2  1  0.23989996  0.24863633  -0.00032881  1
  Ag  Ag3  1  0.49535508  -0.00414067  0.49688602  1
  Ag  Ag4  1  0.24583120  -0.00204171  0.75044712  1
  Ag  Ag5  1  0.00381995  0.00387969  0.00673446  1
  Ag  Ag6  1  0.24541968  0.75341556  0.49852249  1
  Ag  Ag7  1  0.24306309  0.50189565  0.75237620  1
  Ag  Ag8  1  0.24398272  0.75119310  0.00118182  1
  Ag  Ag9  1  0.00420133  -0.00368261  0.49320325  1
  Ag  Ag10  1  0.00301860  0.75520596  0.24984253  1
  Ag  Ag11  1  0.75837836  0.49900906  0.75235178  1
  Ag  Ag12  1  0.00005340  0.24430585  0.24348715  1
  Ag  Ag13  1  0.00318245  0.50298834  0.50094853  1
  Ag  Ag14  1  0.75711887  -0.00017674  0.24923653  1
  Ag  Ag15  1  0.49587174  0.75435532  0.25152586  1
  Sb  Sb16  1  0.75535096  0.25032642  0.49855312  1
  Sb  Sb17  1  0.49869526  0.24884581  0.75061716  1
  Sb  Sb18  1  0.49686935  0.50189422  -0.00024372  1
  Sb  Sb19  1  0.49535060  -0.00215318  0.00286547  1
  Sb  Sb20  1  0.24551611  0.50227084  0.24734224  1
  Sb  Sb21  1  0.24198361  -0.00255959  0.24988033  1
  Sb  Sb22  1  0.49602056  0.50441735  0.50046134  1
  Sb  Sb23  1  0.00060949  0.25203115  0.75851405  1
  Sb  Sb24  1  0.49534004  0.75160641  0.74852326  1
  Sb  Sb25  1  0.24513813  0.24782230  0.50036980  1
  Sb  Sb26  1  0.75798355  0.75014307  0.00244324  1
  Sb  Sb27  1  0.75533873  0.49875231  0.24781133  1
  Sb  Sb28  1  0.75406054  0.00146405  0.75147479  1
  Sb  Sb29  1  0.49891255  0.24485442  0.24894020  1
  Sb  Sb30  1  0.75619090  0.75008710  0.49797267  1
  Sb  Sb31  1  0.00362232  0.74886561  0.74973594  1
  Te  Te32  1  0.24642460  0.25153871  0.24310968  1
  Te  Te33  1  0.25034655  0.25039017  0.75578510  1
  Te  Te34  1  0.24675945  0.74967721  0.25033365  1
  Te  Te35  1  0.25047033  0.75003827  0.75049609  1
  Te  Te36  1  0.75314353  0.24636969  0.24521508  1
  Te  Te37  1  0.74936742  0.25481214  0.75725514  1
  Te  Te38  1  0.75300635  0.75489353  0.24968493  1
  Te  Te39  1  0.74717237  0.74249303  0.75055049  1
  Te  Te40  1  0.24754333  -0.00112895  -0.00296321  1
  Te  Te41  1  0.24503421  -0.00098917  0.50263904  1
  Te  Te42  1  0.24705318  0.50121355  -0.00299312  1
  Te  Te43  1  0.24575667  0.50151445  0.50559124  1
  Te  Te44  1  0.75402137  0.00199132  -0.00031942  1
  Te  Te45  1  0.75497292  0.00018939  0.49960986  1
  Te  Te46  1  0.75429641  0.49775233  -0.00335894  1
  Te  Te47  1  0.75561661  0.49915228  0.50614935  1
  Te  Te48  1  0.00148148  0.25005063  0.00310883  1
  Te  Te49  1  0.00043831  0.24972292  0.48975582  1
  Te  Te50  1  0.00411448  0.74995100  0.00409569  1
  Te  Te51  1  0.00376110  0.75079748  0.49601335  1
  Te  Te52  1  0.49867643  0.25004397  0.00151504  1
  Te  Te53  1  0.49949904  0.24179606  0.49816454  1
  Te  Te54  1  0.49060402  0.75018814  0.00722217  1
  Te  Te55  1  0.49333717  0.75406595  0.49490103  1
  Te  Te56  1  -0.00084057  -0.00117405  0.24929245  1
  Te  Te57  1  0.00318111  -0.00023964  0.74886226  1
  Te  Te58  1  -0.00123419  0.50150217  0.24961587  1
  Te  Te59  1  0.00251376  0.50002863  0.75031461  1
  Te  Te60  1  0.50728486  -0.00341199  0.25356042  1
  Te  Te61  1  0.49585411  -0.00059264  0.74342619  1
  Te  Te62  1  0.50269538  0.50819028  0.25177719  1
  Te  Te63  1  0.49764102  0.49993583  0.74866062  1
