# generated using pymatgen
data_AgSbTe2
_symmetry_space_group_name_H-M   'P 1'
_cell_length_a   12.32329007
_cell_length_b   12.31932309
_cell_length_c   12.29583107
_cell_angle_alpha   90.01828090
_cell_angle_beta   89.98514365
_cell_angle_gamma   90.00006456
_symmetry_Int_Tables_number   1
_chemical_formula_structural   AgSbTe2
_chemical_formula_sum   'Ag16 Sb16 Te32'
_cell_volume   1866.68641908
_cell_formula_units_Z   16
loop_
 _symmetry_equiv_pos_site_id
 _symmetry_equiv_pos_as_xyz
  1  'x, y, z'
loop_
 _atom_site_type_symbol
 _atom_site_label
 _atom_site_symmetry_multiplicity
 _atom_site_fract_x
 _atom_site_fract_y
 _atom_site_fract_z
 _atom_site_occupancy
  Ag  Ag0  1  0.24694236  -0.01551188  0.76063868  1
  Ag  Ag1  1  0.24944426  0.52122441  0.75518795  1
  Ag  Ag2  1  0.75022266  0.00305580  0.23304895  1
  Ag  Ag3  1  0.24620975  0.23921124  -0.00024073  1
  Ag  Ag4  1  0.48417740  0.75378457  0.76197322  1
  Ag  Ag5  1  0.02038519  0.75674306  0.75906331  1
  Ag  Ag6  1  0.75379782  -0.01169534  0.76469504  1
  Ag  Ag7  1  -0.00689335  -0.00202713  -0.00251811  1
  Ag  Ag8  1  0.51028176  0.24457355  0.24216277  1
  Ag  Ag9  1  0.74888302  0.76525718  -0.00103882  1
  Ag  Ag10  1  0.75364085  0.23451413  0.00975898  1
  Ag  Ag11  1  0.50385357  0.75305263  0.23945525  1
  Ag  Ag12  1  0.74773799  0.49642184  0.24214848  1
  Ag  Ag13  1  -0.01115867  0.24550909  0.23930507  1
  Ag  Ag14  1  0.25058281  0.75998787  -0.01065725  1
  Ag  Ag15  1  0.25227259  0.75191813  0.52242006  1
  Sb  Sb16  1  0.50049400  0.24614634  0.75821826  1
  Sb  Sb17  1  0.49902251  -0.00081228  0.49941803  1
  Sb  Sb18  1  0.75047066  0.50700594  0.75601686  1
  Sb  Sb19  1  0.75018309  0.24711859  0.49166207  1
  Sb  Sb20  1  0.00053008  0.50266877  -0.00030705  1
  Sb  Sb21  1  0.49942852  0.50237682  0.00064703  1
  Sb  Sb22  1  0.00027998  0.24380672  0.75798207  1
  Sb  Sb23  1  0.25022787  0.50146100  0.24773054  1
  Sb  Sb24  1  0.00049749  -0.00146147  0.50119083  1
  Sb  Sb25  1  0.50552318  -0.00281693  -0.00004250  1
  Sb  Sb26  1  -0.00208242  0.75174830  0.24603408  1
  Sb  Sb27  1  0.24940773  0.24776687  0.50167683  1
  Sb  Sb28  1  0.50000475  0.50194908  0.49897116  1
  Sb  Sb29  1  0.74887388  0.75130432  0.50031328  1
  Sb  Sb30  1  0.00066840  0.50200779  0.49947303  1
  Sb  Sb31  1  0.24984204  -0.00083694  0.24001632  1
  Te  Te32  1  0.25439219  0.24979645  0.24718991  1
  Te  Te33  1  0.25180507  0.24579185  0.75430770  1
  Te  Te34  1  0.25216695  0.75014380  0.23983421  1
  Te  Te35  1  0.25103450  0.75007340  0.75151835  1
  Te  Te36  1  0.74787509  0.24348626  0.24817652  1
  Te  Te37  1  0.74779679  0.25160065  0.75409522  1
  Te  Te38  1  0.75159944  0.75668630  0.25069193  1
  Te  Te39  1  0.74547774  0.75018200  0.75132723  1
  Te  Te40  1  0.24400891  0.00021410  -0.00186879  1
  Te  Te41  1  0.24937073  -0.00198795  0.51484996  1
  Te  Te42  1  0.24951029  0.50063041  -0.00363841  1
  Te  Te43  1  0.24945487  0.50254598  0.50795286  1
  Te  Te44  1  0.75189403  -0.00315744  -0.00115414  1
  Te  Te45  1  0.75009442  0.00224432  0.50760553  1
  Te  Te46  1  0.75009227  0.49966803  0.00589936  1
  Te  Te47  1  0.75031972  0.49762584  0.48716362  1
  Te  Te48  1  0.00032909  0.24706947  0.00142238  1
  Te  Te49  1  -0.00002857  0.25102820  0.48419136  1
  Te  Te50  1  -0.00200486  0.75177770  -0.00216819  1
  Te  Te51  1  0.00471594  0.75089022  0.50733371  1
  Te  Te52  1  0.49847878  0.25110890  0.00369689  1
  Te  Te53  1  0.50069406  0.25006702  0.48319898  1
  Te  Te54  1  0.50120502  0.75057697  0.00200388  1
  Te  Te55  1  0.49744144  0.75011003  0.49561096  1
  Te  Te56  1  -0.00102196  0.00014130  0.24579379  1
  Te  Te57  1  -0.00479569  -0.00048071  0.75282034  1
  Te  Te58  1  -0.00263175  0.49579652  0.25020696  1
  Te  Te59  1  -0.00036494  0.50516658  0.74810363  1
  Te  Te60  1  0.50270033  -0.00525628  0.24959399  1
  Te  Te61  1  0.50376452  -0.00268133  0.75019973  1
  Te  Te62  1  0.50168767  0.50708968  0.24980665  1
  Te  Te63  1  0.49918616  0.50659966  0.74983020  1
