# generated using pymatgen
data_AgSbTe2
_symmetry_space_group_name_H-M   'P 1'
_cell_length_a   12.23170451
_cell_length_b   12.22569856
_cell_length_c   12.22393594
_cell_angle_alpha   89.99151398
_cell_angle_beta   89.99860296
_cell_angle_gamma   90.00240449
_symmetry_Int_Tables_number   1
_chemical_formula_structural   AgSbTe2
_chemical_formula_sum   'Ag16 Sb16 Te32'
_cell_volume   1827.98119809
_cell_formula_units_Z   16
loop_
 _symmetry_equiv_pos_site_id
 _symmetry_equiv_pos_as_xyz
  1  'x, y, z'
loop_
 _atom_site_type_symbol
 _atom_site_label
 _atom_site_symmetry_multiplicity
 _atom_site_fract_x
 _atom_site_fract_y
 _atom_site_fract_z
 _atom_site_occupancy
  Ag  Ag0  1  -0.00504979  -0.00050669  0.50051380  1
  Ag  Ag1  1  0.50022314  0.50252550  -0.00228366  1
  Ag  Ag2  1  0.24353351  0.74523439  -0.00432334  1
  Ag  Ag3  1  -0.00563670  0.24569255  0.24374382  1
  Ag  Ag4  1  0.75636460  0.75112105  -0.00267396  1
  Ag  Ag5  1  -0.00030688  0.50486446  -0.00319937  1
  Ag  Ag6  1  0.50637810  0.24688783  0.24570935  1
  Ag  Ag7  1  0.24710251  0.50420299  0.75709182  1
  Ag  Ag8  1  -0.00171107  0.75104342  0.75987218  1
  Ag  Ag9  1  0.75497595  0.24837098  0.00204957  1
  Ag  Ag10  1  0.50502314  -0.00064085  0.50043849  1
  Ag  Ag11  1  0.75416755  -0.00265352  0.75213160  1
  Ag  Ag12  1  0.50170915  0.75124462  0.75616709  1
  Ag  Ag13  1  0.75406357  0.00214502  0.24792828  1
  Ag  Ag14  1  -0.00384308  0.24804698  0.75590651  1
  Ag  Ag15  1  -0.00372162  0.75322807  0.24035530  1
  Sb  Sb16  1  0.75088565  0.75516010  0.50319843  1
  Sb  Sb17  1  0.24852243  0.75123208  0.50355172  1
  Sb  Sb18  1  0.24924257  0.24870929  0.50078116  1
  Sb  Sb19  1  0.24607795  -0.00217701  0.75079676  1
  Sb  Sb20  1  0.49940784  0.50103814  0.50199938  1
  Sb  Sb21  1  0.75092344  0.49764050  0.24380279  1
  Sb  Sb22  1  -0.00423011  -0.00493048  -0.00049654  1
  Sb  Sb23  1  0.50516260  -0.00072861  -0.00052773  1
  Sb  Sb24  1  0.24859581  0.50200056  0.24410295  1
  Sb  Sb25  1  0.50457589  0.24897863  0.75369470  1
  Sb  Sb26  1  0.24576693  -0.00108201  0.24932360  1
  Sb  Sb27  1  0.50439047  0.75266125  0.24469824  1
  Sb  Sb28  1  0.75227607  0.50309877  0.75629861  1
  Sb  Sb29  1  0.24464605  0.25393394  -0.00122601  1
  Sb  Sb30  1  0.00063373  0.50059529  0.50266080  1
  Sb  Sb31  1  0.75086531  0.24485979  0.49780099  1
  Te  Te32  1  0.24658759  0.25038617  0.24958323  1
  Te  Te33  1  0.24301083  0.25394406  0.75075643  1
  Te  Te34  1  0.24380509  0.74956693  0.24362703  1
  Te  Te35  1  0.24811903  0.74838168  0.75315627  1
  Te  Te36  1  0.75318233  0.24641050  0.24540640  1
  Te  Te37  1  0.75442723  0.24483450  0.75571883  1
  Te  Te38  1  0.75402637  0.75499446  0.24437298  1
  Te  Te39  1  0.75170021  0.75354834  0.75393367  1
  Te  Te40  1  0.25279469  -0.01055300  -0.00005832  1
  Te  Te41  1  0.25069628  -0.00026720  0.49972705  1
  Te  Te42  1  0.24852798  0.50382485  -0.00401950  1
  Te  Te43  1  0.25112950  0.50006963  0.51126345  1
  Te  Te44  1  0.74936323  0.00077886  -0.00047403  1
  Te  Te45  1  0.75110769  -0.00018014  0.50040258  1
  Te  Te46  1  0.75124604  0.50041476  -0.00019647  1
  Te  Te47  1  0.74866278  0.50011696  0.49977888  1
  Te  Te48  1  -0.00151090  0.25343819  0.00054198  1
  Te  Te49  1  -0.00001248  0.24647983  0.49926278  1
  Te  Te50  1  -0.00365960  0.74889689  -0.00145173  1
  Te  Te51  1  0.00046174  0.75310779  0.50003091  1
  Te  Te52  1  0.50212387  0.25432756  0.00308549  1
  Te  Te53  1  0.49977192  0.24521795  0.49443013  1
  Te  Te54  1  0.50338030  0.74592611  -0.00273831  1
  Te  Te55  1  0.49946213  0.75395772  0.50481272  1
  Te  Te56  1  -0.00287341  0.00132292  0.25311409  1
  Te  Te57  1  -0.00249549  -0.00081747  0.74713416  1
  Te  Te58  1  0.00079863  0.49980868  0.24754971  1
  Te  Te59  1  0.00126809  0.50194499  0.75169996  1
  Te  Te60  1  0.50383530  0.00276239  0.25413827  1
  Te  Te61  1  0.50308004  -0.00248796  0.74606899  1
  Te  Te62  1  0.49933262  0.49544218  0.24615963  1
  Te  Te63  1  0.49763565  0.50260384  0.75329545  1
