# generated using pymatgen
data_AgSbTe2
_symmetry_space_group_name_H-M   'P 1'
_cell_length_a   12.21785697
_cell_length_b   12.22041976
_cell_length_c   12.21450285
_cell_angle_alpha   89.99831879
_cell_angle_beta   89.99619661
_cell_angle_gamma   90.00307973
_symmetry_Int_Tables_number   1
_chemical_formula_structural   AgSbTe2
_chemical_formula_sum   'Ag16 Sb16 Te32'
_cell_volume   1823.71493298
_cell_formula_units_Z   16
loop_
 _symmetry_equiv_pos_site_id
 _symmetry_equiv_pos_as_xyz
  1  'x, y, z'
loop_
 _atom_site_type_symbol
 _atom_site_label
 _atom_site_symmetry_multiplicity
 _atom_site_fract_x
 _atom_site_fract_y
 _atom_site_fract_z
 _atom_site_occupancy
  Ag  Ag0  1  0.24785057  0.00452735  0.25496513  1
  Ag  Ag1  1  0.74867050  0.49843169  0.25501312  1
  Ag  Ag2  1  0.49866640  0.00379305  -0.00272198  1
  Ag  Ag3  1  0.00003381  0.75023337  0.25504326  1
  Ag  Ag4  1  0.74694443  0.00298266  0.74532721  1
  Ag  Ag5  1  0.49817931  0.49520177  0.49931448  1
  Ag  Ag6  1  0.25143671  0.49537637  0.25480406  1
  Ag  Ag7  1  0.74903965  0.24999689  0.49932082  1
  Ag  Ag8  1  0.49685125  0.24948268  0.74619084  1
  Ag  Ag9  1  0.25521562  0.49431219  0.74524175  1
  Ag  Ag10  1  0.25387510  0.00551989  0.74538634  1
  Ag  Ag11  1  0.75121824  0.75008331  0.49784023  1
  Ag  Ag12  1  0.25088896  0.25011885  0.49933766  1
  Ag  Ag13  1  0.49841713  0.49691252  0.00070498  1
  Ag  Ag14  1  0.00143510  0.00303546  0.49681686  1
  Ag  Ag15  1  0.00338691  0.24945128  0.25652057  1
  Sb  Sb16  1  -0.00115177  0.75148877  0.74432742  1
  Sb  Sb17  1  0.74362746  0.49705178  0.74440479  1
  Sb  Sb18  1  0.50024906  0.74844978  0.25285524  1
  Sb  Sb19  1  0.74638174  0.24989288  0.00103345  1
  Sb  Sb20  1  0.50019119  0.75106036  0.74751156  1
  Sb  Sb21  1  0.75122913  0.00165250  0.25482966  1
  Sb  Sb22  1  0.00171340  0.00104257  0.00239601  1
  Sb  Sb23  1  0.49897484  0.00475961  0.50256121  1
  Sb  Sb24  1  0.49755969  0.25215438  0.25476236  1
  Sb  Sb25  1  0.25088133  0.74983718  0.00123233  1
  Sb  Sb26  1  0.74877734  0.75005111  0.00230374  1
  Sb  Sb27  1  0.00122446  0.49677526  0.49646761  1
  Sb  Sb28  1  0.00127689  0.49880705  0.00405082  1
  Sb  Sb29  1  0.00295970  0.24834013  0.74364880  1
  Sb  Sb30  1  0.24909837  0.74987201  0.49759909  1
  Sb  Sb31  1  0.25314494  0.25020542  0.00073489  1
  Te  Te32  1  0.24910775  0.25117149  0.25380465  1
  Te  Te33  1  0.25085973  0.24870164  0.74613924  1
  Te  Te34  1  0.24473514  0.74907607  0.25147334  1
  Te  Te35  1  0.24807614  0.75176574  0.74943615  1
  Te  Te36  1  0.75198032  0.25312406  0.25620245  1
  Te  Te37  1  0.74877947  0.24705648  0.74399991  1
  Te  Te38  1  0.75385928  0.74700689  0.25458793  1
  Te  Te39  1  0.75210957  0.75495961  0.74342402  1
  Te  Te40  1  0.25419274  0.00012044  -0.00155363  1
  Te  Te41  1  0.25009386  0.00113971  0.49995657  1
  Te  Te42  1  0.25658478  0.49990515  0.00152991  1
  Te  Te43  1  0.25108786  0.49890781  0.49803627  1
  Te  Te44  1  0.74437035  -0.00049611  -0.00720585  1
  Te  Te45  1  0.74918788  0.00264212  0.50182727  1
  Te  Te46  1  0.74310393  0.50059058  0.00513920  1
  Te  Te47  1  0.74922878  0.49727357  0.49793331  1
  Te  Te48  1  -0.00203676  0.24982949  0.01143380  1
  Te  Te49  1  0.00094984  0.24652054  0.49595871  1
  Te  Te50  1  -0.00090827  0.75015988  0.01100202  1
  Te  Te51  1  -0.00535699  0.75597401  0.49500303  1
  Te  Te52  1  0.50095257  0.25052322  -0.00828927  1
  Te  Te53  1  0.49900806  0.25371951  0.50399810  1
  Te  Te54  1  0.50094390  0.74837663  0.00014047  1
  Te  Te55  1  0.50790186  0.74076053  0.49953405  1
  Te  Te56  1  0.00264457  0.00150750  0.25243172  1
  Te  Te57  1  0.00225392  0.00025786  0.74684565  1
  Te  Te58  1  0.00226967  0.49911270  0.24935471  1
  Te  Te59  1  0.00966086  0.50019372  0.75240811  1
  Te  Te60  1  0.49456023  0.00052399  0.24469960  1
  Te  Te61  1  0.49674043  0.00235451  0.75101928  1
  Te  Te62  1  0.49787962  0.49895549  0.25025249  1
  Te  Te63  1  0.49693148  0.49738506  0.74965251  1
