# generated using pymatgen
data_AgSbTe2
_symmetry_space_group_name_H-M   'P 1'
_cell_length_a   12.33209560
_cell_length_b   12.34965677
_cell_length_c   12.29703037
_cell_angle_alpha   89.99297603
_cell_angle_beta   89.97938023
_cell_angle_gamma   89.97775325
_symmetry_Int_Tables_number   1
_chemical_formula_structural   AgSbTe2
_chemical_formula_sum   'Ag16 Sb16 Te32'
_cell_volume   1872.80237609
_cell_formula_units_Z   16
loop_
 _symmetry_equiv_pos_site_id
 _symmetry_equiv_pos_as_xyz
  1  'x, y, z'
loop_
 _atom_site_type_symbol
 _atom_site_label
 _atom_site_symmetry_multiplicity
 _atom_site_fract_x
 _atom_site_fract_y
 _atom_site_fract_z
 _atom_site_occupancy
  Ag  Ag0  1  0.25759693  0.00100072  0.26250439  1
  Ag  Ag1  1  0.01745600  -0.00005856  0.50265084  1
  Ag  Ag2  1  0.26563141  0.77242775  0.49642069  1
  Ag  Ag3  1  0.74704807  0.50003685  0.73994587  1
  Ag  Ag4  1  0.25257222  0.00033105  0.73500716  1
  Ag  Ag5  1  0.49297866  0.74973992  0.26288191  1
  Ag  Ag6  1  0.74666341  0.25379174  -0.00363980  1
  Ag  Ag7  1  0.25802934  0.23411501  0.49589665  1
  Ag  Ag8  1  0.48187683  -0.02249845  0.49675845  1
  Ag  Ag9  1  0.00249404  0.24972507  0.73975715  1
  Ag  Ag10  1  0.49802516  0.74994415  0.73503584  1
  Ag  Ag11  1  0.49261846  0.24996590  0.26133820  1
  Ag  Ag12  1  0.48577913  0.51507638  0.49640676  1
  Ag  Ag13  1  0.25759474  0.49899069  0.26077403  1
  Ag  Ag14  1  0.01544798  0.50180741  0.50125771  1
  Ag  Ag15  1  0.73198824  0.74764710  0.50220063  1
  Sb  Sb16  1  0.25185633  0.74978251  0.00061953  1
  Sb  Sb17  1  0.49999271  0.49823432  0.00132658  1
  Sb  Sb18  1  0.00577462  0.75004799  0.25962816  1
  Sb  Sb19  1  0.25039372  0.50013916  0.74070436  1
  Sb  Sb20  1  0.49914749  0.00155875  0.00071037  1
  Sb  Sb21  1  0.00304704  0.00298654  -0.00112872  1
  Sb  Sb22  1  0.74806440  0.25097922  0.49741398  1
  Sb  Sb23  1  0.74952613  -0.00057547  0.74500837  1
  Sb  Sb24  1  0.00113852  0.75033934  0.74240640  1
  Sb  Sb25  1  0.00247954  0.25005279  0.25511382  1
  Sb  Sb26  1  0.74875970  0.50151499  0.25644847  1
  Sb  Sb27  1  0.74400607  0.74908268  0.00014608  1
  Sb  Sb28  1  0.49929954  0.25014017  0.74157685  1
  Sb  Sb29  1  0.74681943  -0.00002107  0.25615524  1
  Sb  Sb30  1  0.00124918  0.49700938  -0.00264828  1
  Sb  Sb31  1  0.25149176  0.25000405  0.00123402  1
  Te  Te32  1  0.24949720  0.24700339  0.25146798  1
  Te  Te33  1  0.24736746  0.24968239  0.74977868  1
  Te  Te34  1  0.25285544  0.75332031  0.24969406  1
  Te  Te35  1  0.25394578  0.75107169  0.75153664  1
  Te  Te36  1  0.74853152  0.24998985  0.24613724  1
  Te  Te37  1  0.74899548  0.25059951  0.75092356  1
  Te  Te38  1  0.74144813  0.75048388  0.24931989  1
  Te  Te39  1  0.74685929  0.74777989  0.74829241  1
  Te  Te40  1  0.24873793  -0.00069731  0.00057522  1
  Te  Te41  1  0.24983443  0.00375779  0.50166887  1
  Te  Te42  1  0.24846239  0.50077107  0.02067378  1
  Te  Te43  1  0.25136766  0.49936000  0.50059043  1
  Te  Te44  1  0.75148549  0.00720958  0.00195943  1
  Te  Te45  1  0.75006017  -0.00811063  0.49858132  1
  Te  Te46  1  0.75130677  0.49515729  -0.01103400  1
  Te  Te47  1  0.74850436  0.50222432  0.50292874  1
  Te  Te48  1  -0.00426450  0.25081009  -0.01062650  1
  Te  Te49  1  -0.00235553  0.25019703  0.50316308  1
  Te  Te50  1  -0.00183994  0.74993717  0.00297632  1
  Te  Te51  1  0.00477153  0.74762278  0.49893162  1
  Te  Te52  1  0.50306173  0.25015063  0.01085003  1
  Te  Te53  1  0.49802907  0.25038060  0.49640854  1
  Te  Te54  1  0.49928041  0.75013172  -0.00073843  1
  Te  Te55  1  0.49970388  0.74775977  0.50133884  1
  Te  Te56  1  0.00612127  -0.00004596  0.25368356  1
  Te  Te57  1  0.00183151  0.00117407  0.74744227  1
  Te  Te58  1  0.00059217  0.49999764  0.25688498  1
  Te  Te59  1  0.00075130  0.49918676  0.74659429  1
  Te  Te60  1  0.49935196  -0.00044915  0.25007262  1
  Te  Te61  1  0.49708669  -0.00058010  0.74967524  1
  Te  Te62  1  0.50124940  0.50056776  0.25076319  1
  Te  Te63  1  0.50052275  0.50023807  0.74957439  1
