# generated using pymatgen
data_AgSbTe2
_symmetry_space_group_name_H-M   'P 1'
_cell_length_a   12.22861089
_cell_length_b   12.22014101
_cell_length_c   12.22432786
_cell_angle_alpha   90.00419243
_cell_angle_beta   89.99971960
_cell_angle_gamma   90.00079264
_symmetry_Int_Tables_number   1
_chemical_formula_structural   AgSbTe2
_chemical_formula_sum   'Ag16 Sb16 Te32'
_cell_volume   1826.74670048
_cell_formula_units_Z   16
loop_
 _symmetry_equiv_pos_site_id
 _symmetry_equiv_pos_as_xyz
  1  'x, y, z'
loop_
 _atom_site_type_symbol
 _atom_site_label
 _atom_site_symmetry_multiplicity
 _atom_site_fract_x
 _atom_site_fract_y
 _atom_site_fract_z
 _atom_site_occupancy
  Ag  Ag0  1  0.74852032  0.24383980  0.50364195  1
  Ag  Ag1  1  0.50507585  -0.00241679  0.00456144  1
  Ag  Ag2  1  0.74521535  0.75393504  0.00373886  1
  Ag  Ag3  1  0.50794014  0.00246755  0.49657922  1
  Ag  Ag4  1  0.50164651  0.50215802  -0.00228801  1
  Ag  Ag5  1  -0.00263765  0.49703562  0.50164947  1
  Ag  Ag6  1  -0.00414014  0.24891974  0.74345268  1
  Ag  Ag7  1  0.74630095  0.00389019  0.74411233  1
  Ag  Ag8  1  0.25371166  0.49733690  0.74761868  1
  Ag  Ag9  1  0.50238868  0.49695973  0.50291425  1
  Ag  Ag10  1  0.50322543  0.24948260  0.74553875  1
  Ag  Ag11  1  0.50370246  0.75730190  0.24872804  1
  Ag  Ag12  1  0.74521457  -0.00397256  0.25463560  1
  Ag  Ag13  1  -0.00384998  0.75473501  0.25249952  1
  Ag  Ag14  1  -0.00757692  0.00262781  0.49787396  1
  Ag  Ag15  1  0.25475185  -0.00296070  0.25271807  1
  Sb  Sb16  1  0.25285069  0.00169942  0.74882134  1
  Sb  Sb17  1  0.25281602  0.50166809  0.25132300  1
  Sb  Sb18  1  -0.00415155  -0.00125861  0.00179064  1
  Sb  Sb19  1  0.50286692  0.24310488  0.25490895  1
  Sb  Sb20  1  0.74880782  0.75743597  0.49652205  1
  Sb  Sb21  1  0.25209320  0.24979102  0.50150693  1
  Sb  Sb22  1  0.74858333  0.50421598  0.25229651  1
  Sb  Sb23  1  0.25495654  0.75118452  0.00243708  1
  Sb  Sb24  1  0.74732711  0.49593255  0.74727250  1
  Sb  Sb25  1  -0.00139291  0.50185594  -0.00149810  1
  Sb  Sb26  1  -0.00384548  0.24683070  0.25735583  1
  Sb  Sb27  1  -0.00416275  0.75056199  0.74683036  1
  Sb  Sb28  1  0.25139348  0.75067890  0.49861599  1
  Sb  Sb29  1  0.50333311  0.75039604  0.75053151  1
  Sb  Sb30  1  0.74649515  0.24678045  -0.00302702  1
  Sb  Sb31  1  0.25266233  0.24940405  -0.00163296  1
  Te  Te32  1  0.24862960  0.24097901  0.24926767  1
  Te  Te33  1  0.25131496  0.25427697  0.75032926  1
  Te  Te34  1  0.25073616  0.75570333  0.24973163  1
  Te  Te35  1  0.24802072  0.74128037  0.75120368  1
  Te  Te36  1  0.75050168  0.24190745  0.25631466  1
  Te  Te37  1  0.74846962  0.24551606  0.74685168  1
  Te  Te38  1  0.74789494  0.75367184  0.24712592  1
  Te  Te39  1  0.75110385  0.75995556  0.75833993  1
  Te  Te40  1  0.25762795  -0.00028417  0.00357654  1
  Te  Te41  1  0.25030814  -0.00004956  0.49657508  1
  Te  Te42  1  0.25694589  0.49989635  -0.00339248  1
  Te  Te43  1  0.25209230  0.50025372  0.50293429  1
  Te  Te44  1  0.74616965  -0.00163337  0.00073735  1
  Te  Te45  1  0.74885013  0.00043313  0.50095442  1
  Te  Te46  1  0.74356321  0.50378056  0.00018490  1
  Te  Te47  1  0.74834366  0.49406833  0.50001046  1
  Te  Te48  1  -0.00038668  0.25187276  -0.01073895  1
  Te  Te49  1  -0.00332113  0.24944453  0.50359022  1
  Te  Te50  1  -0.00615284  0.74887860  0.00729295  1
  Te  Te51  1  -0.00086658  0.75012679  0.49514882  1
  Te  Te52  1  0.50159623  0.25055738  -0.00688023  1
  Te  Te53  1  0.50299325  0.25014498  0.50358313  1
  Te  Te54  1  0.50339301  0.75150367  0.00286786  1
  Te  Te55  1  0.50070782  0.74947365  0.49507544  1
  Te  Te56  1  -0.00208018  -0.00195660  0.25239472  1
  Te  Te57  1  0.00099423  0.00234560  0.74647163  1
  Te  Te58  1  0.00140488  0.50358430  0.25555626  1
  Te  Te59  1  0.00142031  0.49842954  0.74547695  1
  Te  Te60  1  0.50261356  -0.00040957  0.25190359  1
  Te  Te61  1  0.49924890  0.00119778  0.74697913  1
  Te  Te62  1  0.49807893  0.50438833  0.25182911  1
  Te  Te63  1  0.49966171  0.49904092  0.74667493  1
