# generated using pymatgen
data_AgSbTe2
_symmetry_space_group_name_H-M   'P 1'
_cell_length_a   12.23736561
_cell_length_b   12.22528627
_cell_length_c   12.23274626
_cell_angle_alpha   89.99481469
_cell_angle_beta   89.99563218
_cell_angle_gamma   90.00413772
_symmetry_Int_Tables_number   1
_chemical_formula_structural   AgSbTe2
_chemical_formula_sum   'Ag16 Sb16 Te32'
_cell_volume   1830.08362893
_cell_formula_units_Z   16
loop_
 _symmetry_equiv_pos_site_id
 _symmetry_equiv_pos_as_xyz
  1  'x, y, z'
loop_
 _atom_site_type_symbol
 _atom_site_label
 _atom_site_symmetry_multiplicity
 _atom_site_fract_x
 _atom_site_fract_y
 _atom_site_fract_z
 _atom_site_occupancy
  Ag  Ag0  1  0.01447906  0.00327339  0.00366546  1
  Ag  Ag1  1  0.49501089  0.00656292  0.50126484  1
  Ag  Ag2  1  0.49260739  0.24474608  0.75299332  1
  Ag  Ag3  1  0.49854479  0.49674804  0.00041851  1
  Ag  Ag4  1  0.75097811  0.49772164  0.24676629  1
  Ag  Ag5  1  0.25105758  0.24307479  0.50300311  1
  Ag  Ag6  1  0.74969847  0.24790030  0.49829103  1
  Ag  Ag7  1  0.25209629  0.00715671  0.76404465  1
  Ag  Ag8  1  0.00138410  0.75527158  0.24348237  1
  Ag  Ag9  1  0.75055571  0.75257781  0.00382740  1
  Ag  Ag10  1  0.24977465  0.23591127  -0.00301128  1
  Ag  Ag11  1  0.48503299  0.00360678  -0.00140367  1
  Ag  Ag12  1  0.24721300  0.00388697  0.23509915  1
  Ag  Ag13  1  0.24932633  0.76533828  0.00219678  1
  Ag  Ag14  1  0.00764344  0.24506640  0.75360966  1
  Ag  Ag15  1  0.00365537  0.24597722  0.24634945  1
  Sb  Sb16  1  0.74816258  0.00281846  0.75155187  1
  Sb  Sb17  1  0.74998336  0.75204000  0.49590996  1
  Sb  Sb18  1  0.74801119  0.49617518  0.75275774  1
  Sb  Sb19  1  0.25158230  0.49131672  0.75360696  1
  Sb  Sb20  1  0.24986466  0.75784750  0.49826826  1
  Sb  Sb21  1  0.49778379  0.75530189  0.75434389  1
  Sb  Sb22  1  0.00385822  0.00404797  0.49785978  1
  Sb  Sb23  1  0.00110985  0.49838945  0.00180886  1
  Sb  Sb24  1  0.75285830  0.00144241  0.24785608  1
  Sb  Sb25  1  -0.00019848  0.49611484  0.49815739  1
  Sb  Sb26  1  0.24926816  0.49682396  0.24656940  1
  Sb  Sb27  1  0.49854404  0.75196507  0.24592752  1
  Sb  Sb28  1  0.49655709  0.24787151  0.24768423  1
  Sb  Sb29  1  0.00329794  0.75667338  0.75706797  1
  Sb  Sb30  1  0.74981775  0.24818474  0.00142009  1
  Sb  Sb31  1  0.50073540  0.49246847  0.50000328  1
  Te  Te32  1  0.24684665  0.24832431  0.24781744  1
  Te  Te33  1  0.24994251  0.24735338  0.75230689  1
  Te  Te34  1  0.24590984  0.75222271  0.24689031  1
  Te  Te35  1  0.24822915  0.75703192  0.75356807  1
  Te  Te36  1  0.75514403  0.25217479  0.25362297  1
  Te  Te37  1  0.75115640  0.25082858  0.74419527  1
  Te  Te38  1  0.75428408  0.74777486  0.24680131  1
  Te  Te39  1  0.75160207  0.74884316  0.75589587  1
  Te  Te40  1  0.24977467  0.00232702  0.00209769  1
  Te  Te41  1  0.25365716  0.00408409  0.49949557  1
  Te  Te42  1  0.25587549  0.50035988  0.00014983  1
  Te  Te43  1  0.25152889  0.49255447  0.50043637  1
  Te  Te44  1  0.74905064  -0.00416275  0.00048246  1
  Te  Te45  1  0.74270255  0.00419081  0.49990663  1
  Te  Te46  1  0.74599650  0.50278070  0.00392690  1
  Te  Te47  1  0.74893266  0.49657155  0.49430954  1
  Te  Te48  1  -0.00025372  0.24820892  0.00150914  1
  Te  Te49  1  0.00116546  0.24817269  0.49910488  1
  Te  Te50  1  0.00164507  0.75077134  0.00270025  1
  Te  Te51  1  -0.00070414  0.74973164  0.49213641  1
  Te  Te52  1  0.50044482  0.24643993  -0.00132827  1
  Te  Te53  1  0.49801528  0.24698276  0.50125788  1
  Te  Te54  1  0.49838582  0.75285647  -0.00075499  1
  Te  Te55  1  0.50032184  0.75719946  0.50169328  1
  Te  Te56  1  0.00262357  0.00282039  0.24784470  1
  Te  Te57  1  0.00307835  0.00476842  0.75354120  1
  Te  Te58  1  -0.00354323  0.49714375  0.24944041  1
  Te  Te59  1  -0.00035293  0.49047792  0.74912772  1
  Te  Te60  1  0.49502291  -0.00003076  0.24702814  1
  Te  Te61  1  0.49819022  0.00445176  0.75329360  1
  Te  Te62  1  0.50523941  0.50024212  0.24482482  1
  Te  Te63  1  0.49979363  0.49220199  0.75528735  1
