# generated using pymatgen
data_AgSbTe2
_symmetry_space_group_name_H-M   'P 1'
_cell_length_a   12.22627471
_cell_length_b   12.21538730
_cell_length_c   12.23741522
_cell_angle_alpha   89.99843992
_cell_angle_beta   90.00255353
_cell_angle_gamma   89.99341615
_symmetry_Int_Tables_number   1
_chemical_formula_structural   AgSbTe2
_chemical_formula_sum   'Ag16 Sb16 Te32'
_cell_volume   1827.64180471
_cell_formula_units_Z   16
loop_
 _symmetry_equiv_pos_site_id
 _symmetry_equiv_pos_as_xyz
  1  'x, y, z'
loop_
 _atom_site_type_symbol
 _atom_site_label
 _atom_site_symmetry_multiplicity
 _atom_site_fract_x
 _atom_site_fract_y
 _atom_site_fract_z
 _atom_site_occupancy
  Ag  Ag0  1  0.74410487  0.00270670  0.25494855  1
  Ag  Ag1  1  -0.00104675  0.24802007  0.25124021  1
  Ag  Ag2  1  0.75268599  0.24122556  0.49587727  1
  Ag  Ag3  1  0.24717573  0.24613477  0.00564298  1
  Ag  Ag4  1  0.50629231  0.75763772  0.74697414  1
  Ag  Ag5  1  0.50315007  0.75962146  0.25280013  1
  Ag  Ag6  1  0.25473608  0.00485109  0.25157869  1
  Ag  Ag7  1  -0.00575206  0.75105830  0.74739945  1
  Ag  Ag8  1  0.74771574  0.75915157  0.50175037  1
  Ag  Ag9  1  0.75271070  0.24434403  0.00405793  1
  Ag  Ag10  1  0.50697616  -0.00233467  0.49542149  1
  Ag  Ag11  1  0.74632932  -0.00262415  0.74453643  1
  Ag  Ag12  1  0.24661955  0.24559504  0.49420844  1
  Ag  Ag13  1  0.50343938  0.00048789  0.00494204  1
  Ag  Ag14  1  -0.00234102  0.49679069  0.49949770  1
  Ag  Ag15  1  -0.00127196  0.49561781  0.00069502  1
  Sb  Sb16  1  0.50101866  0.49885024  0.00048974  1
  Sb  Sb17  1  0.75169826  0.50359546  0.74953096  1
  Sb  Sb18  1  0.24950262  0.75326967  0.00211725  1
  Sb  Sb19  1  0.50247115  0.24429598  0.74955692  1
  Sb  Sb20  1  0.74977235  0.75594687  -0.00082815  1
  Sb  Sb21  1  -0.00646969  0.00205368  0.49951509  1
  Sb  Sb22  1  0.25276828  -0.00000260  0.74823966  1
  Sb  Sb23  1  -0.00217975  0.24948423  0.74937460  1
  Sb  Sb24  1  0.75099672  0.49594799  0.25038040  1
  Sb  Sb25  1  0.24873967  0.49387914  0.25060119  1
  Sb  Sb26  1  0.50137099  0.24181370  0.25041371  1
  Sb  Sb27  1  0.25058425  0.75408336  0.49826362  1
  Sb  Sb28  1  0.50106437  0.50051618  0.49951116  1
  Sb  Sb29  1  0.24840801  0.49973878  0.74970161  1
  Sb  Sb30  1  -0.00217470  0.00404521  0.00080269  1
  Sb  Sb31  1  -0.00275912  0.75174152  0.25140796  1
  Te  Te32  1  0.24868628  0.24542132  0.25058086  1
  Te  Te33  1  0.25072445  0.24948794  0.74988801  1
  Te  Te34  1  0.25298026  0.75952912  0.24956903  1
  Te  Te35  1  0.24880798  0.75035198  0.75050678  1
  Te  Te36  1  0.75090216  0.24666207  0.25177180  1
  Te  Te37  1  0.74950151  0.24360251  0.74825047  1
  Te  Te38  1  0.74863763  0.75547674  0.25282099  1
  Te  Te39  1  0.74984592  0.75358225  0.74845810  1
  Te  Te40  1  0.25341281  0.00479294  0.00211772  1
  Te  Te41  1  0.25564397  0.00467628  0.49779451  1
  Te  Te42  1  0.24631006  0.49128180  0.00035161  1
  Te  Te43  1  0.24548846  0.49123620  0.49941912  1
  Te  Te44  1  0.74758532  0.00355858  0.00160557  1
  Te  Te45  1  0.74872086  0.00024327  0.49887787  1
  Te  Te46  1  0.75345130  0.48941117  -0.00003287  1
  Te  Te47  1  0.75317657  0.49725064  0.49983585  1
  Te  Te48  1  -0.00073932  0.25212381  -0.00052003  1
  Te  Te49  1  -0.00205779  0.25195503  0.49958753  1
  Te  Te50  1  0.00054130  0.74187991  -0.00204663  1
  Te  Te51  1  -0.00165017  0.74583502  0.50113326  1
  Te  Te52  1  0.50085943  0.24665334  -0.00046191  1
  Te  Te53  1  0.50250686  0.24914908  0.50020113  1
  Te  Te54  1  0.49996026  0.75345703  -0.00055623  1
  Te  Te55  1  0.50134122  0.75107716  0.50057185  1
  Te  Te56  1  0.00029198  0.00469549  0.24946736  1
  Te  Te57  1  -0.00547761  -0.00738617  0.75070879  1
  Te  Te58  1  0.00001203  0.49568383  0.25039072  1
  Te  Te59  1  -0.00057249  0.50583958  0.74901438  1
  Te  Te60  1  0.50239936  -0.00082384  0.25097220  1
  Te  Te61  1  0.50298347  -0.00329402  0.74892636  1
  Te  Te62  1  0.49956918  0.51586820  0.24912080  1
  Te  Te63  1  0.49982057  0.51317846  0.75102569  1
