# generated using pymatgen
data_AgSbTe2
_symmetry_space_group_name_H-M   'P 1'
_cell_length_a   12.21937701
_cell_length_b   12.21211220
_cell_length_c   12.21918833
_cell_angle_alpha   89.99575218
_cell_angle_beta   90.00221162
_cell_angle_gamma   89.99623622
_symmetry_Int_Tables_number   1
_chemical_formula_structural   AgSbTe2
_chemical_formula_sum   'Ag16 Sb16 Te32'
_cell_volume   1823.40107305
_cell_formula_units_Z   16
loop_
 _symmetry_equiv_pos_site_id
 _symmetry_equiv_pos_as_xyz
  1  'x, y, z'
loop_
 _atom_site_type_symbol
 _atom_site_label
 _atom_site_symmetry_multiplicity
 _atom_site_fract_x
 _atom_site_fract_y
 _atom_site_fract_z
 _atom_site_occupancy
  Ag  Ag0  1  0.50078061  0.74929724  0.75375645  1
  Ag  Ag1  1  -0.00093739  0.75861813  0.25201139  1
  Ag  Ag2  1  0.74532199  0.24653762  0.00304281  1
  Ag  Ag3  1  0.25525961  0.50406245  0.75203864  1
  Ag  Ag4  1  -0.00259778  0.24088482  0.24893264  1
  Ag  Ag5  1  0.75135644  0.75608816  0.49893614  1
  Ag  Ag6  1  0.25314434  0.75002885  0.00026400  1
  Ag  Ag7  1  0.74662762  0.75441364  0.00045748  1
  Ag  Ag8  1  0.24865141  0.75288385  0.49876405  1
  Ag  Ag9  1  -0.00228912  -0.00415915  0.49295504  1
  Ag  Ag10  1  0.49988871  0.50108274  -0.00292898  1
  Ag  Ag11  1  0.74822427  -0.00332965  0.75128753  1
  Ag  Ag12  1  0.50316942  0.24719065  0.24535860  1
  Ag  Ag13  1  0.24525073  -0.00360360  0.25050550  1
  Ag  Ag14  1  0.75480292  -0.00112059  0.24922768  1
  Ag  Ag15  1  0.50225520  0.25083653  0.75453039  1
  Sb  Sb16  1  0.25174554  -0.00383201  0.74949604  1
  Sb  Sb17  1  0.25541290  0.24934263  0.00148162  1
  Sb  Sb18  1  0.25199036  0.50398653  0.24840142  1
  Sb  Sb19  1  0.74536519  0.50230296  0.75257762  1
  Sb  Sb20  1  0.50101033  0.75314693  0.24497014  1
  Sb  Sb21  1  -0.00248790  -0.00118156  0.00849532  1
  Sb  Sb22  1  0.75052943  0.24374063  0.49729661  1
  Sb  Sb23  1  0.50289542  -0.00083282  0.00006728  1
  Sb  Sb24  1  0.24928410  0.24604699  0.49856887  1
  Sb  Sb25  1  0.00053471  0.50164970  0.00070436  1
  Sb  Sb26  1  0.00136828  0.50389057  0.49864470  1
  Sb  Sb27  1  -0.00152067  0.75270734  0.74870112  1
  Sb  Sb28  1  0.74876207  0.50097908  0.24873514  1
  Sb  Sb29  1  0.49828775  0.50241514  0.50254297  1
  Sb  Sb30  1  -0.00271106  0.24609052  0.75254983  1
  Sb  Sb31  1  0.50276371  -0.00246533  0.49929771  1
  Te  Te32  1  0.24942112  0.24509990  0.24957294  1
  Te  Te33  1  0.25595188  0.25158494  0.75056993  1
  Te  Te34  1  0.25047422  0.75309888  0.25004501  1
  Te  Te35  1  0.25190262  0.75116054  0.75158721  1
  Te  Te36  1  0.74951831  0.24722265  0.24856265  1
  Te  Te37  1  0.74597401  0.24744561  0.75245325  1
  Te  Te38  1  0.74980768  0.75275218  0.24774888  1
  Te  Te39  1  0.74839819  0.75250912  0.75321813  1
  Te  Te40  1  0.24872654  -0.00688436  0.00408537  1
  Te  Te41  1  0.24535724  -0.00517579  0.49698062  1
  Te  Te42  1  0.25458571  0.50528522  -0.00289218  1
  Te  Te43  1  0.24984042  0.50877958  0.50490606  1
  Te  Te44  1  0.75078770  -0.00216427  0.00071893  1
  Te  Te45  1  0.75236753  -0.00483610  0.49794935  1
  Te  Te46  1  0.74476266  0.50134322  -0.00128053  1
  Te  Te47  1  0.75022070  0.51200033  0.50103773  1
  Te  Te48  1  -0.00703168  0.25188820  0.00537288  1
  Te  Te49  1  -0.00028825  0.24557091  0.49320096  1
  Te  Te50  1  -0.00153851  0.74843673  0.00539822  1
  Te  Te51  1  -0.00020433  0.75262724  0.49649424  1
  Te  Te52  1  0.50246900  0.25344142  -0.00102953  1
  Te  Te53  1  0.50025577  0.25143836  0.50105461  1
  Te  Te54  1  0.50168933  0.74671554  -0.00190234  1
  Te  Te55  1  0.49971524  0.74896291  0.50528295  1
  Te  Te56  1  -0.00158468  -0.00124699  0.25225301  1
  Te  Te57  1  -0.00639818  0.00163765  0.74033333  1
  Te  Te58  1  0.00072020  0.49882116  0.25067113  1
  Te  Te59  1  0.01050827  0.49782343  0.74947043  1
  Te  Te60  1  0.50113147  0.00568131  0.25072463  1
  Te  Te61  1  0.50476364  -0.00011302  0.74901629  1
  Te  Te62  1  0.49904273  0.49067146  0.24379967  1
  Te  Te63  1  0.49651432  0.50072302  0.75292605  1
