# generated using pymatgen
data_AgSbTe2
_symmetry_space_group_name_H-M   'P 1'
_cell_length_a   12.22464340
_cell_length_b   12.21945306
_cell_length_c   12.22719610
_cell_angle_alpha   90.00164234
_cell_angle_beta   89.99541139
_cell_angle_gamma   90.00352931
_symmetry_Int_Tables_number   1
_chemical_formula_structural   AgSbTe2
_chemical_formula_sum   'Ag16 Sb16 Te32'
_cell_volume   1826.47966584
_cell_formula_units_Z   16
loop_
 _symmetry_equiv_pos_site_id
 _symmetry_equiv_pos_as_xyz
  1  'x, y, z'
loop_
 _atom_site_type_symbol
 _atom_site_label
 _atom_site_symmetry_multiplicity
 _atom_site_fract_x
 _atom_site_fract_y
 _atom_site_fract_z
 _atom_site_occupancy
  Ag  Ag0  1  0.50712638  0.25224864  0.24336298  1
  Ag  Ag1  1  0.50167544  0.49501124  0.49879939  1
  Ag  Ag2  1  -0.00358353  0.49172237  0.00033754  1
  Ag  Ag3  1  0.50487746  0.00870462  -0.00008067  1
  Ag  Ag4  1  0.50383606  0.75065256  0.75213677  1
  Ag  Ag5  1  0.74770206  0.48877762  0.24495928  1
  Ag  Ag6  1  -0.00359651  0.75266596  0.75142434  1
  Ag  Ag7  1  0.75232319  0.00344473  0.75278255  1
  Ag  Ag8  1  0.25001146  0.25065732  0.00130897  1
  Ag  Ag9  1  -0.00217070  0.00560561  0.50248719  1
  Ag  Ag10  1  -0.00694635  0.24985385  0.24456681  1
  Ag  Ag11  1  0.24891177  0.24994978  0.49911417  1
  Ag  Ag12  1  0.74916456  0.25030517  0.00592812  1
  Ag  Ag13  1  0.74997711  0.01079350  0.24586047  1
  Ag  Ag14  1  0.50409169  0.49121069  0.00254868  1
  Ag  Ag15  1  -0.00284447  0.24777821  0.75438974  1
  Sb  Sb16  1  0.25078952  0.49635170  0.75100518  1
  Sb  Sb17  1  0.24984616  0.75025179  -0.00223718  1
  Sb  Sb18  1  0.24738311  0.00362409  0.75107122  1
  Sb  Sb19  1  0.50384239  0.24878521  0.75594384  1
  Sb  Sb20  1  0.50129639  0.00439711  0.49991031  1
  Sb  Sb21  1  0.75038045  0.24975505  0.49449034  1
  Sb  Sb22  1  0.75002844  0.75007994  0.50267371  1
  Sb  Sb23  1  0.25003841  0.74967695  0.50240522  1
  Sb  Sb24  1  0.74986264  0.49530893  0.75509228  1
  Sb  Sb25  1  -0.00347408  0.75022852  0.24787363  1
  Sb  Sb26  1  0.75015440  0.75027770  -0.00192875  1
  Sb  Sb27  1  0.24933091  0.00600767  0.24820200  1
  Sb  Sb28  1  -0.00136887  0.49517655  0.49956281  1
  Sb  Sb29  1  -0.00617954  0.00925820  -0.00164388  1
  Sb  Sb30  1  0.25259004  0.49452867  0.24850267  1
  Sb  Sb31  1  0.50305895  0.74846050  0.24824947  1
  Te  Te32  1  0.24917731  0.24962565  0.24772787  1
  Te  Te33  1  0.24271573  0.24972366  0.75137354  1
  Te  Te34  1  0.24917379  0.75149060  0.25055454  1
  Te  Te35  1  0.24865966  0.75103769  0.75016392  1
  Te  Te36  1  0.74965610  0.24919152  0.24853565  1
  Te  Te37  1  0.75465478  0.24554945  0.75509516  1
  Te  Te38  1  0.75044924  0.75250937  0.25009961  1
  Te  Te39  1  0.75105441  0.75654000  0.75056912  1
  Te  Te40  1  0.25987586  0.00633119  0.00060150  1
  Te  Te41  1  0.24490524  0.00669752  0.49949516  1
  Te  Te42  1  0.25100827  0.49350277  0.00019617  1
  Te  Te43  1  0.25567775  0.49311159  0.49965389  1
  Te  Te44  1  0.74738627  0.00269696  0.00078451  1
  Te  Te45  1  0.75374918  -0.00009924  0.50074991  1
  Te  Te46  1  0.74888806  0.49689117  0.00222685  1
  Te  Te47  1  0.74463579  0.49998426  0.49297012  1
  Te  Te48  1  -0.00066140  0.25091569  0.00178626  1
  Te  Te49  1  0.00201421  0.24908679  0.49972360  1
  Te  Te50  1  0.00222326  0.74128972  -0.00516316  1
  Te  Te51  1  0.00201240  0.75402122  0.50645417  1
  Te  Te52  1  0.50135487  0.25138495  -0.00057521  1
  Te  Te53  1  0.49650796  0.25270829  0.49765036  1
  Te  Te54  1  0.49861954  0.74775347  -0.00395067  1
  Te  Te55  1  0.49785799  0.74490518  0.50543587  1
  Te  Te56  1  -0.00568516  0.00217896  0.25102955  1
  Te  Te57  1  -0.00319513  0.00160384  0.75028886  1
  Te  Te58  1  -0.00512182  0.49790686  0.24765920  1
  Te  Te59  1  -0.00166757  0.49890711  0.75187852  1
  Te  Te60  1  0.50570113  0.00176477  0.24870266  1
  Te  Te61  1  0.50490132  -0.00195221  0.75128301  1
  Te  Te62  1  0.50360576  0.49824375  0.24599691  1
  Te  Te63  1  0.50173026  0.50294702  0.75190334  1
