# generated using pymatgen
data_AgSbTe2
_symmetry_space_group_name_H-M   'P 1'
_cell_length_a   12.23462528
_cell_length_b   12.24669046
_cell_length_c   12.24662050
_cell_angle_alpha   90.00195928
_cell_angle_beta   90.00487750
_cell_angle_gamma   89.99860718
_symmetry_Int_Tables_number   1
_chemical_formula_structural   AgSbTe2
_chemical_formula_sum   'Ag16 Sb16 Te32'
_cell_volume   1834.95606982
_cell_formula_units_Z   16
loop_
 _symmetry_equiv_pos_site_id
 _symmetry_equiv_pos_as_xyz
  1  'x, y, z'
loop_
 _atom_site_type_symbol
 _atom_site_label
 _atom_site_symmetry_multiplicity
 _atom_site_fract_x
 _atom_site_fract_y
 _atom_site_fract_z
 _atom_site_occupancy
  Ag  Ag0  1  0.48114639  0.24796929  0.75811314  1
  Ag  Ag1  1  0.01257645  0.49250220  -0.00521602  1
  Ag  Ag2  1  0.25013197  0.74450427  -0.00639818  1
  Ag  Ag3  1  0.48730981  0.48927958  -0.00359402  1
  Ag  Ag4  1  0.49275733  0.01055420  -0.00541628  1
  Ag  Ag5  1  0.75093787  0.00551798  0.75072477  1
  Ag  Ag6  1  0.24702570  0.48288045  0.75557374  1
  Ag  Ag7  1  0.49097465  0.25011553  0.24114009  1
  Ag  Ag8  1  0.25437772  0.25554402  -0.01689576  1
  Ag  Ag9  1  0.24731602  0.74947782  0.50628387  1
  Ag  Ag10  1  0.01832921  0.25028862  0.74683785  1
  Ag  Ag11  1  0.00719726  0.00904431  0.50585545  1
  Ag  Ag12  1  0.24939845  0.01801751  0.75048824  1
  Ag  Ag13  1  0.00894068  0.49027666  0.50471195  1
  Ag  Ag14  1  0.24275983  0.25061247  0.51734687  1
  Ag  Ag15  1  0.00876980  0.25121486  0.25253495  1
  Sb  Sb16  1  0.24921728  0.49121023  0.24014531  1
  Sb  Sb17  1  0.49427810  0.74908684  0.24641138  1
  Sb  Sb18  1  0.75251953  0.75230195  -0.00381192  1
  Sb  Sb19  1  0.48486244  0.49373440  0.50554695  1
  Sb  Sb20  1  0.00501740  0.74904666  0.24915267  1
  Sb  Sb21  1  0.76208601  0.24765641  0.50396952  1
  Sb  Sb22  1  0.48953270  0.00611315  0.50794036  1
  Sb  Sb23  1  0.75335932  0.49276324  0.75048843  1
  Sb  Sb24  1  0.49200069  0.75287319  0.75193821  1
  Sb  Sb25  1  0.24957704  0.00766479  0.24910402  1
  Sb  Sb26  1  0.01081393  0.01218622  -0.00913750  1
  Sb  Sb27  1  0.74312167  0.24783834  -0.00405577  1
  Sb  Sb28  1  0.75075347  0.00394371  0.24873317  1
  Sb  Sb29  1  0.00732615  0.74928054  0.75045345  1
  Sb  Sb30  1  0.75049376  0.49626498  0.25007986  1
  Sb  Sb31  1  0.75415401  0.75269444  0.50450074  1
  Te  Te32  1  0.24947152  0.24919703  0.25008154  1
  Te  Te33  1  0.24938402  0.25072227  0.75073303  1
  Te  Te34  1  0.24998437  0.75279968  0.25064564  1
  Te  Te35  1  0.25029173  0.74919636  0.75079830  1
  Te  Te36  1  0.74960983  0.24891384  0.25174000  1
  Te  Te37  1  0.74949994  0.24200532  0.74900174  1
  Te  Te38  1  0.74910780  0.75134632  0.25082145  1
  Te  Te39  1  0.74843273  0.76439240  0.74935520  1
  Te  Te40  1  0.25266451  0.00151087  -0.00538163  1
  Te  Te41  1  0.24613435  0.00178382  0.50595233  1
  Te  Te42  1  0.24940225  0.49740935  -0.00206412  1
  Te  Te43  1  0.24509593  0.49824470  0.50737897  1
  Te  Te44  1  0.73954779  -0.00334172  -0.00855781  1
  Te  Te45  1  0.76053711  -0.00267632  0.50907429  1
  Te  Te46  1  0.75090229  0.50376458  -0.00270979  1
  Te  Te47  1  0.76571307  0.50394119  0.50213010  1
  Te  Te48  1  0.00450544  0.25233181  -0.00064929  1
  Te  Te49  1  0.00380395  0.25088234  0.50139824  1
  Te  Te50  1  0.00961577  0.73880566  0.00208923  1
  Te  Te51  1  0.00997625  0.74911573  0.49879134  1
  Te  Te52  1  0.49882947  0.25091977  -0.00152393  1
  Te  Te53  1  0.49017836  0.25030999  0.49994185  1
  Te  Te54  1  0.48987885  0.74813733  0.00177895  1
  Te  Te55  1  0.48746810  0.74918430  0.49735960  1
  Te  Te56  1  -0.00229449  0.01013163  0.25948384  1
  Te  Te57  1  0.00496413  0.00502056  0.74785901  1
  Te  Te58  1  -0.00061538  0.49040598  0.24994654  1
  Te  Te59  1  0.00151067  0.49521169  0.75120247  1
  Te  Te60  1  0.50239613  0.01022408  0.24024891  1
  Te  Te61  1  0.49488844  0.00506592  0.75365796  1
  Te  Te62  1  0.50210296  0.48981970  0.24002457  1
  Te  Te63  1  0.49794945  0.49276498  0.75584189  1
