# generated using pymatgen
data_AgSbTe2
_symmetry_space_group_name_H-M   'P 1'
_cell_length_a   12.20725436
_cell_length_b   12.21410406
_cell_length_c   12.21030718
_cell_angle_alpha   90.00156976
_cell_angle_beta   89.99487068
_cell_angle_gamma   89.99979268
_symmetry_Int_Tables_number   1
_chemical_formula_structural   AgSbTe2
_chemical_formula_sum   'Ag16 Sb16 Te32'
_cell_volume   1820.56503665
_cell_formula_units_Z   16
loop_
 _symmetry_equiv_pos_site_id
 _symmetry_equiv_pos_as_xyz
  1  'x, y, z'
loop_
 _atom_site_type_symbol
 _atom_site_label
 _atom_site_symmetry_multiplicity
 _atom_site_fract_x
 _atom_site_fract_y
 _atom_site_fract_z
 _atom_site_occupancy
  Ag  Ag0  1  0.50219984  0.50270712  0.49710980  1
  Ag  Ag1  1  0.00175679  0.25266831  0.24886552  1
  Ag  Ag2  1  0.00288872  0.25036257  0.75018299  1
  Ag  Ag3  1  0.49588524  0.75125743  0.74304832  1
  Ag  Ag4  1  0.49860992  0.25051885  0.25445586  1
  Ag  Ag5  1  0.24643983  0.24927297  0.00334475  1
  Ag  Ag6  1  0.75162984  0.49865619  0.25457567  1
  Ag  Ag7  1  0.74795143  0.25216652  0.49548609  1
  Ag  Ag8  1  0.25161644  -0.00179968  0.74816010  1
  Ag  Ag9  1  0.00233348  0.49761491  0.00418363  1
  Ag  Ag10  1  0.00366766  0.74827491  0.25103998  1
  Ag  Ag11  1  0.49591484  -0.00335750  0.49898114  1
  Ag  Ag12  1  0.24913012  0.75154348  0.00251505  1
  Ag  Ag13  1  0.25036099  -0.00051574  0.25200631  1
  Ag  Ag14  1  0.25471113  0.75333657  0.49829498  1
  Ag  Ag15  1  0.74491154  0.74751410  0.49723674  1
  Sb  Sb16  1  0.00529666  0.00004816  0.49896933  1
  Sb  Sb17  1  0.25156675  0.24696056  0.49616934  1
  Sb  Sb18  1  0.74821971  -0.00000728  0.74522787  1
  Sb  Sb19  1  0.49803315  0.50065679  0.00305362  1
  Sb  Sb20  1  0.75151784  0.74676149  0.00334568  1
  Sb  Sb21  1  0.00479633  0.00283423  0.00107806  1
  Sb  Sb22  1  0.24760174  0.50024600  0.25074129  1
  Sb  Sb23  1  0.49470998  -0.00049073  0.00223932  1
  Sb  Sb24  1  0.49600626  0.74959650  0.25803281  1
  Sb  Sb25  1  0.75349241  0.25312191  0.00405142  1
  Sb  Sb26  1  -0.00231881  0.49944989  0.49531077  1
  Sb  Sb27  1  0.74893007  0.00122856  0.25447811  1
  Sb  Sb28  1  0.75027863  0.49986973  0.74426406  1
  Sb  Sb29  1  0.24973867  0.50072224  0.74891574  1
  Sb  Sb30  1  0.49712988  0.24851422  0.74614528  1
  Sb  Sb31  1  0.00428092  0.74979060  0.74989793  1
  Te  Te32  1  0.24764781  0.24767117  0.24934289  1
  Te  Te33  1  0.24692442  0.24540861  0.75286073  1
  Te  Te34  1  0.24803187  0.75256585  0.24954471  1
  Te  Te35  1  0.25065496  0.75413507  0.74950389  1
  Te  Te36  1  0.75195717  0.25089320  0.25318482  1
  Te  Te37  1  0.75472413  0.24941016  0.74495664  1
  Te  Te38  1  0.75420388  0.74807310  0.25435112  1
  Te  Te39  1  0.74653739  0.75064903  0.74352153  1
  Te  Te40  1  0.25100470  -0.00096936  0.00098869  1
  Te  Te41  1  0.25422507  -0.00318215  0.49875134  1
  Te  Te42  1  0.24626758  0.49970054  -0.00055520  1
  Te  Te43  1  0.25643971  0.50730565  0.50040106  1
  Te  Te44  1  0.74833435  -0.00075075  -0.00073357  1
  Te  Te45  1  0.74209287  -0.00029154  0.49986428  1
  Te  Te46  1  0.75550622  0.50045331  0.00866961  1
  Te  Te47  1  0.74735136  0.50007177  0.49534952  1
  Te  Te48  1  0.00339859  0.25288563  0.00390645  1
  Te  Te49  1  -0.00365173  0.25070271  0.49743163  1
  Te  Te50  1  0.00419364  0.74575290  0.00296055  1
  Te  Te51  1  0.00029267  0.74934936  0.49659842  1
  Te  Te52  1  0.49445067  0.25162165  0.00440131  1
  Te  Te53  1  0.50205471  0.25070607  0.49764477  1
  Te  Te54  1  0.49357355  0.74814436  -0.00693594  1
  Te  Te55  1  0.49938487  0.75027069  0.49964532  1
  Te  Te56  1  0.00615344  0.00046907  0.25076192  1
  Te  Te57  1  0.00717021  0.00610822  0.74969752  1
  Te  Te58  1  -0.00250406  0.49808157  0.24793420  1
  Te  Te59  1  -0.00090341  0.49364817  0.75684643  1
  Te  Te60  1  0.49472296  0.00473863  0.25495024  1
  Te  Te61  1  0.49438989  -0.00309331  0.74426767  1
  Te  Te62  1  0.50506757  0.49549714  0.25422912  1
  Te  Te63  1  0.50101495  0.50444960  0.74425077  1
