# generated using pymatgen
data_AgSbTe2
_symmetry_space_group_name_H-M   'P 1'
_cell_length_a   12.22132830
_cell_length_b   12.23128442
_cell_length_c   12.22435877
_cell_angle_alpha   90.00276115
_cell_angle_beta   89.99474565
_cell_angle_gamma   90.00093390
_symmetry_Int_Tables_number   1
_chemical_formula_structural   AgSbTe2
_chemical_formula_sum   'Ag16 Sb16 Te32'
_cell_volume   1827.32821772
_cell_formula_units_Z   16
loop_
 _symmetry_equiv_pos_site_id
 _symmetry_equiv_pos_as_xyz
  1  'x, y, z'
loop_
 _atom_site_type_symbol
 _atom_site_label
 _atom_site_symmetry_multiplicity
 _atom_site_fract_x
 _atom_site_fract_y
 _atom_site_fract_z
 _atom_site_occupancy
  Ag  Ag0  1  -0.00532119  0.24933784  0.74539898  1
  Ag  Ag1  1  0.75078361  0.00142243  0.25727851  1
  Ag  Ag2  1  0.74722120  0.24429823  0.50124274  1
  Ag  Ag3  1  0.75108069  0.49849147  0.25216092  1
  Ag  Ag4  1  -0.00693613  0.00015199  0.50262699  1
  Ag  Ag5  1  0.25252955  0.24611402  0.50156146  1
  Ag  Ag6  1  0.50753732  0.00655776  0.49952323  1
  Ag  Ag7  1  -0.00622090  0.75089949  0.74745496  1
  Ag  Ag8  1  0.50598370  0.24807410  0.25961024  1
  Ag  Ag9  1  0.75586592  0.74947321  -0.00206339  1
  Ag  Ag10  1  0.24645036  0.75387872  0.50225547  1
  Ag  Ag11  1  -0.00639668  -0.00149032  -0.00316607  1
  Ag  Ag12  1  0.75442622  0.49891311  0.74854367  1
  Ag  Ag13  1  0.50609232  0.24927834  0.74051980  1
  Ag  Ag14  1  0.75405817  0.75550084  0.50158093  1
  Ag  Ag15  1  -0.00657982  0.50158979  -0.00424790  1
  Sb  Sb16  1  0.75283084  0.24963499  -0.00177642  1
  Sb  Sb17  1  0.24163397  0.75098445  -0.00327496  1
  Sb  Sb18  1  0.50906809  0.00107832  0.00043560  1
  Sb  Sb19  1  0.24665884  0.24909641  -0.00036971  1
  Sb  Sb20  1  0.75306932  0.00297846  0.74233920  1
  Sb  Sb21  1  -0.00365657  0.75043698  0.25379172  1
  Sb  Sb22  1  0.50450995  0.49184956  0.50014362  1
  Sb  Sb23  1  0.24839022  0.49724931  0.25220119  1
  Sb  Sb24  1  0.24972220  0.00147461  0.25435579  1
  Sb  Sb25  1  0.50772505  0.75017798  0.74505127  1
  Sb  Sb26  1  0.24569352  0.49894741  0.74883450  1
  Sb  Sb27  1  -0.00477485  0.50038712  0.50371295  1
  Sb  Sb28  1  0.50462534  0.75105998  0.25447690  1
  Sb  Sb29  1  -0.00591484  0.24917339  0.25717230  1
  Sb  Sb30  1  0.50758865  0.49933077  -0.00048636  1
  Sb  Sb31  1  0.24745776  0.00084981  0.74641306  1
  Te  Te32  1  0.25817973  0.25136403  0.25666189  1
  Te  Te33  1  0.24869546  0.25101496  0.74384030  1
  Te  Te34  1  0.25237995  0.74850297  0.25849863  1
  Te  Te35  1  0.24354181  0.74844516  0.74428682  1
  Te  Te36  1  0.74835507  0.25042325  0.25194098  1
  Te  Te37  1  0.75230009  0.25265620  0.74827975  1
  Te  Te38  1  0.74958429  0.74882591  0.25338402  1
  Te  Te39  1  0.75285832  0.74580630  0.74744984  1
  Te  Te40  1  0.23935572  -0.00150453  0.00252576  1
  Te  Te41  1  0.24744852  0.00101118  0.49859897  1
  Te  Te42  1  0.24063626  0.50157529  0.00087120  1
  Te  Te43  1  0.24956587  0.50071975  0.49880024  1
  Te  Te44  1  0.75452021  -0.00341616  0.00707831  1
  Te  Te45  1  0.75207021  0.00050352  0.49888082  1
  Te  Te46  1  0.75371306  0.50216280  0.00014785  1
  Te  Te47  1  0.75067492  0.50108395  0.49876281  1
  Te  Te48  1  0.00177636  0.24718814  -0.00784499  1
  Te  Te49  1  -0.00218502  0.24827333  0.50319245  1
  Te  Te50  1  -0.00313342  0.75224128  -0.00440564  1
  Te  Te51  1  -0.00381834  0.75163506  0.50297008  1
  Te  Te52  1  0.49749844  0.24857528  -0.00245358  1
  Te  Te53  1  0.50273349  0.24727390  0.50167249  1
  Te  Te54  1  0.50578340  0.75141132  -0.00139708  1
  Te  Te55  1  0.50129738  0.75866645  0.50177039  1
  Te  Te56  1  -0.00584414  0.00061492  0.25176153  1
  Te  Te57  1  -0.00100114  0.00058313  0.74803361  1
  Te  Te58  1  -0.00679480  0.49945844  0.24177130  1
  Te  Te59  1  -0.00393291  0.49922115  0.75257251  1
  Te  Te60  1  0.50545557  0.00424655  0.25274584  1
  Te  Te61  1  0.49935411  0.00651881  0.74625442  1
  Te  Te62  1  0.50678763  0.49391055  0.24850816  1
  Te  Te63  1  0.50694206  0.49380653  0.75153914  1
