# generated using pymatgen
data_AgSbTe2
_symmetry_space_group_name_H-M   'P 1'
_cell_length_a   12.30223364
_cell_length_b   12.30085424
_cell_length_c   12.30738451
_cell_angle_alpha   89.99753010
_cell_angle_beta   90.00210532
_cell_angle_gamma   90.00097345
_symmetry_Int_Tables_number   1
_chemical_formula_structural   AgSbTe2
_chemical_formula_sum   'Ag16 Sb16 Te32'
_cell_volume   1862.45166961
_cell_formula_units_Z   16
loop_
 _symmetry_equiv_pos_site_id
 _symmetry_equiv_pos_as_xyz
  1  'x, y, z'
loop_
 _atom_site_type_symbol
 _atom_site_label
 _atom_site_symmetry_multiplicity
 _atom_site_fract_x
 _atom_site_fract_y
 _atom_site_fract_z
 _atom_site_occupancy
  Ag  Ag0  1  0.74538263  0.26681966  -0.00986838  1
  Ag  Ag1  1  0.74776453  0.25572519  0.51019693  1
  Ag  Ag2  1  0.74537661  0.50001336  0.76074377  1
  Ag  Ag3  1  0.49782034  -0.00267337  0.51034636  1
  Ag  Ag4  1  0.49222861  0.74371392  0.75907296  1
  Ag  Ag5  1  0.00857582  0.73900660  0.75216626  1
  Ag  Ag6  1  -0.00388601  0.26268813  0.74867336  1
  Ag  Ag7  1  0.73521103  0.73731347  -0.01107125  1
  Ag  Ag8  1  0.26272083  0.73848880  -0.01476851  1
  Ag  Ag9  1  0.50138103  -0.01372319  -0.00883152  1
  Ag  Ag10  1  0.25598272  0.74000881  0.51491328  1
  Ag  Ag11  1  0.25606424  0.50166290  0.24697867  1
  Ag  Ag12  1  0.25331376  0.50965869  0.75272906  1
  Ag  Ag13  1  0.74171758  0.49917909  0.23468836  1
  Ag  Ag14  1  0.50685143  0.51023578  -0.00701406  1
  Ag  Ag15  1  0.25338798  0.25723599  0.50801755  1
  Sb  Sb16  1  0.74620698  0.74581803  0.50831464  1
  Sb  Sb17  1  0.74811912  0.00322364  0.75138125  1
  Sb  Sb18  1  0.49914666  0.74739200  0.24437752  1
  Sb  Sb19  1  0.25297836  0.25916105  -0.00726370  1
  Sb  Sb20  1  0.00171701  0.74694305  0.24886270  1
  Sb  Sb21  1  -0.00108507  0.25364639  0.24870222  1
  Sb  Sb22  1  0.74550142  -0.00127192  0.24738503  1
  Sb  Sb23  1  -0.00453602  0.50115878  -0.00193371  1
  Sb  Sb24  1  0.00063462  0.00026839  0.50496751  1
  Sb  Sb25  1  0.49948493  0.25251614  0.25079009  1
  Sb  Sb26  1  0.25242022  -0.00606232  0.75041442  1
  Sb  Sb27  1  0.49870105  0.50234286  0.50361897  1
  Sb  Sb28  1  0.00115044  -0.00273817  -0.00437815  1
  Sb  Sb29  1  0.00151089  0.50050101  0.50181058  1
  Sb  Sb30  1  0.25452881  -0.00100207  0.25020132  1
  Sb  Sb31  1  0.49880853  0.25482852  0.74986261  1
  Te  Te32  1  0.24855481  0.25840646  0.25820907  1
  Te  Te33  1  0.25099359  0.25682673  0.74755490  1
  Te  Te34  1  0.24895781  0.74410200  0.25216811  1
  Te  Te35  1  0.25018138  0.74982106  0.75077252  1
  Te  Te36  1  0.75067066  0.25658701  0.24984523  1
  Te  Te37  1  0.74689589  0.25131095  0.74961855  1
  Te  Te38  1  0.75205568  0.74266074  0.24649829  1
  Te  Te39  1  0.75067536  0.74669070  0.74934029  1
  Te  Te40  1  0.25667945  -0.00468493  0.00135793  1
  Te  Te41  1  0.25423279  0.00410016  0.49987184  1
  Te  Te42  1  0.25120959  0.50078210  -0.00439270  1
  Te  Te43  1  0.25060211  0.50078146  0.50404167  1
  Te  Te44  1  0.74488673  -0.00441690  0.00122412  1
  Te  Te45  1  0.74433569  0.00649045  0.49819390  1
  Te  Te46  1  0.74990162  0.50071803  -0.00388492  1
  Te  Te47  1  0.74831912  0.49655675  0.50310037  1
  Te  Te48  1  -0.00723367  0.24781668  -0.00711990  1
  Te  Te49  1  -0.00135239  0.25032862  0.50661527  1
  Te  Te50  1  0.00328680  0.75089970  -0.00532317  1
  Te  Te51  1  0.00727153  0.75047705  0.50766455  1
  Te  Te52  1  0.50311348  0.24942993  0.00036039  1
  Te  Te53  1  0.49844002  0.24857843  0.50034226  1
  Te  Te54  1  0.50019032  0.74764644  -0.00028846  1
  Te  Te55  1  0.49715424  0.75175148  0.50541984  1
  Te  Te56  1  -0.00001600  0.00013476  0.25016920  1
  Te  Te57  1  0.00078597  -0.00026653  0.75001366  1
  Te  Te58  1  0.00306931  0.50031806  0.25082033  1
  Te  Te59  1  0.00099771  0.50044894  0.74988133  1
  Te  Te60  1  0.49976183  -0.00057278  0.24889833  1
  Te  Te61  1  0.49963975  -0.00975492  0.75165763  1
  Te  Te62  1  0.50015462  0.50045335  0.24023482  1
  Te  Te63  1  0.50040318  0.50349883  0.75304859  1
