# generated using pymatgen
data_AgSbTe2
_symmetry_space_group_name_H-M   'P 1'
_cell_length_a   12.31142828
_cell_length_b   12.29992451
_cell_length_c   12.30911743
_cell_angle_alpha   89.99979330
_cell_angle_beta   90.00417492
_cell_angle_gamma   89.99342928
_symmetry_Int_Tables_number   1
_chemical_formula_structural   AgSbTe2
_chemical_formula_sum   'Ag16 Sb16 Te32'
_cell_volume   1863.96518500
_cell_formula_units_Z   16
loop_
 _symmetry_equiv_pos_site_id
 _symmetry_equiv_pos_as_xyz
  1  'x, y, z'
loop_
 _atom_site_type_symbol
 _atom_site_label
 _atom_site_symmetry_multiplicity
 _atom_site_fract_x
 _atom_site_fract_y
 _atom_site_fract_z
 _atom_site_occupancy
  Ag  Ag0  1  0.76868035  0.24749307  -0.00038383  1
  Ag  Ag1  1  0.01711953  0.25325866  0.23028928  1
  Ag  Ag2  1  0.48505955  0.25020442  0.23370627  1
  Ag  Ag3  1  0.48028119  0.24697204  0.76906620  1
  Ag  Ag4  1  0.50016098  0.75048500  0.24128827  1
  Ag  Ag5  1  0.00494792  0.01638120  -0.00239539  1
  Ag  Ag6  1  0.23113428  0.25074192  -0.01684660  1
  Ag  Ag7  1  0.24926609  0.25115597  0.52146478  1
  Ag  Ag8  1  0.02182086  0.25009926  0.77162678  1
  Ag  Ag9  1  0.25064154  0.01811930  0.75997290  1
  Ag  Ag10  1  0.74665426  0.74996991  0.49494081  1
  Ag  Ag11  1  0.24729425  0.48434563  0.76143624  1
  Ag  Ag12  1  0.00679784  0.48222242  0.00038662  1
  Ag  Ag13  1  0.74805659  0.75260065  0.00237034  1
  Ag  Ag14  1  0.24995456  0.49030604  0.23915339  1
  Ag  Ag15  1  0.49707300  0.01270792  -0.00028207  1
  Sb  Sb16  1  0.49849535  0.75094332  0.75695402  1
  Sb  Sb17  1  0.25129655  0.01211722  0.24222798  1
  Sb  Sb18  1  0.25134641  0.75066691  0.49724570  1
  Sb  Sb19  1  0.49550835  0.48950578  0.00049840  1
  Sb  Sb20  1  0.49723806  0.49929952  0.49901058  1
  Sb  Sb21  1  0.74945477  0.25008488  0.49912314  1
  Sb  Sb22  1  0.75044773  0.00227041  0.75448172  1
  Sb  Sb23  1  0.00364251  0.49818866  0.50049074  1
  Sb  Sb24  1  0.74988564  0.00047324  0.24633344  1
  Sb  Sb25  1  0.74983987  0.49802488  0.24548139  1
  Sb  Sb26  1  0.00125117  0.74993993  0.75567823  1
  Sb  Sb27  1  0.25261633  0.75003204  0.00129403  1
  Sb  Sb28  1  0.00353059  0.00414677  0.50285704  1
  Sb  Sb29  1  0.49706900  0.00241931  0.50142402  1
  Sb  Sb30  1  0.00238551  0.74848787  0.24324913  1
  Sb  Sb31  1  0.75249670  0.49677361  0.75485281  1
  Te  Te32  1  0.25130875  0.24973246  0.24189117  1
  Te  Te33  1  0.25123370  0.25047523  0.74933917  1
  Te  Te34  1  0.25385338  0.73792970  0.25189206  1
  Te  Te35  1  0.25071785  0.74437055  0.74767882  1
  Te  Te36  1  0.74606950  0.24986499  0.24887065  1
  Te  Te37  1  0.74890315  0.25175856  0.75061494  1
  Te  Te38  1  0.74625920  0.75002774  0.24337640  1
  Te  Te39  1  0.75003049  0.74839644  0.75749010  1
  Te  Te40  1  0.25010442  -0.00326957  -0.00156452  1
  Te  Te41  1  0.24946997  0.00359513  0.51226227  1
  Te  Te42  1  0.24747972  0.50285914  -0.00004274  1
  Te  Te43  1  0.25021685  0.49519996  0.50135240  1
  Te  Te44  1  0.74933583  0.00582414  0.00084867  1
  Te  Te45  1  0.75031698  -0.00753495  0.50023607  1
  Te  Te46  1  0.75936979  0.49632906  0.00006930  1
  Te  Te47  1  0.74954811  0.50729374  0.50086270  1
  Te  Te48  1  -0.00218503  0.24968769  0.00086688  1
  Te  Te49  1  -0.00102671  0.24829914  0.49894502  1
  Te  Te50  1  -0.00728859  0.75483774  0.00101881  1
  Te  Te51  1  -0.00862062  0.75133938  0.49859393  1
  Te  Te52  1  0.49758134  0.25075893  0.00090502  1
  Te  Te53  1  0.50088089  0.24947236  0.49534400  1
  Te  Te54  1  0.50308393  0.75475172  0.00344990  1
  Te  Te55  1  0.50532702  0.75046738  0.49237192  1
  Te  Te56  1  0.00106075  0.00376863  0.24393090  1
  Te  Te57  1  0.00123063  0.00025509  0.75320587  1
  Te  Te58  1  0.00277059  0.49763819  0.24915075  1
  Te  Te59  1  0.00269504  0.49975533  0.75127160  1
  Te  Te60  1  0.49912721  0.00369441  0.24513281  1
  Te  Te61  1  0.49941017  0.00195392  0.75394621  1
  Te  Te62  1  0.49721142  0.49426132  0.24922639  1
  Te  Te63  1  0.49307687  0.49576863  0.75046617  1
