# generated using pymatgen
data_AgSbTe2
_symmetry_space_group_name_H-M   'P 1'
_cell_length_a   12.21621506
_cell_length_b   12.22202580
_cell_length_c   12.21344021
_cell_angle_alpha   90.00182066
_cell_angle_beta   90.00265297
_cell_angle_gamma   90.00103860
_symmetry_Int_Tables_number   1
_chemical_formula_structural   AgSbTe2
_chemical_formula_sum   'Ag16 Sb16 Te32'
_cell_volume   1823.55083823
_cell_formula_units_Z   16
loop_
 _symmetry_equiv_pos_site_id
 _symmetry_equiv_pos_as_xyz
  1  'x, y, z'
loop_
 _atom_site_type_symbol
 _atom_site_label
 _atom_site_symmetry_multiplicity
 _atom_site_fract_x
 _atom_site_fract_y
 _atom_site_fract_z
 _atom_site_occupancy
  Ag  Ag0  1  0.50205381  0.24560625  0.74355789  1
  Ag  Ag1  1  0.49968250  0.24842244  0.25646391  1
  Ag  Ag2  1  0.74869843  0.49914397  0.74747088  1
  Ag  Ag3  1  0.49917648  0.75485810  0.74461911  1
  Ag  Ag4  1  0.00148305  0.75235403  0.25141056  1
  Ag  Ag5  1  0.24881079  -0.00195319  0.74678328  1
  Ag  Ag6  1  0.50149714  0.49606777  0.50571049  1
  Ag  Ag7  1  0.24958629  0.24762040  -0.00370892  1
  Ag  Ag8  1  0.50047355  0.00398803  0.50834126  1
  Ag  Ag9  1  0.00091908  0.75694543  0.74822529  1
  Ag  Ag10  1  0.00040452  -0.00330845  0.50839975  1
  Ag  Ag11  1  0.74447407  0.24687237  0.50525729  1
  Ag  Ag12  1  0.00016899  0.50119971  -0.00446600  1
  Ag  Ag13  1  0.24884404  0.75413723  0.50524110  1
  Ag  Ag14  1  0.75064369  0.00073272  0.74562751  1
  Ag  Ag15  1  0.00169153  -0.00147784  -0.00856633  1
  Sb  Sb16  1  0.25010007  0.50082637  0.74908559  1
  Sb  Sb17  1  0.75014686  0.49797525  0.25313962  1
  Sb  Sb18  1  0.25570914  0.24577231  0.50372372  1
  Sb  Sb19  1  0.75332580  0.75117755  -0.00476231  1
  Sb  Sb20  1  0.00060237  0.24850232  0.25080590  1
  Sb  Sb21  1  0.74989104  0.00201457  0.25512176  1
  Sb  Sb22  1  0.24995351  0.00024945  0.25283700  1
  Sb  Sb23  1  0.49782370  0.75086615  0.25751929  1
  Sb  Sb24  1  0.49789536  0.00198640  -0.00995739  1
  Sb  Sb25  1  -0.00102620  0.24248841  0.74961220  1
  Sb  Sb26  1  0.75082913  0.75357540  0.50474003  1
  Sb  Sb27  1  0.75036983  0.24856328  -0.00536394  1
  Sb  Sb28  1  0.24572566  0.75229793  -0.00548381  1
  Sb  Sb29  1  -0.00169736  0.50292370  0.50481627  1
  Sb  Sb30  1  0.50029348  0.49787454  -0.00597376  1
  Sb  Sb31  1  0.24980057  0.49969661  0.25056410  1
  Te  Te32  1  0.25567490  0.24936680  0.24428807  1
  Te  Te33  1  0.25449005  0.24598172  0.75238018  1
  Te  Te34  1  0.24539795  0.75034991  0.25683975  1
  Te  Te35  1  0.24969538  0.75325624  0.74660697  1
  Te  Te36  1  0.74346125  0.24997980  0.25667290  1
  Te  Te37  1  0.74717943  0.24885286  0.74652693  1
  Te  Te38  1  0.75710352  0.75002027  0.24874517  1
  Te  Te39  1  0.74964507  0.75115384  0.74952200  1
  Te  Te40  1  0.24590433  0.00313704  -0.00528730  1
  Te  Te41  1  0.24923434  -0.00186166  0.50404024  1
  Te  Te42  1  0.24420048  0.49474447  -0.00034862  1
  Te  Te43  1  0.25452363  0.50500172  0.50078287  1
  Te  Te44  1  0.75684846  0.00087468  -0.00810411  1
  Te  Te45  1  0.74960968  0.00307564  0.50453914  1
  Te  Te46  1  0.75569384  0.49910550  -0.00713970  1
  Te  Te47  1  0.74660239  0.49456934  0.50525522  1
  Te  Te48  1  0.00329987  0.24901280  0.00126461  1
  Te  Te49  1  -0.00344440  0.24603152  0.49761889  1
  Te  Te50  1  0.00188917  0.75177385  -0.00297453  1
  Te  Te51  1  0.00177243  0.75213225  0.50410908  1
  Te  Te52  1  0.49639902  0.25018831  -0.00060150  1
  Te  Te53  1  0.49891191  0.24800932  0.50321879  1
  Te  Te54  1  0.49859305  0.74920222  -0.00496166  1
  Te  Te55  1  0.49801784  0.75177078  0.50212124  1
  Te  Te56  1  -0.00041041  -0.00379841  0.25051893  1
  Te  Te57  1  -0.00009089  -0.00017213  0.74844713  1
  Te  Te58  1  -0.00134259  0.50494479  0.24487647  1
  Te  Te59  1  -0.00320251  0.50487061  0.75192681  1
  Te  Te60  1  0.50114446  0.00274780  0.25698699  1
  Te  Te61  1  0.50085302  -0.00113767  0.74831591  1
  Te  Te62  1  0.50119871  0.49793241  0.25574149  1
  Te  Te63  1  0.50279569  0.50088416  0.74728030  1
