# generated using pymatgen
data_AgSbTe2
_symmetry_space_group_name_H-M   'P 1'
_cell_length_a   12.21868781
_cell_length_b   12.22772885
_cell_length_c   12.22190423
_cell_angle_alpha   89.99511140
_cell_angle_beta   90.00389092
_cell_angle_gamma   90.00040367
_symmetry_Int_Tables_number   1
_chemical_formula_structural   AgSbTe2
_chemical_formula_sum   'Ag16 Sb16 Te32'
_cell_volume   1826.03560709
_cell_formula_units_Z   16
loop_
 _symmetry_equiv_pos_site_id
 _symmetry_equiv_pos_as_xyz
  1  'x, y, z'
loop_
 _atom_site_type_symbol
 _atom_site_label
 _atom_site_symmetry_multiplicity
 _atom_site_fract_x
 _atom_site_fract_y
 _atom_site_fract_z
 _atom_site_occupancy
  Ag  Ag0  1  0.24184094  0.25053133  0.00380283  1
  Ag  Ag1  1  0.75402302  0.49740228  0.24821075  1
  Ag  Ag2  1  -0.00511839  -0.00223506  0.49633683  1
  Ag  Ag3  1  -0.00246420  0.00234054  0.00338624  1
  Ag  Ag4  1  0.50425077  0.74769420  0.75171945  1
  Ag  Ag5  1  -0.00677719  0.25048327  0.24289157  1
  Ag  Ag6  1  0.24552391  0.74958429  0.00054382  1
  Ag  Ag7  1  0.75502182  0.50454203  0.75089602  1
  Ag  Ag8  1  -0.00444511  0.49769439  0.00190817  1
  Ag  Ag9  1  -0.00656977  0.50272182  0.49880420  1
  Ag  Ag10  1  0.75441978  0.00217536  0.24872799  1
  Ag  Ag11  1  0.50863926  0.25080458  0.24644739  1
  Ag  Ag12  1  0.75432412  0.74741215  0.49885631  1
  Ag  Ag13  1  0.50573209  0.74917659  0.24827053  1
  Ag  Ag14  1  -0.00407639  0.74669773  0.75170251  1
  Ag  Ag15  1  0.75709916  0.25272011  0.00739454  1
  Sb  Sb16  1  0.75350397  -0.00418357  0.75098528  1
  Sb  Sb17  1  0.50428464  -0.00101733  0.00217689  1
  Sb  Sb18  1  0.24512493  0.25047434  0.49581717  1
  Sb  Sb19  1  0.24762227  -0.00110417  0.75256269  1
  Sb  Sb20  1  0.75416398  0.74781040  0.00030181  1
  Sb  Sb21  1  0.50677672  0.50179977  0.49777087  1
  Sb  Sb22  1  -0.00592654  0.74943339  0.24923129  1
  Sb  Sb23  1  0.24624063  0.74983053  0.49835648  1
  Sb  Sb24  1  0.24483276  0.50188543  0.75303729  1
  Sb  Sb25  1  0.24476364  0.50045018  0.24722196  1
  Sb  Sb26  1  0.50539651  0.50070131  0.00116875  1
  Sb  Sb27  1  0.50445700  0.25299612  0.75306842  1
  Sb  Sb28  1  0.24429376  -0.00033194  0.24756884  1
  Sb  Sb29  1  -0.00304756  0.25339410  0.75734117  1
  Sb  Sb30  1  0.50596779  -0.00233304  0.49615597  1
  Sb  Sb31  1  0.75376123  0.25267811  0.49211841  1
  Te  Te32  1  0.24959149  0.25011056  0.24464493  1
  Te  Te33  1  0.25375881  0.25006775  0.75966786  1
  Te  Te34  1  0.26110699  0.74985126  0.24560064  1
  Te  Te35  1  0.25044135  0.74962920  0.75460412  1
  Te  Te36  1  0.75166927  0.25140940  0.24868664  1
  Te  Te37  1  0.74777038  0.25676121  0.75742509  1
  Te  Te38  1  0.74746083  0.74893594  0.25061860  1
  Te  Te39  1  0.75171230  0.74703635  0.74969340  1
  Te  Te40  1  0.24192165  -0.00041520  0.00049016  1
  Te  Te41  1  0.23862735  0.00028525  0.50040778  1
  Te  Te42  1  0.24161376  0.50054329  0.00016143  1
  Te  Te43  1  0.23805431  0.49969771  0.50088211  1
  Te  Te44  1  0.75487525  0.00378863  0.00344502  1
  Te  Te45  1  0.75576364  -0.00378152  0.49696611  1
  Te  Te46  1  0.75438886  0.49852935  0.00268532  1
  Te  Te47  1  0.75513444  0.50215361  0.49865198  1
  Te  Te48  1  -0.00114134  0.25048690  0.00096849  1
  Te  Te49  1  0.00075398  0.24958999  0.49505454  1
  Te  Te50  1  0.00123959  0.74937834  -0.00087822  1
  Te  Te51  1  -0.00200856  0.74887159  0.50059099  1
  Te  Te52  1  0.49983496  0.24984188  0.00516643  1
  Te  Te53  1  0.49773045  0.24970722  0.49262105  1
  Te  Te54  1  0.49501219  0.75012279  0.00057636  1
  Te  Te55  1  0.50279406  0.75047471  0.49916612  1
  Te  Te56  1  -0.00422127  -0.00000924  0.24776038  1
  Te  Te57  1  -0.00147202  -0.00558217  0.75099725  1
  Te  Te58  1  -0.00400883  0.50004181  0.24773886  1
  Te  Te59  1  -0.00415382  0.50281865  0.75122622  1
  Te  Te60  1  0.50768233  -0.00031963  0.25090818  1
  Te  Te61  1  0.50013820  -0.00825808  0.74882638  1
  Te  Te62  1  0.50703998  0.50038667  0.25040480  1
  Te  Te63  1  0.50724990  0.50561652  0.74945852  1
