# generated using pymatgen
data_AgSbTe2
_symmetry_space_group_name_H-M   'P 1'
_cell_length_a   12.21260397
_cell_length_b   12.22414863
_cell_length_c   12.23115701
_cell_angle_alpha   90.00049776
_cell_angle_beta   90.00153593
_cell_angle_gamma   90.00072579
_symmetry_Int_Tables_number   1
_chemical_formula_structural   AgSbTe2
_chemical_formula_sum   'Ag16 Sb16 Te32'
_cell_volume   1825.97335996
_cell_formula_units_Z   16
loop_
 _symmetry_equiv_pos_site_id
 _symmetry_equiv_pos_as_xyz
  1  'x, y, z'
loop_
 _atom_site_type_symbol
 _atom_site_label
 _atom_site_symmetry_multiplicity
 _atom_site_fract_x
 _atom_site_fract_y
 _atom_site_fract_z
 _atom_site_occupancy
  Ag  Ag0  1  0.24829269  0.74917200  0.00376153  1
  Ag  Ag1  1  0.49426934  0.49418474  0.00261032  1
  Ag  Ag2  1  0.25367495  -0.00189105  0.75324866  1
  Ag  Ag3  1  0.00943032  0.74836494  0.24570164  1
  Ag  Ag4  1  0.25301790  -0.00411680  0.24714733  1
  Ag  Ag5  1  0.49705079  0.24722722  0.75580618  1
  Ag  Ag6  1  0.74556782  0.00161631  0.75472725  1
  Ag  Ag7  1  0.00760458  0.50371271  0.00158466  1
  Ag  Ag8  1  0.25359144  0.50345914  0.24749875  1
  Ag  Ag9  1  0.25566869  0.25134064  0.49828313  1
  Ag  Ag10  1  0.25041434  0.74931373  0.49628495  1
  Ag  Ag11  1  0.00640838  0.75072185  0.75362101  1
  Ag  Ag12  1  0.74220629  0.24906057  -0.00125752  1
  Ag  Ag13  1  0.49440316  0.25250338  0.24500968  1
  Ag  Ag14  1  0.49512968  0.00558594  -0.00267899  1
  Ag  Ag15  1  0.49235824  0.49637042  0.49787714  1
  Sb  Sb16  1  0.25169436  0.50171070  0.75238812  1
  Sb  Sb17  1  0.74613210  0.49946274  0.24741013  1
  Sb  Sb18  1  0.00318698  0.24929011  0.75331346  1
  Sb  Sb19  1  0.49447014  0.75289067  0.75187166  1
  Sb  Sb20  1  0.74839054  0.49935798  0.75259131  1
  Sb  Sb21  1  0.49156158  0.74802075  0.24850213  1
  Sb  Sb22  1  0.49476324  0.00283699  0.50115331  1
  Sb  Sb23  1  0.75112440  0.75102407  -0.00145227  1
  Sb  Sb24  1  0.74451557  0.24998041  0.50112195  1
  Sb  Sb25  1  0.00787257  0.50248502  0.49785233  1
  Sb  Sb26  1  0.00619166  -0.00273731  -0.00024657  1
  Sb  Sb27  1  0.74768871  0.74998815  0.50174891  1
  Sb  Sb28  1  0.25739566  0.25057622  0.00071261  1
  Sb  Sb29  1  0.00444185  -0.00137791  0.50020332  1
  Sb  Sb30  1  0.00658772  0.25118595  0.24632494  1
  Sb  Sb31  1  0.74643754  0.00115810  0.24556798  1
  Te  Te32  1  0.25369541  0.24982848  0.25198491  1
  Te  Te33  1  0.25331279  0.24521701  0.74659650  1
  Te  Te34  1  0.24888858  0.75057523  0.24876101  1
  Te  Te35  1  0.24759876  0.75296847  0.75117266  1
  Te  Te36  1  0.74311373  0.24822253  0.24668117  1
  Te  Te37  1  0.74725542  0.24529200  0.75261112  1
  Te  Te38  1  0.76321996  0.75198741  0.25207273  1
  Te  Te39  1  0.75771294  0.75647043  0.74844377  1
  Te  Te40  1  0.25295195  -0.00151376  -0.00024223  1
  Te  Te41  1  0.25132745  -0.00224043  0.49924585  1
  Te  Te42  1  0.25210969  0.50109382  0.00203985  1
  Te  Te43  1  0.25370603  0.50092329  0.49768859  1
  Te  Te44  1  0.74412093  0.00277334  -0.00378875  1
  Te  Te45  1  0.74916530  -0.00013852  0.50865386  1
  Te  Te46  1  0.74530398  0.49654909  0.00019101  1
  Te  Te47  1  0.73968063  0.49988875  0.50009358  1
  Te  Te48  1  -0.00903754  0.25692719  -0.00015632  1
  Te  Te49  1  0.00721399  0.25161128  0.49983332  1
  Te  Te50  1  0.00277135  0.74723282  -0.00051034  1
  Te  Te51  1  0.00611745  0.74863721  0.50130832  1
  Te  Te52  1  0.50001567  0.25078140  -0.00115516  1
  Te  Te53  1  0.49568984  0.25298841  0.49987269  1
  Te  Te54  1  0.49628052  0.74858378  -0.00016311  1
  Te  Te55  1  0.49419694  0.74293150  0.50016592  1
  Te  Te56  1  0.00625025  -0.00351358  0.24959226  1
  Te  Te57  1  0.00435927  -0.00295679  0.75056402  1
  Te  Te58  1  0.00478433  0.50253295  0.24644121  1
  Te  Te59  1  -0.00037248  0.50498173  0.75524269  1
  Te  Te60  1  0.49531563  0.00260473  0.24627907  1
  Te  Te61  1  0.49572856  0.00246539  0.75246843  1
  Te  Te62  1  0.49614386  0.49872068  0.24621722  1
  Te  Te63  1  0.49983554  0.49509579  0.75350514  1
