# generated using pymatgen
data_AgSbTe2
_symmetry_space_group_name_H-M   'P 1'
_cell_length_a   12.32449305
_cell_length_b   12.31430747
_cell_length_c   12.30550385
_cell_angle_alpha   90.00824642
_cell_angle_beta   89.99966847
_cell_angle_gamma   90.00636336
_symmetry_Int_Tables_number   1
_chemical_formula_structural   AgSbTe2
_chemical_formula_sum   'Ag16 Sb16 Te32'
_cell_volume   1867.57671529
_cell_formula_units_Z   16
loop_
 _symmetry_equiv_pos_site_id
 _symmetry_equiv_pos_as_xyz
  1  'x, y, z'
loop_
 _atom_site_type_symbol
 _atom_site_label
 _atom_site_symmetry_multiplicity
 _atom_site_fract_x
 _atom_site_fract_y
 _atom_site_fract_z
 _atom_site_occupancy
  Ag  Ag0  1  0.23679722  0.24459702  0.49025814  1
  Ag  Ag1  1  0.75682180  0.75507655  0.49214079  1
  Ag  Ag2  1  0.76203803  0.24811791  0.48210586  1
  Ag  Ag3  1  -0.00480746  0.48504555  0.01373704  1
  Ag  Ag4  1  0.52231344  0.24405666  0.24910536  1
  Ag  Ag5  1  0.50429300  0.00932939  0.00936127  1
  Ag  Ag6  1  -0.00661014  0.48321868  0.48467982  1
  Ag  Ag7  1  0.75939495  0.48027994  0.25258244  1
  Ag  Ag8  1  0.24505787  0.75768811  0.00673528  1
  Ag  Ag9  1  0.76218579  0.01579538  0.24971908  1
  Ag  Ag10  1  -0.01413141  0.24120725  0.25763071  1
  Ag  Ag11  1  0.50414798  0.24603812  0.75089223  1
  Ag  Ag12  1  0.75643638  0.24183522  0.01666671  1
  Ag  Ag13  1  0.23655792  0.00957243  0.24691726  1
  Ag  Ag14  1  -0.00290977  0.01169338  0.01466654  1
  Ag  Ag15  1  -0.00635264  0.01616108  0.48265115  1
  Sb  Sb16  1  0.75135031  0.49682971  0.74795332  1
  Sb  Sb17  1  0.24732354  0.24939837  0.00646480  1
  Sb  Sb18  1  0.50144966  0.75628360  0.75305340  1
  Sb  Sb19  1  -0.00009334  0.75699784  0.25043027  1
  Sb  Sb20  1  0.24620952  0.75288162  0.49657889  1
  Sb  Sb21  1  0.23977181  0.49011723  0.25064508  1
  Sb  Sb22  1  0.50250951  0.75616090  0.24859894  1
  Sb  Sb23  1  0.50439242  0.00453094  0.49235309  1
  Sb  Sb24  1  0.24912934  0.00398282  0.75058742  1
  Sb  Sb25  1  0.50337595  0.49235856  0.00494226  1
  Sb  Sb26  1  0.50717138  0.49441818  0.49549638  1
  Sb  Sb27  1  0.75061542  0.75343028  0.00539500  1
  Sb  Sb28  1  0.75081990  0.00240292  0.74853384  1
  Sb  Sb29  1  0.00017929  0.75076498  0.75018395  1
  Sb  Sb30  1  -0.00207182  0.24913609  0.74915363  1
  Sb  Sb31  1  0.24824075  0.49422609  0.75042196  1
  Te  Te32  1  0.24263328  0.24609778  0.25536955  1
  Te  Te33  1  0.25885549  0.25032581  0.73326032  1
  Te  Te34  1  0.25162778  0.76140011  0.24488921  1
  Te  Te35  1  0.25111794  0.74875128  0.75713421  1
  Te  Te36  1  0.75329191  0.24933222  0.24491051  1
  Te  Te37  1  0.74534396  0.24981715  0.75344501  1
  Te  Te38  1  0.74966425  0.75090394  0.25629726  1
  Te  Te39  1  0.74952019  0.74926662  0.73374569  1
  Te  Te40  1  0.24116986  0.00204873  0.00165061  1
  Te  Te41  1  0.24670662  -0.00064865  0.49756801  1
  Te  Te42  1  0.24221284  0.50390526  0.00090486  1
  Te  Te43  1  0.23941912  0.50428329  0.49989465  1
  Te  Te44  1  0.75655359  -0.00110182  0.00015610  1
  Te  Te45  1  0.75058705  0.00746180  0.49973973  1
  Te  Te46  1  0.75435160  0.50455376  0.00176030  1
  Te  Te47  1  0.75250052  0.49003893  0.49912428  1
  Te  Te48  1  -0.00027479  0.24887832  -0.00662173  1
  Te  Te49  1  -0.00151886  0.24712114  0.50287447  1
  Te  Te50  1  0.00136299  0.75370838  -0.00025688  1
  Te  Te51  1  -0.00493432  0.75111732  0.50063197  1
  Te  Te52  1  0.49656511  0.24821438  0.00880401  1
  Te  Te53  1  0.50282488  0.24917883  0.49140841  1
  Te  Te54  1  0.49863960  0.75649964  -0.00124605  1
  Te  Te55  1  0.50359133  0.74854156  0.50260181  1
  Te  Te56  1  -0.00319938  0.00242024  0.25022428  1
  Te  Te57  1  0.00015480  -0.00134594  0.75483226  1
  Te  Te58  1  -0.00229768  0.49535588  0.24891319  1
  Te  Te59  1  0.00082261  0.50128574  0.75583549  1
  Te  Te60  1  0.50391587  0.00243369  0.24691797  1
  Te  Te61  1  0.50016182  0.00428064  0.76404519  1
  Te  Te62  1  0.50833689  0.49127865  0.24999138  1
  Te  Te63  1  0.49868651  0.49096251  0.75055206  1
