# generated using pymatgen
data_AgSbTe2
_symmetry_space_group_name_H-M   'P 1'
_cell_length_a   12.21498577
_cell_length_b   12.21782441
_cell_length_c   12.22153944
_cell_angle_alpha   90.01110554
_cell_angle_beta   90.00331111
_cell_angle_gamma   90.00407594
_symmetry_Int_Tables_number   1
_chemical_formula_structural   AgSbTe2
_chemical_formula_sum   'Ag16 Sb16 Te32'
_cell_volume   1823.94924297
_cell_formula_units_Z   16
loop_
 _symmetry_equiv_pos_site_id
 _symmetry_equiv_pos_as_xyz
  1  'x, y, z'
loop_
 _atom_site_type_symbol
 _atom_site_label
 _atom_site_symmetry_multiplicity
 _atom_site_fract_x
 _atom_site_fract_y
 _atom_site_fract_z
 _atom_site_occupancy
  Ag  Ag0  1  0.25317840  0.74303481  0.00447975  1
  Ag  Ag1  1  0.49114930  0.50046258  0.00047428  1
  Ag  Ag2  1  0.25779795  0.25401107  0.50203065  1
  Ag  Ag3  1  0.49900663  0.00467943  0.49753422  1
  Ag  Ag4  1  0.25615447  0.74639309  0.49479227  1
  Ag  Ag5  1  0.74267523  0.24653184  0.50318760  1
  Ag  Ag6  1  0.49220281  0.49527482  0.50013306  1
  Ag  Ag7  1  0.74427334  0.00080898  0.25495847  1
  Ag  Ag8  1  0.49849761  0.25221860  0.74241491  1
  Ag  Ag9  1  0.25392550  0.49704701  0.74936520  1
  Ag  Ag10  1  0.00917456  0.49935074  -0.00136035  1
  Ag  Ag11  1  0.00168292  0.25198065  0.74805540  1
  Ag  Ag12  1  0.25544286  0.50391100  0.25063967  1
  Ag  Ag13  1  0.74646192  0.00529372  0.74425380  1
  Ag  Ag14  1  0.49276548  0.75018927  0.25271239  1
  Ag  Ag15  1  0.25609603  -0.00396877  0.25438103  1
  Sb  Sb16  1  0.74446989  0.49941680  0.25323973  1
  Sb  Sb17  1  0.74285293  0.75329912  0.49772877  1
  Sb  Sb18  1  0.74788995  0.24991795  -0.00192401  1
  Sb  Sb19  1  0.49702904  0.00068417  0.00226520  1
  Sb  Sb20  1  0.00881177  0.74867629  0.24885851  1
  Sb  Sb21  1  0.00219217  0.25167441  0.25048625  1
  Sb  Sb22  1  0.01039187  0.49704299  0.50159439  1
  Sb  Sb23  1  0.74635641  0.74922575  0.00207447  1
  Sb  Sb24  1  0.49834533  0.24942158  0.25796882  1
  Sb  Sb25  1  0.00308751  0.74743293  0.75152568  1
  Sb  Sb26  1  0.25339237  0.00413907  0.74485447  1
  Sb  Sb27  1  0.49735823  0.74774708  0.74784629  1
  Sb  Sb28  1  0.00356404  0.00083901  -0.00140505  1
  Sb  Sb29  1  0.74712709  0.49520055  0.74729943  1
  Sb  Sb30  1  0.25195470  0.25791318  -0.00217151  1
  Sb  Sb31  1  0.00069024  0.00167848  0.50053693  1
  Te  Te32  1  0.24876791  0.24974675  0.25561661  1
  Te  Te33  1  0.25174996  0.25181272  0.74700618  1
  Te  Te34  1  0.25283413  0.74875920  0.25167177  1
  Te  Te35  1  0.24986858  0.74583114  0.74979409  1
  Te  Te36  1  0.75091010  0.24389563  0.25595812  1
  Te  Te37  1  0.74834092  0.24699976  0.74638056  1
  Te  Te38  1  0.74250738  0.75607166  0.25098231  1
  Te  Te39  1  0.75084612  0.76002615  0.74951413  1
  Te  Te40  1  0.25023001  -0.00778916  0.00680057  1
  Te  Te41  1  0.25326018  0.00067968  0.49809423  1
  Te  Te42  1  0.25285553  0.50060950  0.00039315  1
  Te  Te43  1  0.25247198  0.49848090  0.49992512  1
  Te  Te44  1  0.75026342  -0.00073493  0.00291224  1
  Te  Te45  1  0.74717243  0.00198788  0.49895895  1
  Te  Te46  1  0.74853905  0.50112805  0.00021258  1
  Te  Te47  1  0.74227437  0.49581572  0.49928575  1
  Te  Te48  1  -0.00007746  0.25585822  -0.00691320  1
  Te  Te49  1  -0.00010593  0.25129888  0.50611931  1
  Te  Te50  1  0.00623915  0.74318175  -0.00065719  1
  Te  Te51  1  0.00980898  0.74924831  0.50045775  1
  Te  Te52  1  0.49980837  0.25607067  -0.00955824  1
  Te  Te53  1  0.49824494  0.24979530  0.50156428  1
  Te  Te54  1  0.49554408  0.74507681  0.00341425  1
  Te  Te55  1  0.49533550  0.75022952  0.49765375  1
  Te  Te56  1  -0.00053706  -0.00013952  0.24902673  1
  Te  Te57  1  -0.00530802  0.00657774  0.75124243  1
  Te  Te58  1  0.00469261  0.49980678  0.24413564  1
  Te  Te59  1  0.00258336  0.49620027  0.75287499  1
  Te  Te60  1  0.49773617  -0.00101596  0.25185326  1
  Te  Te61  1  0.50219148  0.00363747  0.74743613  1
  Te  Te62  1  0.49732969  0.50131368  0.25079515  1
  Te  Te63  1  0.49762350  0.49801119  0.74821787  1
