# generated using pymatgen
data_AgSbTe2
_symmetry_space_group_name_H-M   'P 1'
_cell_length_a   12.25773631
_cell_length_b   12.27676452
_cell_length_c   12.24591684
_cell_angle_alpha   89.99842141
_cell_angle_beta   90.01278998
_cell_angle_gamma   89.99813969
_symmetry_Int_Tables_number   1
_chemical_formula_structural   AgSbTe2
_chemical_formula_sum   'Ag16 Sb16 Te32'
_cell_volume   1842.83093916
_cell_formula_units_Z   16
loop_
 _symmetry_equiv_pos_site_id
 _symmetry_equiv_pos_as_xyz
  1  'x, y, z'
loop_
 _atom_site_type_symbol
 _atom_site_label
 _atom_site_symmetry_multiplicity
 _atom_site_fract_x
 _atom_site_fract_y
 _atom_site_fract_z
 _atom_site_occupancy
  Ag  Ag0  1  0.50100843  0.50518714  0.00435477  1
  Ag  Ag1  1  0.49218150  -0.00540188  0.49876448  1
  Ag  Ag2  1  0.00270410  -0.00075633  0.00852825  1
  Ag  Ag3  1  -0.00118437  0.74286503  0.25000209  1
  Ag  Ag4  1  0.49913449  0.74963018  0.74960453  1
  Ag  Ag5  1  0.75764590  0.50369389  0.24684500  1
  Ag  Ag6  1  0.49403900  0.50514891  0.49612505  1
  Ag  Ag7  1  0.24993219  0.74897835  0.49770118  1
  Ag  Ag8  1  0.24627838  0.25107349  0.49516505  1
  Ag  Ag9  1  0.24589456  0.25088155  0.00557601  1
  Ag  Ag10  1  0.00817150  -0.00130970  0.49149242  1
  Ag  Ag11  1  0.49778598  -0.00490586  0.00117016  1
  Ag  Ag12  1  0.00350083  0.25632573  0.24976802  1
  Ag  Ag13  1  -0.00140141  0.50116839  0.01372051  1
  Ag  Ag14  1  0.00564083  0.50130851  0.48674939  1
  Ag  Ag15  1  0.75040984  0.74633169  0.00414055  1
  Sb  Sb16  1  0.75627853  0.25211449  0.49442162  1
  Sb  Sb17  1  0.25153524  0.50276297  0.74887235  1
  Sb  Sb18  1  0.00170308  0.74948104  0.74943963  1
  Sb  Sb19  1  0.74869633  0.50455044  0.75502272  1
  Sb  Sb20  1  0.24947556  0.74941114  0.00525871  1
  Sb  Sb21  1  0.25120499  -0.00278116  0.74886434  1
  Sb  Sb22  1  0.74874825  -0.00498331  0.75110337  1
  Sb  Sb23  1  0.75072094  0.74731537  0.49393898  1
  Sb  Sb24  1  0.00276461  0.25035986  0.75032783  1
  Sb  Sb25  1  0.75427795  0.25414816  0.00537414  1
  Sb  Sb26  1  0.23892666  0.50069216  0.25206272  1
  Sb  Sb27  1  0.24690123  -0.00084187  0.25165214  1
  Sb  Sb28  1  0.50002174  0.74624027  0.25060728  1
  Sb  Sb29  1  0.49350742  0.25359108  0.25055540  1
  Sb  Sb30  1  0.49802516  0.25040188  0.74953936  1
  Sb  Sb31  1  0.75397660  -0.00614850  0.24767886  1
  Te  Te32  1  0.24039367  0.24993524  0.25046366  1
  Te  Te33  1  0.25013995  0.25017613  0.74863528  1
  Te  Te34  1  0.23689497  0.75019887  0.25953754  1
  Te  Te35  1  0.26016932  0.74975516  0.73570351  1
  Te  Te36  1  0.76630477  0.26377639  0.24894188  1
  Te  Te37  1  0.74864409  0.25079526  0.75062259  1
  Te  Te38  1  0.76109565  0.74242579  0.24219416  1
  Te  Te39  1  0.73835321  0.74925569  0.76543528  1
  Te  Te40  1  0.25011305  0.00185646  0.00036172  1
  Te  Te41  1  0.25006469  0.00278745  0.49933831  1
  Te  Te42  1  0.25144767  0.49806094  -0.00034596  1
  Te  Te43  1  0.25119359  0.49721748  0.49923460  1
  Te  Te44  1  0.74874904  -0.00508704  0.00223180  1
  Te  Te45  1  0.74845621  -0.00021420  0.49865985  1
  Te  Te46  1  0.74972331  0.50185970  0.00304677  1
  Te  Te47  1  0.74927294  0.50082736  0.49357345  1
  Te  Te48  1  0.00399374  0.24931086  0.00099679  1
  Te  Te49  1  0.00547236  0.24953969  0.49910583  1
  Te  Te50  1  0.00549692  0.75008309  -0.00186855  1
  Te  Te51  1  -0.00120613  0.75039062  0.50222731  1
  Te  Te52  1  0.49293709  0.24928433  0.00081173  1
  Te  Te53  1  0.48918062  0.24974864  0.49915759  1
  Te  Te54  1  0.49382089  0.74972119  0.00476295  1
  Te  Te55  1  0.50072574  0.75004097  0.49524667  1
  Te  Te56  1  -0.00388233  -0.00030754  0.24982323  1
  Te  Te57  1  -0.00210842  -0.00258120  0.75003312  1
  Te  Te58  1  -0.00149377  0.50154188  0.24984246  1
  Te  Te59  1  -0.00260678  0.50301172  0.74931998  1
  Te  Te60  1  0.50560305  0.00048887  0.24980580  1
  Te  Te61  1  0.50146198  -0.00652221  0.75007891  1
  Te  Te62  1  0.51117249  0.50004426  0.24930701  1
  Te  Te63  1  0.50191039  0.50604504  0.74928782  1
