# generated using pymatgen
data_AgSbTe2
_symmetry_space_group_name_H-M   'P 1'
_cell_length_a   12.29030900
_cell_length_b   12.27217791
_cell_length_c   12.29030889
_cell_angle_alpha   90.00632112
_cell_angle_beta   90.00562801
_cell_angle_gamma   89.99367886
_symmetry_Int_Tables_number   1
_chemical_formula_structural   AgSbTe2
_chemical_formula_sum   'Ag16 Sb16 Te32'
_cell_volume   1853.73323018
_cell_formula_units_Z   16
loop_
 _symmetry_equiv_pos_site_id
 _symmetry_equiv_pos_as_xyz
  1  'x, y, z'
loop_
 _atom_site_type_symbol
 _atom_site_label
 _atom_site_symmetry_multiplicity
 _atom_site_fract_x
 _atom_site_fract_y
 _atom_site_fract_z
 _atom_site_occupancy
  Ag  Ag0  1  0.75751087  0.00000002  0.75751094  1
  Ag  Ag1  1  0.49958665  0.24359616  0.75485588  1
  Ag  Ag2  1  0.75683197  0.75953089  -0.00216704  1
  Ag  Ag3  1  0.75485585  0.75640407  0.49958662  1
  Ag  Ag4  1  0.24937458  0.00000013  0.24937458  1
  Ag  Ag5  1  -0.00362553  0.76153390  0.75541254  1
  Ag  Ag6  1  -0.00290388  -0.00000003  -0.00290399  1
  Ag  Ag7  1  0.75541256  0.23846609  -0.00362553  1
  Ag  Ag8  1  0.24836051  0.75353393  0.48885635  1
  Ag  Ag9  1  0.48923149  0.75274041  0.24857486  1
  Ag  Ag10  1  0.24559866  0.75576231  0.01147577  1
  Ag  Ag11  1  0.48885745  0.24646606  0.24836048  1
  Ag  Ag12  1  0.24857487  0.24725958  0.48923139  1
  Ag  Ag13  1  -0.00216704  0.24046922  0.75683203  1
  Ag  Ag14  1  0.01147549  0.24423713  0.24559870  1
  Ag  Ag15  1  0.25044601  0.49999984  0.25044631  1
  Sb  Sb16  1  0.50164910  0.00124449  0.00165115  1
  Sb  Sb17  1  0.75084779  0.50000001  0.75084774  1
  Sb  Sb18  1  0.49913460  0.50000001  0.49913458  1
  Sb  Sb19  1  0.00697486  0.75688953  0.24476191  1
  Sb  Sb20  1  0.49818957  0.49870399  0.00113038  1
  Sb  Sb21  1  0.24476188  0.24311048  0.00697407  1
  Sb  Sb22  1  0.75196599  0.50086144  0.24876035  1
  Sb  Sb23  1  0.24876031  0.49913868  0.75196596  1
  Sb  Sb24  1  0.24631065  0.00145113  0.75250080  1
  Sb  Sb25  1  0.75034074  0.24340725  0.50044672  1
  Sb  Sb26  1  0.00106040  0.50000000  0.00106045  1
  Sb  Sb27  1  0.00165114  -0.00124450  0.50164914  1
  Sb  Sb28  1  0.00113034  0.50129610  0.49818949  1
  Sb  Sb29  1  0.49781481  0.00000004  0.49781484  1
  Sb  Sb30  1  0.50044667  0.75659260  0.75034081  1
  Sb  Sb31  1  0.75250087  -0.00145124  0.24631059  1
  Te  Te32  1  0.25262747  0.24552162  0.24929398  1
  Te  Te33  1  0.24682529  0.24915083  0.74616727  1
  Te  Te34  1  0.24929324  0.75447843  0.25262818  1
  Te  Te35  1  0.25291312  0.75055133  0.74609175  1
  Te  Te36  1  0.74609171  0.24944866  0.25291313  1
  Te  Te37  1  0.75689403  0.25113762  0.74772391  1
  Te  Te38  1  0.74616718  0.75084917  0.24682528  1
  Te  Te39  1  0.74772392  0.74886238  0.75689403  1
  Te  Te40  1  0.24389566  -0.00563536  0.00187351  1
  Te  Te41  1  0.25007011  -0.00124150  0.49468789  1
  Te  Te42  1  0.25013177  0.51622318  0.00509077  1
  Te  Te43  1  0.25000846  0.50139067  0.49458834  1
  Te  Te44  1  0.75369240  0.00037680  -0.00170462  1
  Te  Te45  1  0.75005260  -0.00793712  0.50848482  1
  Te  Te46  1  0.75002663  0.50472908  0.00202934  1
  Te  Te47  1  0.75047669  0.51954412  0.49852033  1
  Te  Te48  1  -0.00100621  0.24887013  -0.00376873  1
  Te  Te49  1  0.00180590  0.24929320  0.50145633  1
  Te  Te50  1  -0.00376868  0.75112991  -0.00100625  1
  Te  Te51  1  0.00342487  0.75068716  0.50571416  1
  Te  Te52  1  0.50571410  0.24931288  0.00342484  1
  Te  Te53  1  0.49849761  0.24949554  0.49245506  1
  Te  Te54  1  0.50145630  0.75070672  0.00180593  1
  Te  Te55  1  0.49245502  0.75050441  0.49849750  1
  Te  Te56  1  0.00187349  0.00563567  0.24389558  1
  Te  Te57  1  -0.00170458  -0.00037691  0.75369257  1
  Te  Te58  1  0.00509102  0.48377705  0.25013174  1
  Te  Te59  1  0.00202934  0.49527087  0.75002661  1
  Te  Te60  1  0.49468780  0.00124144  0.25007018  1
  Te  Te61  1  0.50848480  0.00793704  0.75005254  1
  Te  Te62  1  0.49458835  0.49860942  0.25000844  1
  Te  Te63  1  0.49852032  0.48045586  0.75047672  1
