# generated using pymatgen
data_AgSbTe2
_symmetry_space_group_name_H-M   'P 1'
_cell_length_a   12.23054983
_cell_length_b   12.25078615
_cell_length_c   12.22873339
_cell_angle_alpha   90.00709868
_cell_angle_beta   90.01008584
_cell_angle_gamma   89.99858509
_symmetry_Int_Tables_number   1
_chemical_formula_structural   AgSbTe2
_chemical_formula_sum   'Ag16 Sb16 Te32'
_cell_volume   1832.27816655
_cell_formula_units_Z   16
loop_
 _symmetry_equiv_pos_site_id
 _symmetry_equiv_pos_as_xyz
  1  'x, y, z'
loop_
 _atom_site_type_symbol
 _atom_site_label
 _atom_site_symmetry_multiplicity
 _atom_site_fract_x
 _atom_site_fract_y
 _atom_site_fract_z
 _atom_site_occupancy
  Ag  Ag0  1  0.25795761  -0.00163526  0.73618917  1
  Ag  Ag1  1  0.25503756  0.50151268  0.74591527  1
  Ag  Ag2  1  0.49862295  0.24498640  0.74749824  1
  Ag  Ag3  1  0.49802502  0.75502746  0.74738469  1
  Ag  Ag4  1  0.74891024  0.25142441  -0.00721574  1
  Ag  Ag5  1  0.74620452  0.50110183  0.75444306  1
  Ag  Ag6  1  0.25218822  0.23485417  0.50454482  1
  Ag  Ag7  1  0.25432137  0.76469824  0.50236205  1
  Ag  Ag8  1  -0.00136448  0.50082150  -0.00323565  1
  Ag  Ag9  1  0.25372173  -0.00387895  0.26531061  1
  Ag  Ag10  1  0.74135592  -0.00110251  0.74913568  1
  Ag  Ag11  1  0.25167878  0.50373205  0.25399147  1
  Ag  Ag12  1  0.01603635  -0.00054177  0.50311040  1
  Ag  Ag13  1  0.74738017  0.74866607  -0.00664536  1
  Ag  Ag14  1  0.49461058  0.75319051  0.25356458  1
  Ag  Ag15  1  0.48610796  -0.00295303  0.50678099  1
  Sb  Sb16  1  0.00632181  0.50050036  0.50120360  1
  Sb  Sb17  1  0.49593803  0.50266039  0.50293289  1
  Sb  Sb18  1  0.74820259  0.50325537  0.24660014  1
  Sb  Sb19  1  0.74596750  0.75217709  0.50507689  1
  Sb  Sb20  1  0.50115118  0.50098233  -0.00357799  1
  Sb  Sb21  1  0.25261322  0.74891520  -0.00179293  1
  Sb  Sb22  1  0.49667448  0.24814099  0.25289301  1
  Sb  Sb23  1  0.50005879  -0.00079619  -0.00670098  1
  Sb  Sb24  1  -0.00039481  -0.00072441  -0.00153614  1
  Sb  Sb25  1  0.00280544  0.75028055  0.74966316  1
  Sb  Sb26  1  0.74775225  0.24712005  0.50585133  1
  Sb  Sb27  1  0.25109010  0.25133362  -0.00406801  1
  Sb  Sb28  1  0.00129469  0.24972514  0.74939157  1
  Sb  Sb29  1  0.74673397  -0.00254685  0.25128410  1
  Sb  Sb30  1  0.00213173  0.24959339  0.25037277  1
  Sb  Sb31  1  0.00524563  0.75069203  0.25047087  1
  Te  Te32  1  0.25165828  0.25066801  0.25294823  1
  Te  Te33  1  0.25373169  0.25121420  0.74823597  1
  Te  Te34  1  0.25451287  0.75003697  0.24798364  1
  Te  Te35  1  0.25312012  0.74905616  0.75078904  1
  Te  Te36  1  0.74896919  0.25153896  0.24183542  1
  Te  Te37  1  0.74647368  0.25020186  0.75119079  1
  Te  Te38  1  0.74140943  0.74924467  0.24613211  1
  Te  Te39  1  0.74622583  0.74994620  0.75063571  1
  Te  Te40  1  0.24795251  0.00121803  -0.00063888  1
  Te  Te41  1  0.25135781  -0.00164531  0.50254693  1
  Te  Te42  1  0.24531197  0.49932700  -0.00228607  1
  Te  Te43  1  0.24864154  0.50093926  0.50307868  1
  Te  Te44  1  0.75142708  -0.00072166  -0.00428132  1
  Te  Te45  1  0.74971900  0.00049729  0.50426074  1
  Te  Te46  1  0.75230898  0.50101700  -0.00333909  1
  Te  Te47  1  0.75294201  0.49896895  0.50719054  1
  Te  Te48  1  -0.00595241  0.25474858  0.00068335  1
  Te  Te49  1  0.00549012  0.24454292  0.49876389  1
  Te  Te50  1  -0.00832315  0.74582059  0.00115094  1
  Te  Te51  1  0.00710712  0.75485849  0.49831322  1
  Te  Te52  1  0.50497199  0.24989510  -0.00650165  1
  Te  Te53  1  0.49615701  0.24489374  0.50427852  1
  Te  Te54  1  0.50437560  0.75033492  -0.00292837  1
  Te  Te55  1  0.49647874  0.75216954  0.50279678  1
  Te  Te56  1  0.00481537  -0.00061700  0.25479140  1
  Te  Te57  1  0.00162458  -0.00009313  0.74713318  1
  Te  Te58  1  0.00521847  0.50032762  0.24612246  1
  Te  Te59  1  0.00074025  0.50003745  0.75325224  1
  Te  Te60  1  0.49642487  -0.00325239  0.25551699  1
  Te  Te61  1  0.49883835  -0.00188145  0.74904673  1
  Te  Te62  1  0.49432423  0.50385899  0.25066435  1
  Te  Te63  1  0.49756577  0.50163554  0.74943495  1
