# generated using pymatgen
data_AgSbTe2
_symmetry_space_group_name_H-M   'P 1'
_cell_length_a   12.21900858
_cell_length_b   12.21797290
_cell_length_c   12.22189322
_cell_angle_alpha   89.99489422
_cell_angle_beta   89.99332906
_cell_angle_gamma   90.00749030
_symmetry_Int_Tables_number   1
_chemical_formula_structural   AgSbTe2
_chemical_formula_sum   'Ag16 Sb16 Te32'
_cell_volume   1824.62492720
_cell_formula_units_Z   16
loop_
 _symmetry_equiv_pos_site_id
 _symmetry_equiv_pos_as_xyz
  1  'x, y, z'
loop_
 _atom_site_type_symbol
 _atom_site_label
 _atom_site_symmetry_multiplicity
 _atom_site_fract_x
 _atom_site_fract_y
 _atom_site_fract_z
 _atom_site_occupancy
  Ag  Ag0  1  0.50282337  -0.00270830  0.49291752  1
  Ag  Ag1  1  0.50040955  0.24821228  0.75517675  1
  Ag  Ag2  1  0.50315413  0.24301013  0.24460781  1
  Ag  Ag3  1  0.50344474  0.75631980  0.25115472  1
  Ag  Ag4  1  0.74534821  0.75469371  0.49428087  1
  Ag  Ag5  1  0.24886714  0.49790561  0.75179575  1
  Ag  Ag6  1  0.50816511  0.00402761  0.00700609  1
  Ag  Ag7  1  -0.00047783  0.49162047  0.00119090  1
  Ag  Ag8  1  0.74824474  0.75779821  0.00540743  1
  Ag  Ag9  1  0.25488156  0.74957785  0.49687366  1
  Ag  Ag10  1  0.25022562  0.49981629  0.24887402  1
  Ag  Ag11  1  0.74439333  -0.00027304  0.24372679  1
  Ag  Ag12  1  -0.00058858  0.25121902  0.76027471  1
  Ag  Ag13  1  0.75320166  0.24371571  0.00373113  1
  Ag  Ag14  1  -0.00821118  0.00803654  0.00341467  1
  Ag  Ag15  1  -0.00253504  0.24872876  0.23968665  1
  Sb  Sb16  1  0.50098964  0.49499919  0.00140478  1
  Sb  Sb17  1  -0.00221970  0.75153935  0.24742891  1
  Sb  Sb18  1  0.74705639  0.24520214  0.49611990  1
  Sb  Sb19  1  0.25523631  -0.00004896  0.25037477  1
  Sb  Sb20  1  0.25054843  0.00253032  0.74969566  1
  Sb  Sb21  1  0.25187405  0.24997204  0.49843688  1
  Sb  Sb22  1  0.75039501  0.49988602  0.24754411  1
  Sb  Sb23  1  0.74970699  0.00098877  0.75727230  1
  Sb  Sb24  1  0.49930007  0.75162485  0.75026690  1
  Sb  Sb25  1  0.49853233  0.50327536  0.49884935  1
  Sb  Sb26  1  0.00166258  0.49945145  0.49837825  1
  Sb  Sb27  1  0.75104609  0.49748958  0.75204841  1
  Sb  Sb28  1  0.24642689  0.25079767  0.00121706  1
  Sb  Sb29  1  0.00122365  0.74928052  0.75323100  1
  Sb  Sb30  1  0.25303646  0.74883064  0.00268531  1
  Sb  Sb31  1  -0.00294798  0.00032032  0.49725109  1
  Te  Te32  1  0.25092773  0.25462130  0.25184352  1
  Te  Te33  1  0.25044671  0.25456037  0.74813626  1
  Te  Te34  1  0.25355592  0.74633410  0.25337581  1
  Te  Te35  1  0.25039034  0.74293996  0.74439430  1
  Te  Te36  1  0.74852032  0.24946610  0.24802840  1
  Te  Te37  1  0.74970384  0.25081971  0.75338536  1
  Te  Te38  1  0.74737297  0.75071980  0.24764417  1
  Te  Te39  1  0.74942566  0.74934670  0.75104297  1
  Te  Te40  1  0.25007371  -0.00282436  -0.00026095  1
  Te  Te41  1  0.25491130  -0.00725006  0.50028617  1
  Te  Te42  1  0.24414033  0.50213792  0.00072138  1
  Te  Te43  1  0.24969324  0.50530177  0.49829001  1
  Te  Te44  1  0.74911627  0.00111951  0.00274708  1
  Te  Te45  1  0.74624200  -0.00460571  0.49305143  1
  Te  Te46  1  0.75593564  0.49897185  0.00013712  1
  Te  Te47  1  0.75043670  0.51114000  0.50039633  1
  Te  Te48  1  -0.00075704  0.24886931  0.00118110  1
  Te  Te49  1  -0.00089872  0.24825009  0.50039410  1
  Te  Te50  1  -0.00555316  0.75199676  -0.00048808  1
  Te  Te51  1  -0.00171471  0.75160631  0.50074201  1
  Te  Te52  1  0.50278983  0.24870662  0.00236572  1
  Te  Te53  1  0.50181326  0.24398948  0.49858785  1
  Te  Te54  1  0.50463230  0.75303000  0.00167802  1
  Te  Te55  1  0.50173684  0.75307135  0.49916235  1
  Te  Te56  1  -0.00334805  0.00410221  0.24618279  1
  Te  Te57  1  0.00087224  0.00686066  0.75512811  1
  Te  Te58  1  0.00380510  0.49562998  0.24713144  1
  Te  Te59  1  0.00373854  0.49519819  0.75337818  1
  Te  Te60  1  0.50029444  0.00084889  0.24786091  1
  Te  Te61  1  0.49944122  0.00582703  0.75185976  1
  Te  Te62  1  0.49489377  0.49893400  0.24935581  1
  Te  Te63  1  0.49414775  0.49244027  0.74993640  1
