# generated using pymatgen
data_AgSbTe2
_symmetry_space_group_name_H-M   'P 1'
_cell_length_a   12.28458804
_cell_length_b   12.31354625
_cell_length_c   12.31639900
_cell_angle_alpha   89.98907257
_cell_angle_beta   89.99076408
_cell_angle_gamma   89.98190553
_symmetry_Int_Tables_number   1
_chemical_formula_structural   AgSbTe2
_chemical_formula_sum   'Ag16 Sb16 Te32'
_cell_volume   1863.06264269
_cell_formula_units_Z   16
loop_
 _symmetry_equiv_pos_site_id
 _symmetry_equiv_pos_as_xyz
  1  'x, y, z'
loop_
 _atom_site_type_symbol
 _atom_site_label
 _atom_site_symmetry_multiplicity
 _atom_site_fract_x
 _atom_site_fract_y
 _atom_site_fract_z
 _atom_site_occupancy
  Ag  Ag0  1  0.74520987  0.48860466  0.24147358  1
  Ag  Ag1  1  -0.01774441  0.49904912  -0.00432138  1
  Ag  Ag2  1  0.50930438  0.49475030  0.50645209  1
  Ag  Ag3  1  0.74494024  0.25965026  -0.00570373  1
  Ag  Ag4  1  0.51337755  0.25635179  0.74935013  1
  Ag  Ag5  1  0.51400369  0.74362340  0.75076797  1
  Ag  Ag6  1  0.51034575  0.25675956  0.25109219  1
  Ag  Ag7  1  0.75220790  0.00942309  0.74833197  1
  Ag  Ag8  1  -0.01564602  0.75063071  0.75122709  1
  Ag  Ag9  1  0.51247499  0.49599664  -0.00208628  1
  Ag  Ag10  1  0.25209088  0.74843369  0.50528972  1
  Ag  Ag11  1  -0.01844208  0.24825323  0.74994202  1
  Ag  Ag12  1  0.75011042  0.01126667  0.25193497  1
  Ag  Ag13  1  -0.00997528  0.00158042  0.50658218  1
  Ag  Ag14  1  0.74406875  0.24959056  0.50957881  1
  Ag  Ag15  1  0.74844616  0.73678458  -0.00795357  1
  Sb  Sb16  1  0.25211332  0.49967028  0.74898218  1
  Sb  Sb17  1  0.25152183  0.00136488  0.25630471  1
  Sb  Sb18  1  0.50593036  0.00182984  0.50182337  1
  Sb  Sb19  1  0.25225368  0.25295671  -0.00121062  1
  Sb  Sb20  1  -0.01069789  0.49832865  0.50192876  1
  Sb  Sb21  1  0.74861414  0.74687151  0.50891221  1
  Sb  Sb22  1  0.50642478  0.74788716  0.24924799  1
  Sb  Sb23  1  -0.00755134  0.00060124  -0.00342151  1
  Sb  Sb24  1  0.25341924  0.50004576  0.25119224  1
  Sb  Sb25  1  -0.00663962  0.75004084  0.24755119  1
  Sb  Sb26  1  0.25171092  0.74514466  -0.00342269  1
  Sb  Sb27  1  0.25209604  0.25140492  0.50091126  1
  Sb  Sb28  1  -0.00927997  0.25010847  0.24728371  1
  Sb  Sb29  1  0.24855778  0.00005448  0.74764251  1
  Sb  Sb30  1  0.74916904  0.49385577  0.75538562  1
  Sb  Sb31  1  0.50484003  0.00311426  -0.00152403  1
  Te  Te32  1  0.26923718  0.24876336  0.24920874  1
  Te  Te33  1  0.25406489  0.24932698  0.75119089  1
  Te  Te34  1  0.24949428  0.75197920  0.25976130  1
  Te  Te35  1  0.25365615  0.75004217  0.74563541  1
  Te  Te36  1  0.74807414  0.24902686  0.24721116  1
  Te  Te37  1  0.75067292  0.25045755  0.74906276  1
  Te  Te38  1  0.75077982  0.75313459  0.23551687  1
  Te  Te39  1  0.74895947  0.75350294  0.75653331  1
  Te  Te40  1  0.24839633  -0.00054264  0.00408247  1
  Te  Te41  1  0.23690263  -0.00361855  0.49966166  1
  Te  Te42  1  0.25131206  0.49879494  0.00111575  1
  Te  Te43  1  0.26178256  0.50269695  0.49871933  1
  Te  Te44  1  0.74855786  0.00383669  -0.00079611  1
  Te  Te45  1  0.75194608  0.00161915  0.50287670  1
  Te  Te46  1  0.74887386  0.49847959  0.00043044  1
  Te  Te47  1  0.74394597  0.49681046  0.48839502  1
  Te  Te48  1  0.00066033  0.25115587  -0.00273358  1
  Te  Te49  1  0.00022961  0.25276978  0.50420240  1
  Te  Te50  1  0.00162549  0.74974997  -0.00340136  1
  Te  Te51  1  -0.00322460  0.74528592  0.50534781  1
  Te  Te52  1  0.50072183  0.25060904  -0.01034674  1
  Te  Te53  1  0.50224904  0.24959095  0.50972684  1
  Te  Te54  1  0.49905486  0.74661340  -0.00286433  1
  Te  Te55  1  0.50236653  0.75034435  0.50340425  1
  Te  Te56  1  -0.00531168  0.00087644  0.25797587  1
  Te  Te57  1  -0.00317866  0.00099346  0.74766512  1
  Te  Te58  1  -0.00366287  0.49881535  0.24209340  1
  Te  Te59  1  0.00040278  0.50080413  0.75458381  1
  Te  Te60  1  0.50656594  0.00512863  0.25002895  1
  Te  Te61  1  0.50444730  -0.00067672  0.75052359  1
  Te  Te62  1  0.50172992  0.49942394  0.24612962  1
  Te  Te63  1  0.50141283  0.50017716  0.74951400  1
