# generated using pymatgen
data_AgSbTe2
_symmetry_space_group_name_H-M   'P 1'
_cell_length_a   12.22162313
_cell_length_b   12.23042378
_cell_length_c   12.22162313
_cell_angle_alpha   90.00522481
_cell_angle_beta   89.98155162
_cell_angle_gamma   90.00522480
_symmetry_Int_Tables_number   1
_chemical_formula_structural   AgSbTe2
_chemical_formula_sum   'Ag16 Sb16 Te32'
_cell_volume   1826.83470980
_cell_formula_units_Z   16
loop_
 _symmetry_equiv_pos_site_id
 _symmetry_equiv_pos_as_xyz
  1  'x, y, z'
loop_
 _atom_site_type_symbol
 _atom_site_label
 _atom_site_symmetry_multiplicity
 _atom_site_fract_x
 _atom_site_fract_y
 _atom_site_fract_z
 _atom_site_occupancy
  Ag  Ag0  1  0.74840122  0.75616728  -0.00159879  1
  Ag  Ag1  1  0.00045259  0.25002492  0.25045261  1
  Ag  Ag2  1  0.51035683  0.00229960  0.00243784  1
  Ag  Ag3  1  0.00031167  0.49486736  0.50129948  1
  Ag  Ag4  1  0.25129949  0.49486732  0.25031164  1
  Ag  Ag5  1  0.75243784  0.00229958  0.76035683  1
  Ag  Ag6  1  0.50284358  0.75027039  0.24387295  1
  Ag  Ag7  1  0.74763419  0.00193125  0.23918511  1
  Ag  Ag8  1  -0.00502048  0.25003931  0.74974191  1
  Ag  Ag9  1  -0.00612705  0.75027038  0.75284359  1
  Ag  Ag10  1  0.75215283  0.49700127  0.75388035  1
  Ag  Ag11  1  0.24723101  0.25365404  0.49723099  1
  Ag  Ag12  1  0.49974192  0.25003932  0.24497952  1
  Ag  Ag13  1  0.50388038  0.49700126  0.00215283  1
  Ag  Ag14  1  0.50499785  0.24988203  0.75499786  1
  Ag  Ag15  1  -0.01081485  0.00193126  -0.00236580  1
  Sb  Sb16  1  0.50078272  0.49657779  0.49909265  1
  Sb  Sb17  1  0.75125101  0.74846397  0.50133911  1
  Sb  Sb18  1  0.75286362  0.25117052  0.50162088  1
  Sb  Sb19  1  -0.00235248  0.75037964  0.24764753  1
  Sb  Sb20  1  0.74808460  0.49782287  0.24469623  1
  Sb  Sb21  1  0.25167636  0.00395643  0.24827607  1
  Sb  Sb22  1  -0.00530376  0.49782286  -0.00191544  1
  Sb  Sb23  1  -0.00172394  0.00395644  0.50167634  1
  Sb  Sb24  1  0.24909264  0.49657779  0.75078275  1
  Sb  Sb25  1  0.25162088  0.25117052  0.00286359  1
  Sb  Sb26  1  0.50581667  0.75025831  0.75581665  1
  Sb  Sb27  1  0.74816043  0.24320845  -0.00183958  1
  Sb  Sb28  1  0.25133911  0.74846394  0.00125101  1
  Sb  Sb29  1  0.24870773  0.00241191  0.75211373  1
  Sb  Sb30  1  0.24804044  0.74669247  0.49804043  1
  Sb  Sb31  1  0.50211375  0.00241191  0.49870771  1
  Te  Te32  1  0.24988625  0.25332052  0.25276840  1
  Te  Te33  1  0.24971296  0.25096442  0.74422887  1
  Te  Te34  1  0.25503316  0.74359625  0.25099213  1
  Te  Te35  1  0.24048576  0.75015585  0.74858542  1
  Te  Te36  1  0.74953307  0.24608690  0.25127229  1
  Te  Te37  1  0.75026508  0.24945656  0.74949975  1
  Te  Te38  1  0.74656708  0.75357629  0.24609306  1
  Te  Te39  1  0.75275226  0.75182567  0.75271039  1
  Te  Te40  1  0.25078632  -0.00108942  0.00026268  1
  Te  Te41  1  0.24996939  0.00770863  0.49996939  1
  Te  Te42  1  0.25912628  0.50129212  0.00669382  1
  Te  Te43  1  0.24507847  0.49615451  0.49507850  1
  Te  Te44  1  0.74951922  -0.00249477  -0.00048078  1
  Te  Te45  1  0.75026268  -0.00108940  0.50078637  1
  Te  Te46  1  0.74518199  0.50851239  -0.00481799  1
  Te  Te47  1  0.75669385  0.50129211  0.50912629  1
  Te  Te48  1  0.00127227  0.24608686  -0.00046693  1
  Te  Te49  1  0.00276836  0.25332050  0.49988625  1
  Te  Te50  1  -0.00390695  0.75357633  -0.00343295  1
  Te  Te51  1  0.00099212  0.74359621  0.50503316  1
  Te  Te52  1  0.49949976  0.24945658  0.00026508  1
  Te  Te53  1  0.49422886  0.25096441  0.49971295  1
  Te  Te54  1  0.50271040  0.75182566  0.00275222  1
  Te  Te55  1  0.49858542  0.75015585  0.49048579  1
  Te  Te56  1  -0.00263307  0.00313664  0.24736691  1
  Te  Te57  1  -0.00282373  0.00432533  0.75203446  1
  Te  Te58  1  -0.00009908  0.49621136  0.24990096  1
  Te  Te59  1  -0.00176054  0.49481777  0.75152908  1
  Te  Te60  1  0.50203440  0.00432532  0.24717631  1
  Te  Te61  1  0.50424457  0.00260939  0.75424454  1
  Te  Te62  1  0.50152906  0.49481776  0.24823945  1
  Te  Te63  1  0.50255554  0.49761300  0.75255557  1
