# generated using pymatgen
data_AgSbTe2
_symmetry_space_group_name_H-M   'P 1'
_cell_length_a   12.22007395
_cell_length_b   12.21683312
_cell_length_c   12.21894899
_cell_angle_alpha   90.00366105
_cell_angle_beta   89.99917626
_cell_angle_gamma   90.00188395
_symmetry_Int_Tables_number   1
_chemical_formula_structural   AgSbTe2
_chemical_formula_sum   'Ag16 Sb16 Te32'
_cell_volume   1824.17427218
_cell_formula_units_Z   16
loop_
 _symmetry_equiv_pos_site_id
 _symmetry_equiv_pos_as_xyz
  1  'x, y, z'
loop_
 _atom_site_type_symbol
 _atom_site_label
 _atom_site_symmetry_multiplicity
 _atom_site_fract_x
 _atom_site_fract_y
 _atom_site_fract_z
 _atom_site_occupancy
  Ag  Ag0  1  0.24697950  0.48990210  0.25158649  1
  Ag  Ag1  1  0.00034819  0.49265243  0.49496006  1
  Ag  Ag2  1  0.24864981  0.25286292  0.00543473  1
  Ag  Ag3  1  0.24506015  0.01046464  0.25328823  1
  Ag  Ag4  1  0.75208019  0.49761711  0.25371608  1
  Ag  Ag5  1  0.49944627  0.00557514  0.49834770  1
  Ag  Ag6  1  0.00609123  0.24996492  0.25579683  1
  Ag  Ag7  1  0.00119134  0.00813319  0.49461925  1
  Ag  Ag8  1  0.75057667  0.74777680  0.00371527  1
  Ag  Ag9  1  0.49592510  0.25230487  0.74692031  1
  Ag  Ag10  1  0.75173256  0.74834937  0.49687100  1
  Ag  Ag11  1  0.75450252  0.25135246  0.49656723  1
  Ag  Ag12  1  0.00218278  0.00390992  0.00577907  1
  Ag  Ag13  1  0.25101240  0.49295753  0.74887145  1
  Ag  Ag14  1  0.49771919  0.49698175  0.00114559  1
  Ag  Ag15  1  0.24567010  0.25095833  0.49416525  1
  Sb  Sb16  1  0.49968848  0.49497191  0.49915768  1
  Sb  Sb17  1  0.75075917  0.25152715  0.00441125  1
  Sb  Sb18  1  0.50068160  0.74775387  0.74824236  1
  Sb  Sb19  1  -0.00154014  0.75019677  0.25055500  1
  Sb  Sb20  1  0.75480831  0.00419776  0.25363199  1
  Sb  Sb21  1  0.50215443  0.74943533  0.25139537  1
  Sb  Sb22  1  0.24920398  0.74831849  0.00196359  1
  Sb  Sb23  1  0.75008490  0.49761259  0.74726334  1
  Sb  Sb24  1  0.49302804  0.25041047  0.25312927  1
  Sb  Sb25  1  0.74983039  0.00264557  0.74737932  1
  Sb  Sb26  1  -0.00049497  0.74894097  0.74937723  1
  Sb  Sb27  1  0.00344825  0.25165955  0.74334937  1
  Sb  Sb28  1  0.25044536  0.00652135  0.74697440  1
  Sb  Sb29  1  0.49860214  0.00301466  0.00205051  1
  Sb  Sb30  1  0.24869059  0.74978738  0.49839628  1
  Sb  Sb31  1  0.00136044  0.49613010  0.00572466  1
  Te  Te32  1  0.24862236  0.25150561  0.25167401  1
  Te  Te33  1  0.25290509  0.25407435  0.74938625  1
  Te  Te34  1  0.25032167  0.74738129  0.24974535  1
  Te  Te35  1  0.25047085  0.73840210  0.75071095  1
  Te  Te36  1  0.75567147  0.25448212  0.25441992  1
  Te  Te37  1  0.74269328  0.25069712  0.74297170  1
  Te  Te38  1  0.75004491  0.74297211  0.25165573  1
  Te  Te39  1  0.74962893  0.74932068  0.74864788  1
  Te  Te40  1  0.24784059  0.00227607  0.00263751  1
  Te  Te41  1  0.24695862  0.00046132  0.49785010  1
  Te  Te42  1  0.25049086  0.49764748  0.00374002  1
  Te  Te43  1  0.24952576  0.49917335  0.49571153  1
  Te  Te44  1  0.75279723  -0.00398057  0.00159594  1
  Te  Te45  1  0.75237767  0.00148238  0.49765683  1
  Te  Te46  1  0.74931435  0.50194342  0.00273774  1
  Te  Te47  1  0.75022067  0.49872452  0.49744007  1
  Te  Te48  1  0.00267107  0.24635889  0.00372728  1
  Te  Te49  1  0.00158768  0.24945951  0.49909751  1
  Te  Te50  1  -0.00586528  0.75690131  -0.00066365  1
  Te  Te51  1  -0.00614607  0.75118618  0.50060038  1
  Te  Te52  1  0.49768311  0.25175135  -0.00441301  1
  Te  Te53  1  0.49858435  0.24739836  0.50224876  1
  Te  Te54  1  0.50611023  0.74671636  -0.00119616  1
  Te  Te55  1  0.50758503  0.75811136  0.50132036  1
  Te  Te56  1  0.00327330  0.00361302  0.25284006  1
  Te  Te57  1  0.00094465  -0.00000543  0.74843211  1
  Te  Te58  1  0.00148909  0.49642759  0.25306955  1
  Te  Te59  1  0.00580288  0.49942582  0.74272249  1
  Te  Te60  1  0.49236277  -0.00027257  0.25507177  1
  Te  Te61  1  0.49897288  0.00573591  0.74460180  1
  Te  Te62  1  0.49945152  0.49950481  0.24555446  1
  Te  Te63  1  0.49568953  0.49623679  0.75361859  1
