# generated using pymatgen
data_AgSbTe2
_symmetry_space_group_name_H-M   'P 1'
_cell_length_a   12.22881915
_cell_length_b   12.22124916
_cell_length_c   12.23921959
_cell_angle_alpha   89.99470418
_cell_angle_beta   89.99852353
_cell_angle_gamma   90.01315846
_symmetry_Int_Tables_number   1
_chemical_formula_structural   AgSbTe2
_chemical_formula_sum   'Ag16 Sb16 Te32'
_cell_volume   1829.16900616
_cell_formula_units_Z   16
loop_
 _symmetry_equiv_pos_site_id
 _symmetry_equiv_pos_as_xyz
  1  'x, y, z'
loop_
 _atom_site_type_symbol
 _atom_site_label
 _atom_site_symmetry_multiplicity
 _atom_site_fract_x
 _atom_site_fract_y
 _atom_site_fract_z
 _atom_site_occupancy
  Ag  Ag0  1  0.00476292  0.23561482  0.74792504  1
  Ag  Ag1  1  0.49933113  0.49193698  0.49982725  1
  Ag  Ag2  1  0.25460748  0.24506136  0.50508398  1
  Ag  Ag3  1  0.00245207  0.00149001  -0.01553644  1
  Ag  Ag4  1  0.25346665  0.24473556  -0.00504440  1
  Ag  Ag5  1  0.49938467  0.49581768  0.00054323  1
  Ag  Ag6  1  0.74886225  0.75361105  -0.00275555  1
  Ag  Ag7  1  -0.00077349  0.76620850  0.75105218  1
  Ag  Ag8  1  0.49492856  0.24679153  0.74576990  1
  Ag  Ag9  1  0.76479398  0.00348181  0.75002323  1
  Ag  Ag10  1  0.49915798  0.75098661  0.24880765  1
  Ag  Ag11  1  0.25124882  0.00499065  0.24998670  1
  Ag  Ag12  1  0.23564982  0.00729123  0.75007413  1
  Ag  Ag13  1  0.74519787  0.24660476  0.50491930  1
  Ag  Ag14  1  0.00245105  0.00449760  0.51551088  1
  Ag  Ag15  1  0.49589572  0.24981130  0.25342875  1
  Sb  Sb16  1  0.00342432  0.24552096  0.25093948  1
  Sb  Sb17  1  0.49927488  0.75277325  0.74980213  1
  Sb  Sb18  1  0.00117334  0.49532248  0.50321554  1
  Sb  Sb19  1  0.25470506  0.49502412  0.25017788  1
  Sb  Sb20  1  0.25056445  0.75408176  -0.00112927  1
  Sb  Sb21  1  0.49732026  0.00786978  0.50127064  1
  Sb  Sb22  1  0.49734233  0.00292814  -0.00118553  1
  Sb  Sb23  1  0.25158177  0.49101586  0.74995600  1
  Sb  Sb24  1  0.00100906  0.49862060  -0.00319263  1
  Sb  Sb25  1  0.25106012  0.75495163  0.50100956  1
  Sb  Sb26  1  0.00079014  0.75661971  0.24932632  1
  Sb  Sb27  1  0.74787003  0.24764434  -0.00343363  1
  Sb  Sb28  1  0.74629243  0.49819556  0.25002989  1
  Sb  Sb29  1  0.74820383  0.49614274  0.74964480  1
  Sb  Sb30  1  0.74834438  0.75347877  0.50132490  1
  Sb  Sb31  1  0.74837488  0.00196187  0.25020495  1
  Te  Te32  1  0.25370758  0.24590434  0.24960113  1
  Te  Te33  1  0.25114948  0.24754817  0.75020709  1
  Te  Te34  1  0.25543098  0.75761655  0.25027702  1
  Te  Te35  1  0.24669955  0.75939907  0.74983128  1
  Te  Te36  1  0.74225310  0.24946517  0.25561998  1
  Te  Te37  1  0.74960813  0.24651806  0.74784012  1
  Te  Te38  1  0.74424076  0.75079898  0.24596880  1
  Te  Te39  1  0.75117437  0.75556956  0.75283805  1
  Te  Te40  1  0.24805206  0.00429416  -0.00122850  1
  Te  Te41  1  0.24840031  0.00392585  0.50122190  1
  Te  Te42  1  0.25489983  0.49242271  0.00007391  1
  Te  Te43  1  0.25389090  0.49235102  0.50004517  1
  Te  Te44  1  0.75401875  -0.00267085  -0.00221798  1
  Te  Te45  1  0.75418105  0.00397100  0.50268511  1
  Te  Te46  1  0.74531838  0.50573432  0.00008338  1
  Te  Te47  1  0.74614070  0.49376328  0.49993678  1
  Te  Te48  1  0.00097868  0.24813534  -0.00170581  1
  Te  Te49  1  0.00116194  0.24809306  0.50136901  1
  Te  Te50  1  -0.00219094  0.75068810  -0.00291008  1
  Te  Te51  1  -0.00072248  0.75246302  0.50388103  1
  Te  Te52  1  0.49971765  0.25197425  -0.00029787  1
  Te  Te53  1  0.49867397  0.25037090  0.50140415  1
  Te  Te54  1  0.50193039  0.74631415  0.00154689  1
  Te  Te55  1  0.50080711  0.74032007  0.49652352  1
  Te  Te56  1  0.00587675  -0.00012792  0.24946056  1
  Te  Te57  1  0.00018562  0.00180982  0.75040274  1
  Te  Te58  1  0.00075298  0.50159709  0.25028894  1
  Te  Te59  1  0.00044021  0.50123150  0.75007424  1
  Te  Te60  1  0.49585124  0.00082911  0.25009065  1
  Te  Te61  1  0.50017590  0.00434929  0.74994389  1
  Te  Te62  1  0.49851949  0.49781313  0.24920025  1
  Te  Te63  1  0.49992679  0.49644468  0.75036775  1
