# generated using pymatgen
data_AgSbTe2
_symmetry_space_group_name_H-M   'P 1'
_cell_length_a   12.20986617
_cell_length_b   12.20783395
_cell_length_c   12.20867378
_cell_angle_alpha   90.00299218
_cell_angle_beta   89.99836035
_cell_angle_gamma   89.99800932
_symmetry_Int_Tables_number   1
_chemical_formula_structural   AgSbTe2
_chemical_formula_sum   'Ag16 Sb16 Te32'
_cell_volume   1819.77630267
_cell_formula_units_Z   16
loop_
 _symmetry_equiv_pos_site_id
 _symmetry_equiv_pos_as_xyz
  1  'x, y, z'
loop_
 _atom_site_type_symbol
 _atom_site_label
 _atom_site_symmetry_multiplicity
 _atom_site_fract_x
 _atom_site_fract_y
 _atom_site_fract_z
 _atom_site_occupancy
  Ag  Ag0  1  0.75443178  -0.00277851  0.25159996  1
  Ag  Ag1  1  -0.00002426  -0.00350070  0.49739234  1
  Ag  Ag2  1  0.24733065  -0.00014115  0.74853316  1
  Ag  Ag3  1  0.75130407  0.50013324  0.75424115  1
  Ag  Ag4  1  -0.00001047  0.24783658  0.75374479  1
  Ag  Ag5  1  0.24794889  0.50257203  0.24600921  1
  Ag  Ag6  1  0.75219240  0.74817732  0.00297869  1
  Ag  Ag7  1  0.75345305  0.75388089  0.49656652  1
  Ag  Ag8  1  0.24771321  0.74823399  0.00378100  1
  Ag  Ag9  1  -0.00008321  0.75233020  0.25102764  1
  Ag  Ag10  1  0.49973053  -0.00295719  0.49917181  1
  Ag  Ag11  1  0.75418349  0.25189931  0.00059640  1
  Ag  Ag12  1  0.00004456  0.24750164  0.24661921  1
  Ag  Ag13  1  0.50034102  0.50094052  0.00053790  1
  Ag  Ag14  1  0.24656089  0.75387047  0.49711158  1
  Ag  Ag15  1  0.24573695  0.25135622  0.00102300  1
  Sb  Sb16  1  0.50027657  0.75074463  0.74994588  1
  Sb  Sb17  1  0.75315569  0.00041110  0.74898653  1
  Sb  Sb18  1  0.49953655  0.75066711  0.24990774  1
  Sb  Sb19  1  -0.00008511  0.50472793  0.49938039  1
  Sb  Sb20  1  0.24847690  0.49985235  0.75438544  1
  Sb  Sb21  1  0.24489525  -0.00272895  0.25145218  1
  Sb  Sb22  1  0.50047496  0.24915707  0.75208172  1
  Sb  Sb23  1  0.49939261  -0.00153747  0.00089566  1
  Sb  Sb24  1  0.50016368  0.50282668  0.49942078  1
  Sb  Sb25  1  0.75340530  0.24692514  0.49821628  1
  Sb  Sb26  1  0.75210101  0.50257912  0.24575592  1
  Sb  Sb27  1  -0.00033961  0.49893117  -0.00000285  1
  Sb  Sb28  1  0.00000064  0.00147881  0.00314588  1
  Sb  Sb29  1  0.24655135  0.24634352  0.49869529  1
  Sb  Sb30  1  0.00010340  0.75337490  0.74911398  1
  Sb  Sb31  1  0.49947609  0.24898063  0.24783406  1
  Te  Te32  1  0.24443924  0.25131630  0.24568345  1
  Te  Te33  1  0.24474793  0.24863583  0.75444407  1
  Te  Te34  1  0.24576650  0.75033109  0.24781605  1
  Te  Te35  1  0.24794543  0.75210552  0.75140230  1
  Te  Te36  1  0.75592921  0.24924146  0.24625824  1
  Te  Te37  1  0.75484505  0.25125381  0.75489593  1
  Te  Te38  1  0.75445051  0.75013546  0.24859338  1
  Te  Te39  1  0.75203961  0.74799621  0.75288746  1
  Te  Te40  1  0.25230536  -0.00124267  -0.00309131  1
  Te  Te41  1  0.24826534  -0.00399255  0.50120033  1
  Te  Te42  1  0.25325081  0.50174058  0.00054577  1
  Te  Te43  1  0.25264395  0.50760773  0.49674450  1
  Te  Te44  1  0.74771907  -0.00174146  0.00198260  1
  Te  Te45  1  0.75201850  -0.00406952  0.49867818  1
  Te  Te46  1  0.74676591  0.50136518  -0.00099280  1
  Te  Te47  1  0.74723298  0.50701464  0.50430291  1
  Te  Te48  1  0.00001600  0.24898322  0.00167413  1
  Te  Te49  1  -0.00001076  0.24394989  0.49776433  1
  Te  Te50  1  0.00010521  0.75095782  0.00405078  1
  Te  Te51  1  -0.00000534  0.75380466  0.49780118  1
  Te  Te52  1  0.50004496  0.25359742  0.00030818  1
  Te  Te53  1  0.49997096  0.24282983  0.49991447  1
  Te  Te54  1  0.49999543  0.74648401  -0.00001970  1
  Te  Te55  1  0.50003657  0.75484574  0.50009426  1
  Te  Te56  1  -0.00327934  -0.00047800  0.25396492  1
  Te  Te57  1  0.00404064  0.00439506  0.74329831  1
  Te  Te58  1  0.00493247  0.49959445  0.25130035  1
  Te  Te59  1  -0.00491866  0.49128942  0.74846722  1
  Te  Te60  1  0.50858360  0.00116463  0.25579935  1
  Te  Te61  1  0.49278668  0.00095944  0.74358933  1
  Te  Te62  1  0.49291289  0.49899395  0.24514405  1
  Te  Te63  1  0.50598442  0.49884226  0.75534854  1
