# generated using pymatgen
data_AgSbTe2
_symmetry_space_group_name_H-M   'P 1'
_cell_length_a   12.23059687
_cell_length_b   12.21569821
_cell_length_c   12.22033097
_cell_angle_alpha   89.99195219
_cell_angle_beta   90.00100971
_cell_angle_gamma   89.99371568
_symmetry_Int_Tables_number   1
_chemical_formula_structural   AgSbTe2
_chemical_formula_sum   'Ag16 Sb16 Te32'
_cell_volume   1825.78194384
_cell_formula_units_Z   16
loop_
 _symmetry_equiv_pos_site_id
 _symmetry_equiv_pos_as_xyz
  1  'x, y, z'
loop_
 _atom_site_type_symbol
 _atom_site_label
 _atom_site_symmetry_multiplicity
 _atom_site_fract_x
 _atom_site_fract_y
 _atom_site_fract_z
 _atom_site_occupancy
  Ag  Ag0  1  0.74328444  0.24487700  0.49739098  1
  Ag  Ag1  1  0.49665997  0.49497770  0.49431862  1
  Ag  Ag2  1  0.25217511  0.50298590  0.25513530  1
  Ag  Ag3  1  0.74997188  -0.00031860  0.74743858  1
  Ag  Ag4  1  0.00241378  -0.00546066  -0.00005388  1
  Ag  Ag5  1  0.24949835  -0.00238555  0.75056855  1
  Ag  Ag6  1  0.00306834  0.50092147  0.49703124  1
  Ag  Ag7  1  0.49844526  -0.00180163  0.00583718  1
  Ag  Ag8  1  0.24830389  0.75561305  0.00368691  1
  Ag  Ag9  1  0.74359798  -0.00026037  0.25265780  1
  Ag  Ag10  1  0.00370779  0.75306970  0.24920964  1
  Ag  Ag11  1  0.50130506  0.00449592  0.49320444  1
  Ag  Ag12  1  0.00273332  0.75552578  0.75040153  1
  Ag  Ag13  1  0.49909922  0.24342740  0.25774160  1
  Ag  Ag14  1  0.25616752  0.24983558  0.49683005  1
  Ag  Ag15  1  0.49743675  0.75643838  0.25137922  1
  Sb  Sb16  1  0.75066033  0.75452440  0.00105574  1
  Sb  Sb17  1  0.00407229  0.50585809  0.00277471  1
  Sb  Sb18  1  0.74728254  0.24380374  0.00269903  1
  Sb  Sb19  1  0.74888051  0.50006723  0.25400772  1
  Sb  Sb20  1  0.25538376  -0.00249127  0.25039050  1
  Sb  Sb21  1  0.75158157  0.50042870  0.74372653  1
  Sb  Sb22  1  0.25060287  0.75061063  0.49691314  1
  Sb  Sb23  1  0.49776996  0.75503507  0.74982085  1
  Sb  Sb24  1  0.25278514  0.24454134  0.00224693  1
  Sb  Sb25  1  0.49996853  0.24558878  0.74136378  1
  Sb  Sb26  1  0.74928516  0.75546746  0.49923604  1
  Sb  Sb27  1  0.49598201  0.50209742  0.00624988  1
  Sb  Sb28  1  0.24868256  0.50179797  0.74483955  1
  Sb  Sb29  1  -0.00017777  -0.00116865  0.49971183  1
  Sb  Sb30  1  0.00143082  0.24705833  0.25284251  1
  Sb  Sb31  1  0.00016353  0.24491168  0.74766252  1
  Te  Te32  1  0.25242239  0.25494618  0.25403910  1
  Te  Te33  1  0.24973996  0.24529835  0.74547223  1
  Te  Te34  1  0.24928299  0.74772386  0.24772413  1
  Te  Te35  1  0.24642737  0.75396345  0.75424117  1
  Te  Te36  1  0.74674782  0.24487460  0.25442358  1
  Te  Te37  1  0.75017432  0.24278895  0.74371663  1
  Te  Te38  1  0.74959080  0.75541051  0.25040698  1
  Te  Te39  1  0.75627973  0.75728032  0.74984050  1
  Te  Te40  1  0.25043415  -0.00274668  -0.00264514  1
  Te  Te41  1  0.25221622  0.00282236  0.50372907  1
  Te  Te42  1  0.25025380  0.50540958  0.00529555  1
  Te  Te43  1  0.25157850  0.49820860  0.49719038  1
  Te  Te44  1  0.74807795  0.00083316  0.00018291  1
  Te  Te45  1  0.74885310  0.00361374  0.49888375  1
  Te  Te46  1  0.74994203  0.49736012  -0.00202392  1
  Te  Te47  1  0.74879041  0.49238289  0.50083590  1
  Te  Te48  1  0.00004993  0.24183231  -0.00041070  1
  Te  Te49  1  0.00226336  0.25595769  0.49934268  1
  Te  Te50  1  0.00289120  0.75436357  0.00278824  1
  Te  Te51  1  -0.00055079  0.74550376  0.49730278  1
  Te  Te52  1  0.49915516  0.24493655  0.00902819  1
  Te  Te53  1  0.49870195  0.24741566  0.49718460  1
  Te  Te54  1  0.49620307  0.75410693  0.00469579  1
  Te  Te55  1  0.50011062  0.75186282  0.49467903  1
  Te  Te56  1  -0.00311353  -0.00450255  0.24833635  1
  Te  Te57  1  0.00024292  -0.00401461  0.75012395  1
  Te  Te58  1  0.00158197  0.50443980  0.25318609  1
  Te  Te59  1  -0.00030645  0.50765546  0.74606776  1
  Te  Te60  1  0.49951282  -0.00166343  0.25160777  1
  Te  Te61  1  0.50073657  -0.00156239  0.75047811  1
  Te  Te62  1  0.49869903  0.50213605  0.25369093  1
  Te  Te63  1  0.50078819  0.50129039  0.74226658  1
