# generated using pymatgen
data_AgSbTe2
_symmetry_space_group_name_H-M   'P 1'
_cell_length_a   12.21704188
_cell_length_b   12.21783090
_cell_length_c   12.21305392
_cell_angle_alpha   90.00137000
_cell_angle_beta   90.00328192
_cell_angle_gamma   90.00285976
_symmetry_Int_Tables_number   1
_chemical_formula_structural   AgSbTe2
_chemical_formula_sum   'Ag16 Sb16 Te32'
_cell_volume   1822.99066910
_cell_formula_units_Z   16
loop_
 _symmetry_equiv_pos_site_id
 _symmetry_equiv_pos_as_xyz
  1  'x, y, z'
loop_
 _atom_site_type_symbol
 _atom_site_label
 _atom_site_symmetry_multiplicity
 _atom_site_fract_x
 _atom_site_fract_y
 _atom_site_fract_z
 _atom_site_occupancy
  Ag  Ag0  1  -0.00195357  -0.00059160  0.50384670  1
  Ag  Ag1  1  0.00576630  0.75456959  0.74699531  1
  Ag  Ag2  1  0.24889050  0.24540085  -0.00943263  1
  Ag  Ag3  1  0.49714507  0.00035329  -0.00365270  1
  Ag  Ag4  1  0.75243317  -0.00026863  0.25288880  1
  Ag  Ag5  1  0.49446654  0.75157461  0.74917378  1
  Ag  Ag6  1  0.24735124  0.00062059  0.75200640  1
  Ag  Ag7  1  0.75334300  0.75399206  0.50190139  1
  Ag  Ag8  1  0.75306097  0.24549434  0.50341361  1
  Ag  Ag9  1  -0.00041175  0.75502027  0.25380054  1
  Ag  Ag10  1  0.49875953  0.50015800  0.50490752  1
  Ag  Ag11  1  0.00597761  0.24648985  0.74696578  1
  Ag  Ag12  1  0.75064048  0.24516156  -0.00333048  1
  Ag  Ag13  1  0.25033284  0.49937261  0.74872753  1
  Ag  Ag14  1  0.24686186  0.24852723  0.50988024  1
  Ag  Ag15  1  0.24959351  0.75390920  -0.00818885  1
  Sb  Sb16  1  0.00144593  0.49983555  0.50361380  1
  Sb  Sb17  1  0.49974726  0.75297988  0.25153555  1
  Sb  Sb18  1  0.75023732  0.75536247  -0.00104891  1
  Sb  Sb19  1  0.50073533  -0.00013306  0.50390049  1
  Sb  Sb20  1  0.49701384  0.50064959  -0.00425742  1
  Sb  Sb21  1  -0.00105165  0.24548944  0.25331354  1
  Sb  Sb22  1  0.75313709  0.00150653  0.74790517  1
  Sb  Sb23  1  0.50051136  0.24738222  0.25010437  1
  Sb  Sb24  1  0.24714798  0.75204998  0.50880222  1
  Sb  Sb25  1  0.00172114  0.49965073  -0.00334760  1
  Sb  Sb26  1  0.75047018  0.50090611  0.25257763  1
  Sb  Sb27  1  0.24744660  -0.00170046  0.24909161  1
  Sb  Sb28  1  0.74833532  0.49865584  0.74800686  1
  Sb  Sb29  1  0.49224141  0.24761588  0.74957250  1
  Sb  Sb30  1  0.24983237  0.50140055  0.25241956  1
  Sb  Sb31  1  0.00240404  0.00056364  -0.00454627  1
  Te  Te32  1  0.24834907  0.25033562  0.24762043  1
  Te  Te33  1  0.24938593  0.24838848  0.75072573  1
  Te  Te34  1  0.24547315  0.74987811  0.24167006  1
  Te  Te35  1  0.24770109  0.75161816  0.75074374  1
  Te  Te36  1  0.75176891  0.24537814  0.25152772  1
  Te  Te37  1  0.75592132  0.25032802  0.74798810  1
  Te  Te38  1  0.75357713  0.75318747  0.25271551  1
  Te  Te39  1  0.75259608  0.74962577  0.74640551  1
  Te  Te40  1  0.25139381  0.00163289  -0.00145785  1
  Te  Te41  1  0.24854798  0.00423713  0.50194217  1
  Te  Te42  1  0.25143511  0.49806513  -0.00499751  1
  Te  Te43  1  0.25370422  0.49487546  0.50373837  1
  Te  Te44  1  0.74740001  0.00461368  0.00230329  1
  Te  Te45  1  0.75095336  0.00164945  0.49900203  1
  Te  Te46  1  0.74792974  0.48835118  0.00043643  1
  Te  Te47  1  0.74496762  0.49805535  0.49993434  1
  Te  Te48  1  0.00168960  0.24956840  -0.00342065  1
  Te  Te49  1  -0.00100292  0.24829130  0.50223853  1
  Te  Te50  1  0.00263719  0.75022413  -0.00489206  1
  Te  Te51  1  -0.00178536  0.75189038  0.50426875  1
  Te  Te52  1  0.49899569  0.24740058  -0.00069031  1
  Te  Te53  1  0.50198672  0.25117131  0.50091680  1
  Te  Te54  1  0.49777965  0.75167326  -0.00393934  1
  Te  Te55  1  0.50302012  0.74930296  0.50319074  1
  Te  Te56  1  -0.00399542  -0.00519224  0.25655985  1
  Te  Te57  1  0.00318313  -0.00012217  0.74601269  1
  Te  Te58  1  0.00010988  0.51216815  0.25023473  1
  Te  Te59  1  0.00690512  0.49991314  0.74964518  1
  Te  Te60  1  0.50663803  -0.00120205  0.24234588  1
  Te  Te61  1  0.49447563  -0.00518229  0.75424622  1
  Te  Te62  1  0.49968323  0.50116503  0.25996514  1
  Te  Te63  1  0.49494233  0.50671137  0.74547379  1
