# generated using pymatgen
data_AgSbTe2
_symmetry_space_group_name_H-M   'P 1'
_cell_length_a   12.26264911
_cell_length_b   12.25559743
_cell_length_c   12.25559750
_cell_angle_alpha   90.00804513
_cell_angle_beta   90.00314341
_cell_angle_gamma   89.99685660
_symmetry_Int_Tables_number   1
_chemical_formula_structural   AgSbTe2
_chemical_formula_sum   'Ag16 Sb16 Te32'
_cell_volume   1841.84581540
_cell_formula_units_Z   16
loop_
 _symmetry_equiv_pos_site_id
 _symmetry_equiv_pos_as_xyz
  1  'x, y, z'
loop_
 _atom_site_type_symbol
 _atom_site_label
 _atom_site_symmetry_multiplicity
 _atom_site_fract_x
 _atom_site_fract_y
 _atom_site_fract_z
 _atom_site_occupancy
  Ag  Ag0  1  0.25267106  0.50072711  0.26427832  1
  Ag  Ag1  1  0.49032761  0.50042883  0.49957115  1
  Ag  Ag2  1  0.00939609  0.74630289  0.25369707  1
  Ag  Ag3  1  0.49285791  0.74370727  0.74436237  1
  Ag  Ag4  1  0.75176144  0.49876330  0.74134070  1
  Ag  Ag5  1  0.25267108  0.73572115  0.49927291  1
  Ag  Ag6  1  0.49711234  -0.00155766  0.00155768  1
  Ag  Ag7  1  0.00265510  -0.00029589  0.00029593  1
  Ag  Ag8  1  0.00699722  0.25334160  0.25630327  1
  Ag  Ag9  1  0.00699720  0.74369671  0.74665842  1
  Ag  Ag10  1  0.24967965  0.50343205  0.73583581  1
  Ag  Ag11  1  0.24967965  0.26416378  0.49656796  1
  Ag  Ag12  1  0.00283806  0.25569396  0.74430602  1
  Ag  Ag13  1  0.49285790  0.25563761  0.25629272  1
  Ag  Ag14  1  0.49046576  0.74410019  0.25589977  1
  Ag  Ag15  1  0.75176142  0.25865926  0.50123680  1
  Sb  Sb16  1  0.24993024  -0.00471532  0.74811322  1
  Sb  Sb17  1  0.00009911  0.50135181  -0.00127604  1
  Sb  Sb18  1  0.74983741  0.25089436  -0.00263828  1
  Sb  Sb19  1  0.74868664  0.49716285  0.26116267  1
  Sb  Sb20  1  0.49976362  -0.00172837  0.49840227  1
  Sb  Sb21  1  0.24966964  -0.00169625  0.25126374  1
  Sb  Sb22  1  0.24966965  0.74873628  0.00169626  1
  Sb  Sb23  1  0.74868661  0.73883733  0.50283714  1
  Sb  Sb24  1  0.74983742  0.00263828  0.74910565  1
  Sb  Sb25  1  0.49976364  0.50159772  0.00172835  1
  Sb  Sb26  1  0.75009270  0.74974599  -0.00076328  1
  Sb  Sb27  1  0.01300150  0.49796635  0.50203361  1
  Sb  Sb28  1  0.24993022  0.25188679  0.00471531  1
  Sb  Sb29  1  0.49511155  0.25730906  0.74269094  1
  Sb  Sb30  1  0.00009911  0.00127604  0.49864819  1
  Sb  Sb31  1  0.75009272  0.00076327  0.25025401  1
  Te  Te32  1  0.24746120  0.25497689  0.25427441  1
  Te  Te33  1  0.24638852  0.25800090  0.74199909  1
  Te  Te34  1  0.24950128  0.74572582  0.25427415  1
  Te  Te35  1  0.24746118  0.74572556  0.74502312  1
  Te  Te36  1  0.75387976  0.25425263  0.25753527  1
  Te  Te37  1  0.75534493  0.25470866  0.74529133  1
  Te  Te38  1  0.75213328  0.74622414  0.25377590  1
  Te  Te39  1  0.75387976  0.74246460  0.74574736  1
  Te  Te40  1  0.25007833  0.00097239  -0.00097242  1
  Te  Te41  1  0.25158772  0.00125922  0.50115064  1
  Te  Te42  1  0.25158770  0.49884934  -0.00125918  1
  Te  Te43  1  0.25409049  0.50034651  0.49965447  1
  Te  Te44  1  0.75006695  0.00049568  -0.00049570  1
  Te  Te45  1  0.74866610  0.01997496  0.50091165  1
  Te  Te46  1  0.74866607  0.49908834  -0.01997477  1
  Te  Te47  1  0.73406578  0.49256063  0.50743923  1
  Te  Te48  1  -0.00100888  0.24203300  0.00207632  1
  Te  Te49  1  0.00447747  0.24927460  0.49758557  1
  Te  Te50  1  -0.00012837  0.75743120  0.00073968  1
  Te  Te51  1  0.00265686  0.75212845  0.49913219  1
  Te  Te52  1  0.50146184  0.24211945  0.01085058  1
  Te  Te53  1  0.49380354  0.24971598  0.49695293  1
  Te  Te54  1  0.50009362  0.75527354  0.00304152  1
  Te  Te55  1  0.49871378  0.75017991  0.49795207  1
  Te  Te56  1  -0.00012838  -0.00073965  0.24256872  1
  Te  Te57  1  -0.00100889  -0.00207626  0.75796704  1
  Te  Te58  1  0.00265690  0.50086783  0.24787159  1
  Te  Te59  1  0.00447745  0.50241443  0.75072540  1
  Te  Te60  1  0.50009363  -0.00304148  0.24472644  1
  Te  Te61  1  0.50146184  -0.01085062  0.75788055  1
  Te  Te62  1  0.49871372  0.50204790  0.24982011  1
  Te  Te63  1  0.49380356  0.50304711  0.75028405  1
