# generated using pymatgen
data_AgSbTe2
_symmetry_space_group_name_H-M   'P 1'
_cell_length_a   12.24407765
_cell_length_b   12.23095291
_cell_length_c   12.22565507
_cell_angle_alpha   90.00230150
_cell_angle_beta   89.99566343
_cell_angle_gamma   90.00472431
_symmetry_Int_Tables_number   1
_chemical_formula_structural   AgSbTe2
_chemical_formula_sum   'Ag16 Sb16 Te32'
_cell_volume   1830.87419967
_cell_formula_units_Z   16
loop_
 _symmetry_equiv_pos_site_id
 _symmetry_equiv_pos_as_xyz
  1  'x, y, z'
loop_
 _atom_site_type_symbol
 _atom_site_label
 _atom_site_symmetry_multiplicity
 _atom_site_fract_x
 _atom_site_fract_y
 _atom_site_fract_z
 _atom_site_occupancy
  Ag  Ag0  1  0.75230630  0.75213164  0.50312649  1
  Ag  Ag1  1  0.49405637  0.74667868  0.74174202  1
  Ag  Ag2  1  0.00516668  -0.00816155  0.49836600  1
  Ag  Ag3  1  0.00337671  0.25573797  0.74508001  1
  Ag  Ag4  1  0.75623521  0.50526805  0.74642591  1
  Ag  Ag5  1  0.24520953  0.74875921  -0.00599948  1
  Ag  Ag6  1  0.00566230  0.74527910  0.74399531  1
  Ag  Ag7  1  0.24696577  0.24686460  0.50347619  1
  Ag  Ag8  1  0.49423224  -0.00816594  0.50015078  1
  Ag  Ag9  1  0.24490568  0.50740377  0.74566017  1
  Ag  Ag10  1  0.75373235  -0.00502578  0.25703824  1
  Ag  Ag11  1  0.24692278  -0.00536182  0.25814594  1
  Ag  Ag12  1  0.00234131  0.50537572  -0.00744628  1
  Ag  Ag13  1  0.24783769  0.75331635  0.50463973  1
  Ag  Ag14  1  0.00350763  0.75359792  0.25899370  1
  Ag  Ag15  1  0.49641320  0.50999761  0.50525955  1
  Sb  Sb16  1  0.24568192  0.25082241  -0.00339499  1
  Sb  Sb17  1  0.49667011  0.25239780  0.74485438  1
  Sb  Sb18  1  0.24894588  -0.00836686  0.74170096  1
  Sb  Sb19  1  0.24755009  0.50468123  0.25467121  1
  Sb  Sb20  1  0.00223963  -0.00416010  0.00061023  1
  Sb  Sb21  1  0.00293804  0.50874569  0.50734124  1
  Sb  Sb22  1  0.49677735  -0.00548690  -0.00110265  1
  Sb  Sb23  1  0.75256345  -0.00579939  0.74440271  1
  Sb  Sb24  1  0.75342499  0.24919802  0.50251778  1
  Sb  Sb25  1  0.75439601  0.25092894  -0.00261801  1
  Sb  Sb26  1  0.75406384  0.50521000  0.25542202  1
  Sb  Sb27  1  0.49804647  0.24788623  0.25495284  1
  Sb  Sb28  1  0.00266814  0.24800701  0.25494127  1
  Sb  Sb29  1  0.49666563  0.75207159  0.25921011  1
  Sb  Sb30  1  0.49833374  0.50525458  -0.00535876  1
  Sb  Sb31  1  0.75394207  0.74877720  -0.00230834  1
  Te  Te32  1  0.24942843  0.24394297  0.25569819  1
  Te  Te33  1  0.24583504  0.25603937  0.74623138  1
  Te  Te34  1  0.24717492  0.75167143  0.25381158  1
  Te  Te35  1  0.24755775  0.74965877  0.74642067  1
  Te  Te36  1  0.74993550  0.24261055  0.24925220  1
  Te  Te37  1  0.75585353  0.25750408  0.74993778  1
  Te  Te38  1  0.75406096  0.75275485  0.25313795  1
  Te  Te39  1  0.75233410  0.74726041  0.74687363  1
  Te  Te40  1  0.25123961  -0.00423149  0.01014080  1
  Te  Te41  1  0.24871483  -0.00396617  0.50033137  1
  Te  Te42  1  0.24752811  0.50299163  -0.00281024  1
  Te  Te43  1  0.25139966  0.50276038  0.50228235  1
  Te  Te44  1  0.74856233  -0.00023496  0.01020120  1
  Te  Te45  1  0.75141287  -0.00195334  0.49833817  1
  Te  Te46  1  0.75244885  0.50032631  -0.00544852  1
  Te  Te47  1  0.74580862  0.50256919  0.50347598  1
  Te  Te48  1  0.00068733  0.25629160  -0.00791523  1
  Te  Te49  1  0.00450126  0.24406126  0.50324143  1
  Te  Te50  1  0.00388960  0.74800796  -0.00358290  1
  Te  Te51  1  0.00073591  0.75024130  0.50084949  1
  Te  Te52  1  0.50026089  0.24971528  0.00009290  1
  Te  Te53  1  0.49368753  0.24685661  0.50059653  1
  Te  Te54  1  0.49265957  0.74987310  -0.00972882  1
  Te  Te55  1  0.49927185  0.75107266  0.50187622  1
  Te  Te56  1  0.00175470  -0.00254190  0.25166960  1
  Te  Te57  1  -0.00069120  -0.00223979  0.74757826  1
  Te  Te58  1  -0.00062563  0.50382759  0.24127696  1
  Te  Te59  1  0.00188840  0.50400194  0.74860535  1
  Te  Te60  1  0.49893921  -0.00105426  0.25524291  1
  Te  Te61  1  0.50113253  -0.00372278  0.74474175  1
  Te  Te62  1  0.50101416  0.49958862  0.25711704  1
  Te  Te63  1  0.49781970  0.50245385  0.74596774  1
