# generated using pymatgen
data_AgSbTe2
_symmetry_space_group_name_H-M   'P 1'
_cell_length_a   12.22015348
_cell_length_b   12.21963748
_cell_length_c   12.22324799
_cell_angle_alpha   90.00244217
_cell_angle_beta   90.00725393
_cell_angle_gamma   89.99978949
_symmetry_Int_Tables_number   1
_chemical_formula_structural   AgSbTe2
_chemical_formula_sum   'Ag16 Sb16 Te32'
_cell_volume   1825.24682487
_cell_formula_units_Z   16
loop_
 _symmetry_equiv_pos_site_id
 _symmetry_equiv_pos_as_xyz
  1  'x, y, z'
loop_
 _atom_site_type_symbol
 _atom_site_label
 _atom_site_symmetry_multiplicity
 _atom_site_fract_x
 _atom_site_fract_y
 _atom_site_fract_z
 _atom_site_occupancy
  Ag  Ag0  1  0.49810034  0.48554677  0.00631848  1
  Ag  Ag1  1  0.74500143  0.49325081  0.25105304  1
  Ag  Ag2  1  0.49908191  0.25085175  0.76494388  1
  Ag  Ag3  1  0.50206851  0.49380853  0.49218827  1
  Ag  Ag4  1  0.73537591  0.25140477  0.00718464  1
  Ag  Ag5  1  -0.00170252  0.50006152  0.49537921  1
  Ag  Ag6  1  0.74705944  0.00790085  0.24728814  1
  Ag  Ag7  1  0.74528272  0.25462690  0.49192585  1
  Ag  Ag8  1  0.00065000  0.74537557  0.24908260  1
  Ag  Ag9  1  0.49837437  0.01458767  0.00175852  1
  Ag  Ag10  1  0.25212426  0.00096157  0.75535171  1
  Ag  Ag11  1  0.25444683  0.49796513  0.24631301  1
  Ag  Ag12  1  0.50498723  0.25584964  0.23693784  1
  Ag  Ag13  1  0.00331613  0.74862779  0.75154443  1
  Ag  Ag14  1  0.26471694  0.25161741  0.00191462  1
  Ag  Ag15  1  0.25109275  0.74854451  0.00094805  1
  Sb  Sb16  1  0.74835338  0.74869310  0.00302631  1
  Sb  Sb17  1  0.00077649  0.00003852  0.00099124  1
  Sb  Sb18  1  0.25122472  0.49922588  0.75495585  1
  Sb  Sb19  1  0.75055517  0.74490339  0.49721051  1
  Sb  Sb20  1  0.49839912  0.74304411  0.24756337  1
  Sb  Sb21  1  -0.00209800  0.00101756  0.49820118  1
  Sb  Sb22  1  0.00117783  0.50027317  0.00436716  1
  Sb  Sb23  1  0.50230737  0.00665597  0.49812352  1
  Sb  Sb24  1  0.00168322  0.25132625  0.75004056  1
  Sb  Sb25  1  0.24897811  0.74789107  0.49876679  1
  Sb  Sb26  1  0.74903866  0.49800183  0.74982154  1
  Sb  Sb27  1  0.49744953  0.75006611  0.75367300  1
  Sb  Sb28  1  -0.00511599  0.25405637  0.25004270  1
  Sb  Sb29  1  0.25232660  0.00137480  0.24507260  1
  Sb  Sb30  1  0.25464822  0.25317983  0.49751108  1
  Sb  Sb31  1  0.74869464  0.00321039  0.75283450  1
  Te  Te32  1  0.25253135  0.25207084  0.24632222  1
  Te  Te33  1  0.25330010  0.24814308  0.75391747  1
  Te  Te34  1  0.24693589  0.74858330  0.24601936  1
  Te  Te35  1  0.24670037  0.75220536  0.75444521  1
  Te  Te36  1  0.75049870  0.25229556  0.24789427  1
  Te  Te37  1  0.74611127  0.24883065  0.75307174  1
  Te  Te38  1  0.75472607  0.74800125  0.24905669  1
  Te  Te39  1  0.75856654  0.75160253  0.74968670  1
  Te  Te40  1  0.25297401  0.00128707  -0.00148371  1
  Te  Te41  1  0.25036226  0.00010604  0.50826091  1
  Te  Te42  1  0.25126357  0.49874402  0.00400709  1
  Te  Te43  1  0.25089075  0.49897808  0.49275729  1
  Te  Te44  1  0.74561429  0.00242736  0.00428608  1
  Te  Te45  1  0.74913036  0.00708957  0.49408266  1
  Te  Te46  1  0.74691198  0.49750463  0.00360696  1
  Te  Te47  1  0.74801444  0.49651597  0.49755026  1
  Te  Te48  1  0.00014449  0.25028556  -0.00158096  1
  Te  Te49  1  -0.00638966  0.25564529  0.50135735  1
  Te  Te50  1  0.00441215  0.74948382  0.00017134  1
  Te  Te51  1  -0.00007527  0.74501416  0.49867878  1
  Te  Te52  1  0.50001633  0.25125057  0.00079239  1
  Te  Te53  1  0.50301799  0.25402653  0.49819454  1
  Te  Te54  1  0.49506475  0.74957169  -0.00099939  1
  Te  Te55  1  0.50033334  0.74017033  0.50145683  1
  Te  Te56  1  -0.00404313  -0.00714704  0.25138025  1
  Te  Te57  1  0.00398800  -0.00446816  0.74903453  1
  Te  Te58  1  -0.00023529  0.50211072  0.25289833  1
  Te  Te59  1  0.00036039  0.50403510  0.74278723  1
  Te  Te60  1  0.50288087  0.00359112  0.24745014  1
  Te  Te61  1  0.49723741  0.00217353  0.75226872  1
  Te  Te62  1  0.50067526  0.49940553  0.24831839  1
  Te  Te63  1  0.49970508  0.49652642  0.75197613  1
