# generated using pymatgen
data_AgSbTe2
_symmetry_space_group_name_H-M   'P 1'
_cell_length_a   12.21329948
_cell_length_b   12.20949061
_cell_length_c   12.21023620
_cell_angle_alpha   90.00038126
_cell_angle_beta   89.99967870
_cell_angle_gamma   89.99879507
_symmetry_Int_Tables_number   1
_chemical_formula_structural   AgSbTe2
_chemical_formula_sum   'Ag16 Sb16 Te32'
_cell_volume   1820.76802069
_cell_formula_units_Z   16
loop_
 _symmetry_equiv_pos_site_id
 _symmetry_equiv_pos_as_xyz
  1  'x, y, z'
loop_
 _atom_site_type_symbol
 _atom_site_label
 _atom_site_symmetry_multiplicity
 _atom_site_fract_x
 _atom_site_fract_y
 _atom_site_fract_z
 _atom_site_occupancy
  Ag  Ag0  1  0.00185056  0.00001568  0.50337341  1
  Ag  Ag1  1  0.49667813  0.74973922  0.24952198  1
  Ag  Ag2  1  0.24689972  0.24799879  0.00300233  1
  Ag  Ag3  1  0.00082685  0.49996697  0.50104005  1
  Ag  Ag4  1  0.00083427  0.49626577  -0.00076789  1
  Ag  Ag5  1  -0.00093265  0.75053736  0.74951789  1
  Ag  Ag6  1  0.24871954  -0.00106815  0.75289192  1
  Ag  Ag7  1  0.50116755  0.75144249  0.75054247  1
  Ag  Ag8  1  0.24938072  0.00249334  0.24657646  1
  Ag  Ag9  1  0.00403749  0.25153605  0.24644875  1
  Ag  Ag10  1  0.75274739  0.50136052  0.75096913  1
  Ag  Ag11  1  0.75286304  0.24998601  -0.00179784  1
  Ag  Ag12  1  0.49695572  -0.00050540  -0.00243460  1
  Ag  Ag13  1  0.75134965  -0.00189039  0.75233854  1
  Ag  Ag14  1  0.24754035  0.49815153  0.24900937  1
  Ag  Ag15  1  0.49921267  0.50296947  0.50052598  1
  Sb  Sb16  1  0.24758878  0.50113374  0.75134401  1
  Sb  Sb17  1  0.24676733  0.25003386  0.49699707  1
  Sb  Sb18  1  0.75042056  0.75035803  -0.00420984  1
  Sb  Sb19  1  0.00267683  0.00352494  -0.00326693  1
  Sb  Sb20  1  0.00288048  0.74840087  0.25069413  1
  Sb  Sb21  1  0.49847605  -0.00312235  0.50230690  1
  Sb  Sb22  1  0.49971941  0.24867294  0.75184466  1
  Sb  Sb23  1  0.75314994  0.25056050  0.50151750  1
  Sb  Sb24  1  0.24978948  0.74938234  0.50060158  1
  Sb  Sb25  1  0.49921205  0.50143472  -0.00058242  1
  Sb  Sb26  1  0.75029019  0.74891285  0.50363408  1
  Sb  Sb27  1  0.00003058  0.25021438  0.75366716  1
  Sb  Sb28  1  0.49526796  0.25032624  0.24717709  1
  Sb  Sb29  1  0.25019915  0.75292276  -0.00033640  1
  Sb  Sb30  1  0.75179710  0.49793873  0.24818844  1
  Sb  Sb31  1  0.75088932  0.00226105  0.24735750  1
  Te  Te32  1  0.24593228  0.24926117  0.24575720  1
  Te  Te33  1  0.25028005  0.24266012  0.75803612  1
  Te  Te34  1  0.25518809  0.75030324  0.24896976  1
  Te  Te35  1  0.25067021  0.75590357  0.75093429  1
  Te  Te36  1  0.75771035  0.24926538  0.24150265  1
  Te  Te37  1  0.74980560  0.25039848  0.75670081  1
  Te  Te38  1  0.74035335  0.75080255  0.24822176  1
  Te  Te39  1  0.74951766  0.75044250  0.75124018  1
  Te  Te40  1  0.25139761  0.00436867  0.00086229  1
  Te  Te41  1  0.24539255  0.00241129  0.50008593  1
  Te  Te42  1  0.24723609  0.49315782  0.00320823  1
  Te  Te43  1  0.24720793  0.49769254  0.49596729  1
  Te  Te44  1  0.74716359  0.00576142  -0.00439032  1
  Te  Te45  1  0.75579027  0.00268132  0.50716015  1
  Te  Te46  1  0.75275998  0.49373957  -0.00429056  1
  Te  Te47  1  0.75274923  0.49809209  0.50612632  1
  Te  Te48  1  0.00119075  0.25322483  0.00362741  1
  Te  Te49  1  -0.00033975  0.25218420  0.49272474  1
  Te  Te50  1  -0.00027137  0.74180651  -0.00520033  1
  Te  Te51  1  -0.00053657  0.74819441  0.50445847  1
  Te  Te52  1  0.49965588  0.24443738  0.00099300  1
  Te  Te53  1  0.50094543  0.25966947  0.49938518  1
  Te  Te54  1  0.50016167  0.75512194  -0.00220052  1
  Te  Te55  1  0.50075167  0.74413513  0.50172014  1
  Te  Te56  1  0.00351779  -0.00074683  0.25281899  1
  Te  Te57  1  -0.00008510  -0.00240736  0.74897773  1
  Te  Te58  1  0.00263457  0.50151923  0.25168042  1
  Te  Te59  1  -0.00023782  0.50227899  0.74789819  1
  Te  Te60  1  0.49605606  -0.00289846  0.25024741  1
  Te  Te61  1  0.50009142  -0.00440294  0.74928968  1
  Te  Te62  1  0.49671794  0.50304646  0.25180130  1
  Te  Te63  1  0.50130636  0.50594046  0.74799360  1
