# generated using pymatgen
data_AgSbTe2
_symmetry_space_group_name_H-M   'P 1'
_cell_length_a   12.21497874
_cell_length_b   12.22993295
_cell_length_c   12.22445656
_cell_angle_alpha   90.00337463
_cell_angle_beta   89.99766431
_cell_angle_gamma   89.99743178
_symmetry_Int_Tables_number   1
_chemical_formula_structural   AgSbTe2
_chemical_formula_sum   'Ag16 Sb16 Te32'
_cell_volume   1826.19164519
_cell_formula_units_Z   16
loop_
 _symmetry_equiv_pos_site_id
 _symmetry_equiv_pos_as_xyz
  1  'x, y, z'
loop_
 _atom_site_type_symbol
 _atom_site_label
 _atom_site_symmetry_multiplicity
 _atom_site_fract_x
 _atom_site_fract_y
 _atom_site_fract_z
 _atom_site_occupancy
  Ag  Ag0  1  -0.00269285  0.49941969  0.50450377  1
  Ag  Ag1  1  0.23982593  0.49990922  0.74999184  1
  Ag  Ag2  1  0.50256166  0.24730987  0.25170874  1
  Ag  Ag3  1  -0.00185158  0.75454361  0.24542474  1
  Ag  Ag4  1  0.24312641  0.00001604  0.25000859  1
  Ag  Ag5  1  -0.00287904  -0.00519476  0.00328240  1
  Ag  Ag6  1  0.75833500  0.75021813  -0.00101154  1
  Ag  Ag7  1  0.75836454  0.49937168  0.75001172  1
  Ag  Ag8  1  -0.00498236  0.74593657  0.75465016  1
  Ag  Ag9  1  0.75437880  0.24980455  0.50179031  1
  Ag  Ag10  1  -0.00283860  0.00130935  0.49630844  1
  Ag  Ag11  1  0.50511795  0.25065400  0.74778678  1
  Ag  Ag12  1  0.50190905  0.75243953  0.24777175  1
  Ag  Ag13  1  -0.00164434  0.24509925  0.25276124  1
  Ag  Ag14  1  -0.00275038  0.50563685  -0.00496607  1
  Ag  Ag15  1  0.75671874  0.00117392  0.74997426  1
  Sb  Sb16  1  0.24687849  0.25010976  -0.00012861  1
  Sb  Sb17  1  0.75544228  0.75005000  0.50143665  1
  Sb  Sb18  1  0.50270433  0.50121633  -0.00071185  1
  Sb  Sb19  1  0.75451509  0.49984277  0.24984093  1
  Sb  Sb20  1  0.24512647  0.25025018  0.49959000  1
  Sb  Sb21  1  -0.00429285  0.25461773  0.74665905  1
  Sb  Sb22  1  0.24552237  0.74996355  0.49954220  1
  Sb  Sb23  1  0.50430219  0.00247207  0.49817044  1
  Sb  Sb24  1  0.75786788  0.00009200  0.24981640  1
  Sb  Sb25  1  0.24482180  0.50008705  0.24991136  1
  Sb  Sb26  1  0.50361173  -0.00101629  0.00201149  1
  Sb  Sb27  1  0.75365298  0.24995437  -0.00188996  1
  Sb  Sb28  1  0.24288107  0.00084984  0.74993952  1
  Sb  Sb29  1  0.50416364  0.74964389  0.75226211  1
  Sb  Sb30  1  0.24097855  0.74994482  0.00060209  1
  Sb  Sb31  1  0.50356513  0.49756032  0.50089586  1
  Te  Te32  1  0.25070969  0.24703120  0.25007851  1
  Te  Te33  1  0.25939450  0.25329398  0.74968384  1
  Te  Te34  1  0.24864196  0.75333114  0.24987263  1
  Te  Te35  1  0.24790963  0.74595314  0.75003150  1
  Te  Te36  1  0.74886642  0.25022765  0.25371762  1
  Te  Te37  1  0.74775260  0.25000066  0.74805691  1
  Te  Te38  1  0.75252808  0.74971326  0.24626293  1
  Te  Te39  1  0.75172396  0.74962379  0.75166941  1
  Te  Te40  1  0.24160695  0.00003708  0.00459169  1
  Te  Te41  1  0.24077693  -0.00001056  0.49552153  1
  Te  Te42  1  0.24239571  0.49998518  -0.00661908  1
  Te  Te43  1  0.24147923  0.49988961  0.50636886  1
  Te  Te44  1  0.75528235  -0.00371910  -0.00568514  1
  Te  Te45  1  0.75538937  0.00454707  0.50573726  1
  Te  Te46  1  0.75497196  0.50377585  -0.00467498  1
  Te  Te47  1  0.75516317  0.49542883  0.50484283  1
  Te  Te48  1  -0.00174125  0.24961121  0.00810984  1
  Te  Te49  1  -0.00414996  0.24991875  0.49634090  1
  Te  Te50  1  -0.00315211  0.74958240  0.00028659  1
  Te  Te51  1  -0.00170088  0.74942095  0.49892062  1
  Te  Te52  1  0.50105490  0.25008036  0.00478116  1
  Te  Te53  1  0.50657866  0.25014067  0.49682317  1
  Te  Te54  1  0.50925934  0.74993078  0.00619832  1
  Te  Te55  1  0.50128151  0.74998746  0.49037260  1
  Te  Te56  1  -0.00044371  -0.00102752  0.25051575  1
  Te  Te57  1  -0.00078061  -0.00071493  0.74997251  1
  Te  Te58  1  0.00072966  0.50143491  0.25047884  1
  Te  Te59  1  -0.00205474  0.49834195  0.74988359  1
  Te  Te60  1  0.49480572  0.00221047  0.25000484  1
  Te  Te61  1  0.50244412  0.00349644  0.74999760  1
  Te  Te62  1  0.49843778  0.49807634  0.24997244  1
  Te  Te63  1  0.50239900  0.49711502  0.74994009  1
