# generated using pymatgen
data_AgSbTe2
_symmetry_space_group_name_H-M   'P 1'
_cell_length_a   12.22311070
_cell_length_b   12.21868342
_cell_length_c   12.22516516
_cell_angle_alpha   89.99580935
_cell_angle_beta   89.99208652
_cell_angle_gamma   89.99765406
_symmetry_Int_Tables_number   1
_chemical_formula_structural   AgSbTe2
_chemical_formula_sum   'Ag16 Sb16 Te32'
_cell_volume   1825.83230442
_cell_formula_units_Z   16
loop_
 _symmetry_equiv_pos_site_id
 _symmetry_equiv_pos_as_xyz
  1  'x, y, z'
loop_
 _atom_site_type_symbol
 _atom_site_label
 _atom_site_symmetry_multiplicity
 _atom_site_fract_x
 _atom_site_fract_y
 _atom_site_fract_z
 _atom_site_occupancy
  Ag  Ag0  1  0.49909858  0.25002490  0.25560010  1
  Ag  Ag1  1  0.24709347  0.49686999  0.75387336  1
  Ag  Ag2  1  0.49901449  0.00799153  0.49927475  1
  Ag  Ag3  1  0.24458219  0.25247911  0.00040023  1
  Ag  Ag4  1  0.00186827  0.74943386  0.76425754  1
  Ag  Ag5  1  0.23546321  0.74827726  -0.00083135  1
  Ag  Ag6  1  0.76502902  0.74840664  0.00195220  1
  Ag  Ag7  1  0.00262893  0.51300853  0.00235760  1
  Ag  Ag8  1  0.49591342  0.25002904  0.74476093  1
  Ag  Ag9  1  0.00171723  -0.01339538  0.00193892  1
  Ag  Ag10  1  0.00070572  0.00376726  0.49739775  1
  Ag  Ag11  1  0.00075492  0.24994622  0.24904888  1
  Ag  Ag12  1  0.74918078  0.24865982  0.49606697  1
  Ag  Ag13  1  -0.00072772  0.74972498  0.23567173  1
  Ag  Ag14  1  0.75487887  0.49714037  0.24798132  1
  Ag  Ag15  1  0.25179368  0.24876540  0.49902366  1
  Sb  Sb16  1  0.00079427  0.49519316  0.49737136  1
  Sb  Sb17  1  0.75162795  0.00192478  0.74975755  1
  Sb  Sb18  1  0.75239982  0.49838967  0.75168841  1
  Sb  Sb19  1  0.49862081  0.00355622  0.00122752  1
  Sb  Sb20  1  0.24897026  0.00302425  0.75018069  1
  Sb  Sb21  1  0.24542353  0.49609786  0.24655344  1
  Sb  Sb22  1  0.24559662  0.75061278  0.50064236  1
  Sb  Sb23  1  0.00373607  0.25072511  0.75050010  1
  Sb  Sb24  1  0.75329082  0.00272212  0.25055175  1
  Sb  Sb25  1  0.24678295  0.00296098  0.24988162  1
  Sb  Sb26  1  0.49920554  0.49136984  0.49909096  1
  Sb  Sb27  1  0.50086256  0.74968170  0.24950685  1
  Sb  Sb28  1  0.49679426  0.49804830  0.00083629  1
  Sb  Sb29  1  0.49803649  0.74976640  0.75050610  1
  Sb  Sb30  1  0.75692535  0.25097284  0.00366102  1
  Sb  Sb31  1  0.75429368  0.75078616  0.49858931  1
  Te  Te32  1  0.24802214  0.25264479  0.24958529  1
  Te  Te33  1  0.25163596  0.25294969  0.75130100  1
  Te  Te34  1  0.24619420  0.74672770  0.24546485  1
  Te  Te35  1  0.24735617  0.74464273  0.75262776  1
  Te  Te36  1  0.75259153  0.25346933  0.25136822  1
  Te  Te37  1  0.74271669  0.25179002  0.74456162  1
  Te  Te38  1  0.75221799  0.74398528  0.24713052  1
  Te  Te39  1  0.75351728  0.74791372  0.75408883  1
  Te  Te40  1  0.24568540  0.00044407  -0.00000939  1
  Te  Te41  1  0.24710319  0.00513134  0.50012937  1
  Te  Te42  1  0.24699944  0.49773966  -0.00232153  1
  Te  Te43  1  0.24954956  0.49474507  0.50658342  1
  Te  Te44  1  0.75569550  -0.00483249  -0.00074299  1
  Te  Te45  1  0.75328130  0.00486758  0.50074450  1
  Te  Te46  1  0.75495445  0.50226563  0.00257845  1
  Te  Te47  1  0.75001306  0.49516241  0.49593141  1
  Te  Te48  1  0.00232158  0.24900989  0.00174675  1
  Te  Te49  1  0.00123438  0.24698771  0.49920683  1
  Te  Te50  1  0.00150078  0.75113471  0.00208811  1
  Te  Te51  1  0.00046817  0.75784879  0.49795272  1
  Te  Te52  1  0.49438046  0.24778015  0.00161902  1
  Te  Te53  1  0.49756393  0.24766567  0.49755636  1
  Te  Te54  1  0.49834558  0.75174764  0.00034696  1
  Te  Te55  1  0.49987871  0.76118547  0.49959237  1
  Te  Te56  1  -0.00033992  0.00139608  0.25010095  1
  Te  Te57  1  -0.00033756  -0.00439856  0.75022320  1
  Te  Te58  1  -0.00220635  0.49814518  0.24766613  1
  Te  Te59  1  0.00318540  0.50272018  0.75388401  1
  Te  Te60  1  0.50088844  0.00617452  0.25463072  1
  Te  Te61  1  0.50069401  0.00524531  0.74533678  1
  Te  Te62  1  0.50751148  0.49491587  0.25007569  1
  Te  Te63  1  0.49502102  0.49583320  0.74963215  1
