# generated using pymatgen
data_AgSbTe2
_symmetry_space_group_name_H-M   'P 1'
_cell_length_a   12.32850977
_cell_length_b   12.29021143
_cell_length_c   12.32792667
_cell_angle_alpha   90.00060425
_cell_angle_beta   89.99949014
_cell_angle_gamma   89.99658669
_symmetry_Int_Tables_number   1
_chemical_formula_structural   AgSbTe2
_chemical_formula_sum   'Ag16 Sb16 Te32'
_cell_volume   1867.92734321
_cell_formula_units_Z   16
loop_
 _symmetry_equiv_pos_site_id
 _symmetry_equiv_pos_as_xyz
  1  'x, y, z'
loop_
 _atom_site_type_symbol
 _atom_site_label
 _atom_site_symmetry_multiplicity
 _atom_site_fract_x
 _atom_site_fract_y
 _atom_site_fract_z
 _atom_site_occupancy
  Ag  Ag0  1  0.73827039  -0.00561126  0.73763212  1
  Ag  Ag1  1  0.50951516  0.75697796  0.25580385  1
  Ag  Ag2  1  0.25572091  0.23398209  0.50594338  1
  Ag  Ag3  1  -0.00101721  0.50838394  0.50061133  1
  Ag  Ag4  1  0.24380201  0.75905486  0.50277852  1
  Ag  Ag5  1  0.25193203  0.75763271  -0.00247588  1
  Ag  Ag6  1  0.74707425  0.75852417  0.00567084  1
  Ag  Ag7  1  0.74359198  0.23279659  0.50428458  1
  Ag  Ag8  1  0.26113850  -0.00545843  0.73926381  1
  Ag  Ag9  1  0.75351943  0.76074007  0.49579738  1
  Ag  Ag10  1  0.50336879  -0.00665722  -0.00906939  1
  Ag  Ag11  1  0.50761879  -0.00531939  0.50718793  1
  Ag  Ag12  1  -0.00636213  0.75217444  0.26169993  1
  Ag  Ag13  1  0.74310033  -0.00848016  0.26528581  1
  Ag  Ag14  1  0.50143384  0.23677111  0.73969708  1
  Ag  Ag15  1  -0.00145391  0.75384597  0.73775890  1
  Sb  Sb16  1  -0.00082512  0.24347009  0.74465698  1
  Sb  Sb17  1  0.74636517  0.23595177  -0.00449224  1
  Sb  Sb18  1  -0.00291630  0.24312178  0.25872702  1
  Sb  Sb19  1  0.74956845  0.50955484  0.74763552  1
  Sb  Sb20  1  0.25394042  -0.00416769  0.25871052  1
  Sb  Sb21  1  0.24907192  0.50477833  0.25197221  1
  Sb  Sb22  1  0.75082266  0.51048179  0.25247850  1
  Sb  Sb23  1  0.25556967  0.23468039  -0.00759130  1
  Sb  Sb24  1  -0.00017533  0.51075517  -0.00073424  1
  Sb  Sb25  1  0.50227081  0.24114552  0.25596000  1
  Sb  Sb26  1  0.25038465  0.50841836  0.74792388  1
  Sb  Sb27  1  -0.00476982  -0.00499305  0.50057570  1
  Sb  Sb28  1  0.50021092  0.51270033  -0.00234798  1
  Sb  Sb29  1  0.49998384  0.50430257  0.49955951  1
  Sb  Sb30  1  0.50045846  0.75301956  0.74585898  1
  Sb  Sb31  1  -0.00156354  -0.00316317  -0.00137183  1
  Te  Te32  1  0.24902954  0.25083880  0.25931574  1
  Te  Te33  1  0.24535878  0.24165473  0.74596726  1
  Te  Te34  1  0.24576815  0.75244632  0.25434490  1
  Te  Te35  1  0.25436083  0.75338717  0.74490244  1
  Te  Te36  1  0.74997022  0.24116126  0.25475419  1
  Te  Te37  1  0.75370551  0.24224360  0.74760609  1
  Te  Te38  1  0.74954978  0.75214521  0.25466487  1
  Te  Te39  1  0.74689243  0.75275750  0.74422785  1
  Te  Te40  1  0.25338780  -0.00438247  -0.00375517  1
  Te  Te41  1  0.25219765  -0.00246544  0.50170570  1
  Te  Te42  1  0.25152049  0.51365109  0.00042071  1
  Te  Te43  1  0.24973015  0.50732683  0.50124166  1
  Te  Te44  1  0.74885876  -0.00472570  -0.00584244  1
  Te  Te45  1  0.75019430  -0.00227981  0.50297091  1
  Te  Te46  1  0.74836583  0.51336772  0.00065335  1
  Te  Te47  1  0.75060144  0.50203003  0.50095763  1
  Te  Te48  1  0.00184836  0.25596448  0.00399793  1
  Te  Te49  1  0.00120195  0.26105950  0.49827163  1
  Te  Te50  1  0.00149526  0.75243204  0.00046535  1
  Te  Te51  1  0.00093968  0.75156368  0.50148141  1
  Te  Te52  1  0.49903272  0.24217247  -0.00018911  1
  Te  Te53  1  0.50102169  0.25108622  0.50011965  1
  Te  Te54  1  0.50049383  0.75561893  -0.00181693  1
  Te  Te55  1  0.50095449  0.75206923  0.50077437  1
  Te  Te56  1  -0.00966505  -0.00569646  0.24941745  1
  Te  Te57  1  0.00131156  -0.00662347  0.74949586  1
  Te  Te58  1  -0.00034504  0.50889719  0.25287077  1
  Te  Te59  1  0.00004539  0.51115266  0.74807176  1
  Te  Te60  1  0.50187616  -0.00479319  0.25531133  1
  Te  Te61  1  0.50049062  -0.00069224  0.74407420  1
  Te  Te62  1  0.49996801  0.51305376  0.24632211  1
  Te  Te63  1  0.50018871  0.47416429  0.75180511  1
