# generated using pymatgen
data_AgSbTe2
_symmetry_space_group_name_H-M   'P 1'
_cell_length_a   12.28569823
_cell_length_b   12.27586515
_cell_length_c   12.29532322
_cell_angle_alpha   90.00655241
_cell_angle_beta   90.00356844
_cell_angle_gamma   90.00138294
_symmetry_Int_Tables_number   1
_chemical_formula_structural   AgSbTe2
_chemical_formula_sum   'Ag16 Sb16 Te32'
_cell_volume   1854.35081243
_cell_formula_units_Z   16
loop_
 _symmetry_equiv_pos_site_id
 _symmetry_equiv_pos_as_xyz
  1  'x, y, z'
loop_
 _atom_site_type_symbol
 _atom_site_label
 _atom_site_symmetry_multiplicity
 _atom_site_fract_x
 _atom_site_fract_y
 _atom_site_fract_z
 _atom_site_occupancy
  Ag  Ag0  1  0.49723128  0.51037342  0.50771592  1
  Ag  Ag1  1  0.00236794  -0.01067385  0.49571246  1
  Ag  Ag2  1  0.00389136  0.51171505  0.50644620  1
  Ag  Ag3  1  0.00158726  0.74250922  0.75322607  1
  Ag  Ag4  1  0.74292580  0.50465021  0.75007121  1
  Ag  Ag5  1  0.25118316  -0.01097180  0.24937190  1
  Ag  Ag6  1  0.25554423  0.51157562  0.24631947  1
  Ag  Ag7  1  0.24956331  0.74532009  0.00428899  1
  Ag  Ag8  1  0.49921588  0.74258822  0.74909966  1
  Ag  Ag9  1  0.49478226  0.50949007  -0.00774974  1
  Ag  Ag10  1  0.74999743  -0.00647639  0.25227690  1
  Ag  Ag11  1  0.00691619  0.51149455  -0.00618160  1
  Ag  Ag12  1  0.00481728  -0.01275054  0.00326412  1
  Ag  Ag13  1  0.49716621  -0.01085605  0.49590440  1
  Ag  Ag14  1  0.50281664  0.26339035  0.74843421  1
  Ag  Ag15  1  0.49309197  0.74849172  0.25131301  1
  Sb  Sb16  1  0.74886667  0.25018860  0.50067743  1
  Sb  Sb17  1  0.49406924  -0.00983197  0.00300221  1
  Sb  Sb18  1  -0.00345249  0.25603796  0.75091106  1
  Sb  Sb19  1  0.74718878  0.25011296  -0.00067366  1
  Sb  Sb20  1  0.74968615  -0.00445372  0.75023022  1
  Sb  Sb21  1  0.74991524  0.75046235  0.49850588  1
  Sb  Sb22  1  0.25318789  0.50381826  0.75355355  1
  Sb  Sb23  1  0.75278151  0.75040185  -0.00017641  1
  Sb  Sb24  1  0.24990056  -0.00479001  0.75065816  1
  Sb  Sb25  1  0.25195195  0.25317045  0.00131106  1
  Sb  Sb26  1  0.00010686  0.24958612  0.24948688  1
  Sb  Sb27  1  0.49966529  0.25130135  0.25023708  1
  Sb  Sb28  1  0.25072707  0.25150008  0.49945578  1
  Sb  Sb29  1  0.74746281  0.50584646  0.24918348  1
  Sb  Sb30  1  0.25141452  0.74939267  0.49447600  1
  Sb  Sb31  1  0.00612532  0.75103021  0.24785999  1
  Te  Te32  1  0.24860134  0.24905169  0.25044938  1
  Te  Te33  1  0.26286385  0.24687089  0.74986467  1
  Te  Te34  1  0.25490027  0.74784104  0.24492304  1
  Te  Te35  1  0.24887389  0.75030025  0.76319740  1
  Te  Te36  1  0.75088534  0.23196867  0.24913126  1
  Te  Te37  1  0.74226902  0.26227830  0.75032066  1
  Te  Te38  1  0.73250878  0.75713778  0.25060997  1
  Te  Te39  1  0.74912558  0.74406145  0.75019668  1
  Te  Te40  1  0.24650889  -0.00258044  0.00385202  1
  Te  Te41  1  0.24804686  -0.00049169  0.49390777  1
  Te  Te42  1  0.24783831  0.50217385  0.00293813  1
  Te  Te43  1  0.24817996  0.50020525  0.49021121  1
  Te  Te44  1  0.76112224  -0.00021892  0.00182677  1
  Te  Te45  1  0.75326832  -0.00074751  0.49848299  1
  Te  Te46  1  0.75250511  0.49956080  0.00103524  1
  Te  Te47  1  0.75165701  0.50066669  0.50016059  1
  Te  Te48  1  0.00040192  0.25325408  -0.00097561  1
  Te  Te49  1  0.00003493  0.24926386  0.50083131  1
  Te  Te50  1  0.00085593  0.74751154  0.00015487  1
  Te  Te51  1  0.00152334  0.74851779  0.50437887  1
  Te  Te52  1  0.49958063  0.26237631  -0.00566763  1
  Te  Te53  1  0.49979593  0.25191081  0.50427649  1
  Te  Te54  1  0.49781930  0.74807181  -0.00302264  1
  Te  Te55  1  0.49909729  0.74914343  0.50318256  1
  Te  Te56  1  0.00537066  -0.00184482  0.25503490  1
  Te  Te57  1  -0.00129950  -0.00114078  0.74619199  1
  Te  Te58  1  -0.00355762  0.50142606  0.25200734  1
  Te  Te59  1  0.00375486  0.50230387  0.74828796  1
  Te  Te60  1  0.49347645  0.00201976  0.25058741  1
  Te  Te61  1  0.50101705  -0.01172095  0.74585710  1
  Te  Te62  1  0.50350530  0.49955278  0.25366898  1
  Te  Te63  1  0.49677320  0.50763285  0.74588647  1
