# generated using pymatgen
data_AgSbTe2
_symmetry_space_group_name_H-M   'P 1'
_cell_length_a   12.20418350
_cell_length_b   12.20212770
_cell_length_c   12.20409731
_cell_angle_alpha   89.99985989
_cell_angle_beta   90.00196792
_cell_angle_gamma   90.00046503
_symmetry_Int_Tables_number   1
_chemical_formula_structural   AgSbTe2
_chemical_formula_sum   'Ag16 Sb16 Te32'
_cell_volume   1817.39762604
_cell_formula_units_Z   16
loop_
 _symmetry_equiv_pos_site_id
 _symmetry_equiv_pos_as_xyz
  1  'x, y, z'
loop_
 _atom_site_type_symbol
 _atom_site_label
 _atom_site_symmetry_multiplicity
 _atom_site_fract_x
 _atom_site_fract_y
 _atom_site_fract_z
 _atom_site_occupancy
  Ag  Ag0  1  0.00087175  0.24772821  0.74855792  1
  Ag  Ag1  1  0.00122993  0.49930848  0.50102357  1
  Ag  Ag2  1  0.49705397  0.24934176  0.24755773  1
  Ag  Ag3  1  0.75251236  0.49659466  0.74939835  1
  Ag  Ag4  1  0.24674461  0.00278607  0.75532557  1
  Ag  Ag5  1  0.24595668  0.75638013  0.00152221  1
  Ag  Ag6  1  0.24796402  0.50130818  0.24993775  1
  Ag  Ag7  1  0.00632038  -0.00168277  -0.00270333  1
  Ag  Ag8  1  0.00325123  0.00069483  0.50269960  1
  Ag  Ag9  1  0.00436495  0.75033550  0.24879777  1
  Ag  Ag10  1  0.24467689  0.75121562  0.49849434  1
  Ag  Ag11  1  0.75321546  0.75156929  -0.00066991  1
  Ag  Ag12  1  0.49363111  0.00322295  -0.00186510  1
  Ag  Ag13  1  0.25096709  0.24416409  -0.00220288  1
  Ag  Ag14  1  0.49859371  0.24804738  0.75258779  1
  Ag  Ag15  1  0.75355566  0.25062606  0.50375536  1
  Sb  Sb16  1  0.74969810  0.24859781  -0.00338551  1
  Sb  Sb17  1  0.75342560  0.00340792  0.75107155  1
  Sb  Sb18  1  0.24923141  -0.00094747  0.24281163  1
  Sb  Sb19  1  0.49855568  0.75265493  0.75234841  1
  Sb  Sb20  1  0.49800354  0.49820542  0.50077314  1
  Sb  Sb21  1  0.49878236  0.49550944  -0.00060110  1
  Sb  Sb22  1  0.00288604  0.25021356  0.25016017  1
  Sb  Sb23  1  0.00159368  0.50201162  -0.00113997  1
  Sb  Sb24  1  0.75050603  0.00073337  0.24937134  1
  Sb  Sb25  1  0.75687930  0.74952423  0.50077170  1
  Sb  Sb26  1  0.75230644  0.49940811  0.25099526  1
  Sb  Sb27  1  0.24547029  0.24804993  0.50138199  1
  Sb  Sb28  1  0.49513890  0.75030923  0.24655374  1
  Sb  Sb29  1  0.00142588  0.75345849  0.75193924  1
  Sb  Sb30  1  0.49615988  0.00314183  0.50223974  1
  Sb  Sb31  1  0.24741387  0.49680809  0.74942769  1
  Te  Te32  1  0.25328238  0.25495347  0.24678171  1
  Te  Te33  1  0.24952417  0.24851468  0.75251926  1
  Te  Te34  1  0.24731338  0.74628259  0.24829305  1
  Te  Te35  1  0.25055482  0.75298913  0.75208578  1
  Te  Te36  1  0.74428964  0.25193886  0.25497711  1
  Te  Te37  1  0.75096500  0.25286426  0.74795777  1
  Te  Te38  1  0.75498380  0.74809819  0.24470107  1
  Te  Te39  1  0.74951253  0.74361057  0.75467624  1
  Te  Te40  1  0.24834214  -0.00032749  -0.00086561  1
  Te  Te41  1  0.24501882  -0.00304198  0.50549640  1
  Te  Te42  1  0.24931948  0.50095547  0.00277201  1
  Te  Te43  1  0.24503808  0.50395226  0.49807329  1
  Te  Te44  1  0.75170847  -0.00473955  -0.00143031  1
  Te  Te45  1  0.75649139  0.00339167  0.50095815  1
  Te  Te46  1  0.75000083  0.50588389  -0.00456141  1
  Te  Te47  1  0.75541917  0.49763587  0.50319669  1
  Te  Te48  1  0.00191715  0.24574669  -0.00194126  1
  Te  Te49  1  -0.00149442  0.24868889  0.50162505  1
  Te  Te50  1  0.00333704  0.75272639  0.00158124  1
  Te  Te51  1  0.00246808  0.75121796  0.49774691  1
  Te  Te52  1  0.49861186  0.24595245  -0.00190526  1
  Te  Te53  1  0.50466685  0.24804633  0.50136868  1
  Te  Te54  1  0.49784989  0.75701815  0.00129842  1
  Te  Te55  1  0.49275306  0.75116879  0.49908731  1
  Te  Te56  1  0.00017825  -0.00397687  0.25003686  1
  Te  Te57  1  0.00309907  0.00362576  0.75045596  1
  Te  Te58  1  0.00396356  0.50293629  0.25500787  1
  Te  Te59  1  -0.00243968  0.49373548  0.74509443  1
  Te  Te60  1  0.50035509  0.00656110  0.24454851  1
  Te  Te61  1  0.49542661  0.00579250  0.75367735  1
  Te  Te62  1  0.49394018  0.49377184  0.25044821  1
  Te  Te63  1  0.50521653  0.49129943  0.74930274  1
