# generated using pymatgen
data_AgSbTe2
_symmetry_space_group_name_H-M   'P 1'
_cell_length_a   12.22853990
_cell_length_b   12.21597279
_cell_length_c   12.22303750
_cell_angle_alpha   89.99788600
_cell_angle_beta   89.99935681
_cell_angle_gamma   90.00089477
_symmetry_Int_Tables_number   1
_chemical_formula_structural   AgSbTe2
_chemical_formula_sum   'Ag16 Sb16 Te32'
_cell_volume   1825.92025150
_cell_formula_units_Z   16
loop_
 _symmetry_equiv_pos_site_id
 _symmetry_equiv_pos_as_xyz
  1  'x, y, z'
loop_
 _atom_site_type_symbol
 _atom_site_label
 _atom_site_symmetry_multiplicity
 _atom_site_fract_x
 _atom_site_fract_y
 _atom_site_fract_z
 _atom_site_occupancy
  Ag  Ag0  1  0.25150789  0.49990026  0.25236381  1
  Ag  Ag1  1  0.25235478  0.50066474  0.74755433  1
  Ag  Ag2  1  0.50155096  0.74228649  0.74854205  1
  Ag  Ag3  1  0.74932116  0.50226951  0.25648683  1
  Ag  Ag4  1  0.50041545  0.73989301  0.25093412  1
  Ag  Ag5  1  0.74990628  0.26070146  0.49646381  1
  Ag  Ag6  1  0.49957255  0.50175710  0.00519334  1
  Ag  Ag7  1  0.00006822  0.74263103  0.25031572  1
  Ag  Ag8  1  0.00041238  0.50221775  0.00706239  1
  Ag  Ag9  1  0.74781264  0.50209879  0.74320900  1
  Ag  Ag10  1  0.25102723  0.25714177  0.49502463  1
  Ag  Ag11  1  -0.00402725  0.50071755  0.49347153  1
  Ag  Ag12  1  0.00159503  -0.00276718  0.00539607  1
  Ag  Ag13  1  0.24839224  -0.00024205  0.25035878  1
  Ag  Ag14  1  0.49784839  0.26015450  0.25227587  1
  Ag  Ag15  1  0.74993056  0.73933228  0.49641869  1
  Sb  Sb16  1  0.00217219  -0.00248464  0.49357716  1
  Sb  Sb17  1  -0.00209024  0.74464683  0.74890731  1
  Sb  Sb18  1  0.24978293  -0.00086778  0.74919608  1
  Sb  Sb19  1  -0.00057947  0.25468858  0.74893573  1
  Sb  Sb20  1  0.75275546  -0.00142742  0.25070948  1
  Sb  Sb21  1  0.49736709  -0.00275866  0.00448102  1
  Sb  Sb22  1  0.49813266  -0.00109500  0.49697186  1
  Sb  Sb23  1  0.74923226  0.25600557  0.00559713  1
  Sb  Sb24  1  0.75032336  0.74518419  0.00467206  1
  Sb  Sb25  1  0.74994894  -0.00361723  0.74885271  1
  Sb  Sb26  1  0.00261569  0.25973936  0.25163904  1
  Sb  Sb27  1  0.25042577  0.25468204  0.00621387  1
  Sb  Sb28  1  0.50038355  0.26181999  0.74693633  1
  Sb  Sb29  1  0.25024642  0.73917412  0.49623598  1
  Sb  Sb30  1  0.50663549  0.50097663  0.49100620  1
  Sb  Sb31  1  0.24907362  0.74575946  0.00327439  1
  Te  Te32  1  0.25281769  0.25386159  0.25411891  1
  Te  Te33  1  0.25152769  0.25609809  0.74013903  1
  Te  Te34  1  0.25143740  0.74700881  0.25237562  1
  Te  Te35  1  0.25647271  0.74407379  0.74713723  1
  Te  Te36  1  0.74463571  0.25252914  0.25506636  1
  Te  Te37  1  0.74851745  0.25628196  0.74027733  1
  Te  Te38  1  0.74843894  0.74790794  0.25331015  1
  Te  Te39  1  0.74639127  0.74554013  0.74335202  1
  Te  Te40  1  0.24422972  0.00209364  0.00534324  1
  Te  Te41  1  0.24800044  0.01057297  0.49460266  1
  Te  Te42  1  0.24819343  0.49913300  0.00104580  1
  Te  Te43  1  0.24428807  0.49812711  0.49813584  1
  Te  Te44  1  0.75897479  0.00186546  -0.00116666  1
  Te  Te45  1  0.75183516  0.00206171  0.50113481  1
  Te  Te46  1  0.75190476  0.49945684  0.00059516  1
  Te  Te47  1  0.75105750  0.50013074  0.49842139  1
  Te  Te48  1  -0.00042467  0.25390656  -0.00003588  1
  Te  Te49  1  -0.00206710  0.25460896  0.49944467  1
  Te  Te50  1  -0.00032929  0.74477382  0.00550438  1
  Te  Te51  1  -0.00477759  0.74627706  0.49565773  1
  Te  Te52  1  0.50067964  0.25551985  0.00708686  1
  Te  Te53  1  0.50072712  0.24856177  0.49491923  1
  Te  Te54  1  0.50056000  0.74512798  0.00327060  1
  Te  Te55  1  0.50536067  0.75102762  0.49700087  1
  Te  Te56  1  0.00384532  -0.00768640  0.24619086  1
  Te  Te57  1  0.00182471  -0.00225336  0.76051732  1
  Te  Te58  1  -0.00007352  0.50157743  0.24930758  1
  Te  Te59  1  0.00001179  0.50218471  0.75170758  1
  Te  Te60  1  0.49386135  -0.00274640  0.24719674  1
  Te  Te61  1  0.49885679  -0.01172316  0.75371688  1
  Te  Te62  1  0.49923783  0.50210649  0.24919831  1
  Te  Te63  1  0.49986996  0.50281110  0.75715006  1
