# generated using pymatgen
data_AgSbTe2
_symmetry_space_group_name_H-M   'P 1'
_cell_length_a   12.21443361
_cell_length_b   12.21179449
_cell_length_c   12.21040363
_cell_angle_alpha   89.99965876
_cell_angle_beta   90.00414320
_cell_angle_gamma   90.00367311
_symmetry_Int_Tables_number   1
_chemical_formula_structural   AgSbTe2
_chemical_formula_sum   'Ag16 Sb16 Te32'
_cell_volume   1821.30566542
_cell_formula_units_Z   16
loop_
 _symmetry_equiv_pos_site_id
 _symmetry_equiv_pos_as_xyz
  1  'x, y, z'
loop_
 _atom_site_type_symbol
 _atom_site_label
 _atom_site_symmetry_multiplicity
 _atom_site_fract_x
 _atom_site_fract_y
 _atom_site_fract_z
 _atom_site_occupancy
  Ag  Ag0  1  -0.00267122  0.24429872  0.24883909  1
  Ag  Ag1  1  0.74701607  0.75337875  -0.00007567  1
  Ag  Ag2  1  0.75173320  0.00334755  0.24460016  1
  Ag  Ag3  1  0.74449287  0.50072323  0.75299041  1
  Ag  Ag4  1  0.74905611  0.75064830  0.50026093  1
  Ag  Ag5  1  0.50242479  0.24875363  0.24661214  1
  Ag  Ag6  1  0.50345676  0.00105468  0.00108090  1
  Ag  Ag7  1  -0.00334264  0.00117567  0.00252545  1
  Ag  Ag8  1  0.50082858  0.49810314  0.50253911  1
  Ag  Ag9  1  0.25084161  0.24973705  0.50051190  1
  Ag  Ag10  1  0.25231994  0.75280231  -0.00309210  1
  Ag  Ag11  1  0.50258528  0.49892592  -0.00293904  1
  Ag  Ag12  1  0.25484293  0.49903298  0.75147144  1
  Ag  Ag13  1  0.25002972  0.00060722  0.75373288  1
  Ag  Ag14  1  -0.00115814  0.00218805  0.49790369  1
  Ag  Ag15  1  0.74685289  0.24620425  0.00347593  1
  Sb  Sb16  1  0.50255713  0.75279037  0.24654958  1
  Sb  Sb17  1  0.74912364  0.24959091  0.49743892  1
  Sb  Sb18  1  -0.00001714  0.24726816  0.75133173  1
  Sb  Sb19  1  0.25086613  0.75022013  0.50327265  1
  Sb  Sb20  1  0.50080854  0.74763650  0.75331975  1
  Sb  Sb21  1  0.25274181  0.24810930  -0.00126048  1
  Sb  Sb22  1  -0.00095706  0.49764038  0.50072575  1
  Sb  Sb23  1  0.50003070  0.25225367  0.75321733  1
  Sb  Sb24  1  -0.00050817  0.75203833  0.75150775  1
  Sb  Sb25  1  -0.00322210  0.75624395  0.24866187  1
  Sb  Sb26  1  0.74684973  0.49645384  0.24721711  1
  Sb  Sb27  1  -0.00216270  0.49821473  -0.00063745  1
  Sb  Sb28  1  0.74901009  -0.00082929  0.75608839  1
  Sb  Sb29  1  0.50081115  0.00204707  0.49872080  1
  Sb  Sb30  1  0.24827343  0.00287390  0.24680744  1
  Sb  Sb31  1  0.25294237  0.49745094  0.24738338  1
  Te  Te32  1  0.25079134  0.24948102  0.25560644  1
  Te  Te33  1  0.24975254  0.25118375  0.74478783  1
  Te  Te34  1  0.24925419  0.74946211  0.24152494  1
  Te  Te35  1  0.24898832  0.74942147  0.75558732  1
  Te  Te36  1  0.74911355  0.24629822  0.24638098  1
  Te  Te37  1  0.75087511  0.25639145  0.75652398  1
  Te  Te38  1  0.75039637  0.75634101  0.24767955  1
  Te  Te39  1  0.75070658  0.74498718  0.75192201  1
  Te  Te40  1  0.25020244  -0.00103776  -0.00310427  1
  Te  Te41  1  0.24823891  0.00036461  0.50417929  1
  Te  Te42  1  0.25369107  0.50208949  -0.00521502  1
  Te  Te43  1  0.25298619  0.49970022  0.50592532  1
  Te  Te44  1  0.74957017  -0.00129286  -0.00242723  1
  Te  Te45  1  0.75193533  -0.00284338  0.50001619  1
  Te  Te46  1  0.74732201  0.50214699  -0.00280617  1
  Te  Te47  1  0.74718254  0.50292195  0.50394121  1
  Te  Te48  1  -0.00263871  0.24579098  0.00531988  1
  Te  Te49  1  0.00246941  0.24574639  0.49477793  1
  Te  Te50  1  -0.00170739  0.75580275  0.00161014  1
  Te  Te51  1  -0.00507323  0.75638520  0.49784425  1
  Te  Te52  1  0.50154531  0.25061550  0.00490426  1
  Te  Te53  1  0.49745370  0.25349269  0.49330567  1
  Te  Te54  1  0.50241713  0.74944178  0.00260854  1
  Te  Te55  1  0.50497297  0.74410981  0.49661160  1
  Te  Te56  1  -0.00332717  0.00485850  0.24850893  1
  Te  Te57  1  0.00540918  0.00127851  0.75057726  1
  Te  Te58  1  0.00042411  0.48842370  0.25041866  1
  Te  Te59  1  0.00234756  0.49873511  0.74961779  1
  Te  Te60  1  0.50469401  0.00606126  0.24604506  1
  Te  Te61  1  0.49372334  0.00139054  0.75597695  1
  Te  Te62  1  0.50046648  0.49232038  0.24888693  1
  Te  Te63  1  0.49936036  0.49894706  0.75168204  1
