# generated using pymatgen
data_AgSbTe2
_symmetry_space_group_name_H-M   'P 1'
_cell_length_a   12.22297841
_cell_length_b   12.21776674
_cell_length_c   12.22548624
_cell_angle_alpha   90.00367422
_cell_angle_beta   89.99813690
_cell_angle_gamma   89.98478968
_symmetry_Int_Tables_number   1
_chemical_formula_structural   AgSbTe2
_chemical_formula_sum   'Ag16 Sb16 Te32'
_cell_volume   1825.72347154
_cell_formula_units_Z   16
loop_
 _symmetry_equiv_pos_site_id
 _symmetry_equiv_pos_as_xyz
  1  'x, y, z'
loop_
 _atom_site_type_symbol
 _atom_site_label
 _atom_site_symmetry_multiplicity
 _atom_site_fract_x
 _atom_site_fract_y
 _atom_site_fract_z
 _atom_site_occupancy
  Ag  Ag0  1  -0.00046859  0.00120608  0.50149088  1
  Ag  Ag1  1  0.00380114  0.75122282  0.74911017  1
  Ag  Ag2  1  0.73594154  0.24783336  0.50164552  1
  Ag  Ag3  1  0.74861688  0.00526725  0.25316754  1
  Ag  Ag4  1  0.25136325  0.74961551  0.50568945  1
  Ag  Ag5  1  0.50013603  0.49522629  -0.00814847  1
  Ag  Ag6  1  0.24952041  0.74874991  -0.00636487  1
  Ag  Ag7  1  -0.00116816  -0.00052958  -0.00205712  1
  Ag  Ag8  1  0.74130370  0.49526100  0.74884026  1
  Ag  Ag9  1  0.50052218  0.01429876  0.50071595  1
  Ag  Ag10  1  0.26427155  0.25008164  0.50308532  1
  Ag  Ag11  1  0.49822005  0.48592486  0.50730521  1
  Ag  Ag12  1  0.50290209  0.24933634  0.26411019  1
  Ag  Ag13  1  0.74517761  0.25009703  -0.00209472  1
  Ag  Ag14  1  0.50182499  0.25594984  0.73655234  1
  Ag  Ag15  1  0.25691935  0.50104189  0.74674846  1
  Sb  Sb16  1  0.74879313  0.75110488  0.50301890  1
  Sb  Sb17  1  0.00126299  0.49915135  0.50369841  1
  Sb  Sb18  1  0.49978360  0.75127873  0.25190570  1
  Sb  Sb19  1  0.25242645  0.00192159  0.25260988  1
  Sb  Sb20  1  0.00118888  0.75335633  0.25158510  1
  Sb  Sb21  1  0.75018233  0.74991087  -0.00344572  1
  Sb  Sb22  1  0.00031600  0.50040097  -0.00438883  1
  Sb  Sb23  1  0.25370664  0.25096551  -0.00392659  1
  Sb  Sb24  1  -0.00104523  0.24865122  0.74798448  1
  Sb  Sb25  1  0.74907736  0.00493898  0.74754822  1
  Sb  Sb26  1  0.25294510  0.49813846  0.25327304  1
  Sb  Sb27  1  0.49636796  0.74264702  0.74824701  1
  Sb  Sb28  1  0.50056804  0.00352047  -0.00113645  1
  Sb  Sb29  1  0.25046876  -0.00164725  0.74738377  1
  Sb  Sb30  1  0.74552137  0.49505243  0.25108774  1
  Sb  Sb31  1  -0.00321776  0.24682684  0.25178488  1
  Te  Te32  1  0.25676137  0.25040619  0.25636824  1
  Te  Te33  1  0.25217718  0.25512015  0.74644084  1
  Te  Te34  1  0.25047785  0.74971267  0.25133533  1
  Te  Te35  1  0.24794662  0.74743022  0.74814086  1
  Te  Te36  1  0.74701702  0.24712259  0.25139663  1
  Te  Te37  1  0.74925421  0.25416875  0.74910825  1
  Te  Te38  1  0.74986309  0.75889276  0.24956452  1
  Te  Te39  1  0.75647951  0.74102404  0.75017206  1
  Te  Te40  1  0.24583823  -0.00365163  0.00059011  1
  Te  Te41  1  0.24977146  0.00018117  0.50016788  1
  Te  Te42  1  0.25238066  0.50202802  -0.00360562  1
  Te  Te43  1  0.25134547  0.50023350  0.50271873  1
  Te  Te44  1  0.75196324  0.00248263  0.00082757  1
  Te  Te45  1  0.74992523  0.00164201  0.50002881  1
  Te  Te46  1  0.74674769  0.49663012  -0.00164656  1
  Te  Te47  1  0.74769597  0.49740223  0.50219721  1
  Te  Te48  1  -0.00383238  0.24445953  0.00048412  1
  Te  Te49  1  -0.00017515  0.24426099  0.50003787  1
  Te  Te50  1  0.00359149  0.75352427  -0.00235400  1
  Te  Te51  1  0.00415750  0.75429012  0.50210925  1
  Te  Te52  1  0.50194913  0.25183437  -0.00189771  1
  Te  Te53  1  0.50069355  0.25005734  0.50205524  1
  Te  Te54  1  0.49474917  0.74627269  0.00010985  1
  Te  Te55  1  0.49497147  0.75036274  0.50035936  1
  Te  Te56  1  -0.00541190  0.00066511  0.25178536  1
  Te  Te57  1  -0.00017978  -0.00393847  0.74883879  1
  Te  Te58  1  -0.00108875  0.50014119  0.24946737  1
  Te  Te59  1  0.00193752  0.50492313  0.74982476  1
  Te  Te60  1  0.50412130  0.00432508  0.25305118  1
  Te  Te61  1  0.50089106  0.00739631  0.74545065  1
  Te  Te62  1  0.50103072  0.49491006  0.25110806  1
  Te  Te63  1  0.49972059  0.49888870  0.74873934  1
