# generated using pymatgen
data_AgSbTe2
_symmetry_space_group_name_H-M   'P 1'
_cell_length_a   12.21405569
_cell_length_b   12.21121543
_cell_length_c   12.20694202
_cell_angle_alpha   90.00128381
_cell_angle_beta   90.00123951
_cell_angle_gamma   89.99842665
_symmetry_Int_Tables_number   1
_chemical_formula_structural   AgSbTe2
_chemical_formula_sum   'Ag16 Sb16 Te32'
_cell_volume   1820.64666681
_cell_formula_units_Z   16
loop_
 _symmetry_equiv_pos_site_id
 _symmetry_equiv_pos_as_xyz
  1  'x, y, z'
loop_
 _atom_site_type_symbol
 _atom_site_label
 _atom_site_symmetry_multiplicity
 _atom_site_fract_x
 _atom_site_fract_y
 _atom_site_fract_z
 _atom_site_occupancy
  Ag  Ag0  1  0.00065547  0.49789248  0.50341204  1
  Ag  Ag1  1  0.24974488  0.24895695  0.50354256  1
  Ag  Ag2  1  0.00058290  0.25265947  0.75300520  1
  Ag  Ag3  1  0.49637406  0.00305673  0.50266789  1
  Ag  Ag4  1  0.75277868  0.74469505  -0.00227742  1
  Ag  Ag5  1  0.75217002  0.49731895  0.75595583  1
  Ag  Ag6  1  0.75254599  0.25521484  -0.00601251  1
  Ag  Ag7  1  0.50256757  0.49903280  -0.00358557  1
  Ag  Ag8  1  0.24680228  0.74887826  0.00007544  1
  Ag  Ag9  1  0.24935019  -0.00001936  0.24862893  1
  Ag  Ag10  1  -0.00265548  0.49954294  -0.00297758  1
  Ag  Ag11  1  0.75065558  0.00290369  0.75224541  1
  Ag  Ag12  1  0.49907716  0.49755008  0.50335818  1
  Ag  Ag13  1  0.24961313  0.00414858  0.75067712  1
  Ag  Ag14  1  0.00207795  0.74866993  0.24565882  1
  Ag  Ag15  1  0.24701591  0.25057860  -0.00427786  1
  Sb  Sb16  1  0.49904520  0.74890425  0.75170794  1
  Sb  Sb17  1  0.00180924  0.00062886  -0.00142423  1
  Sb  Sb18  1  0.75033663  -0.00152812  0.24789332  1
  Sb  Sb19  1  0.24715965  0.49420735  0.75227746  1
  Sb  Sb20  1  0.49799099  0.25068964  0.75009626  1
  Sb  Sb21  1  0.00276015  0.25147562  0.24648883  1
  Sb  Sb22  1  0.75103114  0.50130716  0.24180711  1
  Sb  Sb23  1  0.49688718  0.75122816  0.24723594  1
  Sb  Sb24  1  0.75118777  0.25203251  0.50786302  1
  Sb  Sb25  1  0.49783781  0.24936040  0.24991289  1
  Sb  Sb26  1  0.00359894  0.00361958  0.50245315  1
  Sb  Sb27  1  0.24866982  0.50128466  0.24785168  1
  Sb  Sb28  1  0.00056101  0.74581159  0.75560663  1
  Sb  Sb29  1  0.24802766  0.75107195  0.50072095  1
  Sb  Sb30  1  0.75211887  0.74823102  0.50272627  1
  Sb  Sb31  1  0.49763487  0.00202667  -0.00338414  1
  Te  Te32  1  0.24838388  0.24271639  0.24907833  1
  Te  Te33  1  0.24628952  0.24677089  0.75176779  1
  Te  Te34  1  0.24608784  0.75533040  0.24421515  1
  Te  Te35  1  0.24844048  0.75993890  0.75677745  1
  Te  Te36  1  0.75149168  0.24744486  0.23859616  1
  Te  Te37  1  0.75502521  0.24988762  0.75390276  1
  Te  Te38  1  0.75689175  0.75207839  0.24110152  1
  Te  Te39  1  0.75123425  0.75100126  0.75635213  1
  Te  Te40  1  0.25195047  0.00208509  -0.00168847  1
  Te  Te41  1  0.25252493  0.00172059  0.50257057  1
  Te  Te42  1  0.25005861  0.49871048  -0.00097031  1
  Te  Te43  1  0.25180185  0.49715286  0.50056497  1
  Te  Te44  1  0.74792720  0.00031209  -0.00485108  1
  Te  Te45  1  0.74383687  0.00007304  0.50599179  1
  Te  Te46  1  0.75027244  0.49981398  -0.00180186  1
  Te  Te47  1  0.74854190  0.49958860  0.50652073  1
  Te  Te48  1  0.00243734  0.25331914  -0.00194988  1
  Te  Te49  1  0.00372463  0.25526559  0.50274292  1
  Te  Te50  1  0.00112798  0.74620901  0.00125757  1
  Te  Te51  1  0.00039678  0.74084800  0.49370545  1
  Te  Te52  1  0.49805667  0.25607290  0.00056503  1
  Te  Te53  1  0.49492171  0.25315827  0.49945213  1
  Te  Te54  1  0.49962846  0.74268638  0.00126212  1
  Te  Te55  1  0.49984458  0.74549221  0.49842362  1
  Te  Te56  1  0.00525360  -0.00576406  0.25130861  1
  Te  Te57  1  -0.00082640  0.00582456  0.74873493  1
  Te  Te58  1  0.00030930  0.50416424  0.24992514  1
  Te  Te59  1  -0.00227247  0.49705469  0.75113060  1
  Te  Te60  1  0.49427037  -0.00025932  0.25854852  1
  Te  Te61  1  0.50016929  -0.00044672  0.74486518  1
  Te  Te62  1  0.50032568  0.50006166  0.25292861  1
  Te  Te63  1  0.50586037  0.50025668  0.74904224  1
