# generated using pymatgen
data_AgSbTe2
_symmetry_space_group_name_H-M   'P 1'
_cell_length_a   12.22008681
_cell_length_b   12.21172222
_cell_length_c   12.21512756
_cell_angle_alpha   90.00262774
_cell_angle_beta   89.99532355
_cell_angle_gamma   90.00470706
_symmetry_Int_Tables_number   1
_chemical_formula_structural   AgSbTe2
_chemical_formula_sum   'Ag16 Sb16 Te32'
_cell_volume   1822.84277610
_cell_formula_units_Z   16
loop_
 _symmetry_equiv_pos_site_id
 _symmetry_equiv_pos_as_xyz
  1  'x, y, z'
loop_
 _atom_site_type_symbol
 _atom_site_label
 _atom_site_symmetry_multiplicity
 _atom_site_fract_x
 _atom_site_fract_y
 _atom_site_fract_z
 _atom_site_occupancy
  Ag  Ag0  1  -0.00069163  0.00503397  0.50444488  1
  Ag  Ag1  1  0.50050365  0.00430829  -0.00452793  1
  Ag  Ag2  1  0.50074279  0.01001946  0.50411619  1
  Ag  Ag3  1  0.74457940  0.24981860  0.50599147  1
  Ag  Ag4  1  -0.00042410  0.75059469  0.25094354  1
  Ag  Ag5  1  0.25168903  0.00543568  0.74684174  1
  Ag  Ag6  1  0.25169645  0.49428021  0.74699434  1
  Ag  Ag7  1  0.74876550  0.01055279  0.74657618  1
  Ag  Ag8  1  0.74849833  0.48920912  0.74580247  1
  Ag  Ag9  1  -0.00406112  0.24702509  0.74605472  1
  Ag  Ag10  1  0.74793972  0.49488958  0.25389075  1
  Ag  Ag11  1  0.50331708  0.24989987  0.25640390  1
  Ag  Ag12  1  0.50318447  0.48962201  0.50184118  1
  Ag  Ag13  1  0.25541599  0.24753183  0.50571885  1
  Ag  Ag14  1  0.25047135  0.75192258  -0.00178841  1
  Ag  Ag15  1  0.74692339  0.24871953  -0.00657014  1
  Sb  Sb16  1  0.49890417  0.75207630  0.75067653  1
  Sb  Sb17  1  0.25195341  0.49811962  0.25298500  1
  Sb  Sb18  1  0.00104981  0.75262112  0.74898134  1
  Sb  Sb19  1  -0.00291856  0.24984566  0.25368043  1
  Sb  Sb20  1  0.25075599  0.00108990  0.25321060  1
  Sb  Sb21  1  0.75052540  0.75025778  0.49972864  1
  Sb  Sb22  1  0.50131672  0.49442691  -0.00257388  1
  Sb  Sb23  1  0.74854423  0.00494204  0.25318694  1
  Sb  Sb24  1  0.25436040  0.24818308  -0.00844737  1
  Sb  Sb25  1  0.50695122  0.24789636  0.74166248  1
  Sb  Sb26  1  0.50054113  0.74895514  0.24957560  1
  Sb  Sb27  1  -0.00047126  0.49924550  -0.00076473  1
  Sb  Sb28  1  -0.00241030  0.49531539  0.50216646  1
  Sb  Sb29  1  0.24938763  0.75179751  0.50159014  1
  Sb  Sb30  1  0.74944264  0.75187841  0.00047002  1
  Sb  Sb31  1  -0.00026925  0.00160754  -0.00384817  1
  Te  Te32  1  0.25329270  0.25191268  0.25611191  1
  Te  Te33  1  0.24442394  0.24919482  0.74778636  1
  Te  Te34  1  0.24526754  0.74851857  0.24431540  1
  Te  Te35  1  0.24817874  0.74976069  0.75402468  1
  Te  Te36  1  0.74870222  0.25397041  0.25194187  1
  Te  Te37  1  0.75069131  0.25023260  0.74804689  1
  Te  Te38  1  0.75434613  0.74136289  0.24817687  1
  Te  Te39  1  0.75224679  0.74801465  0.75178281  1
  Te  Te40  1  0.25337649  -0.00072342  -0.00567802  1
  Te  Te41  1  0.25292652  0.00237365  0.50390537  1
  Te  Te42  1  0.25169254  0.50254007  -0.00687569  1
  Te  Te43  1  0.25331279  0.49696297  0.50479542  1
  Te  Te44  1  0.74666103  0.00340804  -0.00472596  1
  Te  Te45  1  0.74699387  0.00204413  0.50343101  1
  Te  Te46  1  0.74832884  0.49567282  -0.00359498  1
  Te  Te47  1  0.74753796  0.49794400  0.50332346  1
  Te  Te48  1  -0.00628022  0.24888517  -0.00430523  1
  Te  Te49  1  -0.00046779  0.24553399  0.50246128  1
  Te  Te50  1  0.00472312  0.75114001  0.00565917  1
  Te  Te51  1  0.00084985  0.75862824  0.49511284  1
  Te  Te52  1  0.50372692  0.24531424  0.00895268  1
  Te  Te53  1  0.50093738  0.24868284  0.49855849  1
  Te  Te54  1  0.49529341  0.75869677  0.00205718  1
  Te  Te55  1  0.49929247  0.75211081  0.49787788  1
  Te  Te56  1  -0.00091810  -0.00277395  0.25613266  1
  Te  Te57  1  -0.00070422  0.00272807  0.74632857  1
  Te  Te58  1  -0.00495140  0.50262503  0.25069514  1
  Te  Te59  1  -0.00127885  0.49607402  0.74859359  1
  Te  Te60  1  0.50092803  0.00387171  0.25252935  1
  Te  Te61  1  0.50002653  -0.00069357  0.74778617  1
  Te  Te62  1  0.50347096  0.49694449  0.25400618  1
  Te  Te63  1  0.50115883  0.50192100  0.74577291  1
