# generated using pymatgen
data_AgSbTe2
_symmetry_space_group_name_H-M   'P 1'
_cell_length_a   12.23673663
_cell_length_b   12.22880338
_cell_length_c   12.22438172
_cell_angle_alpha   89.99601638
_cell_angle_beta   90.00289082
_cell_angle_gamma   90.00525034
_symmetry_Int_Tables_number   1
_chemical_formula_structural   AgSbTe2
_chemical_formula_sum   'Ag16 Sb16 Te32'
_cell_volume   1829.26436674
_cell_formula_units_Z   16
loop_
 _symmetry_equiv_pos_site_id
 _symmetry_equiv_pos_as_xyz
  1  'x, y, z'
loop_
 _atom_site_type_symbol
 _atom_site_label
 _atom_site_symmetry_multiplicity
 _atom_site_fract_x
 _atom_site_fract_y
 _atom_site_fract_z
 _atom_site_occupancy
  Ag  Ag0  1  0.74979335  0.25438023  0.50372670  1
  Ag  Ag1  1  0.49715261  0.50367634  -0.01559066  1
  Ag  Ag2  1  0.24992857  0.25237758  0.50566355  1
  Ag  Ag3  1  0.26389268  0.50371879  0.75065008  1
  Ag  Ag4  1  0.25031455  -0.00366277  0.74720767  1
  Ag  Ag5  1  0.00482916  0.74447529  0.74859642  1
  Ag  Ag6  1  0.50177509  0.50161652  0.51457481  1
  Ag  Ag7  1  0.00074655  0.25219188  0.25520053  1
  Ag  Ag8  1  0.00157826  0.00153794  0.50355697  1
  Ag  Ag9  1  0.49618854  0.73556184  0.74849934  1
  Ag  Ag10  1  0.49733827  0.26505040  0.74550458  1
  Ag  Ag11  1  0.25247833  0.74469916  -0.00787175  1
  Ag  Ag12  1  0.49903044  0.74493310  0.25277856  1
  Ag  Ag13  1  0.00335884  0.50198927  -0.00703614  1
  Ag  Ag14  1  0.73524827  0.50224751  0.74566171  1
  Ag  Ag15  1  0.74628828  0.74464906  0.50568158  1
  Sb  Sb16  1  0.50006862  0.25409810  0.25372574  1
  Sb  Sb17  1  0.24863579  -0.00074156  0.25378135  1
  Sb  Sb18  1  0.74995613  -0.00197947  0.74643053  1
  Sb  Sb19  1  0.25226061  0.74771172  0.50730788  1
  Sb  Sb20  1  0.25058659  0.50037077  0.25048794  1
  Sb  Sb21  1  0.49819516  -0.00095886  0.50345923  1
  Sb  Sb22  1  0.00437013  -0.00099269  -0.00373410  1
  Sb  Sb23  1  0.25058293  0.25490771  -0.00582208  1
  Sb  Sb24  1  0.74810830  0.74597952  -0.00537384  1
  Sb  Sb25  1  0.00040758  0.74848481  0.25098522  1
  Sb  Sb26  1  0.74949781  0.25505913  -0.00401402  1
  Sb  Sb27  1  0.00131970  0.25384219  0.74737329  1
  Sb  Sb28  1  0.74930384  0.50068191  0.25516913  1
  Sb  Sb29  1  -0.00095309  0.49985093  0.50607548  1
  Sb  Sb30  1  0.75076897  -0.00041646  0.25392885  1
  Sb  Sb31  1  0.49658500  -0.00420788  -0.00442591  1
  Te  Te32  1  0.24727333  0.24866328  0.25740262  1
  Te  Te33  1  0.25157917  0.25205820  0.74674260  1
  Te  Te34  1  0.25377083  0.75101583  0.24271009  1
  Te  Te35  1  0.24996205  0.74673683  0.74935999  1
  Te  Te36  1  0.75235108  0.24958822  0.25800556  1
  Te  Te37  1  0.74737194  0.25202792  0.74495319  1
  Te  Te38  1  0.74624409  0.75004563  0.25817764  1
  Te  Te39  1  0.74927868  0.74864240  0.74626052  1
  Te  Te40  1  0.24972287  -0.00609672  -0.00757260  1
  Te  Te41  1  0.24615445  0.00376927  0.50495923  1
  Te  Te42  1  0.25108964  0.50224425  -0.00268395  1
  Te  Te43  1  0.25273368  0.49660917  0.50346144  1
  Te  Te44  1  0.75022058  0.00149031  0.00134435  1
  Te  Te45  1  0.75584201  0.00187887  0.50092257  1
  Te  Te46  1  0.74904318  0.49940045  -0.00754038  1
  Te  Te47  1  0.74897247  0.50032391  0.50443968  1
  Te  Te48  1  -0.00043139  0.25352210  0.00532899  1
  Te  Te49  1  -0.00047481  0.25045784  0.49948840  1
  Te  Te50  1  0.00090858  0.74688867  -0.00129880  1
  Te  Te51  1  -0.00147687  0.75113760  0.50162671  1
  Te  Te52  1  0.50036785  0.25624161  -0.00193174  1
  Te  Te53  1  0.50065479  0.25058824  0.50128644  1
  Te  Te54  1  0.49914973  0.74639588  -0.00481634  1
  Te  Te55  1  0.50060372  0.74856412  0.50389047  1
  Te  Te56  1  0.00057081  0.00448882  0.25527800  1
  Te  Te57  1  0.00366462  -0.00414224  0.74668734  1
  Te  Te58  1  -0.00032486  0.49626228  0.24129018  1
  Te  Te59  1  0.00152423  0.50299075  0.75304048  1
  Te  Te60  1  0.49954432  -0.00831494  0.24835138  1
  Te  Te61  1  0.49494235  0.00020356  0.75052610  1
  Te  Te62  1  0.50026276  0.50525305  0.25023924  1
  Te  Te63  1  0.49926824  0.49993283  0.74791197  1
