# generated using pymatgen
data_AgSbTe2
_symmetry_space_group_name_H-M   'P 1'
_cell_length_a   12.22035748
_cell_length_b   12.21707842
_cell_length_c   12.21393340
_cell_angle_alpha   90.00399687
_cell_angle_beta   90.00032321
_cell_angle_gamma   90.00390849
_symmetry_Int_Tables_number   1
_chemical_formula_structural   AgSbTe2
_chemical_formula_sum   'Ag16 Sb16 Te32'
_cell_volume   1823.50440839
_cell_formula_units_Z   16
loop_
 _symmetry_equiv_pos_site_id
 _symmetry_equiv_pos_as_xyz
  1  'x, y, z'
loop_
 _atom_site_type_symbol
 _atom_site_label
 _atom_site_symmetry_multiplicity
 _atom_site_fract_x
 _atom_site_fract_y
 _atom_site_fract_z
 _atom_site_occupancy
  Ag  Ag0  1  0.24668139  0.50406164  0.25395676  1
  Ag  Ag1  1  0.00412960  0.49995747  0.50051364  1
  Ag  Ag2  1  0.49617181  0.75187616  0.74788142  1
  Ag  Ag3  1  0.00035027  0.49671955  -0.00004187  1
  Ag  Ag4  1  0.24933278  -0.00085097  0.74500401  1
  Ag  Ag5  1  0.00029713  0.24982673  0.74983901  1
  Ag  Ag6  1  0.75086687  0.00285014  0.74854456  1
  Ag  Ag7  1  0.49923189  0.24770041  0.75161245  1
  Ag  Ag8  1  0.49690784  0.75036619  0.25255482  1
  Ag  Ag9  1  0.24976702  0.75019324  0.50018521  1
  Ag  Ag10  1  0.75113181  -0.00056211  0.25152255  1
  Ag  Ag11  1  0.24714880  0.50085095  0.74653159  1
  Ag  Ag12  1  0.24877770  -0.00434900  0.25516687  1
  Ag  Ag13  1  0.75203967  0.25032977  -0.00244997  1
  Ag  Ag14  1  0.00297875  0.00000125  0.50244674  1
  Ag  Ag15  1  0.75287485  0.50054008  0.24953394  1
  Sb  Sb16  1  -0.00105437  0.25192644  0.24964008  1
  Sb  Sb17  1  0.24736192  0.25185405  -0.00363000  1
  Sb  Sb18  1  0.50102298  0.00115723  -0.00210843  1
  Sb  Sb19  1  0.00471053  0.75077832  0.74737200  1
  Sb  Sb20  1  0.49523634  -0.00179572  0.50168958  1
  Sb  Sb21  1  0.50122330  0.24922014  0.24862335  1
  Sb  Sb22  1  0.75363665  0.49742451  0.75031318  1
  Sb  Sb23  1  0.24711979  0.24969790  0.50249940  1
  Sb  Sb24  1  0.75243641  0.24924132  0.50308014  1
  Sb  Sb25  1  0.75023695  0.75078659  0.49959768  1
  Sb  Sb26  1  0.25058679  0.74913197  -0.00018651  1
  Sb  Sb27  1  0.75002270  0.74928395  0.00050301  1
  Sb  Sb28  1  0.49447324  0.50212850  0.50040820  1
  Sb  Sb29  1  0.50008626  0.49856470  -0.00053501  1
  Sb  Sb30  1  0.00434288  0.74933352  0.25236250  1
  Sb  Sb31  1  -0.00133154  0.00412722  -0.00232874  1
  Te  Te32  1  0.25208769  0.24945660  0.24819202  1
  Te  Te33  1  0.24990570  0.24909872  0.75147067  1
  Te  Te34  1  0.25369591  0.75048211  0.25171851  1
  Te  Te35  1  0.25385472  0.75094998  0.74842407  1
  Te  Te36  1  0.74808041  0.24798681  0.24517254  1
  Te  Te37  1  0.75062362  0.24710353  0.75222953  1
  Te  Te38  1  0.74239975  0.75230562  0.25058555  1
  Te  Te39  1  0.74034869  0.75689533  0.74952243  1
  Te  Te40  1  0.24761239  0.00084932  0.00134973  1
  Te  Te41  1  0.24589576  -0.00174553  0.49998787  1
  Te  Te42  1  0.24438864  0.49867967  0.00079078  1
  Te  Te43  1  0.24597086  0.50178324  0.49930392  1
  Te  Te44  1  0.75214280  0.00411145  0.00175925  1
  Te  Te45  1  0.75833943  -0.00108222  0.49816781  1
  Te  Te46  1  0.75473838  0.49692927  0.00431080  1
  Te  Te47  1  0.75952553  0.50078437  0.49312446  1
  Te  Te48  1  -0.00466632  0.25488742  -0.00617469  1
  Te  Te49  1  -0.00002690  0.24981027  0.50695614  1
  Te  Te50  1  -0.00112379  0.73797852  -0.00048845  1
  Te  Te51  1  0.00683644  0.75008730  0.50038740  1
  Te  Te52  1  0.50845268  0.25071989  -0.00852345  1
  Te  Te53  1  0.50117011  0.25087569  0.51084592  1
  Te  Te54  1  0.50065112  0.74947410  -0.00064212  1
  Te  Te55  1  0.49289573  0.74933567  0.50017948  1
  Te  Te56  1  0.00054665  0.00091805  0.25260234  1
  Te  Te57  1  0.00120156  0.00101859  0.74873906  1
  Te  Te58  1  0.00201760  0.49864268  0.25234443  1
  Te  Te59  1  0.00157233  0.49883552  0.74728550  1
  Te  Te60  1  0.49953850  -0.00275285  0.25086442  1
  Te  Te61  1  0.49834855  -0.00061659  0.74927096  1
  Te  Te62  1  0.49860092  0.50252476  0.25005840  1
  Te  Te63  1  0.49557556  0.50130055  0.75008256  1
