# generated using pymatgen
data_AgSbTe2
_symmetry_space_group_name_H-M   'P 1'
_cell_length_a   12.21980883
_cell_length_b   12.22792052
_cell_length_c   12.21871626
_cell_angle_alpha   90.00104922
_cell_angle_beta   90.01332019
_cell_angle_gamma   89.99789930
_symmetry_Int_Tables_number   1
_chemical_formula_structural   AgSbTe2
_chemical_formula_sum   'Ag16 Sb16 Te32'
_cell_volume   1825.75537073
_cell_formula_units_Z   16
loop_
 _symmetry_equiv_pos_site_id
 _symmetry_equiv_pos_as_xyz
  1  'x, y, z'
loop_
 _atom_site_type_symbol
 _atom_site_label
 _atom_site_symmetry_multiplicity
 _atom_site_fract_x
 _atom_site_fract_y
 _atom_site_fract_z
 _atom_site_occupancy
  Ag  Ag0  1  0.49907263  0.49384493  -0.00182792  1
  Ag  Ag1  1  0.50205108  0.49481442  0.50243941  1
  Ag  Ag2  1  0.00078306  0.24657325  0.74640345  1
  Ag  Ag3  1  0.50300684  0.00565510  0.50197961  1
  Ag  Ag4  1  0.50327712  0.24636866  0.24722925  1
  Ag  Ag5  1  0.49521423  0.75384842  0.75232684  1
  Ag  Ag6  1  -0.00210878  0.00387507  0.50539286  1
  Ag  Ag7  1  0.00376150  0.75380176  0.74873950  1
  Ag  Ag8  1  0.74193138  0.24680194  0.00075942  1
  Ag  Ag9  1  0.25174769  -0.00117960  0.75269239  1
  Ag  Ag10  1  0.49818975  0.00606576  -0.00248107  1
  Ag  Ag11  1  -0.00224535  0.49608863  0.50420583  1
  Ag  Ag12  1  0.74586299  0.00579518  0.25162685  1
  Ag  Ag13  1  0.74741714  0.24642940  0.49963128  1
  Ag  Ag14  1  0.25824315  0.24672869  -0.00331464  1
  Ag  Ag15  1  0.25447398  0.75397598  -0.00669055  1
  Sb  Sb16  1  0.25120426  0.50088888  0.75125964  1
  Sb  Sb17  1  0.00122510  0.00152330  -0.00613358  1
  Sb  Sb18  1  0.74928898  0.75407916  0.50117389  1
  Sb  Sb19  1  0.74827404  0.49722257  0.74906777  1
  Sb  Sb20  1  0.74627421  0.75311141  -0.00184948  1
  Sb  Sb21  1  -0.00272522  0.24748731  0.25260845  1
  Sb  Sb22  1  0.49908525  0.75264155  0.24898017  1
  Sb  Sb23  1  0.49764984  0.24636628  0.75275927  1
  Sb  Sb24  1  0.25265835  0.00289794  0.24756823  1
  Sb  Sb25  1  0.25080817  0.75197015  0.50635859  1
  Sb  Sb26  1  0.25198455  0.24819391  0.50380365  1
  Sb  Sb27  1  0.25121547  0.49702077  0.24911088  1
  Sb  Sb28  1  0.74790406  0.00255213  0.74834680  1
  Sb  Sb29  1  0.00121646  0.75314654  0.25089666  1
  Sb  Sb30  1  0.74774155  0.49439743  0.25090816  1
  Sb  Sb31  1  -0.00033351  0.49802720  -0.00381853  1
  Te  Te32  1  0.25719015  0.24937673  0.23998181  1
  Te  Te33  1  0.24486254  0.24487392  0.75489442  1
  Te  Te34  1  0.24925763  0.75033752  0.23687336  1
  Te  Te35  1  0.25105218  0.75381938  0.75398261  1
  Te  Te36  1  0.74640203  0.24586414  0.25032344  1
  Te  Te37  1  0.75768900  0.24984117  0.74940744  1
  Te  Te38  1  0.75086970  0.76033567  0.24922791  1
  Te  Te39  1  0.75218420  0.74971630  0.75064113  1
  Te  Te40  1  0.25199359  0.00166184  -0.00256652  1
  Te  Te41  1  0.25143478  -0.00017563  0.50373682  1
  Te  Te42  1  0.25532748  0.49735887  0.00026860  1
  Te  Te43  1  0.25339573  0.50047306  0.49954712  1
  Te  Te44  1  0.74656401  0.00422854  0.00290366  1
  Te  Te45  1  0.74684784  0.00369515  0.49913805  1
  Te  Te46  1  0.74389649  0.49380729  0.00129128  1
  Te  Te47  1  0.74642776  0.49349463  0.49931808  1
  Te  Te48  1  -0.00131331  0.25169823  -0.00239015  1
  Te  Te49  1  0.00012954  0.24870001  0.50150911  1
  Te  Te50  1  0.00342129  0.74811590  -0.00616230  1
  Te  Te51  1  0.00023694  0.75042913  0.50505850  1
  Te  Te52  1  0.50126368  0.24882642  -0.00424313  1
  Te  Te53  1  0.50020587  0.24906104  0.50259559  1
  Te  Te54  1  0.49898197  0.75078141  -0.00231311  1
  Te  Te55  1  0.49974804  0.74954610  0.50318233  1
  Te  Te56  1  -0.00438844  -0.00063245  0.25976530  1
  Te  Te57  1  0.00254841  -0.00027614  0.74710007  1
  Te  Te58  1  -0.00018268  0.50106517  0.26110033  1
  Te  Te59  1  0.00084146  0.50048424  0.74430875  1
  Te  Te60  1  0.50158902  0.00326625  0.25187452  1
  Te  Te61  1  0.49771884  -0.00258772  0.74950213  1
  Te  Te62  1  0.50035467  0.49530986  0.25201296  1
  Te  Te63  1  0.49929962  0.50648985  0.74797681  1
