# generated using pymatgen
data_AgSbTe2
_symmetry_space_group_name_H-M   'P 1'
_cell_length_a   12.30362419
_cell_length_b   12.27621351
_cell_length_c   12.29620733
_cell_angle_alpha   90.00487168
_cell_angle_beta   89.99791396
_cell_angle_gamma   89.99768223
_symmetry_Int_Tables_number   1
_chemical_formula_structural   AgSbTe2
_chemical_formula_sum   'Ag16 Sb16 Te32'
_cell_volume   1857.24272327
_cell_formula_units_Z   16
loop_
 _symmetry_equiv_pos_site_id
 _symmetry_equiv_pos_as_xyz
  1  'x, y, z'
loop_
 _atom_site_type_symbol
 _atom_site_label
 _atom_site_symmetry_multiplicity
 _atom_site_fract_x
 _atom_site_fract_y
 _atom_site_fract_z
 _atom_site_occupancy
  Ag  Ag0  1  0.74388208  0.51312385  0.75451358  1
  Ag  Ag1  1  0.50345874  0.51636280  -0.00464704  1
  Ag  Ag2  1  0.74233238  -0.01520992  0.24629327  1
  Ag  Ag3  1  -0.00303264  0.24731620  0.75477917  1
  Ag  Ag4  1  -0.01419758  0.75731163  0.24340689  1
  Ag  Ag5  1  0.50604515  -0.00946950  0.49423590  1
  Ag  Ag6  1  0.25936428  -0.00981864  0.24279531  1
  Ag  Ag7  1  0.74441475  0.75453803  0.49470806  1
  Ag  Ag8  1  -0.00634077  -0.00823659  0.00379989  1
  Ag  Ag9  1  0.25871715  0.50749112  0.75699971  1
  Ag  Ag10  1  0.74375391  0.51777410  0.24606829  1
  Ag  Ag11  1  0.50306124  -0.01413154  0.00449497  1
  Ag  Ag12  1  0.50844459  0.75151409  0.76191969  1
  Ag  Ag13  1  0.51014669  0.75953917  0.24013288  1
  Ag  Ag14  1  0.74280259  -0.01301720  0.75475447  1
  Ag  Ag15  1  0.25944552  0.75415265  0.00101542  1
  Sb  Sb16  1  0.25413662  0.75243234  0.50032099  1
  Sb  Sb17  1  0.50081338  0.24982834  0.75061333  1
  Sb  Sb18  1  0.74920482  0.24528633  0.50062781  1
  Sb  Sb19  1  -0.00148849  0.50458569  0.50056607  1
  Sb  Sb20  1  0.25084821  0.24719945  -0.00107932  1
  Sb  Sb21  1  0.25466285  -0.00562044  0.75498483  1
  Sb  Sb22  1  -0.00222899  0.24465183  0.24548951  1
  Sb  Sb23  1  -0.00355696  -0.00395417  0.49794005  1
  Sb  Sb24  1  0.50034170  0.24153367  0.24827156  1
  Sb  Sb25  1  -0.00343882  0.51093354  0.00123610  1
  Sb  Sb26  1  0.25091724  0.24658382  0.50274529  1
  Sb  Sb27  1  -0.00961931  0.75159547  0.75811696  1
  Sb  Sb28  1  0.25842894  0.51059016  0.24264550  1
  Sb  Sb29  1  0.50281130  0.50927491  0.50095161  1
  Sb  Sb30  1  0.74990307  0.24795330  -0.00060966  1
  Sb  Sb31  1  0.74170413  0.75216013  0.00517002  1
  Te  Te32  1  0.24828196  0.23983304  0.25208370  1
  Te  Te33  1  0.24602633  0.25927682  0.74956407  1
  Te  Te34  1  0.25549776  0.75287965  0.25135008  1
  Te  Te35  1  0.25365246  0.74779443  0.74876262  1
  Te  Te36  1  0.75053731  0.25409277  0.25159922  1
  Te  Te37  1  0.75233886  0.25148295  0.74945297  1
  Te  Te38  1  0.74625457  0.75060559  0.24680251  1
  Te  Te39  1  0.74734341  0.75208917  0.74892078  1
  Te  Te40  1  0.25571573  -0.00334283  0.00135430  1
  Te  Te41  1  0.25726484  -0.00030906  0.49261782  1
  Te  Te42  1  0.25393808  0.50415741  -0.00195663  1
  Te  Te43  1  0.24998956  0.49829566  0.51074788  1
  Te  Te44  1  0.74755638  -0.00180920  -0.00181905  1
  Te  Te45  1  0.74777355  -0.00419145  0.50061224  1
  Te  Te46  1  0.74562298  0.49859923  -0.00232317  1
  Te  Te47  1  0.74972725  0.50627233  0.50073996  1
  Te  Te48  1  -0.00013447  0.23608507  -0.00497176  1
  Te  Te49  1  0.00168356  0.25010471  0.51134123  1
  Te  Te50  1  0.01449272  0.75574525  0.00515825  1
  Te  Te51  1  -0.00858720  0.74999444  0.48710073  1
  Te  Te52  1  0.49965784  0.25074608  0.00156482  1
  Te  Te53  1  0.49807114  0.23089058  0.49882023  1
  Te  Te54  1  0.49736167  0.75061089  -0.00278260  1
  Te  Te55  1  0.50335151  0.75442499  0.50077981  1
  Te  Te56  1  -0.00823981  -0.00157237  0.24864473  1
  Te  Te57  1  -0.00085530  -0.00325644  0.75115894  1
  Te  Te58  1  -0.00584747  0.50139652  0.24895600  1
  Te  Te59  1  -0.01030434  0.50329501  0.75104532  1
  Te  Te60  1  0.50644795  -0.00135952  0.24129294  1
  Te  Te61  1  0.50096123  0.00006417  0.76000543  1
  Te  Te62  1  0.50201366  0.50318295  0.24950194  1
  Te  Te63  1  0.50666852  0.49964654  0.75061358  1
