# generated using pymatgen
data_AgSbTe2
_symmetry_space_group_name_H-M   'P 1'
_cell_length_a   12.22040335
_cell_length_b   12.24683852
_cell_length_c   12.24962583
_cell_angle_alpha   89.99714870
_cell_angle_beta   89.99663029
_cell_angle_gamma   89.99442304
_symmetry_Int_Tables_number   1
_chemical_formula_structural   AgSbTe2
_chemical_formula_sum   'Ag16 Sb16 Te32'
_cell_volume   1833.29498994
_cell_formula_units_Z   16
loop_
 _symmetry_equiv_pos_site_id
 _symmetry_equiv_pos_as_xyz
  1  'x, y, z'
loop_
 _atom_site_type_symbol
 _atom_site_label
 _atom_site_symmetry_multiplicity
 _atom_site_fract_x
 _atom_site_fract_y
 _atom_site_fract_z
 _atom_site_occupancy
  Ag  Ag0  1  0.00546712  0.00254073  0.49996081  1
  Ag  Ag1  1  0.25422477  0.49903463  0.24043935  1
  Ag  Ag2  1  0.25241201  0.76445183  -0.00000225  1
  Ag  Ag3  1  0.74925541  0.24931641  0.49991533  1
  Ag  Ag4  1  0.48505928  0.00141521  0.00018935  1
  Ag  Ag5  1  0.49034941  0.49853824  0.00031040  1
  Ag  Ag6  1  0.25288705  0.23593256  0.00002637  1
  Ag  Ag7  1  0.01580984  0.00082692  -0.00029366  1
  Ag  Ag8  1  0.00703595  0.24572218  0.24875070  1
  Ag  Ag9  1  0.24871760  0.00199896  0.23412110  1
  Ag  Ag10  1  0.25411625  0.49774579  0.75951138  1
  Ag  Ag11  1  0.00842597  0.75434648  0.75275334  1
  Ag  Ag12  1  0.24833811  0.00076702  0.76593951  1
  Ag  Ag13  1  0.49523806  0.49749409  0.50004893  1
  Ag  Ag14  1  0.49338758  0.25172558  0.75383721  1
  Ag  Ag15  1  0.49222982  0.74861308  0.24533914  1
  Sb  Sb16  1  0.00685633  0.75268300  0.24833903  1
  Sb  Sb17  1  0.74581836  0.49720166  0.25035660  1
  Sb  Sb18  1  0.01107271  0.49927508  -0.00007598  1
  Sb  Sb19  1  0.75107357  0.00192020  0.75022072  1
  Sb  Sb20  1  0.25035493  0.75052318  0.50067233  1
  Sb  Sb21  1  0.49446673  0.25031010  0.24752337  1
  Sb  Sb22  1  0.75115744  0.00178928  0.24987914  1
  Sb  Sb23  1  0.49581343  0.00074225  0.50003473  1
  Sb  Sb24  1  0.49432885  0.74942024  0.75320590  1
  Sb  Sb25  1  0.25049960  0.24958984  0.49974520  1
  Sb  Sb26  1  0.74846800  0.24885452  0.00002515  1
  Sb  Sb27  1  0.74925223  0.75055002  0.50004947  1
  Sb  Sb28  1  0.74598570  0.49779992  0.74969662  1
  Sb  Sb29  1  0.00302277  0.49908215  0.50009081  1
  Sb  Sb30  1  0.00592192  0.24794825  0.75062689  1
  Sb  Sb31  1  0.74820497  0.75084291  0.00006497  1
  Te  Te32  1  0.24670080  0.24887918  0.24795032  1
  Te  Te33  1  0.25418531  0.25040271  0.75224457  1
  Te  Te34  1  0.25362727  0.74968734  0.24728384  1
  Te  Te35  1  0.24768974  0.75135000  0.75218396  1
  Te  Te36  1  0.75973338  0.25044457  0.25426751  1
  Te  Te37  1  0.74147384  0.25107039  0.74587178  1
  Te  Te38  1  0.73965937  0.74922574  0.25061869  1
  Te  Te39  1  0.76228949  0.74960498  0.74926127  1
  Te  Te40  1  0.25086007  0.00078014  -0.00004955  1
  Te  Te41  1  0.24542617  -0.00082025  0.50006751  1
  Te  Te42  1  0.25141064  0.49914432  -0.00002907  1
  Te  Te43  1  0.25460020  0.50075165  0.50003905  1
  Te  Te44  1  0.74838952  -0.00018542  -0.00003633  1
  Te  Te45  1  0.75555918  0.00518583  0.50011342  1
  Te  Te46  1  0.73716972  0.50010105  -0.00000874  1
  Te  Te47  1  0.74414766  0.49450602  0.49997489  1
  Te  Te48  1  0.00184339  0.24776462  0.00279330  1
  Te  Te49  1  -0.00251874  0.24728638  0.49884483  1
  Te  Te50  1  0.00217064  0.75251056  -0.00178884  1
  Te  Te51  1  -0.00147800  0.75447892  0.50228868  1
  Te  Te52  1  0.49775356  0.24806125  -0.00214312  1
  Te  Te53  1  0.50227815  0.25192675  0.50211051  1
  Te  Te54  1  0.49788604  0.75183283  0.00150458  1
  Te  Te55  1  0.50167087  0.74610735  0.49558020  1
  Te  Te56  1  0.00323672  0.00082516  0.24827468  1
  Te  Te57  1  0.00340377  0.00025414  0.75212760  1
  Te  Te58  1  0.00598781  0.49763476  0.25100650  1
  Te  Te59  1  0.00636812  0.50296849  0.74917374  1
  Te  Te60  1  0.49544938  -0.00081985  0.24849539  1
  Te  Te61  1  0.49585696  0.00063172  0.75128580  1
  Te  Te62  1  0.49586824  0.49949750  0.24839178  1
  Te  Te63  1  0.49604895  0.49990886  0.75099929  1
