# generated using pymatgen
data_AgSbTe2
_symmetry_space_group_name_H-M   'P 1'
_cell_length_a   12.21852538
_cell_length_b   12.21602975
_cell_length_c   12.21503189
_cell_angle_alpha   90.00329644
_cell_angle_beta   90.00397178
_cell_angle_gamma   89.99369912
_symmetry_Int_Tables_number   1
_chemical_formula_structural   AgSbTe2
_chemical_formula_sum   'Ag16 Sb16 Te32'
_cell_volume   1823.23847953
_cell_formula_units_Z   16
loop_
 _symmetry_equiv_pos_site_id
 _symmetry_equiv_pos_as_xyz
  1  'x, y, z'
loop_
 _atom_site_type_symbol
 _atom_site_label
 _atom_site_symmetry_multiplicity
 _atom_site_fract_x
 _atom_site_fract_y
 _atom_site_fract_z
 _atom_site_occupancy
  Ag  Ag0  1  0.74702467  0.25233999  0.50578485  1
  Ag  Ag1  1  0.00038225  0.24736411  0.74721486  1
  Ag  Ag2  1  0.49924012  0.25441203  0.25541790  1
  Ag  Ag3  1  0.24741358  -0.00494908  0.74863426  1
  Ag  Ag4  1  0.50044680  0.25683691  0.74512523  1
  Ag  Ag5  1  0.25232969  0.74727613  0.50911890  1
  Ag  Ag6  1  0.49909707  0.49981341  0.50664729  1
  Ag  Ag7  1  0.25051770  0.74992383  -0.00954205  1
  Ag  Ag8  1  0.25641954  0.50591429  0.74640381  1
  Ag  Ag9  1  0.00206622  -0.00184933  -0.00729852  1
  Ag  Ag10  1  0.74405762  0.50259982  0.74562753  1
  Ag  Ag11  1  0.74933196  0.74933144  -0.00805581  1
  Ag  Ag12  1  0.00119499  -0.00001300  0.50710499  1
  Ag  Ag13  1  0.49690767  0.74421984  0.74658631  1
  Ag  Ag14  1  0.25431519  0.50106551  0.25341054  1
  Ag  Ag15  1  0.74709135  0.74686239  0.50789065  1
  Sb  Sb16  1  0.49852566  -0.00019317  0.50402472  1
  Sb  Sb17  1  0.49780471  -0.00249308  -0.00426402  1
  Sb  Sb18  1  0.00108606  0.50292625  -0.00513291  1
  Sb  Sb19  1  0.00098707  0.74956123  0.25087181  1
  Sb  Sb20  1  0.75068508  0.25061011  -0.00738242  1
  Sb  Sb21  1  0.00091377  0.50023170  0.50449542  1
  Sb  Sb22  1  0.75388128  -0.00393375  0.74889199  1
  Sb  Sb23  1  0.74468443  0.49893489  0.25439685  1
  Sb  Sb24  1  0.00081945  0.25021808  0.25345413  1
  Sb  Sb25  1  0.49783693  0.74522227  0.25427939  1
  Sb  Sb26  1  0.00494303  0.75438852  0.74959367  1
  Sb  Sb27  1  0.74967453  0.00044794  0.25071271  1
  Sb  Sb28  1  0.49933668  0.50129886  -0.00870277  1
  Sb  Sb29  1  0.24992352  -0.00085620  0.25162665  1
  Sb  Sb30  1  0.24946737  0.24973193  -0.00366299  1
  Sb  Sb31  1  0.25309970  0.25311396  0.50366242  1
  Te  Te32  1  0.25437037  0.25505507  0.24937720  1
  Te  Te33  1  0.25181851  0.25107198  0.74972820  1
  Te  Te34  1  0.25173378  0.74567548  0.25037663  1
  Te  Te35  1  0.24920883  0.74828595  0.74911601  1
  Te  Te36  1  0.74508330  0.25170263  0.25652067  1
  Te  Te37  1  0.74719221  0.25240723  0.74747878  1
  Te  Te38  1  0.74866054  0.74850430  0.25135476  1
  Te  Te39  1  0.74828708  0.74893418  0.74767214  1
  Te  Te40  1  0.24616633  -0.00545758  -0.00259119  1
  Te  Te41  1  0.24610773  -0.00529936  0.50239321  1
  Te  Te42  1  0.24951889  0.50649314  -0.00303757  1
  Te  Te43  1  0.25126722  0.50303496  0.50435856  1
  Te  Te44  1  0.75628224  -0.00700798  0.00013744  1
  Te  Te45  1  0.75523639  -0.00207719  0.50051128  1
  Te  Te46  1  0.75082247  0.50688913  -0.00466147  1
  Te  Te47  1  0.74881824  0.50228845  0.50285715  1
  Te  Te48  1  -0.00176295  0.24228579  -0.00450922  1
  Te  Te49  1  -0.00469734  0.24609560  0.50342921  1
  Te  Te50  1  0.00003162  0.75485626  0.00059562  1
  Te  Te51  1  -0.00116731  0.75453418  0.49947512  1
  Te  Te52  1  0.50177993  0.24934904  -0.00316271  1
  Te  Te53  1  0.50259138  0.25101445  0.50507297  1
  Te  Te54  1  0.50007685  0.75076485  -0.00426848  1
  Te  Te55  1  0.50080029  0.74896026  0.50279358  1
  Te  Te56  1  0.00091245  0.00159922  0.25044311  1
  Te  Te57  1  0.00386659  0.00420909  0.74863491  1
  Te  Te58  1  0.01043366  0.49814377  0.24899708  1
  Te  Te59  1  0.00073834  0.49044373  0.74984733  1
  Te  Te60  1  0.49859869  0.01115305  0.24950553  1
  Te  Te61  1  0.49168316  -0.00007767  0.74975300  1
  Te  Te62  1  0.49521386  0.49534647  0.25762222  1
  Te  Te63  1  0.49882094  0.50046367  0.74724354  1
