# generated using pymatgen
data_AgSbTe2
_symmetry_space_group_name_H-M   'P 1'
_cell_length_a   12.31476023
_cell_length_b   12.30969700
_cell_length_c   12.29477460
_cell_angle_alpha   90.00335994
_cell_angle_beta   90.00928237
_cell_angle_gamma   90.00251211
_symmetry_Int_Tables_number   1
_chemical_formula_structural   AgSbTe2
_chemical_formula_sum   'Ag16 Sb16 Te32'
_cell_volume   1863.77674272
_cell_formula_units_Z   16
loop_
 _symmetry_equiv_pos_site_id
 _symmetry_equiv_pos_as_xyz
  1  'x, y, z'
loop_
 _atom_site_type_symbol
 _atom_site_label
 _atom_site_symmetry_multiplicity
 _atom_site_fract_x
 _atom_site_fract_y
 _atom_site_fract_z
 _atom_site_occupancy
  Ag  Ag0  1  -0.00490068  -0.00324603  0.01037471  1
  Ag  Ag1  1  0.74639901  0.75856088  0.49132471  1
  Ag  Ag2  1  -0.00184995  0.76268237  0.25010122  1
  Ag  Ag3  1  0.25981986  -0.00437329  0.74286254  1
  Ag  Ag4  1  0.49892693  0.23482376  0.25373943  1
  Ag  Ag5  1  0.74185307  -0.00447567  0.74710640  1
  Ag  Ag6  1  0.50369827  0.23892748  0.74284449  1
  Ag  Ag7  1  0.25615384  0.75779307  0.48891414  1
  Ag  Ag8  1  0.25483505  -0.00607832  0.25655635  1
  Ag  Ag9  1  0.50110217  -0.00360928  0.48898534  1
  Ag  Ag10  1  0.50104396  0.76626569  0.25555430  1
  Ag  Ag11  1  0.25175967  0.51043271  0.25434875  1
  Ag  Ag12  1  0.74704439  -0.01282016  0.25209500  1
  Ag  Ag13  1  0.74499678  0.50892891  0.74838877  1
  Ag  Ag14  1  0.00103451  0.23311933  0.24782805  1
  Ag  Ag15  1  0.75052009  0.75768892  0.01043134  1
  Sb  Sb16  1  0.25119151  0.75499438  0.00765929  1
  Sb  Sb17  1  -0.00029370  0.50462680  0.49797154  1
  Sb  Sb18  1  0.50213887  -0.00072347  0.00553449  1
  Sb  Sb19  1  0.50046041  0.50584604  0.49843833  1
  Sb  Sb20  1  -0.00054950  0.24167223  0.75072453  1
  Sb  Sb21  1  0.50301044  0.75967469  0.74590171  1
  Sb  Sb22  1  -0.00178254  0.75454034  0.75094268  1
  Sb  Sb23  1  0.25026976  0.24539484  0.00235493  1
  Sb  Sb24  1  0.74863165  0.50603892  0.25283082  1
  Sb  Sb25  1  -0.00188290  -0.00220501  0.49612019  1
  Sb  Sb26  1  0.25274221  0.24115184  0.49659568  1
  Sb  Sb27  1  -0.00309246  0.50445803  0.00507835  1
  Sb  Sb28  1  0.25342356  0.50262648  0.74597144  1
  Sb  Sb29  1  0.74731637  0.24235234  0.49842511  1
  Sb  Sb30  1  0.50180615  0.50144688  0.00136809  1
  Sb  Sb31  1  0.75061392  0.24620726  0.00142176  1
  Te  Te32  1  0.25547042  0.24067515  0.25094363  1
  Te  Te33  1  0.25183771  0.24782620  0.74972984  1
  Te  Te34  1  0.25201733  0.75649908  0.24981516  1
  Te  Te35  1  0.25044305  0.75413819  0.74515823  1
  Te  Te36  1  0.74500059  0.25092349  0.25009377  1
  Te  Te37  1  0.74898911  0.23928762  0.74972176  1
  Te  Te38  1  0.74910031  0.75029628  0.25243600  1
  Te  Te39  1  0.74962266  0.75787745  0.74537923  1
  Te  Te40  1  0.24326943  -0.00136768  -0.00318977  1
  Te  Te41  1  0.24997225  -0.00281707  0.49935023  1
  Te  Te42  1  0.24944664  0.50081181  0.00398389  1
  Te  Te43  1  0.24945775  0.51409057  0.49605852  1
  Te  Te44  1  0.75170315  -0.00210960  0.00352762  1
  Te  Te45  1  0.75049322  -0.00142327  0.49715278  1
  Te  Te46  1  0.75011760  0.51081463  -0.00850837  1
  Te  Te47  1  0.74990153  0.51291159  0.50620039  1
  Te  Te48  1  0.00040675  0.24422630  0.00799603  1
  Te  Te49  1  -0.00048135  0.25167263  0.48862023  1
  Te  Te50  1  -0.00270406  0.75278451  0.00249354  1
  Te  Te51  1  -0.00317379  0.75023519  0.49529188  1
  Te  Te52  1  0.50008471  0.25053942  0.00628100  1
  Te  Te53  1  0.50089060  0.23954538  0.49596887  1
  Te  Te54  1  0.50515129  0.74957705  0.01068670  1
  Te  Te55  1  0.50146095  0.75563995  0.49786660  1
  Te  Te56  1  -0.00378661  -0.00209354  0.25051976  1
  Te  Te57  1  -0.00071237  0.00076499  0.75544445  1
  Te  Te58  1  0.00461566  0.50005539  0.24928288  1
  Te  Te59  1  -0.00391090  0.49663788  0.75057682  1
  Te  Te60  1  0.50212030  -0.00087314  0.25054356  1
  Te  Te61  1  0.49900379  0.00174622  0.75182003  1
  Te  Te62  1  0.49549955  0.49278971  0.25016111  1
  Te  Te63  1  0.50225200  0.48559470  0.74979915  1
