# generated using pymatgen
data_AgSbTe2
_symmetry_space_group_name_H-M   'P 1'
_cell_length_a   12.22294175
_cell_length_b   12.22848475
_cell_length_c   12.22828144
_cell_angle_alpha   89.99572581
_cell_angle_beta   89.99577298
_cell_angle_gamma   89.99509360
_symmetry_Int_Tables_number   1
_chemical_formula_structural   AgSbTe2
_chemical_formula_sum   'Ag16 Sb16 Te32'
_cell_volume   1827.73744755
_cell_formula_units_Z   16
loop_
 _symmetry_equiv_pos_site_id
 _symmetry_equiv_pos_as_xyz
  1  'x, y, z'
loop_
 _atom_site_type_symbol
 _atom_site_label
 _atom_site_symmetry_multiplicity
 _atom_site_fract_x
 _atom_site_fract_y
 _atom_site_fract_z
 _atom_site_occupancy
  Ag  Ag0  1  0.49115732  0.24765678  0.25257082  1
  Ag  Ag1  1  0.74691944  0.75078048  0.49833221  1
  Ag  Ag2  1  0.25265006  0.25004428  0.51105452  1
  Ag  Ag3  1  0.24911888  0.48520090  0.74224099  1
  Ag  Ag4  1  0.25300184  0.75020449  0.49739190  1
  Ag  Ag5  1  0.00563919  0.00645455  -0.00130992  1
  Ag  Ag6  1  0.25139619  0.49337690  0.25758122  1
  Ag  Ag7  1  0.48537462  0.24795543  0.74787512  1
  Ag  Ag8  1  0.75012891  0.24778588  -0.00063390  1
  Ag  Ag9  1  0.25391642  0.00670979  0.25500478  1
  Ag  Ag10  1  0.01464055  0.24931256  0.75042507  1
  Ag  Ag11  1  0.49443272  0.75315625  0.25629988  1
  Ag  Ag12  1  0.49203765  0.00168726  0.49754858  1
  Ag  Ag13  1  0.24978610  0.24675432  -0.01206704  1
  Ag  Ag14  1  0.25058026  0.01430010  0.74621318  1
  Ag  Ag15  1  0.00812497  0.49752017  0.50112902  1
  Sb  Sb16  1  0.00452652  0.49390030  -0.00187963  1
  Sb  Sb17  1  0.49686280  0.49602238  0.00035566  1
  Sb  Sb18  1  0.49489920  0.75305764  0.74286677  1
  Sb  Sb19  1  0.74597153  0.00160611  0.25125149  1
  Sb  Sb20  1  0.74954156  0.00265252  0.74878138  1
  Sb  Sb21  1  0.01124191  0.24917072  0.24949958  1
  Sb  Sb22  1  0.49179195  0.49760988  0.49950619  1
  Sb  Sb23  1  0.74974012  0.49631221  0.74703541  1
  Sb  Sb24  1  0.00872516  0.00237977  0.50069926  1
  Sb  Sb25  1  0.49494897  0.00435272  0.00163137  1
  Sb  Sb26  1  0.00578269  0.75073305  0.25286451  1
  Sb  Sb27  1  0.74920502  0.49792374  0.25299258  1
  Sb  Sb28  1  0.00408919  0.75021316  0.74771122  1
  Sb  Sb29  1  0.74913216  0.75294705  0.00251987  1
  Sb  Sb30  1  0.74767404  0.24942291  0.49985051  1
  Sb  Sb31  1  0.25058737  0.75278902  0.00206969  1
  Te  Te32  1  0.25158430  0.24935305  0.25166657  1
  Te  Te33  1  0.25055902  0.24929438  0.74880297  1
  Te  Te34  1  0.25369163  0.75029860  0.25231487  1
  Te  Te35  1  0.25155478  0.74980558  0.74639450  1
  Te  Te36  1  0.73977574  0.25101686  0.24574835  1
  Te  Te37  1  0.74873737  0.25067976  0.75392629  1
  Te  Te38  1  0.74224720  0.74932996  0.25417471  1
  Te  Te39  1  0.74844414  0.74948930  0.74433868  1
  Te  Te40  1  0.24770273  0.00217820  -0.00078740  1
  Te  Te41  1  0.25090189  0.00171221  0.49949852  1
  Te  Te42  1  0.24878097  0.49665990  0.00008795  1
  Te  Te43  1  0.24908218  0.49811336  0.49996299  1
  Te  Te44  1  0.75760117  0.00462389  -0.00016950  1
  Te  Te45  1  0.74379826  -0.00462354  0.49986855  1
  Te  Te46  1  0.75186674  0.49395227  0.00006745  1
  Te  Te47  1  0.75952365  0.50488751  0.49981806  1
  Te  Te48  1  0.00344968  0.24728054  -0.00175452  1
  Te  Te49  1  -0.00016082  0.25208705  0.50318809  1
  Te  Te50  1  -0.00242424  0.75812236  0.00000520  1
  Te  Te51  1  0.00287908  0.74717370  0.50017543  1
  Te  Te52  1  0.49696275  0.24870161  -0.00042870  1
  Te  Te53  1  0.49954648  0.24805232  0.49954715  1
  Te  Te54  1  0.50217037  0.75058292  0.00924906  1
  Te  Te55  1  0.49540199  0.75261367  0.49741745  1
  Te  Te56  1  0.00718983  0.00014497  0.24746425  1
  Te  Te57  1  0.00465257  0.00422941  0.75123735  1
  Te  Te58  1  0.00643235  0.50016639  0.25405412  1
  Te  Te59  1  0.00516519  0.49633614  0.74758848  1
  Te  Te60  1  0.49586719  0.00297041  0.25167589  1
  Te  Te61  1  0.49518185  0.00368011  0.74726287  1
  Te  Te62  1  0.49398072  0.49703290  0.24945433  1
  Te  Te63  1  0.49422790  0.49406089  0.75073768  1
