# generated using pymatgen
data_AgSbTe2
_symmetry_space_group_name_H-M   'P 1'
_cell_length_a   12.25024132
_cell_length_b   12.23742257
_cell_length_c   12.23275859
_cell_angle_alpha   89.99824313
_cell_angle_beta   90.00285272
_cell_angle_gamma   89.99953509
_symmetry_Int_Tables_number   1
_chemical_formula_structural   AgSbTe2
_chemical_formula_sum   'Ag16 Sb16 Te32'
_cell_volume   1833.82971353
_cell_formula_units_Z   16
loop_
 _symmetry_equiv_pos_site_id
 _symmetry_equiv_pos_as_xyz
  1  'x, y, z'
loop_
 _atom_site_type_symbol
 _atom_site_label
 _atom_site_symmetry_multiplicity
 _atom_site_fract_x
 _atom_site_fract_y
 _atom_site_fract_z
 _atom_site_occupancy
  Ag  Ag0  1  0.74337313  0.00851699  0.25093066  1
  Ag  Ag1  1  0.25410023  0.75241680  0.00456157  1
  Ag  Ag2  1  0.49789796  0.48515886  0.00625321  1
  Ag  Ag3  1  0.26446213  0.24899592  0.00709723  1
  Ag  Ag4  1  0.25725491  0.00898342  0.24592759  1
  Ag  Ag5  1  0.49801436  0.01420220  0.00892513  1
  Ag  Ag6  1  0.50253075  0.00449709  0.48888378  1
  Ag  Ag7  1  0.74851136  0.75516839  0.49502428  1
  Ag  Ag8  1  -0.00009400  0.24710271  0.75433240  1
  Ag  Ag9  1  0.73578392  0.24881482  0.00707398  1
  Ag  Ag10  1  0.74526957  0.48917458  0.24747960  1
  Ag  Ag11  1  -0.00001658  0.24625463  0.24649516  1
  Ag  Ag12  1  0.50029217  0.24775049  0.76575010  1
  Ag  Ag13  1  -0.00341857  0.00343800  0.49373671  1
  Ag  Ag14  1  0.25550710  0.48997715  0.24471337  1
  Ag  Ag15  1  0.49998182  0.24462122  0.23750357  1
  Sb  Sb16  1  0.49995287  0.75205847  0.75210265  1
  Sb  Sb17  1  0.74799682  0.49516858  0.75289631  1
  Sb  Sb18  1  0.00133173  0.00563584  0.00538612  1
  Sb  Sb19  1  0.74921726  0.24618312  0.49081824  1
  Sb  Sb20  1  0.00022436  0.75454586  0.74912389  1
  Sb  Sb21  1  -0.00216327  0.49668224  0.49582968  1
  Sb  Sb22  1  0.74724539  0.75159168  0.00300340  1
  Sb  Sb23  1  0.25130386  0.00427965  0.75449764  1
  Sb  Sb24  1  0.74892966  0.00436944  0.74961293  1
  Sb  Sb25  1  0.00026903  0.75411331  0.25047995  1
  Sb  Sb26  1  0.50218931  0.49518964  0.49237585  1
  Sb  Sb27  1  0.49980677  0.75608933  0.24889668  1
  Sb  Sb28  1  0.00202727  0.49499309  0.00303345  1
  Sb  Sb29  1  0.25230302  0.49525959  0.75599012  1
  Sb  Sb30  1  0.25129103  0.75402063  0.49623500  1
  Sb  Sb31  1  0.25077215  0.24800604  0.49130554  1
  Te  Te32  1  0.25120416  0.24838081  0.24906005  1
  Te  Te33  1  0.25007296  0.25045735  0.75766519  1
  Te  Te34  1  0.24892350  0.75025247  0.24448225  1
  Te  Te35  1  0.24865351  0.74808710  0.75859149  1
  Te  Te36  1  0.74889488  0.24838191  0.24838585  1
  Te  Te37  1  0.74992959  0.25090659  0.75912276  1
  Te  Te38  1  0.75119282  0.75157953  0.25280674  1
  Te  Te39  1  0.75175844  0.74781296  0.74359396  1
  Te  Te40  1  0.25072152  0.00376648  0.00372396  1
  Te  Te41  1  0.25301982  -0.00086307  0.49313057  1
  Te  Te42  1  0.25161956  0.49554450  0.00435092  1
  Te  Te43  1  0.24984351  0.50298903  0.49016357  1
  Te  Te44  1  0.74763976  0.00001868  0.00357333  1
  Te  Te45  1  0.74770064  -0.00030049  0.49745260  1
  Te  Te46  1  0.74666088  0.50046226  0.00475591  1
  Te  Te47  1  0.74953713  0.50643899  0.49270589  1
  Te  Te48  1  -0.00140756  0.24924360  0.00216930  1
  Te  Te49  1  0.00022481  0.24557451  0.49883404  1
  Te  Te50  1  0.00636444  0.74994454  -0.00227804  1
  Te  Te51  1  -0.00263974  0.75699240  0.50174731  1
  Te  Te52  1  0.50101693  0.24914040  0.00308243  1
  Te  Te53  1  0.49989447  0.24526693  0.50000842  1
  Te  Te54  1  0.49600633  0.75079999  -0.00239495  1
  Te  Te55  1  0.50310259  0.75725470  0.50287713  1
  Te  Te56  1  -0.00131591  0.00381899  0.25244629  1
  Te  Te57  1  0.00027276  0.00570704  0.74144710  1
  Te  Te58  1  -0.00148634  0.49259756  0.25090075  1
  Te  Te59  1  0.00018051  0.49057981  0.74811994  1
  Te  Te60  1  0.50039347  0.00130012  0.24864293  1
  Te  Te61  1  0.49966074  0.00441740  0.75184397  1
  Te  Te62  1  0.50022942  0.49641548  0.24827798  1
  Te  Te63  1  0.49998288  0.49377164  0.75443458  1
