# generated using pymatgen
data_AgSbTe2
_symmetry_space_group_name_H-M   'P 1'
_cell_length_a   12.22558543
_cell_length_b   12.22270400
_cell_length_c   12.24171995
_cell_angle_alpha   90.00120111
_cell_angle_beta   89.99653787
_cell_angle_gamma   90.00324704
_symmetry_Int_Tables_number   1
_chemical_formula_structural   AgSbTe2
_chemical_formula_sum   'Ag16 Sb16 Te32'
_cell_volume   1829.27667932
_cell_formula_units_Z   16
loop_
 _symmetry_equiv_pos_site_id
 _symmetry_equiv_pos_as_xyz
  1  'x, y, z'
loop_
 _atom_site_type_symbol
 _atom_site_label
 _atom_site_symmetry_multiplicity
 _atom_site_fract_x
 _atom_site_fract_y
 _atom_site_fract_z
 _atom_site_occupancy
  Ag  Ag0  1  0.24994609  0.25035795  0.00134201  1
  Ag  Ag1  1  -0.00378551  0.75140616  0.74909818  1
  Ag  Ag2  1  0.25469285  0.24877761  0.49899334  1
  Ag  Ag3  1  -0.00445649  0.00522021  0.49281079  1
  Ag  Ag4  1  -0.00355844  0.00504823  0.00734781  1
  Ag  Ag5  1  0.74576387  0.24962026  0.49495601  1
  Ag  Ag6  1  0.75724772  0.00934730  0.25338616  1
  Ag  Ag7  1  0.74997240  0.25236469  0.00603672  1
  Ag  Ag8  1  0.74695526  0.49393745  0.74926996  1
  Ag  Ag9  1  -0.00467034  0.75739355  0.25054814  1
  Ag  Ag10  1  0.50548273  0.49222410  -0.00091570  1
  Ag  Ag11  1  0.75052419  0.49032741  0.25084980  1
  Ag  Ag12  1  -0.00772142  0.24480393  0.25087876  1
  Ag  Ag13  1  0.50467855  0.25348528  0.74497929  1
  Ag  Ag14  1  0.50576110  0.48889713  0.50143280  1
  Ag  Ag15  1  0.50415915  0.01160371  0.49878805  1
  Sb  Sb16  1  0.75206130  0.74888022  0.00067353  1
  Sb  Sb17  1  0.50805347  0.25009170  0.25597579  1
  Sb  Sb18  1  0.25035299  0.49519322  0.25073133  1
  Sb  Sb19  1  0.50310829  0.00941631  0.00219416  1
  Sb  Sb20  1  0.75117335  0.00493686  0.74752427  1
  Sb  Sb21  1  0.24613306  0.74907671  0.00088883  1
  Sb  Sb22  1  0.24897812  0.00306936  0.74917590  1
  Sb  Sb23  1  0.75188231  0.75062880  0.49932375  1
  Sb  Sb24  1  0.24697111  0.74973068  0.49918901  1
  Sb  Sb25  1  -0.00499689  0.49413260  0.49848576  1
  Sb  Sb26  1  -0.00386033  0.49484839  0.00149064  1
  Sb  Sb27  1  -0.00378411  0.24939533  0.74949851  1
  Sb  Sb28  1  0.50336067  0.74740499  0.74880509  1
  Sb  Sb29  1  0.25151145  0.49645232  0.74955224  1
  Sb  Sb30  1  0.50448405  0.74987389  0.25083380  1
  Sb  Sb31  1  0.24267447  0.00505175  0.25093704  1
  Te  Te32  1  0.23987500  0.25047513  0.25000128  1
  Te  Te33  1  0.25580671  0.25085075  0.74925822  1
  Te  Te34  1  0.23913071  0.74840204  0.24945520  1
  Te  Te35  1  0.24022875  0.74906349  0.75065496  1
  Te  Te36  1  0.75205402  0.25013144  0.25077561  1
  Te  Te37  1  0.74689051  0.25364570  0.74905715  1
  Te  Te38  1  0.75516285  0.74964058  0.24950211  1
  Te  Te39  1  0.75535653  0.74164736  0.75034603  1
  Te  Te40  1  0.24724297  0.00726574  0.00021321  1
  Te  Te41  1  0.25081836  0.00608295  0.49965377  1
  Te  Te42  1  0.25669666  0.49236248  0.00039412  1
  Te  Te43  1  0.25830162  0.49344309  0.49943686  1
  Te  Te44  1  0.75248373  0.00421256  0.00248176  1
  Te  Te45  1  0.75133337  0.00221613  0.49886198  1
  Te  Te46  1  0.74827167  0.49643633  0.00163501  1
  Te  Te47  1  0.74803718  0.49761686  0.49831677  1
  Te  Te48  1  -0.00185657  0.24729465  -0.00091275  1
  Te  Te49  1  -0.00167045  0.24734284  0.50033993  1
  Te  Te50  1  0.00143555  0.75654685  0.00178782  1
  Te  Te51  1  0.00202044  0.75666327  0.49842467  1
  Te  Te52  1  0.50170476  0.25147584  -0.00282777  1
  Te  Te53  1  0.50198509  0.24970769  0.49942599  1
  Te  Te54  1  0.49809076  0.74213855  -0.00125433  1
  Te  Te55  1  0.49792195  0.75057222  0.50080466  1
  Te  Te56  1  -0.00248794  0.00311837  0.25106419  1
  Te  Te57  1  -0.00110964  -0.00279144  0.74896544  1
  Te  Te58  1  -0.00608381  0.49756934  0.25013155  1
  Te  Te59  1  -0.00587697  0.50428788  0.74994630  1
  Te  Te60  1  0.50814016  -0.00310100  0.25481989  1
  Te  Te61  1  0.50053420  0.00207229  0.74494002  1
  Te  Te62  1  0.50640699  0.50213658  0.25112025  1
  Te  Te63  1  0.50405986  0.49847532  0.74809832  1
