# generated using pymatgen
data_AgSbTe2
_symmetry_space_group_name_H-M   'P 1'
_cell_length_a   12.22224108
_cell_length_b   12.25334065
_cell_length_c   12.24060869
_cell_angle_alpha   89.98710520
_cell_angle_beta   89.99805545
_cell_angle_gamma   90.00434062
_symmetry_Int_Tables_number   1
_chemical_formula_structural   AgSbTe2
_chemical_formula_sum   'Ag16 Sb16 Te32'
_cell_volume   1833.19369634
_cell_formula_units_Z   16
loop_
 _symmetry_equiv_pos_site_id
 _symmetry_equiv_pos_as_xyz
  1  'x, y, z'
loop_
 _atom_site_type_symbol
 _atom_site_label
 _atom_site_symmetry_multiplicity
 _atom_site_fract_x
 _atom_site_fract_y
 _atom_site_fract_z
 _atom_site_occupancy
  Ag  Ag0  1  0.26121463  0.75017390  0.00503441  1
  Ag  Ag1  1  0.49762626  0.50059437  0.00753635  1
  Ag  Ag2  1  0.50133657  0.49454647  0.49092902  1
  Ag  Ag3  1  0.73711437  0.50004935  0.24834950  1
  Ag  Ag4  1  0.25882867  -0.00080267  0.24496803  1
  Ag  Ag5  1  0.73968997  -0.00023863  0.75110584  1
  Ag  Ag6  1  0.26197023  0.50008391  0.24505398  1
  Ag  Ag7  1  0.49774772  0.25450103  0.24794113  1
  Ag  Ag8  1  0.73983075  0.24994945  0.49844105  1
  Ag  Ag9  1  0.50149855  0.75454873  0.75789429  1
  Ag  Ag10  1  0.00220963  0.74939313  0.24664526  1
  Ag  Ag11  1  0.49788851  -0.00186883  -0.00047582  1
  Ag  Ag12  1  0.50121814  0.24512434  0.75114991  1
  Ag  Ag13  1  0.26068134  0.24974038  0.00504913  1
  Ag  Ag14  1  0.50124413  0.00504392  0.50063115  1
  Ag  Ag15  1  0.73791477  0.75013883  0.00178110  1
  Sb  Sb16  1  0.26008151  0.00025253  0.75387127  1
  Sb  Sb17  1  0.74300534  0.74908439  0.49785492  1
  Sb  Sb18  1  0.74310783  0.50051905  0.75190347  1
  Sb  Sb19  1  0.25705765  0.74975384  0.49460422  1
  Sb  Sb20  1  -0.00117446  0.49984758  0.49402039  1
  Sb  Sb21  1  0.00169650  -0.00174042  0.00187047  1
  Sb  Sb22  1  -0.00086236  -0.00008023  0.49609960  1
  Sb  Sb23  1  0.74013644  -0.00087306  0.24914263  1
  Sb  Sb24  1  -0.00166710  0.24776403  0.75131835  1
  Sb  Sb25  1  0.25770620  0.49974699  0.75482184  1
  Sb  Sb26  1  0.49858509  0.74519816  0.24100324  1
  Sb  Sb27  1  0.00146977  0.50174951  0.00322678  1
  Sb  Sb28  1  0.00134336  0.24929201  0.24947582  1
  Sb  Sb29  1  0.26003982  0.25013399  0.49662664  1
  Sb  Sb30  1  -0.00036442  0.75218650  0.75315449  1
  Sb  Sb31  1  0.73972833  0.25008285  0.00059656  1
  Te  Te32  1  0.25204299  0.25146587  0.24787432  1
  Te  Te33  1  0.25480478  0.24936368  0.75503058  1
  Te  Te34  1  0.24952128  0.74895940  0.24605547  1
  Te  Te35  1  0.25184824  0.75053888  0.75829297  1
  Te  Te36  1  0.74870514  0.25327419  0.25160989  1
  Te  Te37  1  0.74588154  0.24740879  0.74879765  1
  Te  Te38  1  0.75336851  0.74758211  0.24568832  1
  Te  Te39  1  0.74753442  0.75221094  0.75478414  1
  Te  Te40  1  0.25379514  -0.00217002  0.00247976  1
  Te  Te41  1  0.25598899  0.00024719  0.49470022  1
  Te  Te42  1  0.25362749  0.50220047  0.00377019  1
  Te  Te43  1  0.25598185  0.49972349  0.49222203  1
  Te  Te44  1  0.74567881  -0.00244027  -0.00185580  1
  Te  Te45  1  0.74424702  0.00196101  0.50091471  1
  Te  Te46  1  0.74591216  0.50259730  0.00399577  1
  Te  Te47  1  0.74465428  0.49804772  0.49557817  1
  Te  Te48  1  0.01311282  0.25014420  -0.00109497  1
  Te  Te49  1  -0.01232192  0.24972563  0.50212618  1
  Te  Te50  1  0.00000059  0.74995129  0.00457743  1
  Te  Te51  1  0.00127596  0.75018201  0.49343577  1
  Te  Te52  1  0.49862432  0.25036647  0.00203302  1
  Te  Te53  1  0.50167271  0.25029931  0.49938558  1
  Te  Te54  1  0.50051818  0.75064661  -0.00195586  1
  Te  Te55  1  0.49937861  0.75081225  0.51208639  1
  Te  Te56  1  0.00909949  -0.00392207  0.25054566  1
  Te  Te57  1  -0.01241694  0.00015392  0.74872384  1
  Te  Te58  1  0.00022258  0.50363477  0.25071177  1
  Te  Te59  1  0.00072936  0.50022155  0.74844685  1
  Te  Te60  1  0.49722627  0.00375529  0.24832437  1
  Te  Te61  1  0.50155005  0.00160770  0.75166777  1
  Te  Te62  1  0.50049700  0.49902010  0.24841579  1
  Te  Te63  1  0.49933450  0.49853481  0.75100701  1
