# generated using pymatgen
data_AgSbTe2
_symmetry_space_group_name_H-M   'P 1'
_cell_length_a   12.22608628
_cell_length_b   12.21326729
_cell_length_c   12.22484625
_cell_angle_alpha   90.00395520
_cell_angle_beta   89.99727486
_cell_angle_gamma   90.00098313
_symmetry_Int_Tables_number   1
_chemical_formula_structural   AgSbTe2
_chemical_formula_sum   'Ag16 Sb16 Te32'
_cell_volume   1825.41965368
_cell_formula_units_Z   16
loop_
 _symmetry_equiv_pos_site_id
 _symmetry_equiv_pos_as_xyz
  1  'x, y, z'
loop_
 _atom_site_type_symbol
 _atom_site_label
 _atom_site_symmetry_multiplicity
 _atom_site_fract_x
 _atom_site_fract_y
 _atom_site_fract_z
 _atom_site_occupancy
  Ag  Ag0  1  0.25381907  0.24265704  0.49616899  1
  Ag  Ag1  1  0.24726268  0.24152491  0.00394373  1
  Ag  Ag2  1  0.50073078  0.00558255  0.00124982  1
  Ag  Ag3  1  0.49678499  0.24569975  0.25015276  1
  Ag  Ag4  1  0.75268013  0.24246599  0.00213755  1
  Ag  Ag5  1  0.74776284  0.49475818  0.24879937  1
  Ag  Ag6  1  0.25002631  0.00535566  0.74929482  1
  Ag  Ag7  1  0.25298587  0.75824929  0.49904844  1
  Ag  Ag8  1  0.00230086  0.24363395  0.75531175  1
  Ag  Ag9  1  0.25272124  0.00748026  0.25082283  1
  Ag  Ag10  1  0.49866482  0.49509983  0.49620574  1
  Ag  Ag11  1  0.75033887  0.00385062  0.75682152  1
  Ag  Ag12  1  0.00328220  0.24623571  0.24475896  1
  Ag  Ag13  1  0.74961710  0.75868663  0.00082150  1
  Ag  Ag14  1  0.49295377  0.00437616  0.49777956  1
  Ag  Ag15  1  -0.00075415  0.00733047  -0.00127681  1
  Sb  Sb16  1  0.25012829  0.49398433  0.74804769  1
  Sb  Sb17  1  0.25096502  0.76172237  0.00080541  1
  Sb  Sb18  1  0.00024429  0.75508923  0.24728414  1
  Sb  Sb19  1  0.49958925  0.75494492  0.24972721  1
  Sb  Sb20  1  0.49949661  0.75496987  0.75002572  1
  Sb  Sb21  1  0.00045613  0.75756640  0.75243489  1
  Sb  Sb22  1  0.50164559  0.49300061  0.00374677  1
  Sb  Sb23  1  0.49765730  0.24519199  0.75039773  1
  Sb  Sb24  1  0.00786742  0.00385010  0.50064351  1
  Sb  Sb25  1  0.74748288  0.00550527  0.24214089  1
  Sb  Sb26  1  -0.00100988  0.49033667  0.00228506  1
  Sb  Sb27  1  0.25209392  0.49057420  0.25206211  1
  Sb  Sb28  1  0.00013960  0.49548747  0.49722662  1
  Sb  Sb29  1  0.74556367  0.24723273  0.49815963  1
  Sb  Sb30  1  0.74727349  0.75449398  0.49880065  1
  Sb  Sb31  1  0.74966305  0.49591922  0.75096455  1
  Te  Te32  1  0.25079959  0.24774404  0.24939330  1
  Te  Te33  1  0.24763270  0.24543162  0.75072203  1
  Te  Te34  1  0.24905705  0.75678888  0.25331802  1
  Te  Te35  1  0.24880330  0.75663326  0.74634373  1
  Te  Te36  1  0.74956823  0.25050599  0.24750724  1
  Te  Te37  1  0.75439780  0.24574783  0.75400684  1
  Te  Te38  1  0.75070146  0.74351841  0.24578755  1
  Te  Te39  1  0.75125869  0.75473750  0.75583184  1
  Te  Te40  1  0.25179831  0.00216972  -0.00072244  1
  Te  Te41  1  0.25141631  0.00332516  0.50044786  1
  Te  Te42  1  0.25156454  0.49377387  -0.00068797  1
  Te  Te43  1  0.25563224  0.49817213  0.50024363  1
  Te  Te44  1  0.74827968  0.00321902  -0.00017004  1
  Te  Te45  1  0.74201557  -0.00180078  0.50751711  1
  Te  Te46  1  0.74887124  0.49819515  0.00268435  1
  Te  Te47  1  0.74404416  0.50093026  0.49660358  1
  Te  Te48  1  0.00062352  0.24674176  0.00194531  1
  Te  Te49  1  0.00561539  0.24998078  0.49794454  1
  Te  Te50  1  -0.00418374  0.75780655  0.00011390  1
  Te  Te51  1  0.00765299  0.74852043  0.49994407  1
  Te  Te52  1  0.49980424  0.24677291  0.00262155  1
  Te  Te53  1  0.49743490  0.24583452  0.49740113  1
  Te  Te54  1  0.50383970  0.75566997  0.00024748  1
  Te  Te55  1  0.49532857  0.75331336  0.49969430  1
  Te  Te56  1  0.00287281  0.00563689  0.24684367  1
  Te  Te57  1  0.00070438  0.00532475  0.75225770  1
  Te  Te58  1  -0.00560099  0.49228691  0.24998541  1
  Te  Te59  1  -0.00085956  0.49010836  0.74992944  1
  Te  Te60  1  0.49827996  0.00417282  0.24984395  1
  Te  Te61  1  0.49874033  0.00132427  0.75114479  1
  Te  Te62  1  0.50278754  0.49406555  0.25411156  1
  Te  Te63  1  0.50068511  0.50049175  0.74035148  1
