# generated using pymatgen
data_AgSbTe2
_symmetry_space_group_name_H-M   'P 1'
_cell_length_a   12.21886190
_cell_length_b   12.22469919
_cell_length_c   12.22078593
_cell_angle_alpha   89.99213759
_cell_angle_beta   90.00430981
_cell_angle_gamma   90.00397915
_symmetry_Int_Tables_number   1
_chemical_formula_structural   AgSbTe2
_chemical_formula_sum   'Ag16 Sb16 Te32'
_cell_volume   1825.44212289
_cell_formula_units_Z   16
loop_
 _symmetry_equiv_pos_site_id
 _symmetry_equiv_pos_as_xyz
  1  'x, y, z'
loop_
 _atom_site_type_symbol
 _atom_site_label
 _atom_site_symmetry_multiplicity
 _atom_site_fract_x
 _atom_site_fract_y
 _atom_site_fract_z
 _atom_site_occupancy
  Ag  Ag0  1  0.73615140  0.50310499  0.25005614  1
  Ag  Ag1  1  0.49973997  0.00125514  0.49647229  1
  Ag  Ag2  1  0.00057739  0.74796591  0.24827370  1
  Ag  Ag3  1  0.50002224  0.49907434  0.48562329  1
  Ag  Ag4  1  0.74305293  0.25038097  0.49765793  1
  Ag  Ag5  1  0.49931043  0.73583022  0.24946077  1
  Ag  Ag6  1  0.25593816  -0.00120314  0.25002693  1
  Ag  Ag7  1  0.00082225  0.75087515  0.75214650  1
  Ag  Ag8  1  0.25482926  0.25295858  0.00304120  1
  Ag  Ag9  1  0.25345552  0.50124626  0.75260193  1
  Ag  Ag10  1  0.49715026  0.50050411  0.01374996  1
  Ag  Ag11  1  0.74731808  -0.00245253  0.74831433  1
  Ag  Ag12  1  0.74811758  0.74846082  0.00336228  1
  Ag  Ag13  1  0.25230720  -0.00174150  0.74999767  1
  Ag  Ag14  1  0.26453503  0.50076953  0.24774369  1
  Ag  Ag15  1  0.49779464  0.26338643  0.25195883  1
  Sb  Sb16  1  0.25279307  0.74734044  0.00284149  1
  Sb  Sb17  1  0.00052778  -0.00090561  0.49915600  1
  Sb  Sb18  1  0.00257281  0.24993510  0.74985947  1
  Sb  Sb19  1  0.49903327  0.74977030  0.75146998  1
  Sb  Sb20  1  0.00122670  -0.00318495  0.00037430  1
  Sb  Sb21  1  0.25568534  0.25040689  0.49690341  1
  Sb  Sb22  1  0.00361901  0.50262324  0.00102261  1
  Sb  Sb23  1  0.00082500  0.50092496  0.49794019  1
  Sb  Sb24  1  0.49924396  0.25006933  0.74749162  1
  Sb  Sb25  1  0.74744275  0.50229600  0.74990932  1
  Sb  Sb26  1  0.74456557  0.25123841  0.00176240  1
  Sb  Sb27  1  0.49792386  -0.00025266  0.00349698  1
  Sb  Sb28  1  0.25221629  0.74941706  0.49760894  1
  Sb  Sb29  1  0.74378324  -0.00263139  0.25127375  1
  Sb  Sb30  1  0.74702583  0.74939164  0.49784565  1
  Sb  Sb31  1  0.00232371  0.25115205  0.24990903  1
  Te  Te32  1  0.25124622  0.25059050  0.24882508  1
  Te  Te33  1  0.24915102  0.24892929  0.75311691  1
  Te  Te34  1  0.25048841  0.74970546  0.24838295  1
  Te  Te35  1  0.24718285  0.75207739  0.75177979  1
  Te  Te36  1  0.74866505  0.25151028  0.25047339  1
  Te  Te37  1  0.75110267  0.24520765  0.74869140  1
  Te  Te38  1  0.74980668  0.74912760  0.24738611  1
  Te  Te39  1  0.75249986  0.75260931  0.75325708  1
  Te  Te40  1  0.25138101  0.00370997  -0.00172503  1
  Te  Te41  1  0.25535863  0.00151062  0.50166166  1
  Te  Te42  1  0.25368424  0.49851677  0.00125299  1
  Te  Te43  1  0.25536259  0.49868503  0.49931056  1
  Te  Te44  1  0.74926317  -0.00243155  -0.00584711  1
  Te  Te45  1  0.74530389  0.00281582  0.50324641  1
  Te  Te46  1  0.74485794  0.50164250  0.00196651  1
  Te  Te47  1  0.74490713  0.49701288  0.49827039  1
  Te  Te48  1  0.00853096  0.25053623  0.00051807  1
  Te  Te49  1  -0.01278470  0.24995222  0.49940140  1
  Te  Te50  1  -0.00715463  0.74922828  0.00139820  1
  Te  Te51  1  -0.00052212  0.74988685  0.49891120  1
  Te  Te52  1  0.49602191  0.25448449  0.00520890  1
  Te  Te53  1  0.50320591  0.25033882  0.49708770  1
  Te  Te54  1  0.50388548  0.74617625  0.00477391  1
  Te  Te55  1  0.50009982  0.74946521  0.49347826  1
  Te  Te56  1  0.00841466  -0.00607099  0.25101773  1
  Te  Te57  1  0.00413010  -0.00508925  0.74954343  1
  Te  Te58  1  0.00104715  0.50548804  0.25137103  1
  Te  Te59  1  0.00665125  0.50571956  0.74906772  1
  Te  Te60  1  0.49660843  -0.00025936  0.25298277  1
  Te  Te61  1  0.49665709  -0.00044732  0.74555929  1
  Te  Te62  1  0.49874472  0.50084115  0.25121199  1
  Te  Te63  1  0.49427207  0.50052424  0.74906672  1
