# generated using pymatgen
data_AgSbTe2
_symmetry_space_group_name_H-M   'P 1'
_cell_length_a   12.22167036
_cell_length_b   12.21335754
_cell_length_c   12.21142040
_cell_angle_alpha   89.99510081
_cell_angle_beta   89.99576807
_cell_angle_gamma   90.00677012
_symmetry_Int_Tables_number   1
_chemical_formula_structural   AgSbTe2
_chemical_formula_sum   'Ag16 Sb16 Te32'
_cell_volume   1822.76975583
_cell_formula_units_Z   16
loop_
 _symmetry_equiv_pos_site_id
 _symmetry_equiv_pos_as_xyz
  1  'x, y, z'
loop_
 _atom_site_type_symbol
 _atom_site_label
 _atom_site_symmetry_multiplicity
 _atom_site_fract_x
 _atom_site_fract_y
 _atom_site_fract_z
 _atom_site_occupancy
  Ag  Ag0  1  0.75021700  0.50280308  0.75329578  1
  Ag  Ag1  1  0.49991133  0.50129493  -0.00718466  1
  Ag  Ag2  1  0.24780268  0.25528122  -0.00337001  1
  Ag  Ag3  1  0.75045722  0.74787189  -0.00498406  1
  Ag  Ag4  1  0.75004232  -0.00070758  0.24644274  1
  Ag  Ag5  1  -0.00042609  0.74216092  0.75068466  1
  Ag  Ag6  1  0.24977373  0.50247360  0.74741898  1
  Ag  Ag7  1  0.00010593  0.25679208  0.75417397  1
  Ag  Ag8  1  0.49484165  0.50454383  0.50768087  1
  Ag  Ag9  1  0.75266862  0.25196907  -0.00341317  1
  Ag  Ag10  1  0.00437183  0.50244533  0.50792836  1
  Ag  Ag11  1  0.25052484  0.50057633  0.25117882  1
  Ag  Ag12  1  0.25246186  0.74284789  0.50439446  1
  Ag  Ag13  1  0.50006069  0.74229174  0.74799146  1
  Ag  Ag14  1  -0.00306553  0.00160882  -0.00252220  1
  Ag  Ag15  1  0.49969439  -0.00390035  0.50262970  1
  Sb  Sb16  1  0.25075581  -0.00100865  0.74997624  1
  Sb  Sb17  1  0.74811386  0.74808155  0.50545767  1
  Sb  Sb18  1  0.50002427  0.74835740  0.25248340  1
  Sb  Sb19  1  0.00047214  -0.00252046  0.50170831  1
  Sb  Sb20  1  0.25061223  -0.00033369  0.24950217  1
  Sb  Sb21  1  0.74987109  0.50022550  0.24627760  1
  Sb  Sb22  1  0.24973217  0.74452068  -0.00497159  1
  Sb  Sb23  1  0.24859058  0.25837941  0.50342241  1
  Sb  Sb24  1  0.50212620  -0.00166145  -0.00210674  1
  Sb  Sb25  1  0.75133980  0.25192974  0.50403913  1
  Sb  Sb26  1  0.50004980  0.25105254  0.24920827  1
  Sb  Sb27  1  0.74957058  -0.00190484  0.75263141  1
  Sb  Sb28  1  -0.00025369  0.74784933  0.24786888  1
  Sb  Sb29  1  -0.00026206  0.49833620  -0.00902508  1
  Sb  Sb30  1  0.49991209  0.25919969  0.75205364  1
  Sb  Sb31  1  0.00006910  0.25204769  0.24496576  1
  Te  Te32  1  0.24963162  0.25607109  0.24306985  1
  Te  Te33  1  0.24587752  0.25463269  0.75441382  1
  Te  Te34  1  0.24948956  0.74409078  0.25607179  1
  Te  Te35  1  0.24969061  0.74643474  0.74799462  1
  Te  Te36  1  0.75048711  0.24688456  0.24133712  1
  Te  Te37  1  0.75393124  0.25447921  0.75506571  1
  Te  Te38  1  0.75049781  0.75299771  0.24038417  1
  Te  Te39  1  0.75086886  0.74671974  0.75384805  1
  Te  Te40  1  0.24705616  0.00639287  0.00204383  1
  Te  Te41  1  0.25395464  -0.00564322  0.49785520  1
  Te  Te42  1  0.25180541  0.49842185  -0.00170771  1
  Te  Te43  1  0.25187401  0.50076925  0.50344360  1
  Te  Te44  1  0.75063881  0.00056856  0.00197926  1
  Te  Te45  1  0.74642195  0.00047278  0.49419268  1
  Te  Te46  1  0.74829126  0.50026193  -0.00115747  1
  Te  Te47  1  0.74866869  0.49965428  0.50214538  1
  Te  Te48  1  -0.00153812  0.24892293  -0.00443222  1
  Te  Te49  1  0.00016030  0.25301550  0.50861510  1
  Te  Te50  1  -0.00162945  0.75283187  -0.00511395  1
  Te  Te51  1  0.00207854  0.74762261  0.50624356  1
  Te  Te52  1  0.50079315  0.25312036  -0.00133334  1
  Te  Te53  1  0.49964327  0.25066148  0.50076756  1
  Te  Te54  1  0.50159854  0.74694667  -0.00532102  1
  Te  Te55  1  0.49882040  0.74583482  0.50385547  1
  Te  Te56  1  -0.00419603  0.00016204  0.24614815  1
  Te  Te57  1  -0.00006237  -0.00055276  0.75366028  1
  Te  Te58  1  0.00418240  0.49987333  0.26065316  1
  Te  Te59  1  -0.00045604  0.50200295  0.74926236  1
  Te  Te60  1  0.50379676  -0.00031982  0.25507852  1
  Te  Te61  1  0.50035996  -0.00853437  0.74463900  1
  Te  Te62  1  0.49675260  0.50061180  0.25060139  1
  Te  Te63  1  0.50034441  0.50168831  0.74985890  1
