# generated using pymatgen
data_AgSbTe2
_symmetry_space_group_name_H-M   'P 1'
_cell_length_a   12.22379048
_cell_length_b   12.22961557
_cell_length_c   12.22828911
_cell_angle_alpha   89.99827292
_cell_angle_beta   89.99891366
_cell_angle_gamma   90.00006767
_symmetry_Int_Tables_number   1
_chemical_formula_structural   AgSbTe2
_chemical_formula_sum   'Ag16 Sb16 Te32'
_cell_volume   1828.03455262
_cell_formula_units_Z   16
loop_
 _symmetry_equiv_pos_site_id
 _symmetry_equiv_pos_as_xyz
  1  'x, y, z'
loop_
 _atom_site_type_symbol
 _atom_site_label
 _atom_site_symmetry_multiplicity
 _atom_site_fract_x
 _atom_site_fract_y
 _atom_site_fract_z
 _atom_site_occupancy
  Ag  Ag0  1  -0.00272881  0.23551169  0.74820467  1
  Ag  Ag1  1  0.76444378  0.00199418  0.74459333  1
  Ag  Ag2  1  0.24288488  0.24545153  0.50210371  1
  Ag  Ag3  1  -0.00054061  0.50316960  0.00276814  1
  Ag  Ag4  1  0.50447123  0.00072627  0.50286795  1
  Ag  Ag5  1  0.75589136  0.24261429  0.50278773  1
  Ag  Ag6  1  -0.00037039  0.74830160  0.24767655  1
  Ag  Ag7  1  0.24161028  0.50197107  0.24911362  1
  Ag  Ag8  1  0.75632616  0.75739301  0.50074297  1
  Ag  Ag9  1  -0.00054140  0.76471733  0.75211491  1
  Ag  Ag10  1  -0.00111595  -0.00279409  -0.01437637  1
  Ag  Ag11  1  0.23448679  0.00013808  0.74769202  1
  Ag  Ag12  1  0.75738906  0.24797777  -0.00232189  1
  Ag  Ag13  1  0.24217393  0.75078395  -0.00025529  1
  Ag  Ag14  1  0.75790261  0.50047272  0.25001767  1
  Ag  Ag15  1  -0.00412613  0.00124012  0.51425323  1
  Sb  Sb16  1  -0.00090692  0.49937327  0.49654233  1
  Sb  Sb17  1  0.50124721  0.75064507  0.25175543  1
  Sb  Sb18  1  0.50142221  0.49987820  0.49857221  1
  Sb  Sb19  1  0.24309552  0.50006864  0.75012735  1
  Sb  Sb20  1  0.75530113  -0.00098228  0.25628798  1
  Sb  Sb21  1  0.50142677  -0.00039594  -0.00358779  1
  Sb  Sb22  1  0.24096766  0.24961323  -0.00210016  1
  Sb  Sb23  1  0.24414655  -0.00126251  0.25163303  1
  Sb  Sb24  1  0.50176961  0.50035498  0.00186507  1
  Sb  Sb25  1  0.50171506  0.75396097  0.74814142  1
  Sb  Sb26  1  0.75617160  0.49833418  0.75037758  1
  Sb  Sb27  1  0.50085522  0.24948578  0.25131832  1
  Sb  Sb28  1  0.75979098  0.75224400  -0.00050181  1
  Sb  Sb29  1  -0.00149350  0.25246727  0.25166095  1
  Sb  Sb30  1  0.24273613  0.75464968  0.50032652  1
  Sb  Sb31  1  0.50347643  0.24665249  0.74813666  1
  Te  Te32  1  0.25012967  0.25578724  0.25464052  1
  Te  Te33  1  0.24553334  0.24689008  0.74635158  1
  Te  Te34  1  0.24597220  0.74630439  0.24920084  1
  Te  Te35  1  0.24512763  0.75275540  0.75107163  1
  Te  Te36  1  0.75070023  0.25487797  0.25231517  1
  Te  Te37  1  0.75337508  0.24850255  0.74696188  1
  Te  Te38  1  0.75352673  0.74600765  0.25244200  1
  Te  Te39  1  0.75414562  0.75263419  0.74698514  1
  Te  Te40  1  0.24827656  -0.00107285  -0.00292719  1
  Te  Te41  1  0.24542325  0.00270423  0.50205983  1
  Te  Te42  1  0.24707345  0.50077142  0.00378138  1
  Te  Te43  1  0.25138787  0.49367700  0.49495194  1
  Te  Te44  1  0.75224824  0.00252014  -0.00369171  1
  Te  Te45  1  0.75484027  0.00185389  0.49982434  1
  Te  Te46  1  0.75236760  0.49758289  0.00346672  1
  Te  Te47  1  0.74903014  0.49781258  0.49584019  1
  Te  Te48  1  -0.00346305  0.24810907  -0.00149958  1
  Te  Te49  1  -0.00152712  0.24969986  0.50132932  1
  Te  Te50  1  0.00094155  0.75141751  -0.00049155  1
  Te  Te51  1  -0.00325728  0.74996567  0.50080237  1
  Te  Te52  1  0.51224268  0.24912009  0.00005758  1
  Te  Te53  1  0.50286802  0.24491073  0.50065422  1
  Te  Te54  1  0.48691141  0.75076770  -0.00000984  1
  Te  Te55  1  0.50911421  0.75517830  0.50014318  1
  Te  Te56  1  -0.00005509  -0.00751933  0.24826697  1
  Te  Te57  1  -0.00063698  0.00034933  0.74999834  1
  Te  Te58  1  -0.00041904  0.50296543  0.24653502  1
  Te  Te59  1  -0.00005394  0.50075010  0.75865849  1
  Te  Te60  1  0.49908240  -0.00055330  0.25916514  1
  Te  Te61  1  0.50021767  -0.00049857  0.74454671  1
  Te  Te62  1  0.49999541  0.50027266  0.24950296  1
  Te  Te63  1  0.49900284  0.50069983  0.75052834  1
