# generated using pymatgen
data_AgSbTe2
_symmetry_space_group_name_H-M   'P 1'
_cell_length_a   12.21019332
_cell_length_b   12.21116818
_cell_length_c   12.21401533
_cell_angle_alpha   89.99871366
_cell_angle_beta   90.00071503
_cell_angle_gamma   90.00312018
_symmetry_Int_Tables_number   1
_chemical_formula_structural   AgSbTe2
_chemical_formula_sum   'Ag16 Sb16 Te32'
_cell_volume   1821.11852712
_cell_formula_units_Z   16
loop_
 _symmetry_equiv_pos_site_id
 _symmetry_equiv_pos_as_xyz
  1  'x, y, z'
loop_
 _atom_site_type_symbol
 _atom_site_label
 _atom_site_symmetry_multiplicity
 _atom_site_fract_x
 _atom_site_fract_y
 _atom_site_fract_z
 _atom_site_occupancy
  Ag  Ag0  1  0.00056837  0.24692667  0.25018045  1
  Ag  Ag1  1  0.50058103  0.00406781  0.50404943  1
  Ag  Ag2  1  0.50197048  0.75405093  0.74664912  1
  Ag  Ag3  1  0.74307284  0.24880905  0.50363687  1
  Ag  Ag4  1  0.74359672  0.24739463  -0.00326921  1
  Ag  Ag5  1  0.50025115  0.00683331  -0.00340146  1
  Ag  Ag6  1  -0.00127718  0.75171122  0.74757303  1
  Ag  Ag7  1  0.49984656  0.24589881  0.24988280  1
  Ag  Ag8  1  0.25247874  0.00297350  0.25047148  1
  Ag  Ag9  1  0.50614310  0.24553828  0.74921954  1
  Ag  Ag10  1  0.25241411  0.75247059  0.50045260  1
  Ag  Ag11  1  0.25640219  0.24599300  0.00219331  1
  Ag  Ag12  1  0.00234407  0.75297606  0.25240639  1
  Ag  Ag13  1  0.74316438  0.00378535  0.74931791  1
  Ag  Ag14  1  0.50180334  0.49620482  0.50391879  1
  Ag  Ag15  1  0.74551473  0.49638792  0.74794815  1
  Sb  Sb16  1  0.49778958  0.75469974  0.25415577  1
  Sb  Sb17  1  0.74734390  0.00368741  0.25074619  1
  Sb  Sb18  1  0.25488984  0.49918625  0.74772742  1
  Sb  Sb19  1  0.25883266  0.24683682  0.49764224  1
  Sb  Sb20  1  0.00008029  0.00011173  0.50014346  1
  Sb  Sb21  1  0.74723436  0.75162977  0.50314695  1
  Sb  Sb22  1  -0.00188198  0.49902174  -0.00111649  1
  Sb  Sb23  1  -0.00674375  0.24797156  0.74940593  1
  Sb  Sb24  1  0.25164365  0.49670333  0.25180576  1
  Sb  Sb25  1  0.74786622  0.49656141  0.25243414  1
  Sb  Sb26  1  0.25875949  0.00086336  0.74920120  1
  Sb  Sb27  1  -0.00219388  0.49937573  0.50168799  1
  Sb  Sb28  1  0.74762379  0.75351419  -0.00309821  1
  Sb  Sb29  1  0.50255651  0.49106386  -0.00439741  1
  Sb  Sb30  1  0.25286359  0.75430579  0.00039756  1
  Sb  Sb31  1  -0.00019801  0.00187257  -0.00016370  1
  Te  Te32  1  0.25070516  0.24693860  0.24904678  1
  Te  Te33  1  0.25240016  0.24973966  0.75390378  1
  Te  Te34  1  0.24613644  0.75376841  0.25133603  1
  Te  Te35  1  0.24988823  0.75031296  0.74797615  1
  Te  Te36  1  0.74916863  0.24922841  0.24983025  1
  Te  Te37  1  0.75026792  0.24824159  0.74940507  1
  Te  Te38  1  0.75829674  0.74976673  0.24959425  1
  Te  Te39  1  0.74837279  0.75105234  0.74979779  1
  Te  Te40  1  0.25513778  0.00516672  0.00448137  1
  Te  Te41  1  0.25520657  -0.00374939  0.49612553  1
  Te  Te42  1  0.25037887  0.49086428  -0.00027869  1
  Te  Te43  1  0.25711064  0.50727891  0.50041819  1
  Te  Te44  1  0.74436690  0.00507934  -0.00392653  1
  Te  Te45  1  0.74421514  0.00412320  0.50365210  1
  Te  Te46  1  0.74874807  0.49198075  -0.00750213  1
  Te  Te47  1  0.74437608  0.49527286  0.50484083  1
  Te  Te48  1  -0.00103479  0.24899404  0.00511104  1
  Te  Te49  1  -0.00547026  0.25057676  0.49482891  1
  Te  Te50  1  0.00077050  0.75028541  0.00011431  1
  Te  Te51  1  0.00385248  0.75004414  0.50000830  1
  Te  Te52  1  0.50188981  0.24857768  -0.00026675  1
  Te  Te53  1  0.50029906  0.24783075  0.50121090  1
  Te  Te54  1  0.49897111  0.75683375  -0.00522641  1
  Te  Te55  1  0.49833191  0.75168323  0.50218195  1
  Te  Te56  1  0.00395771  0.00080723  0.25023031  1
  Te  Te57  1  -0.00757588  -0.00550440  0.74976145  1
  Te  Te58  1  -0.00019039  0.50010690  0.25029032  1
  Te  Te59  1  -0.00747425  0.50664255  0.74911002  1
  Te  Te60  1  0.49788909  0.00259463  0.25054074  1
  Te  Te61  1  0.50103726  0.00129713  0.74881618  1
  Te  Te62  1  0.50069739  0.49491890  0.25676358  1
  Te  Te63  1  0.50393224  0.49981873  0.74687640  1
