# generated using pymatgen
data_AgSbTe2
_symmetry_space_group_name_H-M   'P 1'
_cell_length_a   12.20466189
_cell_length_b   12.20167414
_cell_length_c   12.20350641
_cell_angle_alpha   89.99188445
_cell_angle_beta   89.99818871
_cell_angle_gamma   89.99705821
_symmetry_Int_Tables_number   1
_chemical_formula_structural   AgSbTe2
_chemical_formula_sum   'Ag16 Sb16 Te32'
_cell_volume   1817.31329304
_cell_formula_units_Z   16
loop_
 _symmetry_equiv_pos_site_id
 _symmetry_equiv_pos_as_xyz
  1  'x, y, z'
loop_
 _atom_site_type_symbol
 _atom_site_label
 _atom_site_symmetry_multiplicity
 _atom_site_fract_x
 _atom_site_fract_y
 _atom_site_fract_z
 _atom_site_occupancy
  Ag  Ag0  1  0.74934960  -0.00112779  0.25294556  1
  Ag  Ag1  1  0.25606617  0.75262482  0.49943580  1
  Ag  Ag2  1  0.50357089  0.75150385  0.74397037  1
  Ag  Ag3  1  0.50280547  0.24777546  0.75011945  1
  Ag  Ag4  1  0.50173823  0.50572770  0.50320325  1
  Ag  Ag5  1  0.74782538  0.49977245  0.74786966  1
  Ag  Ag6  1  0.50033117  0.00070431  -0.00112303  1
  Ag  Ag7  1  0.74431969  0.75302185  0.50248434  1
  Ag  Ag8  1  0.50061553  0.75416447  0.25573511  1
  Ag  Ag9  1  0.74720492  0.00000098  0.74722452  1
  Ag  Ag10  1  -0.00256610  0.00044214  0.49886135  1
  Ag  Ag11  1  -0.00039378  0.49544649  -0.00175031  1
  Ag  Ag12  1  0.25069576  -0.00008490  0.25107913  1
  Ag  Ag13  1  0.00040249  0.24619693  0.24887356  1
  Ag  Ag14  1  0.24826548  0.24816763  -0.00037838  1
  Ag  Ag15  1  -0.00231730  0.24902313  0.75191178  1
  Sb  Sb16  1  0.25014025  0.50028253  0.25072583  1
  Sb  Sb17  1  0.74951087  0.50176873  0.25297485  1
  Sb  Sb18  1  0.75155347  0.24938159  -0.00262454  1
  Sb  Sb19  1  0.49969113  0.24404861  0.24932387  1
  Sb  Sb20  1  0.25178538  0.49968581  0.74931928  1
  Sb  Sb21  1  0.74814214  0.75169767  -0.00267099  1
  Sb  Sb22  1  0.50328385  -0.00831417  0.50143632  1
  Sb  Sb23  1  0.74918086  0.24525462  0.50267590  1
  Sb  Sb24  1  0.00065001  0.00544803  0.00042115  1
  Sb  Sb25  1  -0.00384299  0.75208295  0.74794449  1
  Sb  Sb26  1  -0.00203659  0.49912834  0.50218235  1
  Sb  Sb27  1  0.50076157  0.49838290  -0.00382514  1
  Sb  Sb28  1  0.25263132  0.75242678  0.00133935  1
  Sb  Sb29  1  -0.00124516  0.75499845  0.25216204  1
  Sb  Sb30  1  0.25297201  0.00047761  0.74866072  1
  Sb  Sb31  1  0.25154724  0.24612523  0.49928025  1
  Te  Te32  1  0.24718764  0.24451823  0.24708658  1
  Te  Te33  1  0.24907929  0.24896465  0.75395404  1
  Te  Te34  1  0.25423556  0.75547941  0.25316349  1
  Te  Te35  1  0.25680686  0.75080358  0.74474261  1
  Te  Te36  1  0.75441574  0.24353690  0.25045703  1
  Te  Te37  1  0.74964177  0.24847187  0.74948495  1
  Te  Te38  1  0.74641224  0.75436452  0.25484655  1
  Te  Te39  1  0.74622865  0.75191637  0.74668654  1
  Te  Te40  1  0.25307766  0.00358454  0.00484725  1
  Te  Te41  1  0.24472378  -0.00451096  0.49528187  1
  Te  Te42  1  0.24528309  0.49391267  0.00037927  1
  Te  Te43  1  0.25440318  0.50815268  0.49936984  1
  Te  Te44  1  0.74532084  -0.00079169  -0.00045040  1
  Te  Te45  1  0.75276302  -0.00408373  0.50070562  1
  Te  Te46  1  0.75406571  0.50067759  -0.00632438  1
  Te  Te47  1  0.74689546  0.50708221  0.50429452  1
  Te  Te48  1  0.00401873  0.25172142  -0.00196463  1
  Te  Te49  1  0.00104157  0.24650327  0.50101705  1
  Te  Te50  1  0.00189462  0.74104017  -0.00006463  1
  Te  Te51  1  -0.00015314  0.75356459  0.50004212  1
  Te  Te52  1  0.49481157  0.24714245  -0.00372661  1
  Te  Te53  1  0.49831387  0.25815804  0.50608986  1
  Te  Te54  1  0.49815819  0.75356426  -0.00022854  1
  Te  Te55  1  0.50068295  0.75042367  0.50097242  1
  Te  Te56  1  -0.00140067  0.00327987  0.25104969  1
  Te  Te57  1  -0.00482592  0.00401777  0.74855793  1
  Te  Te58  1  -0.00177075  0.49244901  0.24693688  1
  Te  Te59  1  -0.00523321  0.49480717  0.75115332  1
  Te  Te60  1  0.50137910  -0.00145762  0.24826307  1
  Te  Te61  1  0.50341277  0.00079556  0.75114779  1
  Te  Te62  1  0.50204893  0.50561179  0.25333694  1
  Te  Te63  1  0.50444197  0.50006453  0.74910408  1
