# generated using pymatgen
data_AgSbTe2
_symmetry_space_group_name_H-M   'P 1'
_cell_length_a   12.26075273
_cell_length_b   12.25478452
_cell_length_c   12.24592883
_cell_angle_alpha   89.99750458
_cell_angle_beta   90.00111841
_cell_angle_gamma   90.00560441
_symmetry_Int_Tables_number   1
_chemical_formula_structural   AgSbTe2
_chemical_formula_sum   'Ag16 Sb16 Te32'
_cell_volume   1839.98609818
_cell_formula_units_Z   16
loop_
 _symmetry_equiv_pos_site_id
 _symmetry_equiv_pos_as_xyz
  1  'x, y, z'
loop_
 _atom_site_type_symbol
 _atom_site_label
 _atom_site_symmetry_multiplicity
 _atom_site_fract_x
 _atom_site_fract_y
 _atom_site_fract_z
 _atom_site_occupancy
  Ag  Ag0  1  0.48459924  0.25561228  0.25350764  1
  Ag  Ag1  1  0.01454608  0.25313700  0.24542698  1
  Ag  Ag2  1  0.25304004  0.48435188  0.74849940  1
  Ag  Ag3  1  0.00191000  0.00723805  -0.00351199  1
  Ag  Ag4  1  0.49433870  0.49296198  0.50128938  1
  Ag  Ag5  1  0.00147802  0.49298955  0.00228547  1
  Ag  Ag6  1  0.25017206  0.48291604  0.25133346  1
  Ag  Ag7  1  0.24732789  0.01726722  0.24831993  1
  Ag  Ag8  1  0.75046706  0.74897100  -0.00306761  1
  Ag  Ag9  1  0.01393861  0.24812550  0.75474934  1
  Ag  Ag10  1  0.48457036  0.25201993  0.74641337  1
  Ag  Ag11  1  0.24911425  0.01608530  0.75199304  1
  Ag  Ag12  1  0.75014339  0.00272258  0.75560615  1
  Ag  Ag13  1  0.25415743  0.25410353  0.50046879  1
  Ag  Ag14  1  0.49892362  0.74918848  0.75132933  1
  Ag  Ag15  1  0.75051949  0.49532421  0.24632531  1
  Sb  Sb16  1  0.00609157  0.49461102  0.49848795  1
  Sb  Sb17  1  0.75344308  0.25220287  -0.00083430  1
  Sb  Sb18  1  0.25381305  0.74329211  0.50239783  1
  Sb  Sb19  1  0.00009297  0.75198496  0.75375196  1
  Sb  Sb20  1  0.24647201  0.25066517  -0.00007259  1
  Sb  Sb21  1  0.74231166  0.25249202  0.50111744  1
  Sb  Sb22  1  0.74996073  0.49823228  0.75557949  1
  Sb  Sb23  1  0.00189789  0.00529862  0.50421887  1
  Sb  Sb24  1  0.49655850  0.00113755  -0.00224024  1
  Sb  Sb25  1  0.50019793  0.74418450  0.24798796  1
  Sb  Sb26  1  0.75342061  0.00452095  0.24134292  1
  Sb  Sb27  1  0.74526851  0.74718257  0.50439601  1
  Sb  Sb28  1  0.25131470  0.74924201  -0.00167326  1
  Sb  Sb29  1  0.00000430  0.74556337  0.24628834  1
  Sb  Sb30  1  0.49747316  0.00837537  0.50171764  1
  Sb  Sb31  1  0.49694264  0.49862506  -0.00065183  1
  Te  Te32  1  0.25005327  0.25154491  0.24334233  1
  Te  Te33  1  0.25092095  0.24977863  0.75614191  1
  Te  Te34  1  0.25311215  0.75065244  0.25065168  1
  Te  Te35  1  0.25767609  0.75102867  0.74946156  1
  Te  Te36  1  0.75026059  0.25422373  0.25148064  1
  Te  Te37  1  0.75013022  0.24522077  0.74820704  1
  Te  Te38  1  0.74705952  0.74541541  0.24404947  1
  Te  Te39  1  0.74522837  0.75274168  0.75298046  1
  Te  Te40  1  0.24197210  -0.00600838  -0.00196984  1
  Te  Te41  1  0.25079823  0.00951677  0.50088666  1
  Te  Te42  1  0.24200227  0.50573032  0.00072900  1
  Te  Te43  1  0.25409632  0.49464056  0.49997283  1
  Te  Te44  1  0.75880027  -0.00573276  -0.00328473  1
  Te  Te45  1  0.74958194  -0.00053680  0.51146348  1
  Te  Te46  1  0.75834999  0.50412070  0.00408935  1
  Te  Te47  1  0.74028416  0.49969100  0.48951949  1
  Te  Te48  1  -0.00236956  0.25077253  -0.00087677  1
  Te  Te49  1  0.01205615  0.25215236  0.50034449  1
  Te  Te50  1  -0.00742184  0.74917264  -0.00107419  1
  Te  Te51  1  -0.00043300  0.74854446  0.49999510  1
  Te  Te52  1  0.50583164  0.25022408  -0.00134474  1
  Te  Te53  1  0.49343670  0.25626581  0.50168974  1
  Te  Te54  1  0.50854217  0.74994799  -0.00884490  1
  Te  Te55  1  0.49932477  0.73670579  0.51039981  1
  Te  Te56  1  0.00223743  0.00715706  0.24414466  1
  Te  Te57  1  0.00581017  0.00317412  0.75378068  1
  Te  Te58  1  0.00518732  0.49530745  0.24856129  1
  Te  Te59  1  0.00136737  0.49544778  0.75238545  1
  Te  Te60  1  0.49535430  0.00768587  0.24978378  1
  Te  Te61  1  0.49456487  0.00582556  0.75063803  1
  Te  Te62  1  0.49371125  0.49630092  0.24732779  1
  Te  Te63  1  0.49796426  0.49266297  0.75258627  1
