# generated using pymatgen
data_AgSbTe2
_symmetry_space_group_name_H-M   'P 1'
_cell_length_a   12.22769059
_cell_length_b   12.22996638
_cell_length_c   12.24608166
_cell_angle_alpha   90.00267310
_cell_angle_beta   90.00307573
_cell_angle_gamma   89.97292514
_symmetry_Int_Tables_number   1
_chemical_formula_structural   AgSbTe2
_chemical_formula_sum   'Ag16 Sb16 Te32'
_cell_volume   1831.33082394
_cell_formula_units_Z   16
loop_
 _symmetry_equiv_pos_site_id
 _symmetry_equiv_pos_as_xyz
  1  'x, y, z'
loop_
 _atom_site_type_symbol
 _atom_site_label
 _atom_site_symmetry_multiplicity
 _atom_site_fract_x
 _atom_site_fract_y
 _atom_site_fract_z
 _atom_site_occupancy
  Ag  Ag0  1  0.50631945  0.00233816  0.00562541  1
  Ag  Ag1  1  -0.00873601  0.74234906  0.25075772  1
  Ag  Ag2  1  -0.00771481  0.50143670  0.49137430  1
  Ag  Ag3  1  0.74613552  -0.00345500  0.74809849  1
  Ag  Ag4  1  0.25267577  0.25279774  0.00813280  1
  Ag  Ag5  1  0.75369692  0.50689361  0.25547846  1
  Ag  Ag6  1  0.49892128  0.25145591  0.25353133  1
  Ag  Ag7  1  0.74988086  0.74448599  0.49314049  1
  Ag  Ag8  1  0.25501240  0.25477401  0.49158385  1
  Ag  Ag9  1  0.74511168  -0.00534979  0.25176929  1
  Ag  Ag10  1  0.50692973  0.49791821  0.49318565  1
  Ag  Ag11  1  -0.00507052  0.50136874  0.00891721  1
  Ag  Ag12  1  0.75042406  0.50351688  0.74421578  1
  Ag  Ag13  1  0.24795412  0.49559595  0.25325906  1
  Ag  Ag14  1  0.50723134  0.00280272  0.49480621  1
  Ag  Ag15  1  0.75110345  0.74826402  0.00790157  1
  Sb  Sb16  1  -0.00721115  0.00033403  0.49635808  1
  Sb  Sb17  1  0.50794362  0.74949040  0.25116225  1
  Sb  Sb18  1  -0.00132973  0.25232336  0.74932404  1
  Sb  Sb19  1  0.00083476  0.25705854  0.25062545  1
  Sb  Sb20  1  -0.00429910  -0.00037018  0.00361149  1
  Sb  Sb21  1  0.24889372  0.74870094  0.00601795  1
  Sb  Sb22  1  0.50542152  0.74958734  0.74916716  1
  Sb  Sb23  1  0.50370808  0.49886526  0.00603312  1
  Sb  Sb24  1  0.25419707  0.00316871  0.25099084  1
  Sb  Sb25  1  0.74846336  0.25089363  0.00334308  1
  Sb  Sb26  1  0.25020109  0.74737135  0.49500510  1
  Sb  Sb27  1  0.74674103  0.25590795  0.49685440  1
  Sb  Sb28  1  0.50135181  0.25041850  0.74668668  1
  Sb  Sb29  1  0.25410402  0.00217568  0.74865790  1
  Sb  Sb30  1  -0.00644246  0.74731733  0.74898268  1
  Sb  Sb31  1  0.25081001  0.49790699  0.74816067  1
  Te  Te32  1  0.25300301  0.25324505  0.25063243  1
  Te  Te33  1  0.24962142  0.24942811  0.75150665  1
  Te  Te34  1  0.23988185  0.74194459  0.24962709  1
  Te  Te35  1  0.24767495  0.75098325  0.75096087  1
  Te  Te36  1  0.74533194  0.24845561  0.24961207  1
  Te  Te37  1  0.74987386  0.24998625  0.75109374  1
  Te  Te38  1  0.75077959  0.74764989  0.25079446  1
  Te  Te39  1  0.75055328  0.74836199  0.74890851  1
  Te  Te40  1  0.25498164  0.00401166  -0.00102356  1
  Te  Te41  1  0.25678435  0.00380634  0.50114549  1
  Te  Te42  1  0.24918346  0.49733387  0.00050855  1
  Te  Te43  1  0.25198369  0.49852177  0.49877918  1
  Te  Te44  1  0.74767447  -0.00143417  0.00195295  1
  Te  Te45  1  0.74771185  -0.00094949  0.49806673  1
  Te  Te46  1  0.75073135  0.50214838  0.00179986  1
  Te  Te47  1  0.74959020  0.49965301  0.49760652  1
  Te  Te48  1  0.00767583  0.25529034  -0.00042873  1
  Te  Te49  1  0.00959472  0.25515917  0.50012590  1
  Te  Te50  1  -0.00377181  0.74554483  0.00466224  1
  Te  Te51  1  -0.00434982  0.74589694  0.49531573  1
  Te  Te52  1  0.49582240  0.24650675  0.00466707  1
  Te  Te53  1  0.49708723  0.25053637  0.49634994  1
  Te  Te54  1  0.50553832  0.75655755  -0.00055884  1
  Te  Te55  1  0.50474438  0.75021698  0.50042091  1
  Te  Te56  1  -0.00633481  -0.00617707  0.25017477  1
  Te  Te57  1  -0.00968858  0.00022079  0.74999607  1
  Te  Te58  1  -0.00346973  0.49943465  0.25050059  1
  Te  Te59  1  -0.00606881  0.49973560  0.74942706  1
  Te  Te60  1  0.50187734  0.00218092  0.25179953  1
  Te  Te61  1  0.50567518  0.00021057  0.74788434  1
  Te  Te62  1  0.50060183  0.49759981  0.25277826  1
  Te  Te63  1  0.50644248  0.49959698  0.74215507  1
