# generated using pymatgen
data_AgSbTe2
_symmetry_space_group_name_H-M   'P 1'
_cell_length_a   12.25704813
_cell_length_b   12.23222612
_cell_length_c   12.26654797
_cell_angle_alpha   90.00270006
_cell_angle_beta   90.00230086
_cell_angle_gamma   89.99708566
_symmetry_Int_Tables_number   1
_chemical_formula_structural   AgSbTe2
_chemical_formula_sum   'Ag16 Sb16 Te32'
_cell_volume   1839.13560579
_cell_formula_units_Z   16
loop_
 _symmetry_equiv_pos_site_id
 _symmetry_equiv_pos_as_xyz
  1  'x, y, z'
loop_
 _atom_site_type_symbol
 _atom_site_label
 _atom_site_symmetry_multiplicity
 _atom_site_fract_x
 _atom_site_fract_y
 _atom_site_fract_z
 _atom_site_occupancy
  Ag  Ag0  1  0.49916185  0.73504111  0.75951987  1
  Ag  Ag1  1  0.50199954  0.49710899  0.50673049  1
  Ag  Ag2  1  0.74971067  0.25761387  0.50079234  1
  Ag  Ag3  1  -0.00506368  0.26147857  0.74844067  1
  Ag  Ag4  1  -0.00659246  0.25879393  0.25119808  1
  Ag  Ag5  1  0.50231694  0.74002185  0.24017553  1
  Ag  Ag6  1  0.00059254  0.73855746  0.75388633  1
  Ag  Ag7  1  0.25440145  0.50285715  0.75252431  1
  Ag  Ag8  1  -0.00221845  0.74146959  0.24601120  1
  Ag  Ag9  1  0.50145489  0.50457067  -0.00661273  1
  Ag  Ag10  1  0.74631210  0.25714183  -0.00073412  1
  Ag  Ag11  1  0.74420084  0.74238983  -0.00072502  1
  Ag  Ag12  1  0.50681973  0.26002544  0.24789288  1
  Ag  Ag13  1  -0.00235290  0.49683487  0.50428529  1
  Ag  Ag14  1  0.25517607  0.74219816  -0.00323851  1
  Ag  Ag15  1  0.50488837  0.26476339  0.75195075  1
  Sb  Sb16  1  0.25184479  0.50231499  0.24350290  1
  Sb  Sb17  1  -0.00178772  0.00520716  0.50051222  1
  Sb  Sb18  1  0.74936573  0.00178371  0.75007228  1
  Sb  Sb19  1  0.50018730  -0.00651431  -0.00017811  1
  Sb  Sb20  1  -0.00331764  0.50230917  -0.00778180  1
  Sb  Sb21  1  0.74933214  0.73995113  0.50081437  1
  Sb  Sb22  1  0.74777537  0.49726822  0.24830137  1
  Sb  Sb23  1  0.74991904  0.00122524  0.24995207  1
  Sb  Sb24  1  0.50187837  0.00527166  0.50060774  1
  Sb  Sb25  1  0.25053244  -0.00496489  0.75125984  1
  Sb  Sb26  1  0.25631671  0.26051490  -0.00351619  1
  Sb  Sb27  1  0.74230009  0.49710248  0.75164387  1
  Sb  Sb28  1  -0.00018434  -0.00010714  -0.00025676  1
  Sb  Sb29  1  0.25077406  0.25592894  0.50171272  1
  Sb  Sb30  1  0.25035538  -0.00162539  0.24878393  1
  Sb  Sb31  1  0.25028015  0.74443376  0.50534848  1
  Te  Te32  1  0.24876777  0.25024439  0.24704000  1
  Te  Te33  1  0.24932938  0.25624106  0.75396447  1
  Te  Te34  1  0.24913557  0.74838154  0.24074892  1
  Te  Te35  1  0.24975513  0.74647677  0.75414396  1
  Te  Te36  1  0.75013847  0.24969340  0.24539502  1
  Te  Te37  1  0.75062937  0.24920272  0.75448938  1
  Te  Te38  1  0.75084145  0.75167352  0.24470459  1
  Te  Te39  1  0.75105770  0.75231089  0.75493284  1
  Te  Te40  1  0.24969976  -0.01966000  -0.00094512  1
  Te  Te41  1  0.24985162  -0.00137224  0.50048133  1
  Te  Te42  1  0.26091504  0.50864751  -0.00912522  1
  Te  Te43  1  0.25126274  0.50043220  0.51409743  1
  Te  Te44  1  0.74960767  0.00128442  -0.00019043  1
  Te  Te45  1  0.75001746  0.02006982  0.50019700  1
  Te  Te46  1  0.74061250  0.50014224  0.00002244  1
  Te  Te47  1  0.74968564  0.49035745  0.49979038  1
  Te  Te48  1  -0.00593591  0.25277330  0.00083987  1
  Te  Te49  1  -0.00380009  0.25481627  0.49998168  1
  Te  Te50  1  -0.00490968  0.74533849  0.00040277  1
  Te  Te51  1  -0.00341194  0.74233123  0.49940295  1
  Te  Te52  1  0.50178341  0.25417776  0.00031788  1
  Te  Te53  1  0.50341440  0.25576265  0.49962068  1
  Te  Te54  1  0.50504578  0.74830549  0.00044787  1
  Te  Te55  1  0.50368836  0.74081369  0.49907270  1
  Te  Te56  1  0.00157562  -0.00042245  0.25223915  1
  Te  Te57  1  0.00308266  0.00006948  0.74776084  1
  Te  Te58  1  0.00547079  0.49976205  0.25679472  1
  Te  Te59  1  0.00499040  0.49997936  0.74975819  1
  Te  Te60  1  0.49848430  0.00051771  0.25248463  1
  Te  Te61  1  0.49705514  0.00084034  0.74757943  1
  Te  Te62  1  0.49576738  0.49982587  0.25170605  1
  Te  Te63  1  0.50001270  0.50001670  0.74896731  1
