# generated using pymatgen
data_AgSbTe2
_symmetry_space_group_name_H-M   'P 1'
_cell_length_a   12.21451919
_cell_length_b   12.20953570
_cell_length_c   12.21024465
_cell_angle_alpha   90.00770501
_cell_angle_beta   89.99502519
_cell_angle_gamma   90.00372537
_symmetry_Int_Tables_number   1
_chemical_formula_structural   AgSbTe2
_chemical_formula_sum   'Ag16 Sb16 Te32'
_cell_volume   1820.95781386
_cell_formula_units_Z   16
loop_
 _symmetry_equiv_pos_site_id
 _symmetry_equiv_pos_as_xyz
  1  'x, y, z'
loop_
 _atom_site_type_symbol
 _atom_site_label
 _atom_site_symmetry_multiplicity
 _atom_site_fract_x
 _atom_site_fract_y
 _atom_site_fract_z
 _atom_site_occupancy
  Ag  Ag0  1  0.49775061  0.00221270  0.49997539  1
  Ag  Ag1  1  0.74980061  0.49860169  0.74569541  1
  Ag  Ag2  1  0.74997098  0.00582374  0.25232169  1
  Ag  Ag3  1  0.74765503  0.25289994  0.49703126  1
  Ag  Ag4  1  0.24610843  0.25288881  0.00207822  1
  Ag  Ag5  1  0.00291793  0.00554726  0.00130958  1
  Ag  Ag6  1  0.25055105  0.50111223  0.74466873  1
  Ag  Ag7  1  0.49912991  0.25107992  0.25502497  1
  Ag  Ag8  1  0.49487229  0.49848492  0.50232063  1
  Ag  Ag9  1  0.00168256  0.25303835  0.24884927  1
  Ag  Ag10  1  0.25140990  -0.00019649  0.74802581  1
  Ag  Ag11  1  0.25331671  0.74476847  0.50349361  1
  Ag  Ag12  1  0.00459452  0.49453913  0.00068488  1
  Ag  Ag13  1  0.24786006  0.49539021  0.25417021  1
  Ag  Ag14  1  0.49527806  0.74732073  0.74429632  1
  Ag  Ag15  1  0.00518017  0.49686249  0.49999752  1
  Sb  Sb16  1  0.00485289  0.74704770  0.74785521  1
  Sb  Sb17  1  0.49706884  0.74844203  0.25543329  1
  Sb  Sb18  1  0.49593238  0.49672281  -0.00201562  1
  Sb  Sb19  1  0.75113642  0.49432958  0.25440840  1
  Sb  Sb20  1  0.25000341  0.00532981  0.25156370  1
  Sb  Sb21  1  0.25181246  0.25728893  0.49693723  1
  Sb  Sb22  1  0.75384091  0.25119278  0.00283683  1
  Sb  Sb23  1  0.75081050  0.74863770  -0.00135010  1
  Sb  Sb24  1  0.74929539  0.00146457  0.74756390  1
  Sb  Sb25  1  0.00264409  0.00470006  0.49895663  1
  Sb  Sb26  1  0.00187767  0.74645106  0.25190313  1
  Sb  Sb27  1  0.49758608  0.25270569  0.74397690  1
  Sb  Sb28  1  0.74709020  0.74690619  0.50170968  1
  Sb  Sb29  1  0.24968495  0.74755799  -0.00319780  1
  Sb  Sb30  1  0.49739142  0.00370249  0.00012771  1
  Sb  Sb31  1  0.00204025  0.25327977  0.75092043  1
  Te  Te32  1  0.24885078  0.25403824  0.24704075  1
  Te  Te33  1  0.25121730  0.25082108  0.75620786  1
  Te  Te34  1  0.25122297  0.74166214  0.25631901  1
  Te  Te35  1  0.25384484  0.74756321  0.74639293  1
  Te  Te36  1  0.74971225  0.24733668  0.25319278  1
  Te  Te37  1  0.74910780  0.25560467  0.74390627  1
  Te  Te38  1  0.74911414  0.76062449  0.25028372  1
  Te  Te39  1  0.74168365  0.74370424  0.74931348  1
  Te  Te40  1  0.24572665  0.00260746  -0.00321147  1
  Te  Te41  1  0.25267652  -0.00330928  0.50375448  1
  Te  Te42  1  0.24595082  0.49770537  -0.00106461  1
  Te  Te43  1  0.25061891  0.49825508  0.50227440  1
  Te  Te44  1  0.75604215  0.00047308  0.00276210  1
  Te  Te45  1  0.74751396  0.00354708  0.49885949  1
  Te  Te46  1  0.75771119  0.49909888  -0.00597181  1
  Te  Te47  1  0.74947103  0.49715309  0.50234729  1
  Te  Te48  1  0.00305985  0.25201500  0.00411778  1
  Te  Te49  1  -0.00432294  0.25445211  0.49420023  1
  Te  Te50  1  0.00041113  0.74916335  0.00044341  1
  Te  Te51  1  0.00644364  0.74259411  0.49972621  1
  Te  Te52  1  0.49403381  0.24973695  0.00995446  1
  Te  Te53  1  0.50216963  0.25067528  0.49528309  1
  Te  Te54  1  0.49950966  0.75037572  -0.00840076  1
  Te  Te55  1  0.49663875  0.74845203  0.50306446  1
  Te  Te56  1  -0.00128772  0.00483492  0.24711914  1
  Te  Te57  1  0.00387304  -0.00039834  0.75460317  1
  Te  Te58  1  0.00146246  0.49661262  0.25001648  1
  Te  Te59  1  0.00264889  0.49967260  0.74900327  1
  Te  Te60  1  0.50129158  0.00304036  0.25353542  1
  Te  Te61  1  0.49700937  -0.00202789  0.74644666  1
  Te  Te62  1  0.49847560  0.49699531  0.25376988  1
  Te  Te63  1  0.49697164  0.50078709  0.74713742  1
