# generated using pymatgen
data_AgSbTe2
_symmetry_space_group_name_H-M   'P 1'
_cell_length_a   12.21871947
_cell_length_b   12.21686244
_cell_length_c   12.21370139
_cell_angle_alpha   90.00872826
_cell_angle_beta   89.99645847
_cell_angle_gamma   90.00286946
_symmetry_Int_Tables_number   1
_chemical_formula_structural   AgSbTe2
_chemical_formula_sum   'Ag16 Sb16 Te32'
_cell_volume   1823.19310262
_cell_formula_units_Z   16
loop_
 _symmetry_equiv_pos_site_id
 _symmetry_equiv_pos_as_xyz
  1  'x, y, z'
loop_
 _atom_site_type_symbol
 _atom_site_label
 _atom_site_symmetry_multiplicity
 _atom_site_fract_x
 _atom_site_fract_y
 _atom_site_fract_z
 _atom_site_occupancy
  Ag  Ag0  1  0.00000672  0.50052059  0.50461620  1
  Ag  Ag1  1  -0.00407232  0.74812189  0.75035588  1
  Ag  Ag2  1  0.50327979  0.74647886  0.75453739  1
  Ag  Ag3  1  -0.00055612  0.75399279  0.25002686  1
  Ag  Ag4  1  0.75550073  0.24773475  0.50245725  1
  Ag  Ag5  1  0.24433700  -0.00159927  0.25067051  1
  Ag  Ag6  1  0.75574418  -0.00362894  0.25285271  1
  Ag  Ag7  1  0.25019656  0.25201504  -0.00128727  1
  Ag  Ag8  1  0.75107844  0.74952363  -0.00653915  1
  Ag  Ag9  1  0.75346896  -0.00687651  0.74774697  1
  Ag  Ag10  1  -0.00246151  -0.00064951  0.49886160  1
  Ag  Ag11  1  0.24923340  0.74752024  -0.00315261  1
  Ag  Ag12  1  0.24523588  0.24994172  0.50109742  1
  Ag  Ag13  1  0.49786849  0.50464115  -0.00557066  1
  Ag  Ag14  1  0.24838705  0.50351558  0.75229682  1
  Ag  Ag15  1  0.75192074  0.50747630  0.74977270  1
  Sb  Sb16  1  0.49941056  0.25298438  0.75147825  1
  Sb  Sb17  1  0.74962231  0.25090410  -0.00127513  1
  Sb  Sb18  1  0.75492117  0.75257577  0.50787613  1
  Sb  Sb19  1  0.75413978  0.50415769  0.25187398  1
  Sb  Sb20  1  0.50085453  0.75057384  0.24575880  1
  Sb  Sb21  1  0.24659012  0.50197115  0.24833268  1
  Sb  Sb22  1  0.50032195  0.50013444  0.50517308  1
  Sb  Sb23  1  0.00009425  -0.00469599  0.00112469  1
  Sb  Sb24  1  0.24535536  -0.00308954  0.74897859  1
  Sb  Sb25  1  0.49953311  0.24958636  0.24907271  1
  Sb  Sb26  1  0.24543379  0.74986032  0.50216962  1
  Sb  Sb27  1  0.49934939  -0.00431639  -0.00238943  1
  Sb  Sb28  1  0.00019100  0.25170809  0.74638302  1
  Sb  Sb29  1  0.00057826  0.24457233  0.25354782  1
  Sb  Sb30  1  0.00165375  0.50467746  -0.00592574  1
  Sb  Sb31  1  0.50248065  0.00041968  0.50195451  1
  Te  Te32  1  0.24974663  0.24485904  0.25060375  1
  Te  Te33  1  0.24997023  0.25265291  0.74991652  1
  Te  Te34  1  0.24829749  0.75390650  0.24546805  1
  Te  Te35  1  0.24744334  0.74834001  0.75344390  1
  Te  Te36  1  0.75018543  0.24288669  0.25318696  1
  Te  Te37  1  0.74997346  0.24963697  0.74737178  1
  Te  Te38  1  0.75158405  0.75438720  0.24400122  1
  Te  Te39  1  0.75357597  0.74881289  0.75127810  1
  Te  Te40  1  0.24988461  -0.00020254  0.00256458  1
  Te  Te41  1  0.24645956  0.00457667  0.49783967  1
  Te  Te42  1  0.25028559  0.50221559  -0.00254069  1
  Te  Te43  1  0.24848298  0.49540261  0.50302412  1
  Te  Te44  1  0.75008688  -0.00160908  -0.00075828  1
  Te  Te45  1  0.75244154  0.00275801  0.50000221  1
  Te  Te46  1  0.74868814  0.50116607  -0.00422899  1
  Te  Te47  1  0.75156524  0.49453183  0.50312839  1
  Te  Te48  1  0.00871939  0.25162021  0.00114008  1
  Te  Te49  1  0.00076641  0.24945986  0.50027946  1
  Te  Te50  1  -0.00004585  0.74973609  -0.00142278  1
  Te  Te51  1  0.00030935  0.75061513  0.50031869  1
  Te  Te52  1  0.49304982  0.25760896  -0.00060238  1
  Te  Te53  1  0.49775451  0.25088356  0.50004348  1
  Te  Te54  1  0.49945616  0.74674829  -0.00402249  1
  Te  Te55  1  0.49824934  0.74876901  0.50830118  1
  Te  Te56  1  -0.00038512  -0.00478159  0.25337359  1
  Te  Te57  1  -0.00410620  -0.00570495  0.74487118  1
  Te  Te58  1  -0.00076489  0.50975202  0.26022243  1
  Te  Te59  1  0.00002253  0.50383801  0.74533285  1
  Te  Te60  1  0.50047875  -0.00105722  0.25018867  1
  Te  Te61  1  0.50779465  -0.00776768  0.75000217  1
  Te  Te62  1  0.50064517  0.50116248  0.24158552  1
  Te  Te63  1  0.49968688  0.50404448  0.75321083  1
