# generated using pymatgen
data_AgSbTe2
_symmetry_space_group_name_H-M   'P 1'
_cell_length_a   12.21563706
_cell_length_b   12.21591973
_cell_length_c   12.21917830
_cell_angle_alpha   90.00215972
_cell_angle_beta   89.99762661
_cell_angle_gamma   90.00635868
_symmetry_Int_Tables_number   1
_chemical_formula_structural   AgSbTe2
_chemical_formula_sum   'Ag16 Sb16 Te32'
_cell_volume   1823.40982312
_cell_formula_units_Z   16
loop_
 _symmetry_equiv_pos_site_id
 _symmetry_equiv_pos_as_xyz
  1  'x, y, z'
loop_
 _atom_site_type_symbol
 _atom_site_label
 _atom_site_symmetry_multiplicity
 _atom_site_fract_x
 _atom_site_fract_y
 _atom_site_fract_z
 _atom_site_occupancy
  Ag  Ag0  1  0.49814115  0.74824306  0.25142393  1
  Ag  Ag1  1  0.75495816  0.50294227  0.74947273  1
  Ag  Ag2  1  0.50249983  0.25179212  0.25049064  1
  Ag  Ag3  1  -0.00264526  0.25691929  0.25097380  1
  Ag  Ag4  1  0.75355866  0.25549403  0.49466980  1
  Ag  Ag5  1  0.24677060  -0.00378939  0.74749457  1
  Ag  Ag6  1  0.24816653  -0.00528126  0.25222266  1
  Ag  Ag7  1  0.24344518  0.50485214  0.25195964  1
  Ag  Ag8  1  0.75808393  0.74427894  0.49724396  1
  Ag  Ag9  1  0.75479602  0.74397960  0.00282048  1
  Ag  Ag10  1  0.24319843  0.74888743  0.49379465  1
  Ag  Ag11  1  -0.00456035  0.50287561  0.00607075  1
  Ag  Ag12  1  0.75326867  0.25555145  0.00526835  1
  Ag  Ag13  1  0.00195133  0.74277215  0.25435397  1
  Ag  Ag14  1  -0.00163295  0.74664911  0.74612538  1
  Ag  Ag15  1  -0.00315141  0.50575782  0.49401529  1
  Sb  Sb16  1  0.75354215  -0.00086556  0.25040657  1
  Sb  Sb17  1  0.50828710  0.50085287  0.00652808  1
  Sb  Sb18  1  0.49811843  -0.00092839  0.49594671  1
  Sb  Sb19  1  0.50610148  0.50106153  0.49398096  1
  Sb  Sb20  1  -0.00227247  0.25403847  0.74820629  1
  Sb  Sb21  1  0.24418702  0.25228315  0.00523314  1
  Sb  Sb22  1  -0.00001472  -0.00431561  0.00235288  1
  Sb  Sb23  1  0.24329112  0.74805215  0.00955265  1
  Sb  Sb24  1  0.00218438  -0.00924612  0.49779190  1
  Sb  Sb25  1  0.49986053  -0.00088670  0.00403434  1
  Sb  Sb26  1  0.50299519  0.25071463  0.74906814  1
  Sb  Sb27  1  0.76189539  0.50064390  0.25130769  1
  Sb  Sb28  1  0.24425996  0.25271812  0.49482397  1
  Sb  Sb29  1  0.50111239  0.74921134  0.74851764  1
  Sb  Sb30  1  0.24164927  0.50666599  0.74674465  1
  Sb  Sb31  1  0.75511729  -0.00485786  0.74928971  1
  Te  Te32  1  0.24941297  0.24963659  0.25111341  1
  Te  Te33  1  0.25111422  0.24184775  0.74891130  1
  Te  Te34  1  0.24854665  0.74989831  0.25076450  1
  Te  Te35  1  0.24748020  0.75188215  0.74373311  1
  Te  Te36  1  0.75116581  0.24798553  0.25042201  1
  Te  Te37  1  0.74946331  0.25352556  0.74977023  1
  Te  Te38  1  0.75125282  0.75172429  0.25154095  1
  Te  Te39  1  0.75253487  0.74839714  0.74855713  1
  Te  Te40  1  0.25006563  0.00035353  0.00118026  1
  Te  Te41  1  0.24993629  -0.00611356  0.49783636  1
  Te  Te42  1  0.23995536  0.49962436  0.00485804  1
  Te  Te43  1  0.24265106  0.50456903  0.49648142  1
  Te  Te44  1  0.75000180  0.00095497  -0.00241505  1
  Te  Te45  1  0.74961308  -0.00032799  0.50250659  1
  Te  Te46  1  0.75486171  0.50080777  -0.00382040  1
  Te  Te47  1  0.75409784  0.50207579  0.50298058  1
  Te  Te48  1  -0.00595476  0.25663661  0.00466950  1
  Te  Te49  1  -0.00549240  0.25768149  0.49596190  1
  Te  Te50  1  -0.00507466  0.74603003  0.00142238  1
  Te  Te51  1  -0.00140745  0.74818599  0.49764718  1
  Te  Te52  1  0.51052261  0.25047575  0.00849145  1
  Te  Te53  1  0.50974887  0.25074691  0.49183223  1
  Te  Te54  1  0.51132241  0.74935580  0.00788768  1
  Te  Te55  1  0.50083885  0.74918543  0.49298345  1
  Te  Te56  1  0.00791195  0.00061439  0.24916540  1
  Te  Te57  1  0.00691583  -0.00837564  0.75136070  1
  Te  Te58  1  0.00114825  0.50098833  0.25092485  1
  Te  Te59  1  -0.00304795  0.50486782  0.74954976  1
  Te  Te60  1  0.48938814  -0.00025733  0.24974324  1
  Te  Te61  1  0.48774335  -0.00006744  0.75106314  1
  Te  Te62  1  0.48731175  0.50034802  0.24978723  1
  Te  Te63  1  0.50880855  0.49967632  0.75090359  1
