# generated using pymatgen
data_AgSbTe2
_symmetry_space_group_name_H-M   'P 1'
_cell_length_a   12.22878048
_cell_length_b   12.22753289
_cell_length_c   12.23473121
_cell_angle_alpha   89.99594512
_cell_angle_beta   90.00121798
_cell_angle_gamma   90.00615011
_symmetry_Int_Tables_number   1
_chemical_formula_structural   AgSbTe2
_chemical_formula_sum   'Ag16 Sb16 Te32'
_cell_volume   1829.43261612
_cell_formula_units_Z   16
loop_
 _symmetry_equiv_pos_site_id
 _symmetry_equiv_pos_as_xyz
  1  'x, y, z'
loop_
 _atom_site_type_symbol
 _atom_site_label
 _atom_site_symmetry_multiplicity
 _atom_site_fract_x
 _atom_site_fract_y
 _atom_site_fract_z
 _atom_site_occupancy
  Ag  Ag0  1  0.50097406  0.49823138  0.50640138  1
  Ag  Ag1  1  -0.01374756  0.25022016  0.75740617  1
  Ag  Ag2  1  0.74964310  0.01475591  0.75342581  1
  Ag  Ag3  1  0.25324438  0.49849214  0.24445897  1
  Ag  Ag4  1  0.50032265  0.74183932  0.75139406  1
  Ag  Ag5  1  0.24502616  0.25370371  -0.00428322  1
  Ag  Ag6  1  -0.00373202  0.00762936  -0.00075055  1
  Ag  Ag7  1  0.75506240  0.24730672  -0.01345617  1
  Ag  Ag8  1  0.25244066  0.74477270  -0.00118475  1
  Ag  Ag9  1  0.25752243  0.49521659  0.75404284  1
  Ag  Ag10  1  0.75104889  0.00626760  0.24567699  1
  Ag  Ag11  1  -0.00344286  0.24890150  0.24107755  1
  Ag  Ag12  1  0.74250179  0.48589686  0.75068109  1
  Ag  Ag13  1  0.51398575  0.25706460  0.75156827  1
  Ag  Ag14  1  0.74897675  0.25114291  0.51479369  1
  Ag  Ag15  1  0.49863241  0.74656875  0.24758737  1
  Sb  Sb16  1  0.50108786  0.25284684  0.24803796  1
  Sb  Sb17  1  0.49807993  0.49898907  -0.00660635  1
  Sb  Sb18  1  -0.00198556  0.49659436  0.50143761  1
  Sb  Sb19  1  -0.00338287  0.00383427  0.50132627  1
  Sb  Sb20  1  0.25350571  0.74615036  0.50201948  1
  Sb  Sb21  1  0.24979307  0.00139627  0.24506924  1
  Sb  Sb22  1  0.00199843  0.49181714  -0.00073719  1
  Sb  Sb23  1  0.50311022  0.00264815  0.50142856  1
  Sb  Sb24  1  0.00078517  0.74919575  0.75429813  1
  Sb  Sb25  1  0.00097741  0.75047028  0.24494385  1
  Sb  Sb26  1  0.50362254  0.00123029  -0.00063340  1
  Sb  Sb27  1  0.25105237  0.25353670  0.50348515  1
  Sb  Sb28  1  0.74728138  0.49522407  0.24872666  1
  Sb  Sb29  1  0.74661592  0.74813869  0.50153564  1
  Sb  Sb30  1  0.74788425  0.75152578  -0.00204986  1
  Sb  Sb31  1  0.25075559  0.00438558  0.75413074  1
  Te  Te32  1  0.24921414  0.25316099  0.24734085  1
  Te  Te33  1  0.25022260  0.25221414  0.75244535  1
  Te  Te34  1  0.25326059  0.74688242  0.24651182  1
  Te  Te35  1  0.25303043  0.74682903  0.75310012  1
  Te  Te36  1  0.75107667  0.24897920  0.24645386  1
  Te  Te37  1  0.74946658  0.25033134  0.75208387  1
  Te  Te38  1  0.74599695  0.75301382  0.24960798  1
  Te  Te39  1  0.74543323  0.74872550  0.75098161  1
  Te  Te40  1  0.24437915  0.00390971  0.00014842  1
  Te  Te41  1  0.24983881  -0.00063112  0.49927777  1
  Te  Te42  1  0.24979178  0.49814171  -0.00077904  1
  Te  Te43  1  0.25524606  0.49932689  0.50232732  1
  Te  Te44  1  0.75310112  0.00146249  -0.00106872  1
  Te  Te45  1  0.74950162  0.00555142  0.50150601  1
  Te  Te46  1  0.75130901  0.49598018  -0.00439377  1
  Te  Te47  1  0.74615601  0.49611901  0.50291257  1
  Te  Te48  1  -0.00003388  0.24789175  -0.00085673  1
  Te  Te49  1  -0.00514272  0.25019540  0.50126823  1
  Te  Te50  1  0.00713675  0.75988851  -0.00004716  1
  Te  Te51  1  0.00038507  0.75040060  0.49973232  1
  Te  Te52  1  0.49850004  0.24922319  -0.00387504  1
  Te  Te53  1  0.50327508  0.25353809  0.50354066  1
  Te  Te54  1  0.49506913  0.75138891  -0.00085706  1
  Te  Te55  1  0.50045125  0.74489387  0.50257278  1
  Te  Te56  1  -0.00400052  0.00412855  0.24790927  1
  Te  Te57  1  -0.00394018  0.00314977  0.75186360  1
  Te  Te58  1  0.00482882  0.49533624  0.25132007  1
  Te  Te59  1  0.00060523  0.49696184  0.74907216  1
  Te  Te60  1  0.50470118  -0.00540202  0.25103312  1
  Te  Te61  1  0.50403925  0.00012620  0.74925046  1
  Te  Te62  1  0.49759392  0.50306070  0.25510546  1
  Te  Te63  1  0.49986641  0.49922784  0.74925988  1
