# generated using pymatgen
data_AgSbTe2
_symmetry_space_group_name_H-M   'P 1'
_cell_length_a   12.23170468
_cell_length_b   12.22108637
_cell_length_c   12.22054313
_cell_angle_alpha   90.00275935
_cell_angle_beta   89.99744123
_cell_angle_gamma   89.99608945
_symmetry_Int_Tables_number   1
_chemical_formula_structural   AgSbTe2
_chemical_formula_sum   'Ag16 Sb16 Te32'
_cell_volume   1826.78445188
_cell_formula_units_Z   16
loop_
 _symmetry_equiv_pos_site_id
 _symmetry_equiv_pos_as_xyz
  1  'x, y, z'
loop_
 _atom_site_type_symbol
 _atom_site_label
 _atom_site_symmetry_multiplicity
 _atom_site_fract_x
 _atom_site_fract_y
 _atom_site_fract_z
 _atom_site_occupancy
  Ag  Ag0  1  -0.00179544  0.25444303  0.24508778  1
  Ag  Ag1  1  0.00378128  0.50157257  0.00235750  1
  Ag  Ag2  1  0.50256660  -0.00501615  0.50119396  1
  Ag  Ag3  1  0.49548830  0.50162005  -0.00259639  1
  Ag  Ag4  1  -0.00269627  0.74559765  0.24886445  1
  Ag  Ag5  1  0.25190932  0.50338204  0.75898351  1
  Ag  Ag6  1  0.49730383  0.74568982  0.75160137  1
  Ag  Ag7  1  0.25028716  0.26018048  -0.00187933  1
  Ag  Ag8  1  0.75212062  0.50308941  0.24535603  1
  Ag  Ag9  1  0.74997794  0.75016770  0.49744756  1
  Ag  Ag10  1  -0.00245161  -0.00507238  0.49889222  1
  Ag  Ag11  1  0.49822212  0.25416725  0.75483056  1
  Ag  Ag12  1  0.25004463  0.74021379  -0.00288878  1
  Ag  Ag13  1  0.50235248  0.74653436  0.24880754  1
  Ag  Ag14  1  0.00247400  0.74664943  0.75174849  1
  Ag  Ag15  1  0.75031833  0.25774434  0.00162363  1
  Sb  Sb16  1  0.75001981  0.25094415  0.49917742  1
  Sb  Sb17  1  0.75043442  -0.00379035  0.25145137  1
  Sb  Sb18  1  0.25042807  -0.00334716  0.75074651  1
  Sb  Sb19  1  0.74992630  0.74394738  0.00234553  1
  Sb  Sb20  1  0.50180886  0.50383472  0.50162888  1
  Sb  Sb21  1  0.24979825  -0.00138689  0.24967013  1
  Sb  Sb22  1  0.49972772  -0.00235088  -0.00078381  1
  Sb  Sb23  1  0.00041760  -0.00229183  0.00098225  1
  Sb  Sb24  1  0.74974573  -0.00199916  0.74894080  1
  Sb  Sb25  1  0.24995316  0.74974346  0.50193946  1
  Sb  Sb26  1  -0.00175538  0.50384335  0.49761913  1
  Sb  Sb27  1  0.74884073  0.50157608  0.75443239  1
  Sb  Sb28  1  0.24793721  0.50198454  0.24150426  1
  Sb  Sb29  1  0.00156062  0.25209489  0.75369075  1
  Sb  Sb30  1  0.50095927  0.25257702  0.24616827  1
  Sb  Sb31  1  0.25005553  0.25112746  0.50087431  1
  Te  Te32  1  0.24509726  0.25097231  0.24414448  1
  Te  Te33  1  0.25338422  0.25439672  0.75473428  1
  Te  Te34  1  0.24916092  0.74876914  0.24373456  1
  Te  Te35  1  0.25132864  0.74725077  0.75403069  1
  Te  Te36  1  0.75326922  0.25513201  0.24756715  1
  Te  Te37  1  0.74499366  0.25131136  0.75336438  1
  Te  Te38  1  0.75138454  0.74684328  0.25109606  1
  Te  Te39  1  0.74904967  0.74859839  0.74643110  1
  Te  Te40  1  0.25003226  0.00084298  -0.00029641  1
  Te  Te41  1  0.24995193  0.00164373  0.50012030  1
  Te  Te42  1  0.25040782  0.50136127  -0.00255381  1
  Te  Te43  1  0.24984981  0.49817432  0.51365167  1
  Te  Te44  1  0.75002777  0.01408173  0.00011253  1
  Te  Te45  1  0.75003274  -0.00575721  0.50014681  1
  Te  Te46  1  0.75064653  0.49678561  0.00412751  1
  Te  Te47  1  0.75028220  0.50594049  0.49110210  1
  Te  Te48  1  0.00178554  0.25109334  0.00133519  1
  Te  Te49  1  -0.00126871  0.24436418  0.49603566  1
  Te  Te50  1  -0.00042902  0.74847748  0.00065408  1
  Te  Te51  1  -0.00053025  0.75206339  0.49819672  1
  Te  Te52  1  0.49743438  0.25116039  -0.00136373  1
  Te  Te53  1  0.50086057  0.24411566  0.50382483  1
  Te  Te54  1  0.50035987  0.74844979  -0.00133151  1
  Te  Te55  1  0.50044553  0.75224851  0.50077528  1
  Te  Te56  1  -0.00006636  -0.00315548  0.25443545  1
  Te  Te57  1  -0.00052367  -0.00660256  0.74374489  1
  Te  Te58  1  -0.00100359  0.50263339  0.24728602  1
  Te  Te59  1  0.00120150  0.50418503  0.75370052  1
  Te  Te60  1  0.50020467  -0.00657703  0.25623867  1
  Te  Te61  1  0.50058029  -0.00314859  0.74562853  1
  Te  Te62  1  0.50229763  0.50410858  0.24685825  1
  Te  Te63  1  0.49999119  0.50276680  0.75264999  1
