# generated using pymatgen
data_AgSbTe2
_symmetry_space_group_name_H-M   'P 1'
_cell_length_a   12.22529317
_cell_length_b   12.22199300
_cell_length_c   12.21883049
_cell_angle_alpha   89.98758923
_cell_angle_beta   90.00591362
_cell_angle_gamma   89.99383353
_symmetry_Int_Tables_number   1
_chemical_formula_structural   AgSbTe2
_chemical_formula_sum   'Ag16 Sb16 Te32'
_cell_volume   1825.70640139
_cell_formula_units_Z   16
loop_
 _symmetry_equiv_pos_site_id
 _symmetry_equiv_pos_as_xyz
  1  'x, y, z'
loop_
 _atom_site_type_symbol
 _atom_site_label
 _atom_site_symmetry_multiplicity
 _atom_site_fract_x
 _atom_site_fract_y
 _atom_site_fract_z
 _atom_site_occupancy
  Ag  Ag0  1  0.75043293  0.48565237  0.25015364  1
  Ag  Ag1  1  0.75244694  0.01302558  0.25645945  1
  Ag  Ag2  1  0.25149297  0.25387348  0.00361821  1
  Ag  Ag3  1  0.00301514  0.74993381  0.74359109  1
  Ag  Ag4  1  0.75652682  0.75577216  0.49414504  1
  Ag  Ag5  1  -0.00284715  0.75190497  0.25628553  1
  Ag  Ag6  1  0.24831707  0.74620746  -0.00015279  1
  Ag  Ag7  1  -0.00564326  -0.00520826  0.49508774  1
  Ag  Ag8  1  0.50653413  0.00018080  0.49525965  1
  Ag  Ag9  1  0.74926568  0.25175856  0.01494506  1
  Ag  Ag10  1  0.24942924  0.50351122  0.75295324  1
  Ag  Ag11  1  0.51397731  0.24996466  0.24853579  1
  Ag  Ag12  1  -0.01455604  0.24879599  0.25151824  1
  Ag  Ag13  1  0.49797785  0.49688405  0.00299008  1
  Ag  Ag14  1  0.24222281  0.75058241  0.49982749  1
  Ag  Ag15  1  0.75142487  0.24494156  0.48574318  1
  Sb  Sb16  1  0.50259164  0.75083868  0.25181392  1
  Sb  Sb17  1  -0.00116236  0.50628868  0.49814953  1
  Sb  Sb18  1  0.75023396  0.50113295  0.75067864  1
  Sb  Sb19  1  0.75164032  0.74888321  0.00601359  1
  Sb  Sb20  1  -0.00150653  0.00036957  0.00510813  1
  Sb  Sb21  1  0.50177248  0.00248608  0.00516831  1
  Sb  Sb22  1  0.50139057  0.49906005  0.49680416  1
  Sb  Sb23  1  0.25019762  0.50042540  0.24753032  1
  Sb  Sb24  1  0.24656668  -0.00025224  0.25147142  1
  Sb  Sb25  1  0.49737928  0.74847088  0.74879362  1
  Sb  Sb26  1  0.00040836  0.24933615  0.74772428  1
  Sb  Sb27  1  0.00220691  0.49956494  0.00140423  1
  Sb  Sb28  1  0.24821673  0.25018398  0.49670539  1
  Sb  Sb29  1  0.24810915  -0.00273671  0.74904760  1
  Sb  Sb30  1  0.49970651  0.25104130  0.75144385  1
  Sb  Sb31  1  0.75166082  -0.00073362  0.74235988  1
  Te  Te32  1  0.24890717  0.25078944  0.24539911  1
  Te  Te33  1  0.24820427  0.25549790  0.75699095  1
  Te  Te34  1  0.24536820  0.74921323  0.25069604  1
  Te  Te35  1  0.24736530  0.74760867  0.75015576  1
  Te  Te36  1  0.75175949  0.25133248  0.25098803  1
  Te  Te37  1  0.75190609  0.25085634  0.75021176  1
  Te  Te38  1  0.75339576  0.75006546  0.25161197  1
  Te  Te39  1  0.75614255  0.74891922  0.74530005  1
  Te  Te40  1  0.25095398  -0.00014943  -0.00023706  1
  Te  Te41  1  0.24948721  -0.00424228  0.49984053  1
  Te  Te42  1  0.25247350  0.50039410  -0.00052985  1
  Te  Te43  1  0.25227417  0.50532533  0.50460805  1
  Te  Te44  1  0.74870541  0.00465410  0.00674942  1
  Te  Te45  1  0.75084706  -0.00008269  0.49788265  1
  Te  Te46  1  0.74543745  0.49699925  0.00212739  1
  Te  Te47  1  0.74858223  0.49854464  0.49732714  1
  Te  Te48  1  -0.00065159  0.24871949  0.00303841  1
  Te  Te49  1  -0.00123772  0.24504911  0.49672148  1
  Te  Te50  1  0.00433946  0.75108462  0.00222246  1
  Te  Te51  1  -0.00007423  0.75060054  0.49655403  1
  Te  Te52  1  0.49963944  0.25044732  0.00235859  1
  Te  Te53  1  0.50089971  0.24749154  0.49650513  1
  Te  Te54  1  0.49429032  0.74772978  -0.00011578  1
  Te  Te55  1  0.50106978  0.75322140  0.49912420  1
  Te  Te56  1  -0.00241559  -0.00035637  0.25381875  1
  Te  Te57  1  -0.00021201  -0.00594849  0.74166993  1
  Te  Te58  1  -0.00540701  0.49885814  0.24978209  1
  Te  Te59  1  0.00481659  0.50576655  0.75037407  1
  Te  Te60  1  0.50466125  0.00375815  0.25482350  1
  Te  Te61  1  0.49984402  -0.00025789  0.73943309  1
  Te  Te62  1  0.50381167  0.49588733  0.24567389  1
  Te  Te63  1  0.49538664  0.50008294  0.75771670  1
