# generated using pymatgen
data_AgSbTe2
_symmetry_space_group_name_H-M   'P 1'
_cell_length_a   12.21364660
_cell_length_b   12.20843808
_cell_length_c   12.21415691
_cell_angle_alpha   89.99854549
_cell_angle_beta   89.99864589
_cell_angle_gamma   90.00011045
_symmetry_Int_Tables_number   1
_chemical_formula_structural   AgSbTe2
_chemical_formula_sum   'Ag16 Sb16 Te32'
_cell_volume   1821.24741843
_cell_formula_units_Z   16
loop_
 _symmetry_equiv_pos_site_id
 _symmetry_equiv_pos_as_xyz
  1  'x, y, z'
loop_
 _atom_site_type_symbol
 _atom_site_label
 _atom_site_symmetry_multiplicity
 _atom_site_fract_x
 _atom_site_fract_y
 _atom_site_fract_z
 _atom_site_occupancy
  Ag  Ag0  1  0.00457042  0.49888966  -0.00018860  1
  Ag  Ag1  1  0.00106963  0.00124397  0.49594939  1
  Ag  Ag2  1  0.49650650  0.24927515  0.75265535  1
  Ag  Ag3  1  0.75180642  0.24898641  0.00085161  1
  Ag  Ag4  1  0.24681268  0.00016236  0.24723783  1
  Ag  Ag5  1  0.75430993  0.24734694  0.49895428  1
  Ag  Ag6  1  0.49671050  0.75428756  0.24792513  1
  Ag  Ag7  1  0.24837027  0.24938146  0.00034978  1
  Ag  Ag8  1  0.24595728  0.24779016  0.49916065  1
  Ag  Ag9  1  0.00278368  0.74936498  0.75048979  1
  Ag  Ag10  1  0.49556371  0.00232817  0.00221194  1
  Ag  Ag11  1  0.24661808  0.75074969  0.00306671  1
  Ag  Ag12  1  0.75498129  0.75267780  0.49823081  1
  Ag  Ag13  1  0.00326730  0.24702954  0.24980365  1
  Ag  Ag14  1  0.24742908  0.49766211  0.75375831  1
  Ag  Ag15  1  0.00369245  0.75369805  0.24987206  1
  Sb  Sb16  1  0.24679221  0.49916214  0.24626158  1
  Sb  Sb17  1  0.00468709  0.00110813  0.00427000  1
  Sb  Sb18  1  0.75332975  0.75129813  0.00136836  1
  Sb  Sb19  1  0.24854597  0.00222176  0.75283506  1
  Sb  Sb20  1  0.49698932  0.75126946  0.75130749  1
  Sb  Sb21  1  0.49549251  0.49754974  -0.00153846  1
  Sb  Sb22  1  0.75353636  0.49864227  0.75151153  1
  Sb  Sb23  1  0.49666726  0.24562259  0.24699137  1
  Sb  Sb24  1  0.00353726  0.25054603  0.75006485  1
  Sb  Sb25  1  0.75438861  0.00037079  0.25042438  1
  Sb  Sb26  1  0.00175514  0.49904055  0.50007836  1
  Sb  Sb27  1  0.49788735  0.00091697  0.49697471  1
  Sb  Sb28  1  0.49815856  0.49934581  0.50081242  1
  Sb  Sb29  1  0.75182693  0.00131303  0.74985726  1
  Sb  Sb30  1  0.24516904  0.75258230  0.49692249  1
  Sb  Sb31  1  0.75238505  0.49942701  0.24897553  1
  Te  Te32  1  0.24846783  0.24820859  0.24873818  1
  Te  Te33  1  0.25104209  0.25173846  0.75212172  1
  Te  Te34  1  0.24613034  0.75210158  0.24831326  1
  Te  Te35  1  0.24798995  0.74690861  0.75301991  1
  Te  Te36  1  0.75340767  0.24970906  0.25204931  1
  Te  Te37  1  0.74592193  0.25120011  0.74841141  1
  Te  Te38  1  0.75319060  0.75010705  0.25440813  1
  Te  Te39  1  0.75409743  0.74872034  0.74457882  1
  Te  Te40  1  0.25158560  0.00071761  0.00335455  1
  Te  Te41  1  0.24640627  0.00497191  0.49508613  1
  Te  Te42  1  0.24599721  0.49917803  -0.00331776  1
  Te  Te43  1  0.24929920  0.49192468  0.50782181  1
  Te  Te44  1  0.74327161  0.00706821  0.00012350  1
  Te  Te45  1  0.75497437  0.00301867  0.50001200  1
  Te  Te46  1  0.75742842  0.49241476  -0.00078241  1
  Te  Te47  1  0.74985504  0.49671061  0.50055706  1
  Te  Te48  1  0.00189531  0.24914236  0.00107493  1
  Te  Te49  1  -0.00075473  0.24901846  0.49913749  1
  Te  Te50  1  0.00070310  0.75096067  0.00252889  1
  Te  Te51  1  -0.00165962  0.75084175  0.49682874  1
  Te  Te52  1  0.49806842  0.24808323  -0.00016402  1
  Te  Te53  1  0.50145897  0.24853700  0.50217374  1
  Te  Te54  1  0.49863570  0.75282433  0.00193388  1
  Te  Te55  1  0.50584799  0.75117116  0.49717588  1
  Te  Te56  1  0.00464028  0.00007211  0.25324335  1
  Te  Te57  1  0.00095412  -0.00771471  0.74215840  1
  Te  Te58  1  0.00125046  0.49992024  0.24344440  1
  Te  Te59  1  0.00495926  0.50514880  0.75592490  1
  Te  Te60  1  0.49255271  -0.00492858  0.24580817  1
  Te  Te61  1  0.49943252  0.00516453  0.75676277  1
  Te  Te62  1  0.49928239  0.51176172  0.24933093  1
  Te  Te63  1  0.49206994  0.49400796  0.75069631  1
