# generated using pymatgen
data_AgSbTe2
_symmetry_space_group_name_H-M   'P 1'
_cell_length_a   12.23335302
_cell_length_b   12.23230592
_cell_length_c   12.22156816
_cell_angle_alpha   90.00020076
_cell_angle_beta   90.00030581
_cell_angle_gamma   89.99580270
_symmetry_Int_Tables_number   1
_chemical_formula_structural   AgSbTe2
_chemical_formula_sum   'Ag16 Sb16 Te32'
_cell_volume   1828.86132225
_cell_formula_units_Z   16
loop_
 _symmetry_equiv_pos_site_id
 _symmetry_equiv_pos_as_xyz
  1  'x, y, z'
loop_
 _atom_site_type_symbol
 _atom_site_label
 _atom_site_symmetry_multiplicity
 _atom_site_fract_x
 _atom_site_fract_y
 _atom_site_fract_z
 _atom_site_occupancy
  Ag  Ag0  1  0.25159716  0.24647684  0.49768798  1
  Ag  Ag1  1  0.50024341  0.00272878  0.49725419  1
  Ag  Ag2  1  0.24853292  0.49569959  0.24481042  1
  Ag  Ag3  1  0.75135164  0.50036389  0.24478783  1
  Ag  Ag4  1  0.00169521  0.24893959  0.75727829  1
  Ag  Ag5  1  0.24860113  0.75576465  0.00402737  1
  Ag  Ag6  1  0.49783561  0.24654936  0.75441170  1
  Ag  Ag7  1  0.49986858  0.00390337  0.00298296  1
  Ag  Ag8  1  0.25151843  0.00370077  0.24249774  1
  Ag  Ag9  1  0.75414499  0.24430937  0.00204692  1
  Ag  Ag10  1  0.74838075  -0.00111325  0.24263098  1
  Ag  Ag11  1  0.74830330  0.75347510  0.49380264  1
  Ag  Ag12  1  0.75161114  0.75532239  0.00538828  1
  Ag  Ag13  1  0.24617572  0.24477939  0.00238228  1
  Ag  Ag14  1  0.00007418  0.49401087  0.00220212  1
  Ag  Ag15  1  0.00014650  0.00595994  0.00221688  1
  Sb  Sb16  1  0.75183173  0.49777635  0.75663109  1
  Sb  Sb17  1  0.50053754  0.75436120  0.75334459  1
  Sb  Sb18  1  0.49786396  0.24599471  0.24529547  1
  Sb  Sb19  1  0.50023034  0.49559244  0.49794381  1
  Sb  Sb20  1  0.25044427  0.00401709  0.75980299  1
  Sb  Sb21  1  0.25196983  0.75445738  0.49359385  1
  Sb  Sb22  1  0.74802023  0.24615894  0.49710826  1
  Sb  Sb23  1  0.24808754  0.49553773  0.75712208  1
  Sb  Sb24  1  0.49997782  0.49503167  0.00157665  1
  Sb  Sb25  1  -0.00013616  0.00328548  0.49621347  1
  Sb  Sb26  1  -0.00021962  0.75236344  0.75581039  1
  Sb  Sb27  1  0.00214431  0.24968037  0.24071866  1
  Sb  Sb28  1  -0.00223818  0.75054891  0.24686053  1
  Sb  Sb29  1  0.50267586  0.75313822  0.24708522  1
  Sb  Sb30  1  0.74949792  0.00173961  0.75953443  1
  Sb  Sb31  1  -0.00036082  0.49659292  0.49588244  1
  Te  Te32  1  0.25014617  0.24884693  0.24795672  1
  Te  Te33  1  0.25029970  0.25054589  0.75179417  1
  Te  Te34  1  0.25000707  0.75071387  0.24497695  1
  Te  Te35  1  0.25027052  0.74736985  0.75787345  1
  Te  Te36  1  0.74978023  0.24968661  0.24588817  1
  Te  Te37  1  0.75001087  0.25109727  0.75433969  1
  Te  Te38  1  0.74997799  0.75123034  0.24573989  1
  Te  Te39  1  0.74958742  0.74888365  0.75259776  1
  Te  Te40  1  0.25037897  0.00186261  0.00288005  1
  Te  Te41  1  0.25127895  -0.00000477  0.49136781  1
  Te  Te42  1  0.24963814  0.49808035  0.00524014  1
  Te  Te43  1  0.24969813  0.49849398  0.48925821  1
  Te  Te44  1  0.74958280  0.00044438  0.00265695  1
  Te  Te45  1  0.74883673  -0.00138524  0.49146644  1
  Te  Te46  1  0.75021256  0.50065226  0.00475323  1
  Te  Te47  1  0.75026750  0.50451386  0.48958986  1
  Te  Te48  1  0.00040394  0.24881236  -0.00151572  1
  Te  Te49  1  0.00618609  0.24976133  0.51241949  1
  Te  Te50  1  -0.00100708  0.75121644  -0.00229885  1
  Te  Te51  1  -0.00711580  0.74973043  0.50485180  1
  Te  Te52  1  0.49922640  0.24614031  -0.00337670  1
  Te  Te53  1  0.49627741  0.24544212  0.50681893  1
  Te  Te54  1  0.50082618  0.75789233  -0.00278164  1
  Te  Te55  1  0.50470054  0.75798266  0.50394977  1
  Te  Te56  1  -0.00019993  0.00015915  0.24479267  1
  Te  Te57  1  0.00015001  0.00602053  0.75731208  1
  Te  Te58  1  -0.00016266  0.49971953  0.24440946  1
  Te  Te59  1  -0.00016977  0.49302217  0.75834968  1
  Te  Te60  1  0.50034072  0.00067596  0.24835756  1
  Te  Te61  1  0.49988933  0.00556706  0.75000365  1
  Te  Te62  1  0.50021861  0.50022277  0.25054191  1
  Te  Te63  1  0.50005504  0.48945593  0.74885392  1
