# generated using pymatgen
data_AgSbTe2
_symmetry_space_group_name_H-M   'P 1'
_cell_length_a   12.23048868
_cell_length_b   12.21643634
_cell_length_c   12.22298825
_cell_angle_alpha   89.98949223
_cell_angle_beta   90.00644710
_cell_angle_gamma   90.01030122
_symmetry_Int_Tables_number   1
_chemical_formula_structural   AgSbTe2
_chemical_formula_sum   'Ag16 Sb16 Te32'
_cell_volume   1826.27310534
_cell_formula_units_Z   16
loop_
 _symmetry_equiv_pos_site_id
 _symmetry_equiv_pos_as_xyz
  1  'x, y, z'
loop_
 _atom_site_type_symbol
 _atom_site_label
 _atom_site_symmetry_multiplicity
 _atom_site_fract_x
 _atom_site_fract_y
 _atom_site_fract_z
 _atom_site_occupancy
  Ag  Ag0  1  0.50181210  0.25410809  0.25712403  1
  Ag  Ag1  1  0.74816254  0.74978903  -0.00189501  1
  Ag  Ag2  1  -0.00223755  0.00456679  -0.00017503  1
  Ag  Ag3  1  0.74704963  0.49447010  0.25350107  1
  Ag  Ag4  1  -0.00130307  0.25080888  0.25729745  1
  Ag  Ag5  1  0.25416094  0.49674257  0.74647060  1
  Ag  Ag6  1  0.74891526  0.00085353  0.74642081  1
  Ag  Ag7  1  0.50064449  0.49665142  -0.00066620  1
  Ag  Ag8  1  -0.00369839  0.01057845  0.49990052  1
  Ag  Ag9  1  0.50349177  0.00984558  0.50165057  1
  Ag  Ag10  1  0.74936255  0.25072710  0.49666555  1
  Ag  Ag11  1  0.50238544  0.74724306  0.74952272  1
  Ag  Ag12  1  0.50072954  0.49059041  0.49982029  1
  Ag  Ag13  1  0.25061580  0.25324368  0.49851243  1
  Ag  Ag14  1  -0.00122139  0.48851094  0.49848288  1
  Ag  Ag15  1  0.25096931  0.25187695  0.00061756  1
  Sb  Sb16  1  0.00022027  0.49447442  0.00150451  1
  Sb  Sb17  1  0.74846579  0.74999838  0.50143434  1
  Sb  Sb18  1  0.25134622  0.00270508  0.74783339  1
  Sb  Sb19  1  0.50366511  0.74674189  0.25024007  1
  Sb  Sb20  1  0.49946604  0.25254831  0.74244889  1
  Sb  Sb21  1  0.74972196  0.25001688  0.00276649  1
  Sb  Sb22  1  0.74731433  0.49888378  0.74708912  1
  Sb  Sb23  1  0.75032543  0.00480874  0.25300211  1
  Sb  Sb24  1  0.00025553  0.25001190  0.74224976  1
  Sb  Sb25  1  0.24961057  0.00462761  0.25165351  1
  Sb  Sb26  1  0.25273936  0.49487620  0.25279724  1
  Sb  Sb27  1  0.25098364  0.74796009  -0.00379123  1
  Sb  Sb28  1  0.50096836  0.00416457  -0.00137842  1
  Sb  Sb29  1  -0.00286467  0.75035458  0.75059308  1
  Sb  Sb30  1  0.25151498  0.74624860  0.50268089  1
  Sb  Sb31  1  -0.00346195  0.74802620  0.25018729  1
  Te  Te32  1  0.24996477  0.25079410  0.25179689  1
  Te  Te33  1  0.24966304  0.25486941  0.75034691  1
  Te  Te34  1  0.24994730  0.75016775  0.24896915  1
  Te  Te35  1  0.25799842  0.74223527  0.75053967  1
  Te  Te36  1  0.74916098  0.25407477  0.25396006  1
  Te  Te37  1  0.74995616  0.24345297  0.74309292  1
  Te  Te38  1  0.74974441  0.74110715  0.24220122  1
  Te  Te39  1  0.74561520  0.75392696  0.75460950  1
  Te  Te40  1  0.24500289  0.00607136  -0.00168137  1
  Te  Te41  1  0.24886369  0.00597599  0.50147529  1
  Te  Te42  1  0.25276173  0.49584548  -0.00370320  1
  Te  Te43  1  0.25147692  0.49645477  0.50269559  1
  Te  Te44  1  0.75255651  -0.00126488  -0.00248870  1
  Te  Te45  1  0.75063538  0.00059010  0.50164923  1
  Te  Te46  1  0.74721962  0.50120844  0.00004407  1
  Te  Te47  1  0.74906293  0.49904365  0.49978865  1
  Te  Te48  1  0.00176153  0.24712071  0.00668781  1
  Te  Te49  1  0.00054476  0.24975020  0.49763305  1
  Te  Te50  1  -0.00394432  0.75662170  0.00077104  1
  Te  Te51  1  0.00072777  0.75300313  0.49913055  1
  Te  Te52  1  0.49773924  0.25270255  0.00611175  1
  Te  Te53  1  0.49936559  0.25128821  0.49859985  1
  Te  Te54  1  0.50262149  0.74763610  -0.00151386  1
  Te  Te55  1  0.49946975  0.74934963  0.50236606  1
  Te  Te56  1  -0.00050320  0.00488874  0.25324393  1
  Te  Te57  1  -0.00349285  -0.00111986  0.74742384  1
  Te  Te58  1  -0.00416104  0.49603711  0.25424540  1
  Te  Te59  1  0.00440771  0.50188877  0.74393376  1
  Te  Te60  1  0.50052945  0.00507491  0.25624950  1
  Te  Te61  1  0.50304398  -0.00490415  0.74624297  1
  Te  Te62  1  0.50279708  0.49664902  0.25198704  1
  Te  Te63  1  0.49935319  0.50240612  0.74903017  1
