# generated using pymatgen
data_AgSbTe2
_symmetry_space_group_name_H-M   'P 1'
_cell_length_a   12.22055475
_cell_length_b   12.21435595
_cell_length_c   12.21548945
_cell_angle_alpha   89.99105532
_cell_angle_beta   89.99827677
_cell_angle_gamma   89.99262354
_symmetry_Int_Tables_number   1
_chemical_formula_structural   AgSbTe2
_chemical_formula_sum   'Ag16 Sb16 Te32'
_cell_volume   1823.35972153
_cell_formula_units_Z   16
loop_
 _symmetry_equiv_pos_site_id
 _symmetry_equiv_pos_as_xyz
  1  'x, y, z'
loop_
 _atom_site_type_symbol
 _atom_site_label
 _atom_site_symmetry_multiplicity
 _atom_site_fract_x
 _atom_site_fract_y
 _atom_site_fract_z
 _atom_site_occupancy
  Ag  Ag0  1  0.74782670  0.24777599  0.50790446  1
  Ag  Ag1  1  0.25143252  0.74750087  0.50332871  1
  Ag  Ag2  1  -0.00749964  -0.00253112  0.50328913  1
  Ag  Ag3  1  -0.00370368  0.74731069  0.74666077  1
  Ag  Ag4  1  0.50396026  0.50197938  0.50662625  1
  Ag  Ag5  1  0.74918776  0.75244294  0.50385654  1
  Ag  Ag6  1  0.50665157  0.25668522  0.75138546  1
  Ag  Ag7  1  0.74533968  0.49593220  0.74973400  1
  Ag  Ag8  1  0.75052295  0.00319989  0.74418180  1
  Ag  Ag9  1  0.50203909  0.49631544  -0.00842137  1
  Ag  Ag10  1  0.25232551  0.25536824  -0.00510569  1
  Ag  Ag11  1  0.50306183  0.74820116  0.25381439  1
  Ag  Ag12  1  -0.00185690  0.49881096  -0.00668804  1
  Ag  Ag13  1  0.25386539  0.49932437  0.75166120  1
  Ag  Ag14  1  0.74927275  -0.00085682  0.25610012  1
  Ag  Ag15  1  0.74731537  0.25426383  -0.00809496  1
  Sb  Sb16  1  0.50237405  0.00326089  -0.00209202  1
  Sb  Sb17  1  0.25200609  0.74442298  -0.00391664  1
  Sb  Sb18  1  0.74796270  0.50132532  0.25105128  1
  Sb  Sb19  1  -0.00398129  0.50258185  0.50669652  1
  Sb  Sb20  1  0.50833120  -0.00259243  0.50152134  1
  Sb  Sb21  1  0.24951628  -0.00003912  0.74762768  1
  Sb  Sb22  1  0.74871862  0.74504824  -0.00406747  1
  Sb  Sb23  1  -0.00260044  0.24932514  0.25006170  1
  Sb  Sb24  1  0.50341299  0.25102474  0.24914387  1
  Sb  Sb25  1  -0.00389044  0.00031831  -0.00299457  1
  Sb  Sb26  1  -0.00251757  0.75111331  0.25305084  1
  Sb  Sb27  1  0.25253995  0.25261773  0.50588946  1
  Sb  Sb28  1  -0.00825519  0.25280304  0.75039046  1
  Sb  Sb29  1  0.25206568  0.50128566  0.24932211  1
  Sb  Sb30  1  0.25145705  -0.00186563  0.25271850  1
  Sb  Sb31  1  0.50344334  0.74183920  0.74596834  1
  Te  Te32  1  0.25025054  0.24875801  0.24227872  1
  Te  Te33  1  0.25569920  0.25344172  0.75264979  1
  Te  Te34  1  0.25444241  0.75116244  0.25719192  1
  Te  Te35  1  0.24745677  0.74782435  0.74552624  1
  Te  Te36  1  0.74887329  0.24429644  0.25098611  1
  Te  Te37  1  0.74901153  0.25238867  0.74945274  1
  Te  Te38  1  0.74699612  0.75383639  0.25484631  1
  Te  Te39  1  0.75099759  0.74877246  0.74705097  1
  Te  Te40  1  0.24900913  0.00827476  0.00030821  1
  Te  Te41  1  0.24222142  -0.00406644  0.50001290  1
  Te  Te42  1  0.25197458  0.49738550  -0.00424503  1
  Te  Te43  1  0.25157666  0.50235335  0.50444487  1
  Te  Te44  1  0.75149706  0.00613960  -0.00251294  1
  Te  Te45  1  0.75083132  -0.00025702  0.50295298  1
  Te  Te46  1  0.74779728  0.49714679  -0.00196048  1
  Te  Te47  1  0.74931874  0.50008627  0.50187989  1
  Te  Te48  1  -0.00217265  0.25428383  0.00013502  1
  Te  Te49  1  -0.00468211  0.24619260  0.49960084  1
  Te  Te50  1  0.00118898  0.74543233  -0.00456485  1
  Te  Te51  1  -0.00276801  0.75024993  0.50272832  1
  Te  Te52  1  0.50353068  0.25403191  -0.00102215  1
  Te  Te53  1  0.50315194  0.25509865  0.50220536  1
  Te  Te54  1  0.49869341  0.74318017  0.00522205  1
  Te  Te55  1  0.50204158  0.74700367  0.49961299  1
  Te  Te56  1  -0.00675041  -0.00087442  0.25473008  1
  Te  Te57  1  -0.00412960  -0.00576753  0.74661824  1
  Te  Te58  1  0.00049369  0.50081579  0.23861826  1
  Te  Te59  1  -0.00093877  0.50304379  0.75288328  1
  Te  Te60  1  0.50600445  -0.00626918  0.24972595  1
  Te  Te61  1  0.50551361  0.00781812  0.75024031  1
  Te  Te62  1  0.50023862  0.50460394  0.25182924  1
  Te  Te63  1  0.50230676  0.49942065  0.74996970  1
