# generated using pymatgen
data_AgSbTe2
_symmetry_space_group_name_H-M   'P 1'
_cell_length_a   12.35417455
_cell_length_b   12.35222636
_cell_length_c   12.29392467
_cell_angle_alpha   89.99429783
_cell_angle_beta   90.00626873
_cell_angle_gamma   89.98611240
_symmetry_Int_Tables_number   1
_chemical_formula_structural   AgSbTe2
_chemical_formula_sum   'Ag16 Sb16 Te32'
_cell_volume   1876.07201361
_cell_formula_units_Z   16
loop_
 _symmetry_equiv_pos_site_id
 _symmetry_equiv_pos_as_xyz
  1  'x, y, z'
loop_
 _atom_site_type_symbol
 _atom_site_label
 _atom_site_symmetry_multiplicity
 _atom_site_fract_x
 _atom_site_fract_y
 _atom_site_fract_z
 _atom_site_occupancy
  Ag  Ag0  1  0.25487691  0.26122501  0.00601367  1
  Ag  Ag1  1  0.74733324  0.26426887  0.00578895  1
  Ag  Ag2  1  0.74756672  -0.01015360  0.24099051  1
  Ag  Ag3  1  0.50422648  -0.00141985  0.00585495  1
  Ag  Ag4  1  0.50535805  0.74257040  0.76315553  1
  Ag  Ag5  1  0.25144974  -0.00271680  0.24173335  1
  Ag  Ag6  1  0.25979786  0.49641495  0.76656285  1
  Ag  Ag7  1  0.74394496  0.73491724  0.00981765  1
  Ag  Ag8  1  0.74107718  0.50106982  0.76477093  1
  Ag  Ag9  1  0.50809633  0.74870010  0.23630704  1
  Ag  Ag10  1  0.75984035  0.50624490  0.23604226  1
  Ag  Ag11  1  -0.00198376  0.26157248  0.24245882  1
  Ag  Ag12  1  -0.00910460  0.74049798  0.24363806  1
  Ag  Ag13  1  -0.00800174  0.49678060  0.00630659  1
  Ag  Ag14  1  0.24151743  0.49990228  0.23656354  1
  Ag  Ag15  1  0.50182915  0.26574721  0.76427061  1
  Sb  Sb16  1  0.25108010  0.25140764  0.49526238  1
  Sb  Sb17  1  0.74521621  0.00028647  0.76108404  1
  Sb  Sb18  1  0.25361455  0.74355322  0.00353818  1
  Sb  Sb19  1  0.25063931  0.74928264  0.49595918  1
  Sb  Sb20  1  0.50121978  0.25260558  0.24544658  1
  Sb  Sb21  1  -0.00012894  -0.00100609  0.48875059  1
  Sb  Sb22  1  -0.00031015  0.50108507  0.49145807  1
  Sb  Sb23  1  -0.00120947  0.25482920  0.75878776  1
  Sb  Sb24  1  0.50006675  0.49981005  0.49999895  1
  Sb  Sb25  1  0.74916803  0.25192957  0.49397767  1
  Sb  Sb26  1  -0.00238189  0.74324206  0.76102330  1
  Sb  Sb27  1  0.25690306  0.00040711  0.76246880  1
  Sb  Sb28  1  0.49996202  0.00009227  0.49145080  1
  Sb  Sb29  1  -0.00019317  0.00053526  0.00381331  1
  Sb  Sb30  1  0.50214068  0.50103545  0.00061815  1
  Sb  Sb31  1  0.74942533  0.74896406  0.49263331  1
  Te  Te32  1  0.25788209  0.26008519  0.24815745  1
  Te  Te33  1  0.24532486  0.25234082  0.75154009  1
  Te  Te34  1  0.25719600  0.74289446  0.24815061  1
  Te  Te35  1  0.25001914  0.74769205  0.74890137  1
  Te  Te36  1  0.74354706  0.26101482  0.24898564  1
  Te  Te37  1  0.75342837  0.24792494  0.75176940  1
  Te  Te38  1  0.74438701  0.74385846  0.25007183  1
  Te  Te39  1  0.74902795  0.75017764  0.75103530  1
  Te  Te40  1  0.24988107  0.00727817  0.00506297  1
  Te  Te41  1  0.25115069  0.00020001  0.48096030  1
  Te  Te42  1  0.25035032  0.49696016  -0.00078433  1
  Te  Te43  1  0.24850034  0.49927224  0.50348057  1
  Te  Te44  1  0.75062918  0.00312706  0.00382332  1
  Te  Te45  1  0.74859435  0.00074596  0.48079477  1
  Te  Te46  1  0.74938804  0.49782165  -0.00148460  1
  Te  Te47  1  0.75146990  0.49938616  0.50920277  1
  Te  Te48  1  -0.00309199  0.25003126  0.00475716  1
  Te  Te49  1  0.00015078  0.25100401  0.48132620  1
  Te  Te50  1  -0.00733500  0.74812592  0.00498142  1
  Te  Te51  1  0.00064382  0.74878499  0.48343257  1
  Te  Te52  1  0.50160775  0.24647565  -0.00260823  1
  Te  Te53  1  0.50012344  0.24915058  0.52851499  1
  Te  Te54  1  0.50175833  0.75266297  0.00158149  1
  Te  Te55  1  0.50036328  0.75072064  0.50757506  1
  Te  Te56  1  0.00151420  -0.00324054  0.24807800  1
  Te  Te57  1  0.00240677  -0.00249337  0.74194154  1
  Te  Te58  1  -0.00052115  0.49943320  0.24705147  1
  Te  Te59  1  0.00021554  0.50076834  0.75563858  1
  Te  Te60  1  0.50040337  0.00077640  0.24662263  1
  Te  Te61  1  0.49959619  -0.01265060  0.75346518  1
  Te  Te62  1  0.49797760  0.50302355  0.25319891  1
  Te  Te63  1  0.50037422  0.50296608  0.74822916  1
