# generated using pymatgen
data_AgSbTe2
_symmetry_space_group_name_H-M   'P 1'
_cell_length_a   12.30872029
_cell_length_b   12.29885504
_cell_length_c   12.30373411
_cell_angle_alpha   89.99988820
_cell_angle_beta   89.98564565
_cell_angle_gamma   89.99878143
_symmetry_Int_Tables_number   1
_chemical_formula_structural   AgSbTe2
_chemical_formula_sum   'Ag16 Sb16 Te32'
_cell_volume   1862.57817210
_cell_formula_units_Z   16
loop_
 _symmetry_equiv_pos_site_id
 _symmetry_equiv_pos_as_xyz
  1  'x, y, z'
loop_
 _atom_site_type_symbol
 _atom_site_label
 _atom_site_symmetry_multiplicity
 _atom_site_fract_x
 _atom_site_fract_y
 _atom_site_fract_z
 _atom_site_occupancy
  Ag  Ag0  1  0.48488074  0.50125836  0.50104941  1
  Ag  Ag1  1  0.75383887  -0.00128185  0.74102187  1
  Ag  Ag2  1  0.01663613  0.49850182  0.50339767  1
  Ag  Ag3  1  0.75119493  -0.00459908  0.26400372  1
  Ag  Ag4  1  0.01913985  0.00229959  0.50569220  1
  Ag  Ag5  1  0.49536832  0.50605262  -0.00585287  1
  Ag  Ag6  1  0.25233821  0.74983845  0.00200202  1
  Ag  Ag7  1  0.75017252  0.50309598  0.74465018  1
  Ag  Ag8  1  0.25069543  0.76657710  0.49727794  1
  Ag  Ag9  1  0.24482057  -0.00149166  0.73035266  1
  Ag  Ag10  1  0.00231702  0.24590069  0.74232934  1
  Ag  Ag11  1  0.25196506  0.50678025  0.26535275  1
  Ag  Ag12  1  0.48126401  -0.00108495  0.50162553  1
  Ag  Ag13  1  0.24950448  -0.00577934  0.26714180  1
  Ag  Ag14  1  0.24586710  0.23033329  0.50117543  1
  Ag  Ag15  1  0.74375176  0.75008402  -0.00454943  1
  Sb  Sb16  1  0.75225390  0.24873146  0.50130722  1
  Sb  Sb17  1  0.00252612  0.50117392  -0.00472133  1
  Sb  Sb18  1  0.49851796  0.24984994  0.74670260  1
  Sb  Sb19  1  0.00187718  0.75176907  0.25159353  1
  Sb  Sb20  1  0.74914954  0.24864468  -0.00339146  1
  Sb  Sb21  1  0.00103282  -0.00065563  -0.00319955  1
  Sb  Sb22  1  0.74985201  0.50372268  0.25384650  1
  Sb  Sb23  1  0.49884451  0.74883737  0.74957893  1
  Sb  Sb24  1  0.49730829  0.75015737  0.25064557  1
  Sb  Sb25  1  0.00074597  0.75176982  0.74745490  1
  Sb  Sb26  1  0.00333614  0.24852620  0.25451887  1
  Sb  Sb27  1  0.25094492  0.24893314  0.00037009  1
  Sb  Sb28  1  0.24885481  0.50364770  0.74274033  1
  Sb  Sb29  1  0.74654630  0.75312986  0.50121845  1
  Sb  Sb30  1  0.49935346  0.24982505  0.25285893  1
  Sb  Sb31  1  0.49792248  -0.00270051  -0.00135652  1
  Te  Te32  1  0.25040110  0.24757025  0.25147153  1
  Te  Te33  1  0.24812906  0.24456907  0.74843444  1
  Te  Te34  1  0.25063267  0.75002789  0.25004385  1
  Te  Te35  1  0.25051464  0.75421467  0.75213122  1
  Te  Te36  1  0.75076428  0.23460410  0.24906477  1
  Te  Te37  1  0.75279754  0.24616532  0.74890683  1
  Te  Te38  1  0.75018477  0.75765504  0.24263656  1
  Te  Te39  1  0.74927823  0.75056108  0.75233695  1
  Te  Te40  1  0.25178490  -0.00281855  0.00481464  1
  Te  Te41  1  0.25120944  -0.00053606  0.50110798  1
  Te  Te42  1  0.24995843  0.50219919  0.00012942  1
  Te  Te43  1  0.25057260  0.50444624  0.50144482  1
  Te  Te44  1  0.74915626  -0.00267169  -0.00692446  1
  Te  Te45  1  0.74813891  -0.00126149  0.50254781  1
  Te  Te46  1  0.75235657  0.50305191  0.00336827  1
  Te  Te47  1  0.74638991  0.50082854  0.49936322  1
  Te  Te48  1  -0.00103195  0.24949474  -0.01379107  1
  Te  Te49  1  0.00175408  0.24947782  0.50195011  1
  Te  Te50  1  0.00699026  0.75091396  0.00083069  1
  Te  Te51  1  0.00594743  0.74826998  0.49953185  1
  Te  Te52  1  0.50031943  0.26852834  0.00006750  1
  Te  Te53  1  0.49180630  0.25103665  0.49940149  1
  Te  Te54  1  0.49626101  0.74440637  0.00055355  1
  Te  Te55  1  0.49621553  0.74926737  0.49931087  1
  Te  Te56  1  0.00267657  0.00110181  0.25634122  1
  Te  Te57  1  -0.00216837  -0.00037390  0.74748056  1
  Te  Te58  1  0.00197655  0.49792397  0.26023108  1
  Te  Te59  1  -0.00383389  0.49925449  0.74435769  1
  Te  Te60  1  0.49758554  -0.00017083  0.25297650  1
  Te  Te61  1  0.50456768  0.00010601  0.74814533  1
  Te  Te62  1  0.49924020  0.50049467  0.26119349  1
  Te  Te63  1  0.50660292  0.49981562  0.74370403  1
