# generated using pymatgen
data_AgSbTe2
_symmetry_space_group_name_H-M   'P 1'
_cell_length_a   12.29824413
_cell_length_b   12.28254551
_cell_length_c   12.28974765
_cell_angle_alpha   90.00530396
_cell_angle_beta   89.99154176
_cell_angle_gamma   90.00088466
_symmetry_Int_Tables_number   1
_chemical_formula_structural   AgSbTe2
_chemical_formula_sum   'Ag16 Sb16 Te32'
_cell_volume   1856.41235785
_cell_formula_units_Z   16
loop_
 _symmetry_equiv_pos_site_id
 _symmetry_equiv_pos_as_xyz
  1  'x, y, z'
loop_
 _atom_site_type_symbol
 _atom_site_label
 _atom_site_symmetry_multiplicity
 _atom_site_fract_x
 _atom_site_fract_y
 _atom_site_fract_z
 _atom_site_occupancy
  Ag  Ag0  1  0.74531458  -0.00339420  0.73431515  1
  Ag  Ag1  1  -0.01417685  0.50396050  0.48927333  1
  Ag  Ag2  1  0.51324847  0.74103433  0.26277616  1
  Ag  Ag3  1  0.25171656  0.50559624  0.25320202  1
  Ag  Ag4  1  0.74478127  -0.01301687  0.26466665  1
  Ag  Ag5  1  -0.00488239  0.50015499  0.01222544  1
  Ag  Ag6  1  -0.00552528  0.25195214  0.74512768  1
  Ag  Ag7  1  0.75005349  0.25249868  0.50029344  1
  Ag  Ag8  1  0.74843820  0.51228956  0.25992898  1
  Ag  Ag9  1  0.74172273  0.74872863  0.49153288  1
  Ag  Ag10  1  0.50714676  0.75257054  0.73567220  1
  Ag  Ag11  1  0.51166086  -0.01321313  0.50220520  1
  Ag  Ag12  1  0.25493748  -0.00202478  0.74329556  1
  Ag  Ag13  1  -0.01417640  0.73995373  0.25686464  1
  Ag  Ag14  1  0.50475936  0.50550564  0.01300057  1
  Ag  Ag15  1  0.51308533  0.51283863  0.49001906  1
  Sb  Sb16  1  0.24882837  0.25306857  -0.00144984  1
  Sb  Sb17  1  0.75017711  0.74600871  0.00760193  1
  Sb  Sb18  1  0.25810301  0.74926358  0.50047695  1
  Sb  Sb19  1  0.25000037  0.74859867  0.00049026  1
  Sb  Sb20  1  0.50263818  -0.00751303  0.00117543  1
  Sb  Sb21  1  0.50300588  0.25953014  0.25189871  1
  Sb  Sb22  1  0.74862780  0.50506343  0.74013009  1
  Sb  Sb23  1  0.24676928  0.25115070  0.50163118  1
  Sb  Sb24  1  0.25175711  0.50149223  0.74763085  1
  Sb  Sb25  1  0.25454079  -0.00497579  0.25568095  1
  Sb  Sb26  1  -0.00293228  -0.00296145  0.00221549  1
  Sb  Sb27  1  -0.01082423  -0.00476018  0.49768904  1
  Sb  Sb28  1  0.75163860  0.25394425  -0.00416839  1
  Sb  Sb29  1  -0.00539837  0.25966332  0.25373903  1
  Sb  Sb30  1  0.50402230  0.24769461  0.74707467  1
  Sb  Sb31  1  -0.00671483  0.74923849  0.74382435  1
  Te  Te32  1  0.24901274  0.25546355  0.25017573  1
  Te  Te33  1  0.24275397  0.24456531  0.74856789  1
  Te  Te34  1  0.25048204  0.74562494  0.25115425  1
  Te  Te35  1  0.25654974  0.75538756  0.74847662  1
  Te  Te36  1  0.75005961  0.24360370  0.25815711  1
  Te  Te37  1  0.75228992  0.24506470  0.74486961  1
  Te  Te38  1  0.74807736  0.75001393  0.25171252  1
  Te  Te39  1  0.74614269  0.75236274  0.74290838  1
  Te  Te40  1  0.25004751  0.00068134  -0.00823422  1
  Te  Te41  1  0.26468548  0.00038830  0.50283076  1
  Te  Te42  1  0.25064181  0.50082600  0.00597309  1
  Te  Te43  1  0.25157291  0.50019049  0.49572691  1
  Te  Te44  1  0.75037096  0.00186123  0.00366770  1
  Te  Te45  1  0.74679186  -0.00260779  0.49594294  1
  Te  Te46  1  0.74948785  0.50055580  0.01105180  1
  Te  Te47  1  0.74844136  0.50233915  0.49921947  1
  Te  Te48  1  -0.00042837  0.25868734  -0.00725100  1
  Te  Te49  1  -0.00494130  0.25490554  0.50283760  1
  Te  Te50  1  -0.00137315  0.74249290  0.00480300  1
  Te  Te51  1  -0.00733037  0.74693520  0.49749832  1
  Te  Te52  1  0.49986403  0.26618757  -0.00008407  1
  Te  Te53  1  0.50787193  0.25189621  0.49948759  1
  Te  Te54  1  0.50141474  0.74393295  0.00071423  1
  Te  Te55  1  0.50242712  0.74869544  0.49938459  1
  Te  Te56  1  0.00218122  -0.00941453  0.24846654  1
  Te  Te57  1  -0.00448559  -0.00194258  0.75009601  1
  Te  Te58  1  -0.00543953  0.50244970  0.25330432  1
  Te  Te59  1  0.00067798  0.50141034  0.74841452  1
  Te  Te60  1  0.49876243  -0.00598880  0.24784131  1
  Te  Te61  1  0.50651520  -0.00244384  0.75241060  1
  Te  Te62  1  0.50536090  0.50128186  0.25463752  1
  Te  Te63  1  0.49917171  0.50465288  0.74519870  1
