# generated using pymatgen
data_AgSbTe2
_symmetry_space_group_name_H-M   'P 1'
_cell_length_a   12.23361892
_cell_length_b   12.22387645
_cell_length_c   12.24004717
_cell_angle_alpha   90.00002015
_cell_angle_beta   90.00007708
_cell_angle_gamma   89.99570836
_symmetry_Int_Tables_number   1
_chemical_formula_structural   AgSbTe2
_chemical_formula_sum   'Ag16 Sb16 Te32'
_cell_volume   1830.40414153
_cell_formula_units_Z   16
loop_
 _symmetry_equiv_pos_site_id
 _symmetry_equiv_pos_as_xyz
  1  'x, y, z'
loop_
 _atom_site_type_symbol
 _atom_site_label
 _atom_site_symmetry_multiplicity
 _atom_site_fract_x
 _atom_site_fract_y
 _atom_site_fract_z
 _atom_site_occupancy
  Ag  Ag0  1  0.24698220  0.75629132  0.00321176  1
  Ag  Ag1  1  0.24355416  -0.00536481  0.75238636  1
  Ag  Ag2  1  0.75409372  0.50324342  0.74841921  1
  Ag  Ag3  1  -0.00214079  0.24047292  0.25248983  1
  Ag  Ag4  1  0.49725795  0.75421496  0.24874964  1
  Ag  Ag5  1  0.75294236  0.75521171  -0.00041536  1
  Ag  Ag6  1  0.75769582  0.24814309  0.50172031  1
  Ag  Ag7  1  -0.00430937  0.24481826  0.74705679  1
  Ag  Ag8  1  -0.00075192  -0.00464078  0.00443717  1
  Ag  Ag9  1  0.75677465  -0.00281325  0.75223253  1
  Ag  Ag10  1  -0.00206189  0.50011891  0.50123565  1
  Ag  Ag11  1  0.00296249  0.76029729  0.24792886  1
  Ag  Ag12  1  0.76058475  -0.00452954  0.24782384  1
  Ag  Ag13  1  0.24668244  0.75313532  0.49713480  1
  Ag  Ag14  1  0.23964034  -0.00787573  0.24799778  1
  Ag  Ag15  1  0.50139577  0.75261279  0.75114674  1
  Sb  Sb16  1  0.50132474  0.24442883  0.25193823  1
  Sb  Sb17  1  0.50217325  0.50523516  0.50160846  1
  Sb  Sb18  1  0.50198602  0.50621964  -0.00117576  1
  Sb  Sb19  1  0.24284347  0.24766530  0.49955106  1
  Sb  Sb20  1  0.75357861  0.75156099  0.50019866  1
  Sb  Sb21  1  0.24482655  0.24215051  0.00021035  1
  Sb  Sb22  1  0.75410167  0.24425870  -0.00036462  1
  Sb  Sb23  1  0.75344104  0.50332995  0.25063273  1
  Sb  Sb24  1  0.24622556  0.50577807  0.74870245  1
  Sb  Sb25  1  -0.00027233  -0.00097977  0.49664544  1
  Sb  Sb26  1  0.50007033  -0.00314481  0.50016754  1
  Sb  Sb27  1  0.24719209  0.50926427  0.25082289  1
  Sb  Sb28  1  0.50284495  0.24697343  0.74836479  1
  Sb  Sb29  1  0.50133681  -0.00438424  -0.00012247  1
  Sb  Sb30  1  -0.00036167  0.75671141  0.75146340  1
  Sb  Sb31  1  -0.00199080  0.50469523  -0.00101334  1
  Te  Te32  1  0.24767437  0.24213340  0.25087013  1
  Te  Te33  1  0.24810214  0.24317095  0.74924404  1
  Te  Te34  1  0.24809032  0.75252858  0.24900651  1
  Te  Te35  1  0.25031057  0.75320592  0.75049752  1
  Te  Te36  1  0.75213114  0.24647530  0.25035944  1
  Te  Te37  1  0.75163869  0.24489487  0.74993285  1
  Te  Te38  1  0.75146688  0.75271872  0.25046237  1
  Te  Te39  1  0.74950350  0.75486584  0.74886027  1
  Te  Te40  1  0.24620387  -0.00438391  -0.00061114  1
  Te  Te41  1  0.25068044  -0.00407151  0.50088194  1
  Te  Te42  1  0.25024835  0.50969761  -0.00068190  1
  Te  Te43  1  0.24424620  0.50418449  0.50062992  1
  Te  Te44  1  0.75315124  -0.00460877  -0.00035947  1
  Te  Te45  1  0.74919521  0.00311710  0.50130241  1
  Te  Te46  1  0.75079192  0.50895845  -0.00648869  1
  Te  Te47  1  0.75440972  0.49760096  0.50388426  1
  Te  Te48  1  0.00059114  0.24447409  0.00138440  1
  Te  Te49  1  -0.00303282  0.25399996  0.50000897  1
  Te  Te50  1  -0.00140384  0.75418832  0.00208636  1
  Te  Te51  1  0.00333844  0.74500323  0.49605801  1
  Te  Te52  1  0.49828339  0.25355105  0.00110233  1
  Te  Te53  1  0.50941292  0.25284424  0.49932160  1
  Te  Te54  1  0.50083156  0.75087357  0.00017565  1
  Te  Te55  1  0.49330060  0.74866112  0.49983181  1
  Te  Te56  1  -0.00120143  -0.00123724  0.24948477  1
  Te  Te57  1  -0.00136271  0.00153147  0.75142857  1
  Te  Te58  1  -0.00026770  0.49670695  0.25244351  1
  Te  Te59  1  -0.00365209  0.49350934  0.74811424  1
  Te  Te60  1  0.50080970  -0.00548834  0.25014195  1
  Te  Te61  1  0.50038925  -0.00492168  0.74991718  1
  Te  Te62  1  0.49939824  0.50781323  0.24999082  1
  Te  Te63  1  0.50609782  0.50490412  0.74953365  1
