# generated using pymatgen
data_AgSbTe2
_symmetry_space_group_name_H-M   'P 1'
_cell_length_a   12.25937644
_cell_length_b   12.24829799
_cell_length_c   12.26406385
_cell_angle_alpha   90.00358622
_cell_angle_beta   90.00030432
_cell_angle_gamma   89.99808469
_symmetry_Int_Tables_number   1
_chemical_formula_structural   AgSbTe2
_chemical_formula_sum   'Ag16 Sb16 Te32'
_cell_volume   1841.52884773
_cell_formula_units_Z   16
loop_
 _symmetry_equiv_pos_site_id
 _symmetry_equiv_pos_as_xyz
  1  'x, y, z'
loop_
 _atom_site_type_symbol
 _atom_site_label
 _atom_site_symmetry_multiplicity
 _atom_site_fract_x
 _atom_site_fract_y
 _atom_site_fract_z
 _atom_site_occupancy
  Ag  Ag0  1  0.75500132  0.49753359  0.74976840  1
  Ag  Ag1  1  0.50844177  0.74969398  0.25475925  1
  Ag  Ag2  1  0.75864327  0.25736027  0.00248976  1
  Ag  Ag3  1  0.75763487  0.25161948  0.49736773  1
  Ag  Ag4  1  -0.00471021  0.25362945  0.75064161  1
  Ag  Ag5  1  0.24374670  0.49994148  0.75211924  1
  Ag  Ag6  1  0.75289807  0.74910479  0.48873677  1
  Ag  Ag7  1  -0.00850893  0.74887039  0.25378647  1
  Ag  Ag8  1  0.24674824  0.74964735  0.49606170  1
  Ag  Ag9  1  0.24585833  0.74495479  0.00317839  1
  Ag  Ag10  1  -0.00490708  -0.00201419  0.49749746  1
  Ag  Ag11  1  0.75442236  0.74238577  0.01186763  1
  Ag  Ag12  1  0.75397794  0.50576580  0.24993648  1
  Ag  Ag13  1  0.24217373  0.25516883  -0.00144948  1
  Ag  Ag14  1  0.50500923  -0.00550812  0.49632843  1
  Ag  Ag15  1  -0.00831379  0.25111372  0.25045600  1
  Sb  Sb16  1  0.50253970  0.50631870  0.49740017  1
  Sb  Sb17  1  0.24959356  -0.00164788  0.25140092  1
  Sb  Sb18  1  0.51129624  0.25043203  0.25353585  1
  Sb  Sb19  1  0.24448558  0.50237774  0.24705351  1
  Sb  Sb20  1  0.50241076  -0.00389555  0.00514388  1
  Sb  Sb21  1  0.50432626  0.25051963  0.74851423  1
  Sb  Sb22  1  0.24645534  0.00114440  0.74915328  1
  Sb  Sb23  1  0.50118125  0.75074223  0.74370238  1
  Sb  Sb24  1  0.75425708  0.00436686  0.74645121  1
  Sb  Sb25  1  -0.00150048  0.00055488  0.00360478  1
  Sb  Sb26  1  -0.00311826  0.49819204  0.00002056  1
  Sb  Sb27  1  0.23957087  0.25353125  0.50156042  1
  Sb  Sb28  1  -0.00180672  0.74540944  0.74626882  1
  Sb  Sb29  1  -0.00355160  0.50361820  0.49954487  1
  Sb  Sb30  1  0.75059310  -0.00875056  0.25454260  1
  Sb  Sb31  1  0.50192961  0.50303247  0.00218474  1
  Te  Te32  1  0.24144126  0.25647660  0.24286650  1
  Te  Te33  1  0.24533154  0.25696070  0.75386553  1
  Te  Te34  1  0.24499274  0.74435703  0.24794139  1
  Te  Te35  1  0.24791064  0.74198282  0.75461783  1
  Te  Te36  1  0.75234067  0.25573030  0.24877367  1
  Te  Te37  1  0.75328503  0.25692009  0.75130063  1
  Te  Te38  1  0.75531805  0.74853636  0.25013515  1
  Te  Te39  1  0.75275690  0.73791695  0.75165341  1
  Te  Te40  1  0.25015829  -0.00302628  -0.00157615  1
  Te  Te41  1  0.24800973  -0.00930781  0.50118064  1
  Te  Te42  1  0.25211677  0.50340919  -0.00408651  1
  Te  Te43  1  0.25228035  0.50717601  0.50672371  1
  Te  Te44  1  0.74950487  0.00015503  -0.00463484  1
  Te  Te45  1  0.75311487  -0.00230571  0.50198186  1
  Te  Te46  1  0.74964241  0.50081622  -0.00212904  1
  Te  Te47  1  0.75007016  0.50124043  0.50214494  1
  Te  Te48  1  -0.00360716  0.24573367  0.00354796  1
  Te  Te49  1  -0.00207969  0.24535364  0.49510457  1
  Te  Te50  1  -0.00019909  0.75577193  0.00564925  1
  Te  Te51  1  -0.00280986  0.75296143  0.49801708  1
  Te  Te52  1  0.50066492  0.24435297  0.00226763  1
  Te  Te53  1  0.50886191  0.23845281  0.49590005  1
  Te  Te54  1  0.49967838  0.75452582  0.00972899  1
  Te  Te55  1  0.50322801  0.75443501  0.49566607  1
  Te  Te56  1  0.00024476  0.00090688  0.25940774  1
  Te  Te57  1  0.00004035  0.01374960  0.73667456  1
  Te  Te58  1  -0.00850371  0.50037712  0.25050239  1
  Te  Te59  1  -0.00232183  0.49213787  0.74902485  1
  Te  Te60  1  0.49850789  -0.01056483  0.25999062  1
  Te  Te61  1  0.49823132  -0.00011319  0.73416264  1
  Te  Te62  1  0.51293896  0.51033262  0.25107120  1
  Te  Te63  1  0.50207242  0.49933549  0.74889765  1
