# generated using pymatgen
data_AgSbTe2
_symmetry_space_group_name_H-M   'P 1'
_cell_length_a   12.21007523
_cell_length_b   12.21245941
_cell_length_c   12.20046736
_cell_angle_alpha   89.99011097
_cell_angle_beta   90.01027259
_cell_angle_gamma   90.00027141
_symmetry_Int_Tables_number   1
_chemical_formula_structural   AgSbTe2
_chemical_formula_sum   'Ag16 Sb16 Te32'
_cell_volume   1819.27322011
_cell_formula_units_Z   16
loop_
 _symmetry_equiv_pos_site_id
 _symmetry_equiv_pos_as_xyz
  1  'x, y, z'
loop_
 _atom_site_type_symbol
 _atom_site_label
 _atom_site_symmetry_multiplicity
 _atom_site_fract_x
 _atom_site_fract_y
 _atom_site_fract_z
 _atom_site_occupancy
  Ag  Ag0  1  0.74867135  0.50150085  0.75401410  1
  Ag  Ag1  1  0.49773180  0.24823215  0.24952502  1
  Ag  Ag2  1  0.00423079  -0.00135931  0.49231604  1
  Ag  Ag3  1  0.00189936  0.75571312  0.24774390  1
  Ag  Ag4  1  0.75369997  0.74789192  -0.00085939  1
  Ag  Ag5  1  0.49922947  0.74663226  0.74779715  1
  Ag  Ag6  1  0.49771108  0.50179087  0.50274056  1
  Ag  Ag7  1  0.75584784  0.25205248  0.00163585  1
  Ag  Ag8  1  0.24446943  0.00206952  0.25179993  1
  Ag  Ag9  1  -0.00171114  0.49693248  0.00076674  1
  Ag  Ag10  1  0.25128922  0.75212128  0.49948295  1
  Ag  Ag11  1  0.00117129  0.00328105  0.00770507  1
  Ag  Ag12  1  0.25171504  0.50140702  0.75021862  1
  Ag  Ag13  1  0.24481646  0.25000146  0.00390192  1
  Ag  Ag14  1  0.49598281  -0.00171717  0.49736090  1
  Ag  Ag15  1  0.00258682  0.24458353  0.24349557  1
  Sb  Sb16  1  0.25086388  -0.00127988  0.74864207  1
  Sb  Sb17  1  0.24945508  0.24780798  0.49637975  1
  Sb  Sb18  1  0.24596428  0.74961086  0.00079908  1
  Sb  Sb19  1  0.74874057  -0.00120446  0.75266085  1
  Sb  Sb20  1  0.50145849  0.49954748  -0.00281353  1
  Sb  Sb21  1  0.00012384  0.74905995  0.75195603  1
  Sb  Sb22  1  0.00220695  0.50071234  0.49934567  1
  Sb  Sb23  1  0.49940387  0.25244902  0.74956433  1
  Sb  Sb24  1  0.24975275  0.49749135  0.24884558  1
  Sb  Sb25  1  0.75131621  0.25156008  0.49906512  1
  Sb  Sb26  1  0.74940017  0.74872276  0.50081190  1
  Sb  Sb27  1  0.00043007  0.25061825  0.75827392  1
  Sb  Sb28  1  0.49794220  0.00094134  0.00390351  1
  Sb  Sb29  1  0.75022643  0.49945242  0.24497882  1
  Sb  Sb30  1  0.75720498  0.00048958  0.24882345  1
  Sb  Sb31  1  0.49829590  0.75215873  0.25239882  1
  Te  Te32  1  0.24886462  0.24760334  0.24633815  1
  Te  Te33  1  0.25115811  0.25625344  0.75711497  1
  Te  Te34  1  0.24667309  0.75395768  0.25276571  1
  Te  Te35  1  0.25415051  0.74606790  0.74694044  1
  Te  Te36  1  0.75022324  0.25068812  0.24388452  1
  Te  Te37  1  0.74906739  0.25650286  0.75741576  1
  Te  Te38  1  0.75532541  0.74900356  0.24345210  1
  Te  Te39  1  0.74622400  0.74538457  0.75431332  1
  Te  Te40  1  0.24617761  0.00264192  0.00263161  1
  Te  Te41  1  0.24928142  -0.00207624  0.49845646  1
  Te  Te42  1  0.24673448  0.49790212  -0.00315230  1
  Te  Te43  1  0.25245559  0.50326788  0.50421045  1
  Te  Te44  1  0.75520924  0.00103864  -0.00166302  1
  Te  Te45  1  0.74994824  -0.00010243  0.50145262  1
  Te  Te46  1  0.75213561  0.49948462  -0.00373169  1
  Te  Te47  1  0.74550377  0.50005448  0.50891208  1
  Te  Te48  1  -0.00019105  0.24954369  0.00238921  1
  Te  Te49  1  -0.00063416  0.24499401  0.49082046  1
  Te  Te50  1  -0.00205254  0.75017199  0.00259805  1
  Te  Te51  1  0.00241193  0.75303506  0.49601519  1
  Te  Te52  1  0.49994166  0.24884112  0.00548876  1
  Te  Te53  1  0.50022921  0.24882901  0.49512612  1
  Te  Te54  1  0.50566039  0.75119647  -0.00310002  1
  Te  Te55  1  0.49855667  0.75049152  0.50039695  1
  Te  Te56  1  0.00195033  0.00061084  0.24936230  1
  Te  Te57  1  0.00067800  0.00002006  0.74843573  1
  Te  Te58  1  0.00042202  0.49920310  0.24618712  1
  Te  Te59  1  0.00037442  0.50033034  0.75318903  1
  Te  Te60  1  0.49358676  0.00274723  0.25450035  1
  Te  Te61  1  0.49922210  -0.00515538  0.74216844  1
  Te  Te62  1  0.49970084  0.49575325  0.25694246  1
  Te  Te63  1  0.49888386  0.50244392  0.74685842  1
