# generated using pymatgen
data_AgSbTe2
_symmetry_space_group_name_H-M   'P 1'
_cell_length_a   12.21171555
_cell_length_b   12.20969945
_cell_length_c   12.20630337
_cell_angle_alpha   90.00100354
_cell_angle_beta   89.99961728
_cell_angle_gamma   89.99933975
_symmetry_Int_Tables_number   1
_chemical_formula_structural   AgSbTe2
_chemical_formula_sum   'Ag16 Sb16 Te32'
_cell_volume   1819.97663699
_cell_formula_units_Z   16
loop_
 _symmetry_equiv_pos_site_id
 _symmetry_equiv_pos_as_xyz
  1  'x, y, z'
loop_
 _atom_site_type_symbol
 _atom_site_label
 _atom_site_symmetry_multiplicity
 _atom_site_fract_x
 _atom_site_fract_y
 _atom_site_fract_z
 _atom_site_occupancy
  Ag  Ag0  1  0.24795660  0.00057662  0.74837968  1
  Ag  Ag1  1  0.75072961  0.74701525  0.49883226  1
  Ag  Ag2  1  0.00121512  0.00169872  0.49787700  1
  Ag  Ag3  1  0.24944471  0.50569098  0.25132632  1
  Ag  Ag4  1  0.24966027  0.74932422  0.00495993  1
  Ag  Ag5  1  0.75050492  0.74765501  0.00145867  1
  Ag  Ag6  1  0.25157307  0.49893556  0.74753333  1
  Ag  Ag7  1  0.49632064  0.74824377  0.25149835  1
  Ag  Ag8  1  0.00080332  0.25031626  0.74456093  1
  Ag  Ag9  1  0.00184838  0.24835614  0.25514111  1
  Ag  Ag10  1  0.00432196  0.75124184  0.25175439  1
  Ag  Ag11  1  0.50128688  0.50054418  0.50236545  1
  Ag  Ag12  1  0.24597966  -0.00540043  0.25109526  1
  Ag  Ag13  1  0.75290423  0.25272577  0.50303298  1
  Ag  Ag14  1  0.74885179  0.49888443  0.74531155  1
  Ag  Ag15  1  0.49901875  0.25403710  0.74562121  1
  Sb  Sb16  1  0.00050983  0.50268868  0.00011501  1
  Sb  Sb17  1  0.49826966  0.25183622  0.25624727  1
  Sb  Sb18  1  -0.00237148  0.49784126  0.50005143  1
  Sb  Sb19  1  0.49847694  0.74640543  0.74660352  1
  Sb  Sb20  1  0.24527991  0.25060279  0.50191901  1
  Sb  Sb21  1  0.75297096  0.00166938  0.74746581  1
  Sb  Sb22  1  0.00176253  0.75050575  0.74638548  1
  Sb  Sb23  1  0.49827813  -0.00100527  0.50018640  1
  Sb  Sb24  1  0.24937449  0.25137834  -0.00223447  1
  Sb  Sb25  1  0.75126197  0.25394536  -0.00279589  1
  Sb  Sb26  1  0.00233747  -0.00245442  0.00185353  1
  Sb  Sb27  1  0.49924333  0.50270604  -0.00192408  1
  Sb  Sb28  1  0.49818040  -0.00274066  -0.00031082  1
  Sb  Sb29  1  0.24827168  0.74878098  0.49234730  1
  Sb  Sb30  1  0.75000979  0.50307629  0.25480095  1
  Sb  Sb31  1  0.75524960  -0.00233780  0.25198894  1
  Te  Te32  1  0.24577906  0.25042673  0.24851462  1
  Te  Te33  1  0.24813523  0.25199962  0.75159957  1
  Te  Te34  1  0.24848934  0.74913759  0.25064268  1
  Te  Te35  1  0.24969136  0.74867249  0.75500520  1
  Te  Te36  1  0.75475417  0.25043495  0.25314537  1
  Te  Te37  1  0.75212991  0.25228309  0.74824671  1
  Te  Te38  1  0.75063964  0.74875424  0.25056839  1
  Te  Te39  1  0.75023463  0.74642947  0.74919465  1
  Te  Te40  1  0.24984344  -0.00687846  -0.00021283  1
  Te  Te41  1  0.24538877  -0.00049400  0.50087854  1
  Te  Te42  1  0.25033521  0.50622277  -0.00064394  1
  Te  Te43  1  0.25525202  0.50045606  0.50264088  1
  Te  Te44  1  0.74932219  -0.01057797  -0.00038416  1
  Te  Te45  1  0.75503600  -0.00052312  0.50090699  1
  Te  Te46  1  0.74952351  0.50650110  -0.00810114  1
  Te  Te47  1  0.74782343  0.50056975  0.50336124  1
  Te  Te48  1  -0.00195483  0.24894607  0.00103023  1
  Te  Te49  1  -0.00377267  0.24835813  0.50003144  1
  Te  Te50  1  -0.00004993  0.75062543  0.00706821  1
  Te  Te51  1  -0.00563001  0.75361853  0.49571803  1
  Te  Te52  1  0.50220686  0.24963224  -0.00823637  1
  Te  Te53  1  0.50769316  0.25358000  0.50318787  1
  Te  Te54  1  0.50001637  0.74960002  0.00700126  1
  Te  Te55  1  0.50698948  0.74730156  0.49611104  1
  Te  Te56  1  0.00431484  0.00017518  0.25388473  1
  Te  Te57  1  0.00490263  0.00428150  0.74490933  1
  Te  Te58  1  0.00581543  0.50014345  0.25097084  1
  Te  Te59  1  0.00257383  0.49502064  0.74904914  1
  Te  Te60  1  0.49064144  -0.00339316  0.25105294  1
  Te  Te61  1  0.49172664  0.00611839  0.74866314  1
  Te  Te62  1  0.49500982  0.50212214  0.25503413  1
  Te  Te63  1  0.49761395  0.49771176  0.74571346  1
