# generated using pymatgen
data_AgSbTe2
_symmetry_space_group_name_H-M   'P 1'
_cell_length_a   12.21624058
_cell_length_b   12.20631989
_cell_length_c   12.20758570
_cell_angle_alpha   89.99667689
_cell_angle_beta   89.99969375
_cell_angle_gamma   89.99858979
_symmetry_Int_Tables_number   1
_chemical_formula_structural   AgSbTe2
_chemical_formula_sum   'Ag16 Sb16 Te32'
_cell_volume   1820.33829369
_cell_formula_units_Z   16
loop_
 _symmetry_equiv_pos_site_id
 _symmetry_equiv_pos_as_xyz
  1  'x, y, z'
loop_
 _atom_site_type_symbol
 _atom_site_label
 _atom_site_symmetry_multiplicity
 _atom_site_fract_x
 _atom_site_fract_y
 _atom_site_fract_z
 _atom_site_occupancy
  Ag  Ag0  1  0.75090058  0.00266799  0.74845425  1
  Ag  Ag1  1  0.75026148  0.50018352  0.24624612  1
  Ag  Ag2  1  -0.00114620  0.24922262  0.74730224  1
  Ag  Ag3  1  0.25224723  0.50064424  0.75137999  1
  Ag  Ag4  1  0.24989055  0.50132135  0.24833205  1
  Ag  Ag5  1  0.50087237  0.50374493  -0.00156623  1
  Ag  Ag6  1  -0.00072170  0.49922180  0.00089818  1
  Ag  Ag7  1  0.75365071  0.25010516  0.50382029  1
  Ag  Ag8  1  0.24934539  -0.00066595  0.74707630  1
  Ag  Ag9  1  0.49780975  0.74737295  0.75219086  1
  Ag  Ag10  1  -0.00121546  0.25461409  0.25169206  1
  Ag  Ag11  1  0.50055262  0.25206206  0.74996512  1
  Ag  Ag12  1  0.25077206  0.74874325  0.50351740  1
  Ag  Ag13  1  0.74668589  0.74531748  -0.00085387  1
  Ag  Ag14  1  0.49999166  0.74432492  0.24803357  1
  Ag  Ag15  1  -0.00012036  0.00331232  0.50444747  1
  Sb  Sb16  1  0.75036507  0.25424330  -0.00290311  1
  Sb  Sb17  1  0.00043322  0.49633297  0.50034153  1
  Sb  Sb18  1  0.24803811  -0.00206607  0.25344894  1
  Sb  Sb19  1  0.75187829  0.00018283  0.25176006  1
  Sb  Sb20  1  0.50182110  -0.00401595  -0.00400675  1
  Sb  Sb21  1  0.00260303  0.74966916  0.74990786  1
  Sb  Sb22  1  0.49914672  0.50038437  0.50336296  1
  Sb  Sb23  1  0.74925384  0.75000241  0.50093166  1
  Sb  Sb24  1  0.24980111  0.25423967  -0.00309837  1
  Sb  Sb25  1  0.25393530  0.74522251  -0.00288033  1
  Sb  Sb26  1  0.24645204  0.25006754  0.50395786  1
  Sb  Sb27  1  0.50047909  0.25724783  0.24978589  1
  Sb  Sb28  1  0.00078740  0.74437519  0.24954827  1
  Sb  Sb29  1  0.49979849  0.00014256  0.50401450  1
  Sb  Sb30  1  -0.00188077  0.00075440  -0.00409474  1
  Sb  Sb31  1  0.74834317  0.49881978  0.75329126  1
  Te  Te32  1  0.24668926  0.25604254  0.25213360  1
  Te  Te33  1  0.25021923  0.25141678  0.74783911  1
  Te  Te34  1  0.25382104  0.74585061  0.25359470  1
  Te  Te35  1  0.25316999  0.74802377  0.74749353  1
  Te  Te36  1  0.75239607  0.25232349  0.25329208  1
  Te  Te37  1  0.75083877  0.24826520  0.74759179  1
  Te  Te38  1  0.74563206  0.74712593  0.24904282  1
  Te  Te39  1  0.74520435  0.75183758  0.75063566  1
  Te  Te40  1  0.24900833  -0.00156744  -0.00940136  1
  Te  Te41  1  0.24527796  -0.00439000  0.50536382  1
  Te  Te42  1  0.24968305  0.50132408  -0.00036805  1
  Te  Te43  1  0.24910420  0.50552119  0.50098671  1
  Te  Te44  1  0.75109509  -0.00773930  -0.00615606  1
  Te  Te45  1  0.75509368  0.00257083  0.50436380  1
  Te  Te46  1  0.74988163  0.50364964  0.00335269  1
  Te  Te47  1  0.75102200  0.49644397  0.49269602  1
  Te  Te48  1  -0.00063611  0.25565203  -0.00043787  1
  Te  Te49  1  -0.00305727  0.24688204  0.50293313  1
  Te  Te50  1  -0.00781897  0.74299649  0.00097250  1
  Te  Te51  1  0.00467751  0.75694066  0.49936549  1
  Te  Te52  1  0.50084854  0.25762893  -0.00602734  1
  Te  Te53  1  0.50714690  0.24918736  0.50630896  1
  Te  Te54  1  0.50353833  0.74567514  -0.00190451  1
  Te  Te55  1  0.49629295  0.75035232  0.50163367  1
  Te  Te56  1  0.00103172  0.00859380  0.25374607  1
  Te  Te57  1  0.00021747  0.00376372  0.74857567  1
  Te  Te58  1  0.00115012  0.49621401  0.24714257  1
  Te  Te59  1  0.00318362  0.49580871  0.75320309  1
  Te  Te60  1  0.49857123  -0.00703418  0.24870632  1
  Te  Te61  1  0.49927637  0.00039814  0.75069600  1
  Te  Te62  1  0.49859614  0.50166029  0.24506275  1
  Te  Te63  1  0.49781293  0.50078638  0.75325933  1
