# generated using pymatgen
data_AgSbTe2
_symmetry_space_group_name_H-M   'P 1'
_cell_length_a   12.21492273
_cell_length_b   12.21522539
_cell_length_c   12.21595108
_cell_angle_alpha   89.99682019
_cell_angle_beta   89.99408188
_cell_angle_gamma   90.00009798
_symmetry_Int_Tables_number   1
_chemical_formula_structural   AgSbTe2
_chemical_formula_sum   'Ag16 Sb16 Te32'
_cell_volume   1822.71803461
_cell_formula_units_Z   16
loop_
 _symmetry_equiv_pos_site_id
 _symmetry_equiv_pos_as_xyz
  1  'x, y, z'
loop_
 _atom_site_type_symbol
 _atom_site_label
 _atom_site_symmetry_multiplicity
 _atom_site_fract_x
 _atom_site_fract_y
 _atom_site_fract_z
 _atom_site_occupancy
  Ag  Ag0  1  0.49493451  0.74568225  0.74424129  1
  Ag  Ag1  1  0.00565040  0.74651671  0.74724857  1
  Ag  Ag2  1  0.75008765  -0.00233753  0.25509145  1
  Ag  Ag3  1  0.00050645  0.74638506  0.25251128  1
  Ag  Ag4  1  0.49978330  0.50700791  0.49892098  1
  Ag  Ag5  1  0.74543901  0.74818118  0.49608628  1
  Ag  Ag6  1  0.74869272  0.25190567  0.49490345  1
  Ag  Ag7  1  0.74999860  0.50215340  0.25441416  1
  Ag  Ag8  1  -0.00082153  0.25402857  0.25109728  1
  Ag  Ag9  1  0.50283273  -0.00707372  0.49872055  1
  Ag  Ag10  1  0.25427684  0.74506285  0.50179183  1
  Ag  Ag11  1  0.25150992  0.74150296  -0.00128705  1
  Ag  Ag12  1  0.49323313  0.50322631  0.00129473  1
  Ag  Ag13  1  0.25319140  0.50686202  0.75244212  1
  Ag  Ag14  1  0.25060723  0.25905580  0.00288099  1
  Ag  Ag15  1  0.25073425  0.50367232  0.24701931  1
  Sb  Sb16  1  0.74724594  -0.00311912  0.74357948  1
  Sb  Sb17  1  0.25147166  -0.00953516  0.74776678  1
  Sb  Sb18  1  0.25024520  -0.00445987  0.25250680  1
  Sb  Sb19  1  0.49912690  -0.00513076  0.00208315  1
  Sb  Sb20  1  0.74645265  0.50332215  0.74371613  1
  Sb  Sb21  1  0.25090367  0.25715752  0.49621480  1
  Sb  Sb22  1  0.74762894  0.74622105  0.00616594  1
  Sb  Sb23  1  0.49819107  0.25522906  0.74888471  1
  Sb  Sb24  1  0.00083729  -0.00168907  0.00180128  1
  Sb  Sb25  1  0.50051188  0.25372329  0.25051391  1
  Sb  Sb26  1  0.00976229  0.50169894  0.00400534  1
  Sb  Sb27  1  0.75016798  0.25502123  0.00734188  1
  Sb  Sb28  1  0.00284793  0.25511426  0.74826311  1
  Sb  Sb29  1  -0.00035741  0.50424872  0.49670483  1
  Sb  Sb30  1  0.49878500  0.74601763  0.25848539  1
  Sb  Sb31  1  -0.00372759  -0.00411470  0.49770667  1
  Te  Te32  1  0.24452006  0.25381759  0.24793809  1
  Te  Te33  1  0.24691660  0.25841859  0.75522150  1
  Te  Te34  1  0.24627284  0.74790736  0.25054061  1
  Te  Te35  1  0.24974423  0.74714086  0.74863424  1
  Te  Te36  1  0.75427123  0.25315990  0.25346009  1
  Te  Te37  1  0.75284080  0.24967387  0.74164661  1
  Te  Te38  1  0.75455006  0.74694708  0.25274215  1
  Te  Te39  1  0.75118633  0.74926876  0.74401097  1
  Te  Te40  1  0.25202331  -0.00029420  0.00022108  1
  Te  Te41  1  0.25888872  -0.00581720  0.49911475  1
  Te  Te42  1  0.25309853  0.50249481  0.00275382  1
  Te  Te43  1  0.25495096  0.50234788  0.49799070  1
  Te  Te44  1  0.74788624  0.00137168  0.01000522  1
  Te  Te45  1  0.74571841  -0.00228355  0.49528645  1
  Te  Te46  1  0.73905439  0.49890181  0.00816636  1
  Te  Te47  1  0.74540306  0.50239105  0.49632818  1
  Te  Te48  1  0.00532564  0.24870265  0.00474701  1
  Te  Te49  1  -0.00480689  0.24816996  0.49558349  1
  Te  Te50  1  0.00508495  0.75041391  0.00094487  1
  Te  Te51  1  0.00044465  0.75044617  0.49858032  1
  Te  Te52  1  0.49392383  0.25477452  -0.00119185  1
  Te  Te53  1  0.50392030  0.25116838  0.50113553  1
  Te  Te54  1  0.49622569  0.74699300  -0.00688061  1
  Te  Te55  1  0.49997237  0.74734597  0.49992577  1
  Te  Te56  1  -0.00517900  -0.00139742  0.25054961  1
  Te  Te57  1  -0.00066634  -0.00950429  0.75037954  1
  Te  Te58  1  -0.00000971  0.50148910  0.25029450  1
  Te  Te59  1  0.00578332  0.50679125  0.75004404  1
  Te  Te60  1  0.50577141  0.00118484  0.25486109  1
  Te  Te61  1  0.50065509  -0.00791509  0.74415475  1
  Te  Te62  1  0.49844856  0.50013985  0.25110467  1
  Te  Te63  1  0.49703037  0.50421399  0.74858902  1
