# generated using pymatgen
data_AgSbTe2
_symmetry_space_group_name_H-M   'P 1'
_cell_length_a   12.21343039
_cell_length_b   12.23112415
_cell_length_c   12.23136133
_cell_angle_alpha   90.00452396
_cell_angle_beta   90.00953082
_cell_angle_gamma   89.99508845
_symmetry_Int_Tables_number   1
_chemical_formula_structural   AgSbTe2
_chemical_formula_sum   'Ag16 Sb16 Te32'
_cell_volume   1827.16943993
_cell_formula_units_Z   16
loop_
 _symmetry_equiv_pos_site_id
 _symmetry_equiv_pos_as_xyz
  1  'x, y, z'
loop_
 _atom_site_type_symbol
 _atom_site_label
 _atom_site_symmetry_multiplicity
 _atom_site_fract_x
 _atom_site_fract_y
 _atom_site_fract_z
 _atom_site_occupancy
  Ag  Ag0  1  0.74630378  0.74893284  0.49827324  1
  Ag  Ag1  1  0.50681486  0.00143690  0.00092744  1
  Ag  Ag2  1  0.50777440  0.50294372  0.49875371  1
  Ag  Ag3  1  0.25137136  -0.00130704  0.24853275  1
  Ag  Ag4  1  0.50855296  0.49938241  0.00064796  1
  Ag  Ag5  1  -0.00481327  0.24606466  0.24608743  1
  Ag  Ag6  1  0.74656390  -0.00169780  0.75338455  1
  Ag  Ag7  1  0.50474456  -0.00293910  0.49781890  1
  Ag  Ag8  1  -0.00652805  0.75346796  0.24882543  1
  Ag  Ag9  1  0.50646066  0.75142590  0.25149103  1
  Ag  Ag10  1  -0.00592801  -0.00087398  0.00368534  1
  Ag  Ag11  1  0.74632509  0.24831656  -0.00058904  1
  Ag  Ag12  1  0.74518442  0.50166010  0.75106899  1
  Ag  Ag13  1  0.50695770  0.24900136  0.75348043  1
  Ag  Ag14  1  -0.00919109  0.75236038  0.75121763  1
  Ag  Ag15  1  0.74568312  0.50372744  0.24911761  1
  Sb  Sb16  1  0.50775611  0.75017725  0.74836405  1
  Sb  Sb17  1  0.25293813  0.24794080  0.49752074  1
  Sb  Sb18  1  0.25333216  0.24760532  0.00179774  1
  Sb  Sb19  1  0.25447239  0.50112096  0.75035838  1
  Sb  Sb20  1  -0.00724724  0.50298341  0.49935320  1
  Sb  Sb21  1  -0.00846773  0.50021517  0.00130668  1
  Sb  Sb22  1  0.74675314  0.25017198  0.49986732  1
  Sb  Sb23  1  -0.00732112  0.24786653  0.75362878  1
  Sb  Sb24  1  -0.00497977  -0.00298108  0.49772657  1
  Sb  Sb25  1  0.50440083  0.24926796  0.24690175  1
  Sb  Sb26  1  0.25303702  0.50069669  0.24983666  1
  Sb  Sb27  1  0.25069831  0.75149624  0.00139677  1
  Sb  Sb28  1  0.25328900  -0.00080370  0.75065757  1
  Sb  Sb29  1  0.25483387  0.75187127  0.49772251  1
  Sb  Sb30  1  0.74929513  -0.00345021  0.24693901  1
  Sb  Sb31  1  0.74941119  0.75202407  0.00184429  1
  Te  Te32  1  0.24063557  0.24459992  0.24970104  1
  Te  Te33  1  0.25813140  0.25051268  0.74925644  1
  Te  Te34  1  0.24829813  0.75441003  0.25068795  1
  Te  Te35  1  0.23457264  0.74969710  0.74906988  1
  Te  Te36  1  0.75341478  0.25553853  0.24634870  1
  Te  Te37  1  0.74642316  0.25027589  0.75277404  1
  Te  Te38  1  0.74895351  0.74694185  0.25282093  1
  Te  Te39  1  0.75266606  0.74972396  0.74636659  1
  Te  Te40  1  0.25102242  0.00037760  0.00491225  1
  Te  Te41  1  0.25989319  -0.00011616  0.49432814  1
  Te  Te42  1  0.26285235  0.49956070  -0.00034751  1
  Te  Te43  1  0.26256843  0.49949494  0.50028690  1
  Te  Te44  1  0.74805065  0.00297662  -0.00299127  1
  Te  Te45  1  0.74451980  -0.00312331  0.50583538  1
  Te  Te46  1  0.74601407  0.49589544  -0.00039273  1
  Te  Te47  1  0.74550796  0.50237034  0.50007538  1
  Te  Te48  1  -0.00446237  0.24605266  0.00322423  1
  Te  Te49  1  0.00089552  0.25052706  0.49276405  1
  Te  Te50  1  0.00110018  0.75443259  0.00374584  1
  Te  Te51  1  -0.00613595  0.74995826  0.49649295  1
  Te  Te52  1  0.50402699  0.24705961  -0.00197012  1
  Te  Te53  1  0.50100187  0.24879037  0.50405465  1
  Te  Te54  1  0.49931375  0.75210518  0.00466783  1
  Te  Te55  1  0.50448747  0.75097645  0.49785746  1
  Te  Te56  1  -0.00137590  -0.00395236  0.24839291  1
  Te  Te57  1  -0.00235473  -0.00114657  0.75221737  1
  Te  Te58  1  -0.00267669  0.50472195  0.24937016  1
  Te  Te59  1  -0.00569682  0.50277912  0.75041336  1
  Te  Te60  1  0.50084369  -0.00051998  0.24802514  1
  Te  Te61  1  0.50191064  -0.00064481  0.75332096  1
  Te  Te62  1  0.50255805  0.50012627  0.24940749  1
  Te  Te63  1  0.50456237  0.50149313  0.75133821  1
