# generated using pymatgen
data_AgSbTe2
_symmetry_space_group_name_H-M   'P 1'
_cell_length_a   12.23015970
_cell_length_b   12.23730400
_cell_length_c   12.25630507
_cell_angle_alpha   90.00131546
_cell_angle_beta   89.99572895
_cell_angle_gamma   89.99604950
_symmetry_Int_Tables_number   1
_chemical_formula_structural   AgSbTe2
_chemical_formula_sum   'Ag16 Sb16 Te32'
_cell_volume   1834.32986633
_cell_formula_units_Z   16
loop_
 _symmetry_equiv_pos_site_id
 _symmetry_equiv_pos_as_xyz
  1  'x, y, z'
loop_
 _atom_site_type_symbol
 _atom_site_label
 _atom_site_symmetry_multiplicity
 _atom_site_fract_x
 _atom_site_fract_y
 _atom_site_fract_z
 _atom_site_occupancy
  Ag  Ag0  1  0.25090784  0.50821143  0.75189664  1
  Ag  Ag1  1  0.75056704  0.75643616  0.49660001  1
  Ag  Ag2  1  0.24862054  0.75679962  0.00120211  1
  Ag  Ag3  1  0.25325175  -0.00918129  0.24523732  1
  Ag  Ag4  1  0.25434673  0.24116133  -0.00233924  1
  Ag  Ag5  1  0.00815685  0.75167656  0.74990115  1
  Ag  Ag6  1  0.49194385  -0.00203278  -0.00044467  1
  Ag  Ag7  1  0.24850342  0.51215525  0.24805158  1
  Ag  Ag8  1  0.74494032  0.24050226  0.49933612  1
  Ag  Ag9  1  0.75103572  0.75661771  0.00300583  1
  Ag  Ag10  1  0.74726188  -0.00778553  0.25348286  1
  Ag  Ag11  1  0.24814409  0.75554507  0.49886695  1
  Ag  Ag12  1  0.49918160  -0.00192140  0.49998518  1
  Ag  Ag13  1  0.25461226  -0.00659772  0.75532240  1
  Ag  Ag14  1  0.49485168  0.24420921  0.74985674  1
  Ag  Ag15  1  0.00633067  0.75286303  0.25001630  1
  Sb  Sb16  1  0.49295587  0.75334659  0.24992702  1
  Sb  Sb17  1  0.00267536  0.50398387  0.50012741  1
  Sb  Sb18  1  0.74616376  -0.00320375  0.74827269  1
  Sb  Sb19  1  0.00767072  -0.00460232  0.00027589  1
  Sb  Sb20  1  0.25355792  0.24392072  0.50025581  1
  Sb  Sb21  1  0.74933660  0.50440870  0.74957703  1
  Sb  Sb22  1  0.49494935  0.50234301  -0.00190017  1
  Sb  Sb23  1  0.49158685  0.75357785  0.75002539  1
  Sb  Sb24  1  0.00393136  0.24774789  0.74944819  1
  Sb  Sb25  1  0.00065553  -0.00459034  0.49948833  1
  Sb  Sb26  1  0.00399762  0.50485046  -0.00008534  1
  Sb  Sb27  1  0.00262245  0.24729879  0.25032825  1
  Sb  Sb28  1  0.49664173  0.50225671  0.50210594  1
  Sb  Sb29  1  0.75127851  0.50802842  0.25089090  1
  Sb  Sb30  1  0.49893761  0.24446170  0.25010582  1
  Sb  Sb31  1  0.74576471  0.24110459  0.00054694  1
  Te  Te32  1  0.24755287  0.24628703  0.24784556  1
  Te  Te33  1  0.25066252  0.24746685  0.75101939  1
  Te  Te34  1  0.24900293  0.75270355  0.25007991  1
  Te  Te35  1  0.24991674  0.75150473  0.74980466  1
  Te  Te36  1  0.75191088  0.24694512  0.25312081  1
  Te  Te37  1  0.74878309  0.25141329  0.74763009  1
  Te  Te38  1  0.75402096  0.75215016  0.25100008  1
  Te  Te39  1  0.75644723  0.74860653  0.74959933  1
  Te  Te40  1  0.25269653  -0.00310951  0.00175428  1
  Te  Te41  1  0.25364199  -0.00201816  0.49763780  1
  Te  Te42  1  0.25214415  0.50455179  -0.00018955  1
  Te  Te43  1  0.25187146  0.50491434  0.49976600  1
  Te  Te44  1  0.74311783  -0.00378286  0.00196362  1
  Te  Te45  1  0.74643349  -0.00437077  0.49926282  1
  Te  Te46  1  0.74793156  0.50878896  0.00104179  1
  Te  Te47  1  0.74840449  0.50588489  0.49903613  1
  Te  Te48  1  0.00647543  0.25221043  -0.00058860  1
  Te  Te49  1  -0.01245402  0.25187928  0.50053482  1
  Te  Te50  1  0.00106754  0.75089486  0.00003967  1
  Te  Te51  1  0.00195750  0.75023020  0.49988417  1
  Te  Te52  1  0.49572413  0.24429708  -0.00404039  1
  Te  Te53  1  0.50364576  0.24434422  0.50387892  1
  Te  Te54  1  0.49994343  0.75553920  -0.00148152  1
  Te  Te55  1  0.50116828  0.75553393  0.50144336  1
  Te  Te56  1  -0.00036964  -0.00477523  0.24962867  1
  Te  Te57  1  0.00855552  -0.00523991  0.75033168  1
  Te  Te58  1  0.00676116  0.50682045  0.25019967  1
  Te  Te59  1  0.00644224  0.50555086  0.74999162  1
  Te  Te60  1  0.49931911  0.00024308  0.25095374  1
  Te  Te61  1  0.49654874  0.00276042  0.74946420  1
  Te  Te62  1  0.49120663  0.49787307  0.25033024  1
  Te  Te63  1  0.49408728  0.49031034  0.74968967  1
