# generated using pymatgen
data_AgSbTe2
_symmetry_space_group_name_H-M   'P 1'
_cell_length_a   12.20802718
_cell_length_b   12.21036357
_cell_length_c   12.21300281
_cell_angle_alpha   89.99776269
_cell_angle_beta   90.00150066
_cell_angle_gamma   89.99784540
_symmetry_Int_Tables_number   1
_chemical_formula_structural   AgSbTe2
_chemical_formula_sum   'Ag16 Sb16 Te32'
_cell_volume   1820.52454726
_cell_formula_units_Z   16
loop_
 _symmetry_equiv_pos_site_id
 _symmetry_equiv_pos_as_xyz
  1  'x, y, z'
loop_
 _atom_site_type_symbol
 _atom_site_label
 _atom_site_symmetry_multiplicity
 _atom_site_fract_x
 _atom_site_fract_y
 _atom_site_fract_z
 _atom_site_occupancy
  Ag  Ag0  1  0.25274741  0.49895145  0.24425286  1
  Ag  Ag1  1  0.00366521  0.50147150  -0.00049261  1
  Ag  Ag2  1  0.50136363  0.74715545  0.25016409  1
  Ag  Ag3  1  0.74718871  0.50379021  0.24713410  1
  Ag  Ag4  1  0.24946615  0.49966039  0.75709111  1
  Ag  Ag5  1  0.00052487  -0.00062599  0.50267047  1
  Ag  Ag6  1  0.49642770  0.25298481  0.25122273  1
  Ag  Ag7  1  0.49955518  -0.00052901  0.50067300  1
  Ag  Ag8  1  0.25049928  0.00058691  0.74766951  1
  Ag  Ag9  1  0.25211910  0.24833915  0.49963027  1
  Ag  Ag10  1  0.74944201  -0.00400713  0.74702518  1
  Ag  Ag11  1  0.75021555  0.50460704  0.75317864  1
  Ag  Ag12  1  0.25092166  0.25696888  0.00051808  1
  Ag  Ag13  1  0.74894446  0.74518066  -0.00019225  1
  Ag  Ag14  1  0.25061497  0.74330097  -0.00001588  1
  Ag  Ag15  1  0.74802528  0.75153968  0.50068027  1
  Sb  Sb16  1  0.50231188  0.75065497  0.74908151  1
  Sb  Sb17  1  0.00455704  0.25256766  0.25029801  1
  Sb  Sb18  1  0.74698513  0.24811577  0.49866974  1
  Sb  Sb19  1  -0.00195726  0.74977473  0.75008034  1
  Sb  Sb20  1  0.49960805  -0.00108913  -0.00122556  1
  Sb  Sb21  1  0.25266035  0.75148067  0.49981382  1
  Sb  Sb22  1  -0.00051452  0.74790847  0.24962427  1
  Sb  Sb23  1  0.49394980  0.50144337  0.00282661  1
  Sb  Sb24  1  0.74711752  -0.00528669  0.25245320  1
  Sb  Sb25  1  0.00107036  -0.00125345  -0.00285170  1
  Sb  Sb26  1  0.49983659  0.50085419  0.49656007  1
  Sb  Sb27  1  0.00295671  0.25005548  0.74957781  1
  Sb  Sb28  1  0.25246538  0.00125690  0.25235415  1
  Sb  Sb29  1  0.49614814  0.24945292  0.74861160  1
  Sb  Sb30  1  0.74890876  0.25658681  0.00114721  1
  Sb  Sb31  1  0.00041636  0.50045995  0.50128589  1
  Te  Te32  1  0.25366800  0.25255969  0.24983734  1
  Te  Te33  1  0.25251424  0.25115803  0.75016460  1
  Te  Te34  1  0.25445455  0.74596824  0.24740666  1
  Te  Te35  1  0.25239528  0.74834899  0.75336712  1
  Te  Te36  1  0.74264108  0.25781627  0.24939188  1
  Te  Te37  1  0.74726197  0.25138902  0.75066132  1
  Te  Te38  1  0.74619833  0.74637849  0.24826664  1
  Te  Te39  1  0.74770050  0.74820899  0.75110598  1
  Te  Te40  1  0.24788806  -0.00169166  -0.00680385  1
  Te  Te41  1  0.25119675  0.00079444  0.50395678  1
  Te  Te42  1  0.24951600  0.50129844  -0.00143593  1
  Te  Te43  1  0.24809062  0.49745317  0.50083407  1
  Te  Te44  1  0.75208739  -0.00551611  -0.00715957  1
  Te  Te45  1  0.74878605  -0.00173286  0.50397762  1
  Te  Te46  1  0.75361392  0.50187605  -0.00160583  1
  Te  Te47  1  0.75183413  0.50325543  0.50158815  1
  Te  Te48  1  0.00730328  0.25522889  0.00144459  1
  Te  Te49  1  0.00709074  0.24407512  0.49887781  1
  Te  Te50  1  0.00059002  0.74585809  0.00099196  1
  Te  Te51  1  -0.00734587  0.75584940  0.49876006  1
  Te  Te52  1  0.49297058  0.24718526  0.00828074  1
  Te  Te53  1  0.49560680  0.24444686  0.49444094  1
  Te  Te54  1  0.50055762  0.75191352  0.00770808  1
  Te  Te55  1  0.50445563  0.75512368  0.49390023  1
  Te  Te56  1  -0.00084398  0.00092958  0.25781936  1
  Te  Te57  1  0.00042868  0.00056981  0.74517338  1
  Te  Te58  1  0.00031014  0.49945261  0.24600165  1
  Te  Te59  1  0.00029646  0.49957146  0.75398951  1
  Te  Te60  1  0.50046674  -0.00058125  0.25581472  1
  Te  Te61  1  0.49955757  0.00022074  0.74408024  1
  Te  Te62  1  0.49973538  0.50074513  0.25187424  1
  Te  Te63  1  0.50073189  0.49948890  0.74777297  1
