# generated using pymatgen
data_AgSbTe2
_symmetry_space_group_name_H-M   'P 1'
_cell_length_a   12.20908441
_cell_length_b   12.21020017
_cell_length_c   12.21364143
_cell_angle_alpha   89.99886525
_cell_angle_beta   90.00145932
_cell_angle_gamma   89.99812318
_symmetry_Int_Tables_number   1
_chemical_formula_structural   AgSbTe2
_chemical_formula_sum   'Ag16 Sb16 Te32'
_cell_volume   1820.75304660
_cell_formula_units_Z   16
loop_
 _symmetry_equiv_pos_site_id
 _symmetry_equiv_pos_as_xyz
  1  'x, y, z'
loop_
 _atom_site_type_symbol
 _atom_site_label
 _atom_site_symmetry_multiplicity
 _atom_site_fract_x
 _atom_site_fract_y
 _atom_site_fract_z
 _atom_site_occupancy
  Ag  Ag0  1  0.75410096  -0.00066081  0.25667006  1
  Ag  Ag1  1  0.50021655  0.74881197  0.74875823  1
  Ag  Ag2  1  0.75491574  0.24488391  0.50148351  1
  Ag  Ag3  1  -0.00171664  0.74752967  0.25623273  1
  Ag  Ag4  1  0.49992637  0.50053418  -0.00275049  1
  Ag  Ag5  1  0.00067747  0.50118231  -0.00163516  1
  Ag  Ag6  1  0.24614223  0.50199114  0.74777928  1
  Ag  Ag7  1  0.75407644  -0.00240440  0.74349640  1
  Ag  Ag8  1  0.75746043  0.75425320  0.50317411  1
  Ag  Ag9  1  -0.00569774  -0.00357435  0.50355074  1
  Ag  Ag10  1  -0.00092333  0.74958686  0.74371007  1
  Ag  Ag11  1  0.00176628  0.50407807  0.50151465  1
  Ag  Ag12  1  0.24442363  0.25241019  0.50260803  1
  Ag  Ag13  1  0.24590984  -0.00234048  0.74571505  1
  Ag  Ag14  1  0.75186205  0.25094931  -0.00169588  1
  Ag  Ag15  1  0.24502022  0.50092898  0.25201060  1
  Sb  Sb16  1  0.50641074  -0.00105303  0.50262085  1
  Sb  Sb17  1  0.24359726  -0.00070448  0.25735057  1
  Sb  Sb18  1  0.50200412  0.74748205  0.25202541  1
  Sb  Sb19  1  0.75196771  0.74909513  -0.00305714  1
  Sb  Sb20  1  -0.00090969  0.25134093  0.74640444  1
  Sb  Sb21  1  -0.00064077  0.25300335  0.25317015  1
  Sb  Sb22  1  0.75509460  0.50320422  0.74882129  1
  Sb  Sb23  1  0.49705176  0.50188465  0.50304128  1
  Sb  Sb24  1  0.24001618  0.74747647  0.50368659  1
  Sb  Sb25  1  0.24733153  0.25445702  -0.00245682  1
  Sb  Sb26  1  0.24874466  0.74678644  -0.00324096  1
  Sb  Sb27  1  0.50105589  0.25236614  0.24971211  1
  Sb  Sb28  1  0.50145219  0.25310017  0.75060719  1
  Sb  Sb29  1  0.50227226  -0.00064195  -0.00383033  1
  Sb  Sb30  1  0.75550101  0.50132549  0.25137354  1
  Sb  Sb31  1  -0.00224383  -0.00027093  -0.00437687  1
  Te  Te32  1  0.25053550  0.25362865  0.25608440  1
  Te  Te33  1  0.25108994  0.25039375  0.74547387  1
  Te  Te34  1  0.24522918  0.74631688  0.25036877  1
  Te  Te35  1  0.24873794  0.74987674  0.74884262  1
  Te  Te36  1  0.74988755  0.24476217  0.25294739  1
  Te  Te37  1  0.74875400  0.24401321  0.74723873  1
  Te  Te38  1  0.75349363  0.75331975  0.25395602  1
  Te  Te39  1  0.75257523  0.75261165  0.74738996  1
  Te  Te40  1  0.24991983  0.00351934  -0.00757014  1
  Te  Te41  1  0.24494558  0.00536007  0.50269022  1
  Te  Te42  1  0.24712559  0.49747266  -0.00174515  1
  Te  Te43  1  0.24700119  0.49702508  0.50225509  1
  Te  Te44  1  0.75091354  0.00591718  -0.00147780  1
  Te  Te45  1  0.75201312  0.00181675  0.50205184  1
  Te  Te46  1  0.75162986  0.49494021  0.00013737  1
  Te  Te47  1  0.75450757  0.49777225  0.49969553  1
  Te  Te48  1  -0.00548534  0.25723462  0.00105651  1
  Te  Te49  1  -0.00241532  0.25046091  0.49980257  1
  Te  Te50  1  -0.00135845  0.74354885  -0.00073465  1
  Te  Te51  1  -0.00217768  0.74915786  0.50196584  1
  Te  Te52  1  0.50669053  0.25707548  -0.00026210  1
  Te  Te53  1  0.50300194  0.25093832  0.50012564  1
  Te  Te54  1  0.50113473  0.74311505  -0.00606169  1
  Te  Te55  1  0.51056879  0.74851434  0.50537837  1
  Te  Te56  1  -0.00233297  -0.00693389  0.25316718  1
  Te  Te57  1  -0.00041789  -0.00489341  0.74835091  1
  Te  Te58  1  0.00340005  0.50469695  0.25131900  1
  Te  Te59  1  0.00269413  0.50402391  0.74853004  1
  Te  Te60  1  0.50643163  -0.00254290  0.24826172  1
  Te  Te61  1  0.49916243  -0.00744014  0.75125648  1
  Te  Te62  1  0.49167559  0.50242919  0.24345337  1
  Te  Te63  1  0.49420246  0.50485712  0.75357884  1
