# generated using pymatgen
data_AgSbTe2
_symmetry_space_group_name_H-M   'P 1'
_cell_length_a   12.20817792
_cell_length_b   12.21008860
_cell_length_c   12.20770969
_cell_angle_alpha   89.99755044
_cell_angle_beta   89.99589425
_cell_angle_gamma   89.99872396
_symmetry_Int_Tables_number   1
_chemical_formula_structural   AgSbTe2
_chemical_formula_sum   'Ag16 Sb16 Te32'
_cell_volume   1819.71701619
_cell_formula_units_Z   16
loop_
 _symmetry_equiv_pos_site_id
 _symmetry_equiv_pos_as_xyz
  1  'x, y, z'
loop_
 _atom_site_type_symbol
 _atom_site_label
 _atom_site_symmetry_multiplicity
 _atom_site_fract_x
 _atom_site_fract_y
 _atom_site_fract_z
 _atom_site_occupancy
  Ag  Ag0  1  0.00582075  0.74727887  0.75214319  1
  Ag  Ag1  1  0.75525143  0.49946401  0.25368705  1
  Ag  Ag2  1  0.24498964  0.49995443  0.25163779  1
  Ag  Ag3  1  0.24651677  0.49617452  0.74897134  1
  Ag  Ag4  1  0.75080756  0.25070811  0.49990827  1
  Ag  Ag5  1  0.00198895  -0.00133323  -0.00012910  1
  Ag  Ag6  1  0.49992385  0.00332953  0.50183849  1
  Ag  Ag7  1  0.00310266  0.49737695  0.49979906  1
  Ag  Ag8  1  0.00171708  0.74702519  0.24887618  1
  Ag  Ag9  1  0.24557325  0.74860611  -0.00391196  1
  Ag  Ag10  1  0.49205764  0.25025791  0.74610711  1
  Ag  Ag11  1  0.24708993  0.25201563  -0.00649358  1
  Ag  Ag12  1  0.00782228  0.25260639  0.74801026  1
  Ag  Ag13  1  0.75277735  0.00091583  0.25222289  1
  Ag  Ag14  1  0.24864484  0.25366123  0.50695282  1
  Ag  Ag15  1  0.49434786  0.74952469  0.74933137  1
  Sb  Sb16  1  0.49661381  0.49911738  -0.00187823  1
  Sb  Sb17  1  0.24878891  0.00528780  0.74893479  1
  Sb  Sb18  1  0.00126277  0.25401208  0.25209926  1
  Sb  Sb19  1  0.00398350  0.50120867  0.00019259  1
  Sb  Sb20  1  0.24855113  0.74571437  0.50564605  1
  Sb  Sb21  1  0.24657404  -0.00125593  0.25048617  1
  Sb  Sb22  1  -0.00043019  0.00326514  0.49958831  1
  Sb  Sb23  1  0.49841171  0.00054260  -0.00154567  1
  Sb  Sb24  1  0.75496946  0.75085493  0.00080067  1
  Sb  Sb25  1  0.75084012  0.00121417  0.74669415  1
  Sb  Sb26  1  0.75073172  0.74890869  0.49863900  1
  Sb  Sb27  1  0.49864768  0.24938500  0.25430080  1
  Sb  Sb28  1  0.75517734  0.49785524  0.74593174  1
  Sb  Sb29  1  0.49692817  0.75046702  0.25030407  1
  Sb  Sb30  1  0.75302126  0.24895573  -0.00002023  1
  Sb  Sb31  1  0.49697814  0.49646068  0.50251045  1
  Te  Te32  1  0.24999781  0.25601116  0.24876283  1
  Te  Te33  1  0.24903901  0.25122173  0.74986373  1
  Te  Te34  1  0.24651177  0.74533216  0.24625806  1
  Te  Te35  1  0.24734172  0.74597108  0.75113849  1
  Te  Te36  1  0.74989305  0.25112730  0.25343338  1
  Te  Te37  1  0.75020794  0.25182695  0.74580361  1
  Te  Te38  1  0.75419180  0.74822576  0.24969323  1
  Te  Te39  1  0.75116005  0.74874733  0.75083039  1
  Te  Te40  1  0.24564896  0.00027002  0.00273138  1
  Te  Te41  1  0.25449698  0.00923204  0.49723300  1
  Te  Te42  1  0.24945753  0.49876338  -0.00040120  1
  Te  Te43  1  0.24710064  0.49577370  0.50028130  1
  Te  Te44  1  0.75556403  0.00145237  0.00822104  1
  Te  Te45  1  0.74808090  0.00575029  0.49545753  1
  Te  Te46  1  0.74893460  0.49867172  0.01114689  1
  Te  Te47  1  0.75439735  0.49487015  0.49513143  1
  Te  Te48  1  0.00408610  0.24596267  -0.00510472  1
  Te  Te49  1  0.00114821  0.25176089  0.50294231  1
  Te  Te50  1  0.00403135  0.75261396  -0.00215973  1
  Te  Te51  1  0.00036072  0.74669883  0.50107211  1
  Te  Te52  1  0.49381288  0.24822915  -0.00895150  1
  Te  Te53  1  0.49963155  0.24748628  0.50416352  1
  Te  Te54  1  0.49249129  0.75198874  -0.00720623  1
  Te  Te55  1  0.50001432  0.75612096  0.50660145  1
  Te  Te56  1  -0.00377298  -0.00523637  0.24851667  1
  Te  Te57  1  -0.00204374  -0.00180838  0.75266532  1
  Te  Te58  1  0.00206074  0.50260075  0.25255787  1
  Te  Te59  1  0.00235734  0.50059324  0.74739090  1
  Te  Te60  1  0.50721104  -0.00188794  0.25446790  1
  Te  Te61  1  0.50215862  0.00009303  0.74644403  1
  Te  Te62  1  0.49926775  0.50169019  0.25077633  1
  Te  Te63  1  0.49567927  0.50028713  0.74860359  1
