# generated using pymatgen
data_AgSbTe2
_symmetry_space_group_name_H-M   'P 1'
_cell_length_a   12.23437343
_cell_length_b   12.22343999
_cell_length_c   12.23656378
_cell_angle_alpha   89.99695049
_cell_angle_beta   89.99960061
_cell_angle_gamma   90.00087577
_symmetry_Int_Tables_number   1
_chemical_formula_structural   AgSbTe2
_chemical_formula_sum   'Ag16 Sb16 Te32'
_cell_volume   1829.93074892
_cell_formula_units_Z   16
loop_
 _symmetry_equiv_pos_site_id
 _symmetry_equiv_pos_as_xyz
  1  'x, y, z'
loop_
 _atom_site_type_symbol
 _atom_site_label
 _atom_site_symmetry_multiplicity
 _atom_site_fract_x
 _atom_site_fract_y
 _atom_site_fract_z
 _atom_site_occupancy
  Ag  Ag0  1  0.00073719  -0.00814338  0.50110787  1
  Ag  Ag1  1  0.24854185  0.74575515  -0.00027431  1
  Ag  Ag2  1  0.49891834  0.74584794  0.24872913  1
  Ag  Ag3  1  -0.00499913  0.74595695  0.74828996  1
  Ag  Ag4  1  -0.00196537  0.50797164  -0.00095771  1
  Ag  Ag5  1  0.00262126  0.50742604  0.50027896  1
  Ag  Ag6  1  0.75119745  0.50923356  0.75167320  1
  Ag  Ag7  1  0.75260069  -0.01077708  0.74929774  1
  Ag  Ag8  1  0.49836429  0.50751518  0.50282938  1
  Ag  Ag9  1  0.50172083  0.50822565  -0.00261603  1
  Ag  Ag10  1  0.50560759  0.74479785  0.75190290  1
  Ag  Ag11  1  0.24560239  0.25492573  0.49886188  1
  Ag  Ag12  1  0.00174377  0.74571066  0.25259179  1
  Ag  Ag13  1  0.75115201  0.74573397  -0.00629624  1
  Ag  Ag14  1  0.24487149  0.74606413  0.50022778  1
  Ag  Ag15  1  0.00155193  0.25458372  0.25430204  1
  Sb  Sb16  1  0.75347661  -0.00657137  0.25203524  1
  Sb  Sb17  1  0.75435048  0.25341968  0.50007700  1
  Sb  Sb18  1  0.24594585  -0.00645729  0.74779477  1
  Sb  Sb19  1  0.50214065  -0.01207198  -0.00215949  1
  Sb  Sb20  1  0.75248199  0.50514426  0.24833666  1
  Sb  Sb21  1  0.24648734  0.50446614  0.25306532  1
  Sb  Sb22  1  0.50075357  0.25806040  0.74841118  1
  Sb  Sb23  1  0.75801091  0.74799552  0.50875753  1
  Sb  Sb24  1  0.49963166  -0.01081615  0.50306672  1
  Sb  Sb25  1  0.24754899  -0.00454967  0.25177537  1
  Sb  Sb26  1  0.49743276  0.25691821  0.25317534  1
  Sb  Sb27  1  0.24795126  0.50483197  0.74782553  1
  Sb  Sb28  1  0.24642924  0.25731757  0.00199269  1
  Sb  Sb29  1  -0.00214561  -0.01108027  -0.00235045  1
  Sb  Sb30  1  -0.00017212  0.25519855  0.74598106  1
  Sb  Sb31  1  0.75173628  0.25591553  -0.00110234  1
  Te  Te32  1  0.24452044  0.24745814  0.25499026  1
  Te  Te33  1  0.25092077  0.24591719  0.74257419  1
  Te  Te34  1  0.24815476  0.75030207  0.25065856  1
  Te  Te35  1  0.24901794  0.75075593  0.74911590  1
  Te  Te36  1  0.75803934  0.24707376  0.24858309  1
  Te  Te37  1  0.74924831  0.24940951  0.75110353  1
  Te  Te38  1  0.75073399  0.75059538  0.23960036  1
  Te  Te39  1  0.75109985  0.74777069  0.75118487  1
  Te  Te40  1  0.25035319  -0.00768473  -0.00080942  1
  Te  Te41  1  0.24461066  -0.00363222  0.50043570  1
  Te  Te42  1  0.24930803  0.50553693  -0.00116985  1
  Te  Te43  1  0.24815652  0.50424111  0.50071806  1
  Te  Te44  1  0.75017655  -0.00524756  -0.00745162  1
  Te  Te45  1  0.75534859  0.00173544  0.50596254  1
  Te  Te46  1  0.75169746  0.50336142  -0.00365701  1
  Te  Te47  1  0.74957920  0.49914989  0.50617406  1
  Te  Te48  1  0.00304681  0.25944938  0.00626792  1
  Te  Te49  1  0.00376038  0.25454783  0.49774120  1
  Te  Te50  1  0.00148642  0.74744548  -0.00004346  1
  Te  Te51  1  -0.00019194  0.74651362  0.49965657  1
  Te  Te52  1  0.49762116  0.26144337  0.00208062  1
  Te  Te53  1  0.49200939  0.25824209  0.49736524  1
  Te  Te54  1  0.49851612  0.74585810  -0.00125108  1
  Te  Te55  1  0.49543266  0.74713153  0.50011966  1
  Te  Te56  1  -0.00126951  -0.00374314  0.25608480  1
  Te  Te57  1  -0.00380096  -0.00378176  0.74676594  1
  Te  Te58  1  -0.00178662  0.50488855  0.25207953  1
  Te  Te59  1  -0.00311890  0.50249601  0.74917156  1
  Te  Te60  1  0.50177909  -0.00809273  0.24993287  1
  Te  Te61  1  0.50786226  -0.00672652  0.74930095  1
  Te  Te62  1  0.50303349  0.50552420  0.25139725  1
  Te  Te63  1  0.50432812  0.50351223  0.74868676  1
