# generated using pymatgen
data_AgSbTe2
_symmetry_space_group_name_H-M   'P 1'
_cell_length_a   12.33078829
_cell_length_b   12.30009183
_cell_length_c   12.32450534
_cell_angle_alpha   90.00837223
_cell_angle_beta   89.98358721
_cell_angle_gamma   89.99626401
_symmetry_Int_Tables_number   1
_chemical_formula_structural   AgSbTe2
_chemical_formula_sum   'Ag16 Sb16 Te32'
_cell_volume   1869.25550828
_cell_formula_units_Z   16
loop_
 _symmetry_equiv_pos_site_id
 _symmetry_equiv_pos_as_xyz
  1  'x, y, z'
loop_
 _atom_site_type_symbol
 _atom_site_label
 _atom_site_symmetry_multiplicity
 _atom_site_fract_x
 _atom_site_fract_y
 _atom_site_fract_z
 _atom_site_occupancy
  Ag  Ag0  1  0.24410263  0.75603861  0.50144436  1
  Ag  Ag1  1  0.00594433  0.01631185  0.51110531  1
  Ag  Ag2  1  0.49713393  0.00903894  -0.00350918  1
  Ag  Ag3  1  0.76549768  0.24404259  -0.01166429  1
  Ag  Ag4  1  0.24565570  0.48917687  0.25622169  1
  Ag  Ag5  1  0.00169308  0.00976563  -0.01397668  1
  Ag  Ag6  1  0.23680167  0.01031555  0.74787053  1
  Ag  Ag7  1  0.23134264  0.24770755  0.49520768  1
  Ag  Ag8  1  0.48958540  0.24939374  0.24758416  1
  Ag  Ag9  1  0.75846767  0.48015350  0.74700839  1
  Ag  Ag10  1  0.76813498  0.24777930  0.51430088  1
  Ag  Ag11  1  0.76487272  0.01303752  0.75186577  1
  Ag  Ag12  1  0.00749627  0.24920175  0.26961921  1
  Ag  Ag13  1  0.00365462  0.47997907  0.50177745  1
  Ag  Ag14  1  0.23634560  0.24212756  0.00415342  1
  Ag  Ag15  1  -0.00763696  0.24137875  0.73311684  1
  Sb  Sb16  1  0.00146312  0.75858273  0.74969880  1
  Sb  Sb17  1  0.24841730  0.75898829  -0.00021977  1
  Sb  Sb18  1  0.49816630  0.49405787  0.49982205  1
  Sb  Sb19  1  0.75631707  0.75243148  0.50364190  1
  Sb  Sb20  1  0.00294031  0.75129538  0.25165251  1
  Sb  Sb21  1  0.49323620  0.75360453  0.25015885  1
  Sb  Sb22  1  -0.00058405  0.48531864  -0.00235678  1
  Sb  Sb23  1  0.75482801  0.48938530  0.25195595  1
  Sb  Sb24  1  0.75191601  0.75794713  -0.00384476  1
  Sb  Sb25  1  0.24363393  0.48709727  0.74888302  1
  Sb  Sb26  1  0.24815280  0.00624202  0.25262525  1
  Sb  Sb27  1  0.75297894  0.00515768  0.24905979  1
  Sb  Sb28  1  0.50049325  0.48947192  0.00228196  1
  Sb  Sb29  1  0.49807097  0.75332954  0.74955373  1
  Sb  Sb30  1  0.50169736  0.24960933  0.75244943  1
  Sb  Sb31  1  0.49915369  0.00532604  0.50285045  1
  Te  Te32  1  0.24522928  0.24901572  0.24802620  1
  Te  Te33  1  0.25334868  0.24704699  0.75158347  1
  Te  Te34  1  0.24990291  0.73486150  0.25393396  1
  Te  Te35  1  0.25041097  0.75852376  0.74695785  1
  Te  Te36  1  0.75546517  0.24863138  0.24905175  1
  Te  Te37  1  0.74823567  0.24669370  0.74930813  1
  Te  Te38  1  0.74619217  0.74587747  0.24921010  1
  Te  Te39  1  0.74886070  0.75349264  0.75039797  1
  Te  Te40  1  0.24452252  0.00311656  0.00010758  1
  Te  Te41  1  0.24999197  0.00971669  0.49908201  1
  Te  Te42  1  0.25004166  0.49818416  -0.00234420  1
  Te  Te43  1  0.24904264  0.48691064  0.50331141  1
  Te  Te44  1  0.75718074  0.00270887  0.00040190  1
  Te  Te45  1  0.74946483  0.00008694  0.50227633  1
  Te  Te46  1  0.75037825  0.49740736  -0.00431050  1
  Te  Te47  1  0.75250760  0.50134287  0.50241405  1
  Te  Te48  1  0.00042759  0.24824487  -0.00260625  1
  Te  Te49  1  -0.00272292  0.24983631  0.50057736  1
  Te  Te50  1  -0.00063809  0.76945611  0.00161186  1
  Te  Te51  1  0.00578920  0.75273524  0.49913931  1
  Te  Te52  1  0.49749556  0.24737385  0.00217643  1
  Te  Te53  1  0.50121186  0.24960175  0.48952408  1
  Te  Te54  1  0.50072503  0.76471794  -0.00016194  1
  Te  Te55  1  0.48781433  0.75058845  0.49895308  1
  Te  Te56  1  -0.00055588  0.00402955  0.25646936  1
  Te  Te57  1  0.00105726  0.00378881  0.74662373  1
  Te  Te58  1  0.00334407  0.49684875  0.25217355  1
  Te  Te59  1  -0.00333409  0.49409246  0.74867946  1
  Te  Te60  1  0.49994377  0.00485067  0.24378435  1
  Te  Te61  1  0.50002080  -0.00031661  0.75273078  1
  Te  Te62  1  0.49412128  0.49481844  0.24906110  1
  Te  Te63  1  0.51455130  0.50242224  0.75151781  1
