# generated using pymatgen
data_AgSbTe2
_symmetry_space_group_name_H-M   'P 1'
_cell_length_a   12.22762951
_cell_length_b   12.22009357
_cell_length_c   12.21558946
_cell_angle_alpha   89.99976137
_cell_angle_beta   89.99816720
_cell_angle_gamma   90.00039613
_symmetry_Int_Tables_number   1
_chemical_formula_structural   AgSbTe2
_chemical_formula_sum   'Ag16 Sb16 Te32'
_cell_volume   1825.28729550
_cell_formula_units_Z   16
loop_
 _symmetry_equiv_pos_site_id
 _symmetry_equiv_pos_as_xyz
  1  'x, y, z'
loop_
 _atom_site_type_symbol
 _atom_site_label
 _atom_site_symmetry_multiplicity
 _atom_site_fract_x
 _atom_site_fract_y
 _atom_site_fract_z
 _atom_site_occupancy
  Ag  Ag0  1  -0.00353140  0.50319857  0.49658617  1
  Ag  Ag1  1  0.50100564  0.50107208  -0.00078060  1
  Ag  Ag2  1  -0.00272348  -0.00340970  0.49967660  1
  Ag  Ag3  1  0.50270868  -0.00287012  0.50312808  1
  Ag  Ag4  1  0.50113537  0.25516977  0.75242549  1
  Ag  Ag5  1  0.74674350  0.25802389  0.00155873  1
  Ag  Ag6  1  0.74980185  0.50024379  0.24944720  1
  Ag  Ag7  1  0.74901179  0.74532610  0.50194967  1
  Ag  Ag8  1  0.74642458  0.74323231  -0.00253844  1
  Ag  Ag9  1  -0.00322307  0.74737609  0.74731757  1
  Ag  Ag10  1  0.50377275  0.50362470  0.50098420  1
  Ag  Ag11  1  0.25308879  0.25740619  0.00203879  1
  Ag  Ag12  1  0.25323990  0.74283641  -0.00116161  1
  Ag  Ag13  1  -0.00055117  0.25508553  0.24996319  1
  Ag  Ag14  1  0.50299342  0.74576725  0.74983577  1
  Ag  Ag15  1  0.25013286  0.49914655  0.24663685  1
  Sb  Sb16  1  0.25204616  0.50034855  0.75517439  1
  Sb  Sb17  1  0.25115327  0.74667416  0.50188873  1
  Sb  Sb18  1  0.25120476  0.25364067  0.49801642  1
  Sb  Sb19  1  0.74827998  0.50226704  0.75230867  1
  Sb  Sb20  1  -0.00097397  0.25238339  0.75013215  1
  Sb  Sb21  1  0.25048279  -0.00029323  0.74953128  1
  Sb  Sb22  1  0.74959380  -0.00208083  0.74712964  1
  Sb  Sb23  1  0.74822272  0.25693762  0.49864353  1
  Sb  Sb24  1  0.50095308  -0.00102983  -0.00341854  1
  Sb  Sb25  1  -0.00084671  0.74594771  0.25383396  1
  Sb  Sb26  1  0.50031154  0.25394312  0.24664818  1
  Sb  Sb27  1  0.75124233  0.00042139  0.25289186  1
  Sb  Sb28  1  -0.00130912  0.50124620  0.00335908  1
  Sb  Sb29  1  -0.00115517  -0.00249350  0.00008407  1
  Sb  Sb30  1  0.50046110  0.74666561  0.25005081  1
  Sb  Sb31  1  0.24847212  0.00023057  0.24995462  1
  Te  Te32  1  0.24678585  0.25443873  0.24493318  1
  Te  Te33  1  0.25385116  0.24987272  0.75864090  1
  Te  Te34  1  0.24899166  0.74434747  0.24094859  1
  Te  Te35  1  0.25174960  0.75001997  0.75649830  1
  Te  Te36  1  0.75311774  0.25541730  0.24560048  1
  Te  Te37  1  0.74612916  0.24944147  0.75804628  1
  Te  Te38  1  0.75104866  0.74428425  0.24893134  1
  Te  Te39  1  0.74861040  0.74984667  0.75085037  1
  Te  Te40  1  0.25028983  -0.00063697  0.00152121  1
  Te  Te41  1  0.25028780  -0.00011822  0.49850313  1
  Te  Te42  1  0.25069858  0.50026922  0.00440410  1
  Te  Te43  1  0.25208897  0.49985397  0.49135129  1
  Te  Te44  1  0.74983823  -0.00328024  0.00227557  1
  Te  Te45  1  0.74967723  -0.00740004  0.49805811  1
  Te  Te46  1  0.74928141  0.50205439  0.00369178  1
  Te  Te47  1  0.74753860  0.50260622  0.49504856  1
  Te  Te48  1  -0.00074795  0.24922837  0.00051432  1
  Te  Te49  1  -0.00035296  0.25137653  0.49941291  1
  Te  Te50  1  -0.00269204  0.75111764  -0.00543175  1
  Te  Te51  1  -0.00011956  0.74831098  0.50209905  1
  Te  Te52  1  0.50098083  0.24976983  -0.00295831  1
  Te  Te53  1  0.50087170  0.25296016  0.50623926  1
  Te  Te54  1  0.50279228  0.74975763  -0.00271590  1
  Te  Te55  1  0.50037875  0.74560428  0.50276065  1
  Te  Te56  1  0.00035171  0.00783643  0.25676779  1
  Te  Te57  1  0.00019616  -0.00441842  0.74225614  1
  Te  Te58  1  -0.00075278  0.49705847  0.25300920  1
  Te  Te59  1  0.00187638  0.50427446  0.74026830  1
  Te  Te60  1  0.49967474  0.00193287  0.26168088  1
  Te  Te61  1  0.49978929  -0.00215142  0.74371899  1
  Te  Te62  1  0.50065458  0.49891397  0.25004775  1
  Te  Te63  1  0.49894530  0.50137328  0.74973103  1
