# generated using pymatgen
data_AgSbTe2
_symmetry_space_group_name_H-M   'P 1'
_cell_length_a   12.22349862
_cell_length_b   12.22714804
_cell_length_c   12.23204905
_cell_angle_alpha   90.00995470
_cell_angle_beta   89.99538923
_cell_angle_gamma   90.00700064
_symmetry_Int_Tables_number   1
_chemical_formula_structural   AgSbTe2
_chemical_formula_sum   'Ag16 Sb16 Te32'
_cell_volume   1828.18398850
_cell_formula_units_Z   16
loop_
 _symmetry_equiv_pos_site_id
 _symmetry_equiv_pos_as_xyz
  1  'x, y, z'
loop_
 _atom_site_type_symbol
 _atom_site_label
 _atom_site_symmetry_multiplicity
 _atom_site_fract_x
 _atom_site_fract_y
 _atom_site_fract_z
 _atom_site_occupancy
  Ag  Ag0  1  0.25850305  0.00812974  0.74949571  1
  Ag  Ag1  1  0.50346939  -0.00030296  0.50748247  1
  Ag  Ag2  1  -0.00067153  0.25025375  0.75093873  1
  Ag  Ag3  1  0.74142863  0.75086311  0.50358398  1
  Ag  Ag4  1  0.25349830  0.25393604  -0.00704210  1
  Ag  Ag5  1  0.49984365  0.25089087  0.74886094  1
  Ag  Ag6  1  0.00080638  0.25206882  0.24983973  1
  Ag  Ag7  1  0.74458506  0.24875691  0.50826353  1
  Ag  Ag8  1  0.25557742  0.49616330  0.24931772  1
  Ag  Ag9  1  0.49661437  0.49531839  -0.00623177  1
  Ag  Ag10  1  0.50013098  0.74585652  0.25678501  1
  Ag  Ag11  1  0.49997459  0.50142509  0.50560373  1
  Ag  Ag12  1  0.50131605  0.74867097  0.74364959  1
  Ag  Ag13  1  0.74659081  0.25063633  -0.00847653  1
  Ag  Ag14  1  0.25814141  0.49217525  0.75098988  1
  Ag  Ag15  1  0.74170071  0.00692327  0.74603277  1
  Sb  Sb16  1  0.49969600  0.00656361  -0.00881270  1
  Sb  Sb17  1  0.74335249  0.74972654  -0.00496053  1
  Sb  Sb18  1  -0.00095723  0.74831000  0.74743141  1
  Sb  Sb19  1  -0.00016058  0.00449017  -0.00185323  1
  Sb  Sb20  1  0.00038371  0.74680421  0.25321594  1
  Sb  Sb21  1  0.25690368  0.25057390  0.50833292  1
  Sb  Sb22  1  -0.00010737  0.49592225  0.50189190  1
  Sb  Sb23  1  0.74554053  0.00240957  0.25361783  1
  Sb  Sb24  1  0.74457824  0.49869869  0.25083557  1
  Sb  Sb25  1  0.00321943  0.49509642  -0.00144599  1
  Sb  Sb26  1  0.25491897  0.00493545  0.24998254  1
  Sb  Sb27  1  0.25523125  0.74555920  -0.00226550  1
  Sb  Sb28  1  -0.00313525  0.00409280  0.50263857  1
  Sb  Sb29  1  0.73991798  0.49099885  0.74950239  1
  Sb  Sb30  1  0.49896374  0.25400190  0.25065323  1
  Sb  Sb31  1  0.25985356  0.74921151  0.50097748  1
  Te  Te32  1  0.24743711  0.25242591  0.24503117  1
  Te  Te33  1  0.25260827  0.25028775  0.74982986  1
  Te  Te34  1  0.25247083  0.74525395  0.24967456  1
  Te  Te35  1  0.25258951  0.75043595  0.75061736  1
  Te  Te36  1  0.75402103  0.24971418  0.24893815  1
  Te  Te37  1  0.74834707  0.24959136  0.74997678  1
  Te  Te38  1  0.74733756  0.75028818  0.25322448  1
  Te  Te39  1  0.74768647  0.75642050  0.74774732  1
  Te  Te40  1  0.25051391  0.00746669  -0.00571919  1
  Te  Te41  1  0.25591311  -0.00043344  0.50597762  1
  Te  Te42  1  0.25413297  0.49634752  -0.00189869  1
  Te  Te43  1  0.25565048  0.49987272  0.50077624  1
  Te  Te44  1  0.74921909  0.00638172  -0.00650396  1
  Te  Te45  1  0.74622362  0.00319635  0.50297017  1
  Te  Te46  1  0.74347054  0.49388989  0.00033840  1
  Te  Te47  1  0.74417548  0.49817514  0.49976139  1
  Te  Te48  1  -0.00143472  0.25128555  -0.00288936  1
  Te  Te49  1  -0.00918036  0.25061114  0.50163261  1
  Te  Te50  1  -0.00167967  0.74960616  0.00210849  1
  Te  Te51  1  -0.01388597  0.74976637  0.49930617  1
  Te  Te52  1  0.49999021  0.25294726  0.00011401  1
  Te  Te53  1  0.50326933  0.25081375  0.50068383  1
  Te  Te54  1  0.50077381  0.74240059  -0.00148473  1
  Te  Te55  1  0.50246593  0.74795723  0.50338457  1
  Te  Te56  1  0.00175790  0.00670056  0.25032173  1
  Te  Te57  1  0.00174955  0.00508050  0.74899565  1
  Te  Te58  1  0.00932655  0.49519951  0.25036048  1
  Te  Te59  1  0.01230682  0.49535671  0.74974168  1
  Te  Te60  1  0.49867725  -0.00870289  0.25851057  1
  Te  Te61  1  0.49980543  0.00159116  0.74889698  1
  Te  Te62  1  0.49611457  0.50221763  0.25238836  1
  Te  Te63  1  0.49843787  0.49869389  0.74835208  1
