# generated using pymatgen
data_AgSbTe2
_symmetry_space_group_name_H-M   'P 1'
_cell_length_a   12.21477206
_cell_length_b   12.21123383
_cell_length_c   12.21066011
_cell_angle_alpha   89.99882438
_cell_angle_beta   89.99773519
_cell_angle_gamma   89.99897150
_symmetry_Int_Tables_number   1
_chemical_formula_structural   AgSbTe2
_chemical_formula_sum   'Ag16 Sb16 Te32'
_cell_volume   1821.31077442
_cell_formula_units_Z   16
loop_
 _symmetry_equiv_pos_site_id
 _symmetry_equiv_pos_as_xyz
  1  'x, y, z'
loop_
 _atom_site_type_symbol
 _atom_site_label
 _atom_site_symmetry_multiplicity
 _atom_site_fract_x
 _atom_site_fract_y
 _atom_site_fract_z
 _atom_site_occupancy
  Ag  Ag0  1  0.74864276  0.49653721  0.75120996  1
  Ag  Ag1  1  0.25001985  0.00098645  0.75702813  1
  Ag  Ag2  1  0.49702251  0.24726753  0.24470827  1
  Ag  Ag3  1  0.00270997  0.24538196  0.24627169  1
  Ag  Ag4  1  0.00128371  0.24721690  0.75336604  1
  Ag  Ag5  1  0.24834239  0.00381835  0.24268936  1
  Ag  Ag6  1  0.00573764  0.00405696  -0.00089417  1
  Ag  Ag7  1  0.24970257  0.75191577  0.50354152  1
  Ag  Ag8  1  0.25169937  0.75706555  -0.00347417  1
  Ag  Ag9  1  0.49835869  0.49660803  -0.00411852  1
  Ag  Ag10  1  0.75136725  0.00372728  0.24629144  1
  Ag  Ag11  1  0.49624589  0.75162434  0.75292066  1
  Ag  Ag12  1  0.25046484  0.24362876  -0.00113576  1
  Ag  Ag13  1  0.74995451  0.00362808  0.75357638  1
  Ag  Ag14  1  0.49867447  0.24880898  0.75542031  1
  Ag  Ag15  1  0.00128944  0.49827787  0.50286558  1
  Sb  Sb16  1  0.49872831  0.50059991  0.50451126  1
  Sb  Sb17  1  0.00556808  0.75306384  0.75127753  1
  Sb  Sb18  1  0.00126796  0.49409526  -0.00315935  1
  Sb  Sb19  1  0.75068139  0.74974355  0.50306419  1
  Sb  Sb20  1  0.00265960  0.00159950  0.50109743  1
  Sb  Sb21  1  0.75014519  0.49491765  0.24850907  1
  Sb  Sb22  1  0.75150984  0.24998387  0.50286499  1
  Sb  Sb23  1  0.25155794  0.49828112  0.75108733  1
  Sb  Sb24  1  0.24827181  0.24798078  0.50135265  1
  Sb  Sb25  1  0.49605680  0.75325281  0.24578075  1
  Sb  Sb26  1  0.24980954  0.49424840  0.24907013  1
  Sb  Sb27  1  0.74731544  0.24678500  -0.00264670  1
  Sb  Sb28  1  0.74644099  0.75371458  -0.00261431  1
  Sb  Sb29  1  0.49792817  -0.00044367  0.50239504  1
  Sb  Sb30  1  0.49128711  0.00439967  -0.00275711  1
  Sb  Sb31  1  0.00221601  0.75589445  0.24877450  1
  Te  Te32  1  0.24997498  0.24548768  0.24877058  1
  Te  Te33  1  0.25075807  0.24735992  0.75120654  1
  Te  Te34  1  0.25181227  0.75823755  0.24792680  1
  Te  Te35  1  0.25276753  0.75327470  0.75237807  1
  Te  Te36  1  0.75005668  0.24364298  0.24978364  1
  Te  Te37  1  0.74879993  0.24667781  0.75070969  1
  Te  Te38  1  0.74915539  0.76015484  0.25056545  1
  Te  Te39  1  0.74283601  0.75326967  0.74949673  1
  Te  Te40  1  0.24898453  0.00153150  -0.00117464  1
  Te  Te41  1  0.24841125  -0.00564634  0.50077083  1
  Te  Te42  1  0.25325322  0.49945446  0.00006342  1
  Te  Te43  1  0.24516846  0.50763862  0.49970382  1
  Te  Te44  1  0.75878060  -0.00139722  -0.00212107  1
  Te  Te45  1  0.75118561  -0.00144705  0.50169900  1
  Te  Te46  1  0.74556394  0.50229489  -0.00590516  1
  Te  Te47  1  0.75561674  0.50180923  0.50641189  1
  Te  Te48  1  0.00531441  0.24806485  -0.00094554  1
  Te  Te49  1  0.00172333  0.25496606  0.50094523  1
  Te  Te50  1  0.00884684  0.75502245  0.00022794  1
  Te  Te51  1  0.00653506  0.74292929  0.49966634  1
  Te  Te52  1  0.49632716  0.25276013  -0.00222878  1
  Te  Te53  1  0.49847133  0.25204043  0.50064193  1
  Te  Te54  1  0.49433109  0.74387237  -0.00419551  1
  Te  Te55  1  0.49293762  0.74778579  0.50657745  1
  Te  Te56  1  0.00117396  0.00471923  0.24875670  1
  Te  Te57  1  -0.00036198  0.00367803  0.75113074  1
  Te  Te58  1  -0.00274482  0.49109941  0.25277632  1
  Te  Te59  1  -0.00487400  0.49455602  0.74943792  1
  Te  Te60  1  0.49994770  0.00550607  0.25004650  1
  Te  Te61  1  0.50080550  0.00246477  0.75086515  1
  Te  Te62  1  0.50247444  0.49269840  0.24519290  1
  Te  Te63  1  0.50300709  0.49682676  0.75194501  1
