# generated using pymatgen
data_AgSbTe2
_symmetry_space_group_name_H-M   'P 1'
_cell_length_a   12.22087356
_cell_length_b   12.22857390
_cell_length_c   12.22192721
_cell_angle_alpha   90.00154195
_cell_angle_beta   89.99205808
_cell_angle_gamma   90.00188686
_symmetry_Int_Tables_number   1
_chemical_formula_structural   AgSbTe2
_chemical_formula_sum   'Ag16 Sb16 Te32'
_cell_volume   1826.49190399
_cell_formula_units_Z   16
loop_
 _symmetry_equiv_pos_site_id
 _symmetry_equiv_pos_as_xyz
  1  'x, y, z'
loop_
 _atom_site_type_symbol
 _atom_site_label
 _atom_site_symmetry_multiplicity
 _atom_site_fract_x
 _atom_site_fract_y
 _atom_site_fract_z
 _atom_site_occupancy
  Ag  Ag0  1  0.25116227  0.25139772  -0.00240014  1
  Ag  Ag1  1  0.75121149  0.00331843  0.25419274  1
  Ag  Ag2  1  0.74689385  0.49997113  0.73991856  1
  Ag  Ag3  1  -0.00225500  0.74841872  0.25429789  1
  Ag  Ag4  1  0.24699611  0.74637972  0.50584623  1
  Ag  Ag5  1  0.74986552  0.49651107  0.26029666  1
  Ag  Ag6  1  0.75242929  0.74144911  0.49840228  1
  Ag  Ag7  1  -0.00625458  0.25167230  0.25190154  1
  Ag  Ag8  1  0.50561656  0.25309879  0.25366909  1
  Ag  Ag9  1  0.50553906  0.49749496  0.50225981  1
  Ag  Ag10  1  0.25041546  -0.00426742  0.74988040  1
  Ag  Ag11  1  0.74693018  0.25868388  0.49456606  1
  Ag  Ag12  1  0.24705937  0.74862047  -0.00676679  1
  Ag  Ag13  1  0.25146116  0.50401190  0.74758870  1
  Ag  Ag14  1  0.00601692  0.74734624  0.74605186  1
  Ag  Ag15  1  0.49855289  0.25493929  0.74718775  1
  Sb  Sb16  1  0.49756320  0.49836732  -0.00185374  1
  Sb  Sb17  1  0.49961898  0.00346217  0.49995072  1
  Sb  Sb18  1  0.74921387  -0.00094810  0.74601618  1
  Sb  Sb19  1  0.00234857  0.49997865  0.00031346  1
  Sb  Sb20  1  0.25012462  0.50063382  0.25383363  1
  Sb  Sb21  1  0.74978639  0.25187255  0.00498887  1
  Sb  Sb22  1  0.75422727  0.74761275  0.00033776  1
  Sb  Sb23  1  0.25170765  0.25515202  0.50150414  1
  Sb  Sb24  1  0.00203618  -0.00007549  0.00046625  1
  Sb  Sb25  1  -0.00611896  0.50217635  0.49989238  1
  Sb  Sb26  1  0.49465851  0.74461415  0.74702094  1
  Sb  Sb27  1  0.24981839  -0.00055808  0.25093620  1
  Sb  Sb28  1  0.49794277  0.00162285  -0.00016086  1
  Sb  Sb29  1  0.50270701  0.74662319  0.25316876  1
  Sb  Sb30  1  0.00081162  0.25244286  0.74823032  1
  Sb  Sb31  1  0.00045454  -0.00197819  0.49949994  1
  Te  Te32  1  0.24937810  0.24956823  0.24888866  1
  Te  Te33  1  0.24807174  0.25240834  0.74970490  1
  Te  Te34  1  0.24546168  0.75045038  0.25179759  1
  Te  Te35  1  0.25039064  0.74772002  0.74839761  1
  Te  Te36  1  0.75051627  0.25338965  0.24921668  1
  Te  Te37  1  0.75073042  0.25115636  0.74901123  1
  Te  Te38  1  0.75264060  0.74703561  0.25073499  1
  Te  Te39  1  0.75204075  0.74943526  0.74875311  1
  Te  Te40  1  0.25043543  -0.00038943  -0.00501179  1
  Te  Te41  1  0.25171911  -0.00821265  0.50541858  1
  Te  Te42  1  0.25129437  0.50004067  -0.00592202  1
  Te  Te43  1  0.25715607  0.50333974  0.50400970  1
  Te  Te44  1  0.74899705  -0.00080524  0.00841663  1
  Te  Te45  1  0.74869164  -0.00161890  0.49562359  1
  Te  Te46  1  0.74861066  0.50055509  -0.00264547  1
  Te  Te47  1  0.74741415  0.50043749  0.50094244  1
  Te  Te48  1  0.00679497  0.24986580  0.00571556  1
  Te  Te49  1  -0.00510230  0.24957467  0.49456202  1
  Te  Te50  1  0.00537639  0.75015855  0.00127078  1
  Te  Te51  1  -0.00044573  0.74974958  0.49871012  1
  Te  Te52  1  0.49459943  0.24991332  -0.00022131  1
  Te  Te53  1  0.50215684  0.25325775  0.49970468  1
  Te  Te54  1  0.48958032  0.75032042  0.00082441  1
  Te  Te55  1  0.50195390  0.74435734  0.49935241  1
  Te  Te56  1  -0.00373740  -0.00074804  0.24953266  1
  Te  Te57  1  0.00398476  -0.00612840  0.75045295  1
  Te  Te58  1  -0.00354961  0.50090547  0.24978068  1
  Te  Te59  1  0.00027174  0.50441259  0.75025802  1
  Te  Te60  1  0.50433882  0.00790357  0.24996569  1
  Te  Te61  1  0.49700031  0.00997203  0.75022103  1
  Te  Te62  1  0.50301801  0.49575816  0.25456554  1
  Te  Te63  1  0.50166971  0.49617147  0.74693074  1
