# generated using pymatgen
data_AgSbTe2
_symmetry_space_group_name_H-M   'P 1'
_cell_length_a   12.22746402
_cell_length_b   12.21429138
_cell_length_c   12.22844004
_cell_angle_alpha   89.99402809
_cell_angle_beta   89.99816426
_cell_angle_gamma   89.99340517
_symmetry_Int_Tables_number   1
_chemical_formula_structural   AgSbTe2
_chemical_formula_sum   'Ag16 Sb16 Te32'
_cell_volume   1826.31515505
_cell_formula_units_Z   16
loop_
 _symmetry_equiv_pos_site_id
 _symmetry_equiv_pos_as_xyz
  1  'x, y, z'
loop_
 _atom_site_type_symbol
 _atom_site_label
 _atom_site_symmetry_multiplicity
 _atom_site_fract_x
 _atom_site_fract_y
 _atom_site_fract_z
 _atom_site_occupancy
  Ag  Ag0  1  0.74494255  0.00167437  0.74070033  1
  Ag  Ag1  1  0.25490163  0.00909566  0.25589290  1
  Ag  Ag2  1  0.24576780  0.24524725  0.49390212  1
  Ag  Ag3  1  0.25465481  0.00401289  0.74464898  1
  Ag  Ag4  1  0.75364873  0.24226506  0.49760307  1
  Ag  Ag5  1  0.50391278  0.00329436  0.49938158  1
  Ag  Ag6  1  0.49955221  0.00166164  0.00045694  1
  Ag  Ag7  1  0.49581908  0.24281492  0.25495011  1
  Ag  Ag8  1  0.00476704  0.25099001  0.25792254  1
  Ag  Ag9  1  0.00055491  0.24798610  0.74203429  1
  Ag  Ag10  1  0.74868470  0.76018225  0.50124103  1
  Ag  Ag11  1  0.74483507  0.00517226  0.25931843  1
  Ag  Ag12  1  0.00161196  0.49549930  0.00313514  1
  Ag  Ag13  1  0.24608478  0.49002647  0.25370264  1
  Ag  Ag14  1  0.00125432  0.49213498  0.49741642  1
  Ag  Ag15  1  0.50153875  0.75781633  0.74669950  1
  Sb  Sb16  1  0.49852336  0.49744815  0.49828679  1
  Sb  Sb17  1  0.50120168  0.75875407  0.25279666  1
  Sb  Sb18  1  0.25097972  0.75156892  -0.00037122  1
  Sb  Sb19  1  -0.00099153  0.75274474  0.74642558  1
  Sb  Sb20  1  0.25007714  0.75665593  0.50045469  1
  Sb  Sb21  1  0.75063508  0.24704832  0.00193445  1
  Sb  Sb22  1  0.75098108  0.49677741  0.74709780  1
  Sb  Sb23  1  0.24812568  0.49402018  0.74670386  1
  Sb  Sb24  1  0.49900375  0.24216726  0.74466147  1
  Sb  Sb25  1  -0.00451422  0.00810023  0.49902985  1
  Sb  Sb26  1  0.24949667  0.24894705  0.00714996  1
  Sb  Sb27  1  0.49794663  0.49812723  0.00303830  1
  Sb  Sb28  1  0.00088274  0.00289417  0.00104448  1
  Sb  Sb29  1  0.75315921  0.49356414  0.25342739  1
  Sb  Sb30  1  0.74831487  0.75386288  -0.00102297  1
  Sb  Sb31  1  -0.00108567  0.74998573  0.25329792  1
  Te  Te32  1  0.24775675  0.24736298  0.25260377  1
  Te  Te33  1  0.24820474  0.24587495  0.74325993  1
  Te  Te34  1  0.25029907  0.75231537  0.25083309  1
  Te  Te35  1  0.25256260  0.75806472  0.74908168  1
  Te  Te36  1  0.75141042  0.24641486  0.25326274  1
  Te  Te37  1  0.75209641  0.24585142  0.74511025  1
  Te  Te38  1  0.74948008  0.75797376  0.25605681  1
  Te  Te39  1  0.74842003  0.75561220  0.74559277  1
  Te  Te40  1  0.25431870  0.00011070  0.00034196  1
  Te  Te41  1  0.25214937  0.00208012  0.49859128  1
  Te  Te42  1  0.24584364  0.50047605  0.00531027  1
  Te  Te43  1  0.24786013  0.49589641  0.49624925  1
  Te  Te44  1  0.74579659  -0.00049980  -0.00026210  1
  Te  Te45  1  0.75077821  0.00214943  0.49994170  1
  Te  Te46  1  0.75594906  0.50084930  -0.00017479  1
  Te  Te47  1  0.75240967  0.49697866  0.49977590  1
  Te  Te48  1  -0.00037112  0.25424078  0.00007844  1
  Te  Te49  1  0.00045170  0.25041802  0.49857856  1
  Te  Te50  1  -0.00038112  0.74023456  -0.00093612  1
  Te  Te51  1  -0.00570418  0.73849828  0.50081282  1
  Te  Te52  1  0.50062851  0.24564148  0.00658096  1
  Te  Te53  1  0.50032803  0.24732241  0.49729693  1
  Te  Te54  1  0.50090451  0.75514242  -0.00591800  1
  Te  Te55  1  0.50447182  0.75269016  0.50321259  1
  Te  Te56  1  0.00170391  0.00413604  0.24760035  1
  Te  Te57  1  0.00070318  0.00472042  0.75268700  1
  Te  Te58  1  0.00236880  0.49715940  0.25248907  1
  Te  Te59  1  0.00106805  0.49475852  0.74815241  1
  Te  Te60  1  0.49938071  0.00164827  0.25269359  1
  Te  Te61  1  0.50058389  0.00059684  0.74777507  1
  Te  Te62  1  0.49416568  0.49349012  0.24807842  1
  Te  Te63  1  0.49909481  0.50925092  0.75228239  1
