# generated using pymatgen
data_AgSbTe2
_symmetry_space_group_name_H-M   'P 1'
_cell_length_a   12.20704040
_cell_length_b   12.21339184
_cell_length_c   12.21146809
_cell_angle_alpha   89.99882866
_cell_angle_beta   89.99574753
_cell_angle_gamma   89.99155102
_symmetry_Int_Tables_number   1
_chemical_formula_structural   AgSbTe2
_chemical_formula_sum   'Ag16 Sb16 Te32'
_cell_volume   1820.60002927
_cell_formula_units_Z   16
loop_
 _symmetry_equiv_pos_site_id
 _symmetry_equiv_pos_as_xyz
  1  'x, y, z'
loop_
 _atom_site_type_symbol
 _atom_site_label
 _atom_site_symmetry_multiplicity
 _atom_site_fract_x
 _atom_site_fract_y
 _atom_site_fract_z
 _atom_site_occupancy
  Ag  Ag0  1  -0.00644617  0.00067208  -0.00194809  1
  Ag  Ag1  1  -0.00648277  0.75308585  0.75015157  1
  Ag  Ag2  1  0.50317537  0.49670177  0.00213981  1
  Ag  Ag3  1  0.74927369  0.75390304  0.49893406  1
  Ag  Ag4  1  0.50734888  0.24922309  0.74986360  1
  Ag  Ag5  1  0.75195037  0.00434839  0.75018240  1
  Ag  Ag6  1  0.50499436  0.00295550  0.49811087  1
  Ag  Ag7  1  -0.00490254  0.75231638  0.25007333  1
  Ag  Ag8  1  0.74752081  -0.00176816  0.25092552  1
  Ag  Ag9  1  -0.00835752  0.24679959  0.75125837  1
  Ag  Ag10  1  0.74745490  0.24782758  -0.00507474  1
  Ag  Ag11  1  0.25371878  0.49897402  0.25016912  1
  Ag  Ag12  1  0.50476857  0.75102518  0.25123327  1
  Ag  Ag13  1  0.74911202  0.49577234  0.75152093  1
  Ag  Ag14  1  0.50243876  0.24942439  0.25066029  1
  Ag  Ag15  1  0.25380083  0.24950121  0.49947415  1
  Sb  Sb16  1  0.25009298  0.74908787  0.00153031  1
  Sb  Sb17  1  0.25264646  0.00160048  0.25172350  1
  Sb  Sb18  1  -0.00377481  0.49840672  -0.00059524  1
  Sb  Sb19  1  0.50166989  0.49680420  0.49788265  1
  Sb  Sb20  1  0.74676656  0.50088334  0.24831129  1
  Sb  Sb21  1  0.50673318  0.00368092  0.00128722  1
  Sb  Sb22  1  0.25281577  0.25106355  0.00146176  1
  Sb  Sb23  1  0.75070256  0.75286268  0.00113936  1
  Sb  Sb24  1  0.74647374  0.24622572  0.50565102  1
  Sb  Sb25  1  -0.00197085  0.49974751  0.50021179  1
  Sb  Sb26  1  0.25139508  0.75046127  0.49764665  1
  Sb  Sb27  1  0.25155030  0.49731575  0.74974069  1
  Sb  Sb28  1  0.24794934  0.00170157  0.74844294  1
  Sb  Sb29  1  -0.00571258  -0.00026030  0.50179145  1
  Sb  Sb30  1  -0.00334038  0.24778342  0.24916908  1
  Sb  Sb31  1  0.50793460  0.75050314  0.74848877  1
  Te  Te32  1  0.25373258  0.25310919  0.25306174  1
  Te  Te33  1  0.25131997  0.25201381  0.74555471  1
  Te  Te34  1  0.24997283  0.74549477  0.25179124  1
  Te  Te35  1  0.23887653  0.74861728  0.74856682  1
  Te  Te36  1  0.74707529  0.24798648  0.24855629  1
  Te  Te37  1  0.74946009  0.24813458  0.74814779  1
  Te  Te38  1  0.74963632  0.75149151  0.25146691  1
  Te  Te39  1  0.75312587  0.75186299  0.74826780  1
  Te  Te40  1  0.23879963  0.00038603  0.00002628  1
  Te  Te41  1  0.25986187  0.00583321  0.49986999  1
  Te  Te42  1  0.25805896  0.49935241  0.00597992  1
  Te  Te43  1  0.25049567  0.49413169  0.49425884  1
  Te  Te44  1  0.75314795  0.00442725  -0.00100053  1
  Te  Te45  1  0.74543492  -0.00354708  0.49934910  1
  Te  Te46  1  0.74528070  0.49308218  -0.00445568  1
  Te  Te47  1  0.74932635  0.50834788  0.50699982  1
  Te  Te48  1  -0.00417054  0.24716970  -0.00405368  1
  Te  Te49  1  0.00562014  0.24876803  0.50534988  1
  Te  Te50  1  0.00005541  0.75390411  0.00012173  1
  Te  Te51  1  -0.00362040  0.75073701  0.49936854  1
  Te  Te52  1  0.50321857  0.25084019  0.00008091  1
  Te  Te53  1  0.49893149  0.24684232  0.49919957  1
  Te  Te54  1  0.49973198  0.74561071  0.00636073  1
  Te  Te55  1  0.50295492  0.75470126  0.49581140  1
  Te  Te56  1  -0.00463652  -0.00402223  0.24802746  1
  Te  Te57  1  -0.00360991  0.00040435  0.75107969  1
  Te  Te58  1  0.00391077  0.50597547  0.24827199  1
  Te  Te59  1  -0.00429023  0.50000304  0.75154551  1
  Te  Te60  1  0.50350627  0.00059614  0.24980348  1
  Te  Te61  1  0.50471731  0.00311492  0.74945763  1
  Te  Te62  1  0.49942935  0.49880066  0.24779005  1
  Te  Te63  1  0.50334565  0.49720007  0.75378641  1
