# generated using pymatgen
data_AgSbTe2
_symmetry_space_group_name_H-M   'P 1'
_cell_length_a   12.21972112
_cell_length_b   12.20753214
_cell_length_c   12.22438919
_cell_angle_alpha   90.00317616
_cell_angle_beta   89.99522512
_cell_angle_gamma   89.98900436
_symmetry_Int_Tables_number   1
_chemical_formula_structural   AgSbTe2
_chemical_formula_sum   'Ag16 Sb16 Te32'
_cell_volume   1823.54434475
_cell_formula_units_Z   16
loop_
 _symmetry_equiv_pos_site_id
 _symmetry_equiv_pos_as_xyz
  1  'x, y, z'
loop_
 _atom_site_type_symbol
 _atom_site_label
 _atom_site_symmetry_multiplicity
 _atom_site_fract_x
 _atom_site_fract_y
 _atom_site_fract_z
 _atom_site_occupancy
  Ag  Ag0  1  0.25290677  0.24674638  0.49863955  1
  Ag  Ag1  1  0.49616535  0.24449688  0.24712996  1
  Ag  Ag2  1  0.74816463  0.00088414  0.24871926  1
  Ag  Ag3  1  0.24391104  0.75212914  0.49906441  1
  Ag  Ag4  1  0.75637998  0.75348614  0.49808275  1
  Ag  Ag5  1  0.00184154  0.75220279  0.25699584  1
  Ag  Ag6  1  0.00251546  0.75339089  0.74302688  1
  Ag  Ag7  1  0.00172378  0.00129117  0.00105198  1
  Ag  Ag8  1  0.00460708  0.50565674  0.49793592  1
  Ag  Ag9  1  0.49832299  0.00846036  0.00110652  1
  Ag  Ag10  1  0.24837576  0.49710055  0.25421846  1
  Ag  Ag11  1  0.25523595  0.24402435  0.00102190  1
  Ag  Ag12  1  0.25196954  0.00293143  0.74857949  1
  Ag  Ag13  1  0.74517850  0.24333767  0.00230286  1
  Ag  Ag14  1  0.49528214  0.24331174  0.75226491  1
  Ag  Ag15  1  0.49574616  0.00370202  0.49913556  1
  Sb  Sb16  1  0.00356239  -0.00615011  0.49926835  1
  Sb  Sb17  1  0.74881509  0.00055091  0.75096101  1
  Sb  Sb18  1  0.00298819  0.49879829  0.00165451  1
  Sb  Sb19  1  0.24838300  0.49777470  0.74684749  1
  Sb  Sb20  1  0.00403100  0.24619247  0.74910911  1
  Sb  Sb21  1  0.49770671  0.75642915  0.74681384  1
  Sb  Sb22  1  0.74783885  0.24622835  0.49830472  1
  Sb  Sb23  1  0.49858369  0.75513697  0.25234273  1
  Sb  Sb24  1  0.75163468  0.49984436  0.74813383  1
  Sb  Sb25  1  0.49736920  0.49021742  0.00238756  1
  Sb  Sb26  1  0.75228159  0.75633318  0.00197364  1
  Sb  Sb27  1  0.49589898  0.49711889  0.49774088  1
  Sb  Sb28  1  0.00347989  0.24727407  0.25072377  1
  Sb  Sb29  1  0.24852868  0.75597607  0.00092529  1
  Sb  Sb30  1  0.25180914  0.00204180  0.25100539  1
  Sb  Sb31  1  0.75151300  0.49936175  0.25215010  1
  Te  Te32  1  0.25183708  0.25181499  0.25181554  1
  Te  Te33  1  0.25222023  0.24686811  0.74894825  1
  Te  Te34  1  0.24711055  0.74626534  0.25370536  1
  Te  Te35  1  0.24665020  0.75340489  0.74596084  1
  Te  Te36  1  0.74677084  0.24641757  0.24732542  1
  Te  Te37  1  0.74456562  0.24972136  0.75437244  1
  Te  Te38  1  0.75274362  0.75282286  0.25381403  1
  Te  Te39  1  0.75492351  0.74994385  0.74429187  1
  Te  Te40  1  0.25057397  0.00366091  -0.00164404  1
  Te  Te41  1  0.25236899  0.00152273  0.50185564  1
  Te  Te42  1  0.24952888  0.49229360  0.00637161  1
  Te  Te43  1  0.24714125  0.50016790  0.49672029  1
  Te  Te44  1  0.74936901  0.00363784  0.00296740  1
  Te  Te45  1  0.74631560  -0.00270014  0.49580555  1
  Te  Te46  1  0.74988755  0.49059939  0.00015718  1
  Te  Te47  1  0.75640834  0.50636509  0.49941151  1
  Te  Te48  1  0.00163980  0.24535523  -0.00064313  1
  Te  Te49  1  0.00466861  0.25536676  0.50105215  1
  Te  Te50  1  -0.00053862  0.75464388  0.00076908  1
  Te  Te51  1  0.00256061  0.75154963  0.49858923  1
  Te  Te52  1  0.49710315  0.24654681  0.00161090  1
  Te  Te53  1  0.49739613  0.24633305  0.49914057  1
  Te  Te54  1  0.50108128  0.75984735  -0.00104754  1
  Te  Te55  1  0.49812794  0.75474230  0.50063345  1
  Te  Te56  1  -0.00463786  -0.00400370  0.24598886  1
  Te  Te57  1  0.00450602  -0.00422966  0.75429793  1
  Te  Te58  1  0.00361276  0.50525179  0.25309385  1
  Te  Te59  1  0.00043387  0.50841627  0.74526129  1
  Te  Te60  1  0.50274977  0.00360019  0.25004192  1
  Te  Te61  1  0.49610397  0.00356166  0.74954863  1
  Te  Te62  1  0.49405569  0.49291415  0.24985579  1
  Te  Te63  1  0.49997089  0.49101736  0.75030966  1
