# generated using pymatgen
data_AgSbTe2
_symmetry_space_group_name_H-M   'P 1'
_cell_length_a   12.21881362
_cell_length_b   12.21065602
_cell_length_c   12.22241751
_cell_angle_alpha   90.00408260
_cell_angle_beta   89.99723725
_cell_angle_gamma   90.00468636
_symmetry_Int_Tables_number   1
_chemical_formula_structural   AgSbTe2
_chemical_formula_sum   'Ag16 Sb16 Te32'
_cell_volume   1823.58138123
_cell_formula_units_Z   16
loop_
 _symmetry_equiv_pos_site_id
 _symmetry_equiv_pos_as_xyz
  1  'x, y, z'
loop_
 _atom_site_type_symbol
 _atom_site_label
 _atom_site_symmetry_multiplicity
 _atom_site_fract_x
 _atom_site_fract_y
 _atom_site_fract_z
 _atom_site_occupancy
  Ag  Ag0  1  0.25274655  0.25788745  -0.00310675  1
  Ag  Ag1  1  0.00150230  0.50642184  0.50474818  1
  Ag  Ag2  1  0.25133238  -0.00002313  0.74720529  1
  Ag  Ag3  1  0.49675158  0.25455981  0.74839232  1
  Ag  Ag4  1  0.00257604  0.74358051  0.25681821  1
  Ag  Ag5  1  0.24700726  0.49990516  0.75171138  1
  Ag  Ag6  1  0.74705075  0.25447638  0.50273110  1
  Ag  Ag7  1  0.00634500  0.50067698  -0.00460732  1
  Ag  Ag8  1  0.75552223  0.74471805  0.50273637  1
  Ag  Ag9  1  0.49800705  0.00290026  0.50235304  1
  Ag  Ag10  1  0.00331319  0.74215432  0.74363774  1
  Ag  Ag11  1  0.24839147  0.49998274  0.24833977  1
  Ag  Ag12  1  0.75293051  0.49994661  0.74536684  1
  Ag  Ag13  1  0.24469409  0.74480695  0.50342295  1
  Ag  Ag14  1  0.49760803  0.25381433  0.25176476  1
  Ag  Ag15  1  0.49301215  0.49576269  -0.00332923  1
  Sb  Sb16  1  0.49796438  0.74521170  0.25408072  1
  Sb  Sb17  1  0.74863822  0.00037121  0.74604686  1
  Sb  Sb18  1  0.49948877  0.49719994  0.50256818  1
  Sb  Sb19  1  0.00289978  0.25893605  0.74873250  1
  Sb  Sb20  1  0.75140969  0.50024784  0.25543779  1
  Sb  Sb21  1  0.74770494  0.25504010  -0.00249987  1
  Sb  Sb22  1  0.49745763  0.74556193  0.74713489  1
  Sb  Sb23  1  0.25216813  0.25426403  0.50278748  1
  Sb  Sb24  1  0.74889265  -0.00008469  0.25358709  1
  Sb  Sb25  1  0.49547837  0.00416169  -0.00256074  1
  Sb  Sb26  1  0.75276056  0.74511477  -0.00359609  1
  Sb  Sb27  1  0.24797231  0.74094486  -0.00359311  1
  Sb  Sb28  1  0.00443600  0.00022286  -0.00347048  1
  Sb  Sb29  1  0.00227725  0.25674322  0.25259273  1
  Sb  Sb30  1  0.00246185  -0.00622102  0.50236196  1
  Sb  Sb31  1  0.25154388  -0.00028964  0.25275630  1
  Te  Te32  1  0.25350468  0.25319844  0.24807216  1
  Te  Te33  1  0.25255206  0.25357777  0.75036542  1
  Te  Te34  1  0.24714070  0.74688738  0.25439927  1
  Te  Te35  1  0.24847390  0.74640119  0.74727493  1
  Te  Te36  1  0.74421408  0.25029420  0.25529074  1
  Te  Te37  1  0.74590314  0.25268924  0.74600702  1
  Te  Te38  1  0.75426591  0.74953831  0.25721150  1
  Te  Te39  1  0.75292277  0.74644696  0.74529882  1
  Te  Te40  1  0.25019223  0.00846061  -0.00645916  1
  Te  Te41  1  0.25344087  -0.00307994  0.50461474  1
  Te  Te42  1  0.24928489  0.49872300  -0.00159790  1
  Te  Te43  1  0.24912360  0.50165081  0.50149073  1
  Te  Te44  1  0.75021294  0.00003281  0.00011450  1
  Te  Te45  1  0.74491739  0.00032484  0.50119754  1
  Te  Te46  1  0.75147876  0.49984118  -0.00757714  1
  Te  Te47  1  0.75030131  0.50128324  0.50390691  1
  Te  Te48  1  0.00405460  0.25635207  0.00081144  1
  Te  Te49  1  -0.00667313  0.25505802  0.49876487  1
  Te  Te50  1  -0.00010275  0.74382594  -0.00055488  1
  Te  Te51  1  0.00076505  0.74837132  0.50185406  1
  Te  Te52  1  0.49783940  0.25397177  -0.00128017  1
  Te  Te53  1  0.50169855  0.24858863  0.50131451  1
  Te  Te54  1  0.50084560  0.74336199  0.00133677  1
  Te  Te55  1  0.50029575  0.75465538  0.49934704  1
  Te  Te56  1  0.00073705  -0.00938435  0.24884094  1
  Te  Te57  1  0.00588890  -0.00843248  0.75065289  1
  Te  Te58  1  0.00309268  0.50287770  0.25104989  1
  Te  Te59  1  0.00206929  0.50114565  0.74826620  1
  Te  Te60  1  0.49901561  0.00676883  0.25397178  1
  Te  Te61  1  0.49608279  0.00425451  0.74696532  1
  Te  Te62  1  0.49601795  0.49605830  0.24652595  1
  Te  Te63  1  0.49809842  0.49726092  0.75197246  1
