# generated using pymatgen
data_AgSbTe2
_symmetry_space_group_name_H-M   'P 1'
_cell_length_a   12.21130778
_cell_length_b   12.22367859
_cell_length_c   12.21845516
_cell_angle_alpha   89.99601817
_cell_angle_beta   90.00449704
_cell_angle_gamma   90.00560522
_symmetry_Int_Tables_number   1
_chemical_formula_structural   AgSbTe2
_chemical_formula_sum   'Ag16 Sb16 Te32'
_cell_volume   1823.81336697
_cell_formula_units_Z   16
loop_
 _symmetry_equiv_pos_site_id
 _symmetry_equiv_pos_as_xyz
  1  'x, y, z'
loop_
 _atom_site_type_symbol
 _atom_site_label
 _atom_site_symmetry_multiplicity
 _atom_site_fract_x
 _atom_site_fract_y
 _atom_site_fract_z
 _atom_site_occupancy
  Ag  Ag0  1  0.00103720  0.49833395  0.49603061  1
  Ag  Ag1  1  0.49722079  0.74529119  0.25185553  1
  Ag  Ag2  1  0.00316294  0.74275154  0.24855195  1
  Ag  Ag3  1  0.24463852  0.74602967  0.00231625  1
  Ag  Ag4  1  0.75679807  0.00149755  0.74902917  1
  Ag  Ag5  1  0.24334057  0.00169049  0.75446839  1
  Ag  Ag6  1  0.00254600  0.25717876  0.24732508  1
  Ag  Ag7  1  0.24211768  0.25389449  -0.00219659  1
  Ag  Ag8  1  0.75260452  0.74709537  0.49916250  1
  Ag  Ag9  1  0.24268428  0.50230396  0.24691591  1
  Ag  Ag10  1  0.49936966  0.50161131  0.49781324  1
  Ag  Ag11  1  0.00442454  0.00258326  -0.00354398  1
  Ag  Ag12  1  0.24433438  0.49828930  0.75380946  1
  Ag  Ag13  1  0.75540924  0.25279447  0.50153951  1
  Ag  Ag14  1  0.00769254  0.49710403  0.00384352  1
  Ag  Ag15  1  0.00331177  0.25050149  0.75277643  1
  Sb  Sb16  1  0.75689171  0.49798304  0.74576675  1
  Sb  Sb17  1  0.24375298  0.25406522  0.50187149  1
  Sb  Sb18  1  0.75978935  0.24960384  -0.00171175  1
  Sb  Sb19  1  0.75543099  0.75039130  0.00070968  1
  Sb  Sb20  1  0.24621833  -0.00138249  0.24571299  1
  Sb  Sb21  1  0.49030594  0.50200949  0.00242711  1
  Sb  Sb22  1  0.49705968  0.25590305  0.25238218  1
  Sb  Sb23  1  0.00162785  0.74924713  0.75109495  1
  Sb  Sb24  1  0.49878691  0.74740864  0.74788818  1
  Sb  Sb25  1  0.75928362  0.50010397  0.25300626  1
  Sb  Sb26  1  0.50095431  -0.00147132  0.50016329  1
  Sb  Sb27  1  0.24748603  0.74609636  0.49684379  1
  Sb  Sb28  1  0.49568167  -0.00162917  -0.00120904  1
  Sb  Sb29  1  0.75353379  0.00019807  0.24973183  1
  Sb  Sb30  1  -0.00128921  0.00138075  0.50386534  1
  Sb  Sb31  1  0.49690726  0.25226928  0.74890221  1
  Te  Te32  1  0.24527719  0.25223397  0.24782606  1
  Te  Te33  1  0.24647108  0.25130898  0.75140911  1
  Te  Te34  1  0.24591772  0.74847634  0.24783276  1
  Te  Te35  1  0.24985012  0.74934282  0.75490447  1
  Te  Te36  1  0.75542310  0.24912690  0.25453032  1
  Te  Te37  1  0.75429266  0.24689855  0.74754922  1
  Te  Te38  1  0.75198610  0.75028312  0.25410859  1
  Te  Te39  1  0.74968042  0.75529965  0.74482507  1
  Te  Te40  1  0.24626617  -0.00023844  -0.00394585  1
  Te  Te41  1  0.25095221  -0.00018893  0.51060766  1
  Te  Te42  1  0.24698679  0.50059562  -0.00016315  1
  Te  Te43  1  0.24713572  0.50035475  0.49983201  1
  Te  Te44  1  0.75563597  -0.00019484  -0.00722568  1
  Te  Te45  1  0.75005668  -0.00057172  0.50558973  1
  Te  Te46  1  0.75785700  0.50027241  -0.00244260  1
  Te  Te47  1  0.75197430  0.50073804  0.50166680  1
  Te  Te48  1  0.00238578  0.25138694  -0.00019272  1
  Te  Te49  1  -0.00299626  0.25234897  0.50004009  1
  Te  Te50  1  0.00271759  0.74902619  0.00304177  1
  Te  Te51  1  -0.00324526  0.74643409  0.49524620  1
  Te  Te52  1  0.49162854  0.25044603  0.00187717  1
  Te  Te53  1  0.50915641  0.25589778  0.49818790  1
  Te  Te54  1  0.49493311  0.74920694  0.00683399  1
  Te  Te55  1  0.50382417  0.74559821  0.49595561  1
  Te  Te56  1  0.00074670  0.00014732  0.24446269  1
  Te  Te57  1  0.00215694  0.00180152  0.75260602  1
  Te  Te58  1  0.00252881  0.49966352  0.25086009  1
  Te  Te59  1  0.00438231  0.49788545  0.74872124  1
  Te  Te60  1  0.49982846  -0.00875023  0.25014362  1
  Te  Te61  1  0.49886077  -0.00005466  0.75042115  1
  Te  Te62  1  0.49294412  0.50400800  0.25341461  1
  Te  Te63  1  0.49127066  0.50008873  0.74433383  1
