# generated using pymatgen
data_AgSbTe2
_symmetry_space_group_name_H-M   'P 1'
_cell_length_a   12.21328690
_cell_length_b   12.21257282
_cell_length_c   12.20974937
_cell_angle_alpha   90.00452857
_cell_angle_beta   90.00258014
_cell_angle_gamma   89.99459043
_symmetry_Int_Tables_number   1
_chemical_formula_structural   AgSbTe2
_chemical_formula_sum   'Ag16 Sb16 Te32'
_cell_volume   1821.15315768
_cell_formula_units_Z   16
loop_
 _symmetry_equiv_pos_site_id
 _symmetry_equiv_pos_as_xyz
  1  'x, y, z'
loop_
 _atom_site_type_symbol
 _atom_site_label
 _atom_site_symmetry_multiplicity
 _atom_site_fract_x
 _atom_site_fract_y
 _atom_site_fract_z
 _atom_site_occupancy
  Ag  Ag0  1  0.25010967  0.74965168  -0.00720732  1
  Ag  Ag1  1  0.25179872  0.50082457  0.25151483  1
  Ag  Ag2  1  0.49457029  0.75011388  0.74567353  1
  Ag  Ag3  1  0.00085534  0.24664865  0.74868557  1
  Ag  Ag4  1  0.49944627  0.24998474  0.74875413  1
  Ag  Ag5  1  0.74990679  0.74996767  0.50143236  1
  Ag  Ag6  1  0.74997057  0.25002070  0.50100548  1
  Ag  Ag7  1  0.00580680  0.75383639  0.74558005  1
  Ag  Ag8  1  0.24768135  -0.00308481  0.74875040  1
  Ag  Ag9  1  0.74842175  0.49822167  0.25451231  1
  Ag  Ag10  1  0.25016892  0.74966649  0.50715943  1
  Ag  Ag11  1  0.25005894  0.25069558  -0.00496224  1
  Ag  Ag12  1  0.75120265  0.00193989  0.25450826  1
  Ag  Ag13  1  0.50159444  0.50182196  0.50088162  1
  Ag  Ag14  1  0.74996246  0.25014059  -0.00182103  1
  Ag  Ag15  1  -0.00184029  -0.00160023  0.50430119  1
  Sb  Sb16  1  0.74808571  0.49788464  0.74438207  1
  Sb  Sb17  1  0.24817886  0.00004495  0.25183484  1
  Sb  Sb18  1  0.49896986  0.49910979  -0.00146988  1
  Sb  Sb19  1  0.49952574  0.74780576  0.25585585  1
  Sb  Sb20  1  0.50227154  -0.00205160  0.50366215  1
  Sb  Sb21  1  0.00095268  0.49948959  -0.00024336  1
  Sb  Sb22  1  0.74995889  0.74933813  -0.00168308  1
  Sb  Sb23  1  0.50161520  0.25207577  0.25316571  1
  Sb  Sb24  1  -0.00000858  0.00086613  -0.00585200  1
  Sb  Sb25  1  0.25151889  0.50519897  0.74778599  1
  Sb  Sb26  1  -0.00192177  0.50204551  0.50049720  1
  Sb  Sb27  1  -0.00181468  0.24886890  0.25271945  1
  Sb  Sb28  1  0.00022017  0.75130302  0.25544555  1
  Sb  Sb29  1  0.75417712  0.00244689  0.74486267  1
  Sb  Sb30  1  0.50030616  0.00081960  -0.00363289  1
  Sb  Sb31  1  0.25002405  0.25121276  0.50713968  1
  Te  Te32  1  0.25002949  0.25288391  0.24141486  1
  Te  Te33  1  0.24992263  0.24825832  0.75232542  1
  Te  Te34  1  0.25007024  0.74741410  0.24939322  1
  Te  Te35  1  0.24993756  0.74905323  0.74914250  1
  Te  Te36  1  0.74999818  0.25167641  0.25117173  1
  Te  Te37  1  0.74969565  0.24876146  0.75014002  1
  Te  Te38  1  0.74999573  0.74812765  0.25310596  1
  Te  Te39  1  0.74962118  0.75080861  0.74694918  1
  Te  Te40  1  0.24978397  0.00045505  -0.00145215  1
  Te  Te41  1  0.24616775  -0.00424843  0.50100907  1
  Te  Te42  1  0.25120631  0.49921120  0.00790964  1
  Te  Te43  1  0.25324246  0.50343280  0.49445350  1
  Te  Te44  1  0.75051755  0.00574263  0.00830251  1
  Te  Te45  1  0.75221537  -0.00028090  0.49793539  1
  Te  Te46  1  0.74884235  0.49445349  0.01080765  1
  Te  Te47  1  0.74826779  0.50034087  0.49571455  1
  Te  Te48  1  0.00017919  0.24909362  -0.00820938  1
  Te  Te49  1  -0.00389210  0.24682285  0.50563422  1
  Te  Te50  1  0.00518784  0.75072369  -0.00992765  1
  Te  Te51  1  -0.00087243  0.75162874  0.50450690  1
  Te  Te52  1  0.49983810  0.25075153  -0.00861160  1
  Te  Te53  1  0.50404516  0.25364607  0.50548757  1
  Te  Te54  1  0.49483188  0.74932792  -0.01017046  1
  Te  Te55  1  0.50083984  0.74803748  0.50447925  1
  Te  Te56  1  -0.00522956  -0.00010537  0.25965344  1
  Te  Te57  1  0.00348278  -0.00004340  0.74540465  1
  Te  Te58  1  -0.00030141  0.50010106  0.25025584  1
  Te  Te59  1  -0.00047193  0.49887522  0.74938246  1
  Te  Te60  1  0.50790809  -0.00016406  0.25085469  1
  Te  Te61  1  0.49228068  0.00033675  0.74876470  1
  Te  Te62  1  0.50047209  0.50001852  0.25728389  1
  Te  Te63  1  0.50041301  0.49955072  0.74364989  1
