# generated using pymatgen
data_AgSbTe2
_symmetry_space_group_name_H-M   'P 1'
_cell_length_a   12.34069135
_cell_length_b   12.31925372
_cell_length_c   12.31517426
_cell_angle_alpha   90.02026371
_cell_angle_beta   90.00000014
_cell_angle_gamma   89.99999998
_symmetry_Int_Tables_number   1
_chemical_formula_structural   AgSbTe2
_chemical_formula_sum   'Ag16 Sb16 Te32'
_cell_volume   1872.25252323
_cell_formula_units_Z   16
loop_
 _symmetry_equiv_pos_site_id
 _symmetry_equiv_pos_as_xyz
  1  'x, y, z'
loop_
 _atom_site_type_symbol
 _atom_site_label
 _atom_site_symmetry_multiplicity
 _atom_site_fract_x
 _atom_site_fract_y
 _atom_site_fract_z
 _atom_site_occupancy
  Ag  Ag0  1  0.25000005  0.51136444  0.74218951  1
  Ag  Ag1  1  0.51814373  0.75192781  0.74014117  1
  Ag  Ag2  1  0.51866802  -0.00799986  -0.01612979  1
  Ag  Ag3  1  0.51638446  -0.01538997  0.51208652  1
  Ag  Ag4  1  -0.01479933  0.51676448  0.50919366  1
  Ag  Ag5  1  -0.01814348  0.75192788  0.74014108  1
  Ag  Ag6  1  -0.01866827  -0.00799923  -0.01612970  1
  Ag  Ag7  1  0.75000006  0.50486434  0.26380450  1
  Ag  Ag8  1  0.51479919  0.51676494  0.50919221  1
  Ag  Ag9  1  0.74999992  0.75953920  -0.01953939  1
  Ag  Ag10  1  0.74999989  -0.01548696  0.75507372  1
  Ag  Ag11  1  -0.01638438  -0.01539053  0.51208583  1
  Ag  Ag12  1  0.74999974  0.74398688  0.51537173  1
  Ag  Ag13  1  0.25000016  0.74610641  0.50934538  1
  Ag  Ag14  1  0.74999981  0.51970239  0.74016216  1
  Ag  Ag15  1  0.75000003  0.23815311  -0.00536625  1
  Sb  Sb16  1  0.25000003  -0.00732980  0.74804343  1
  Sb  Sb17  1  0.50702194  0.25048446  0.24949940  1
  Sb  Sb18  1  0.24999996  0.25125000  0.50309744  1
  Sb  Sb19  1  0.24999985  0.50417639  0.25920696  1
  Sb  Sb20  1  0.25000005  0.75037263  -0.01049474  1
  Sb  Sb21  1  -0.00302453  0.74922535  0.25978539  1
  Sb  Sb22  1  -0.00702196  0.25048453  0.24949941  1
  Sb  Sb23  1  0.75000000  -0.00522885  0.25046985  1
  Sb  Sb24  1  0.74999998  0.25098759  0.50508130  1
  Sb  Sb25  1  0.24999999  -0.00344134  0.25246055  1
  Sb  Sb26  1  -0.00590645  0.50979965  -0.01071865  1
  Sb  Sb27  1  0.50302456  0.74922540  0.25978547  1
  Sb  Sb28  1  0.50590642  0.50979971  -0.01071773  1
  Sb  Sb29  1  0.50174951  0.24706821  0.75012625  1
  Sb  Sb30  1  -0.00174942  0.24706818  0.75012610  1
  Sb  Sb31  1  0.24999999  0.24694472  -0.00585066  1
  Te  Te32  1  0.25000008  0.24958349  0.24804110  1
  Te  Te33  1  0.25000001  0.27282410  0.74981888  1
  Te  Te34  1  0.25000002  0.75095902  0.26378349  1
  Te  Te35  1  0.25000018  0.74622435  0.74439640  1
  Te  Te36  1  0.74999997  0.26521936  0.23531143  1
  Te  Te37  1  0.75000001  0.24508849  0.75564392  1
  Te  Te38  1  0.74999996  0.74378051  0.24814804  1
  Te  Te39  1  0.74999981  0.75655839  0.74830721  1
  Te  Te40  1  0.24999992  -0.00024824  0.00199349  1
  Te  Te41  1  0.25000006  -0.00273149  0.50026829  1
  Te  Te42  1  0.24999981  0.49884194  -0.00146178  1
  Te  Te43  1  0.25000014  0.50138324  0.50353751  1
  Te  Te44  1  0.75000030  -0.00772522  0.00555838  1
  Te  Te45  1  0.74999981  0.00827042  0.49402636  1
  Te  Te46  1  0.75000013  0.50924582  -0.00796724  1
  Te  Te47  1  0.75000013  0.49244688  0.50545971  1
  Te  Te48  1  -0.00136872  0.23722629  0.00028550  1
  Te  Te49  1  0.00168860  0.24159548  0.49854013  1
  Te  Te50  1  0.00286781  0.75321614  -0.00642319  1
  Te  Te51  1  -0.01124128  0.75123821  0.50283459  1
  Te  Te52  1  0.50136863  0.23722608  0.00028549  1
  Te  Te53  1  0.49831147  0.24159552  0.49854018  1
  Te  Te54  1  0.49713223  0.75321693  -0.00642344  1
  Te  Te55  1  0.51124127  0.75123726  0.50283451  1
  Te  Te56  1  0.00140470  0.00062063  0.25521503  1
  Te  Te57  1  0.00200755  -0.00074855  0.74735043  1
  Te  Te58  1  -0.00160018  0.50059155  0.26089352  1
  Te  Te59  1  -0.00986914  0.50153885  0.74836055  1
  Te  Te60  1  0.49859530  0.00062062  0.25521518  1
  Te  Te61  1  0.49799252  -0.00074858  0.74734982  1
  Te  Te62  1  0.50160026  0.50059151  0.26089339  1
  Te  Te63  1  0.50986917  0.50153888  0.74836098  1
