# generated using pymatgen
data_AgSbTe2
_symmetry_space_group_name_H-M   'P 1'
_cell_length_a   12.20669098
_cell_length_b   12.20548031
_cell_length_c   12.20531859
_cell_angle_alpha   89.99827622
_cell_angle_beta   89.99855906
_cell_angle_gamma   89.99675623
_symmetry_Int_Tables_number   1
_chemical_formula_structural   AgSbTe2
_chemical_formula_sum   'Ag16 Sb16 Te32'
_cell_volume   1818.45242550
_cell_formula_units_Z   16
loop_
 _symmetry_equiv_pos_site_id
 _symmetry_equiv_pos_as_xyz
  1  'x, y, z'
loop_
 _atom_site_type_symbol
 _atom_site_label
 _atom_site_symmetry_multiplicity
 _atom_site_fract_x
 _atom_site_fract_y
 _atom_site_fract_z
 _atom_site_occupancy
  Ag  Ag0  1  0.74458511  0.74949481  0.49372524  1
  Ag  Ag1  1  0.50464530  0.74906330  0.25550160  1
  Ag  Ag2  1  0.25153787  -0.00303033  0.74890617  1
  Ag  Ag3  1  -0.00060419  0.25121614  0.74752888  1
  Ag  Ag4  1  0.75037719  0.74907598  0.00688908  1
  Ag  Ag5  1  -0.00388623  0.74594228  0.24983457  1
  Ag  Ag6  1  0.00039062  0.50470394  0.00339112  1
  Ag  Ag7  1  -0.00239833  0.50220986  0.49656799  1
  Ag  Ag8  1  0.50256603  0.25100676  0.25494950  1
  Ag  Ag9  1  0.50248547  0.50533043  0.49549660  1
  Ag  Ag10  1  0.74692513  -0.00592748  0.25371832  1
  Ag  Ag11  1  0.74812754  0.25090936  0.49699186  1
  Ag  Ag12  1  0.24976929  0.74821078  0.00259258  1
  Ag  Ag13  1  0.49978058  0.75067211  0.74520384  1
  Ag  Ag14  1  0.25030339  0.50457344  0.25080193  1
  Ag  Ag15  1  0.50342844  -0.00518343  0.49708545  1
  Sb  Sb16  1  0.24873604  0.25211583  0.00094392  1
  Sb  Sb17  1  0.25022866  0.50310167  0.75004233  1
  Sb  Sb18  1  0.74783642  -0.00238962  0.74612452  1
  Sb  Sb19  1  0.75141791  0.25222056  0.00395644  1
  Sb  Sb20  1  0.25717759  0.74909362  0.49745265  1
  Sb  Sb21  1  0.74885879  0.50887200  0.25355015  1
  Sb  Sb22  1  0.50063829  0.24927579  0.74362251  1
  Sb  Sb23  1  -0.00060271  -0.00532307  0.00061106  1
  Sb  Sb24  1  0.25110436  0.25087967  0.49934345  1
  Sb  Sb25  1  0.49973041  0.50525559  0.00580578  1
  Sb  Sb26  1  0.00116252  0.74895125  0.74954225  1
  Sb  Sb27  1  0.74995819  0.50180967  0.74675624  1
  Sb  Sb28  1  0.25356294  -0.00535074  0.25099451  1
  Sb  Sb29  1  -0.00361476  -0.00300285  0.49896666  1
  Sb  Sb30  1  -0.00331297  0.25595536  0.25316218  1
  Sb  Sb31  1  0.50052438  -0.00425281  0.00275994  1
  Te  Te32  1  0.25532325  0.25416472  0.24868348  1
  Te  Te33  1  0.24631485  0.24420225  0.75119658  1
  Te  Te34  1  0.25023482  0.74849418  0.24581964  1
  Te  Te35  1  0.25311700  0.75364252  0.75617465  1
  Te  Te36  1  0.74622938  0.24295882  0.25400147  1
  Te  Te37  1  0.75390709  0.24756003  0.74469067  1
  Te  Te38  1  0.74862517  0.75086645  0.25136905  1
  Te  Te39  1  0.74499029  0.75212203  0.74928505  1
  Te  Te40  1  0.24980772  -0.00648870  -0.00449191  1
  Te  Te41  1  0.25628223  0.00039628  0.50397189  1
  Te  Te42  1  0.24534217  0.50495380  0.00418159  1
  Te  Te43  1  0.24916828  0.49984353  0.49521487  1
  Te  Te44  1  0.75030675  -0.00672716  0.00669516  1
  Te  Te45  1  0.74657516  -0.00168709  0.49642832  1
  Te  Te46  1  0.75645821  0.50584666  -0.00087229  1
  Te  Te47  1  0.74980902  0.50086784  0.49987078  1
  Te  Te48  1  -0.00164726  0.25805404  -0.00419557  1
  Te  Te49  1  -0.00535954  0.25471202  0.50196730  1
  Te  Te50  1  -0.00105054  0.74542966  0.00136639  1
  Te  Te51  1  -0.00566034  0.74577077  0.49784474  1
  Te  Te52  1  0.50186986  0.25183153  0.00679582  1
  Te  Te53  1  0.50470502  0.25129238  0.49741237  1
  Te  Te54  1  0.50117033  0.74794151  0.00098871  1
  Te  Te55  1  0.50096942  0.74870749  0.49789770  1
  Te  Te56  1  -0.00327460  -0.00546708  0.25092589  1
  Te  Te57  1  0.00554155  0.00502827  0.74916736  1
  Te  Te58  1  0.00485694  0.50246890  0.25209401  1
  Te  Te59  1  0.00203171  0.49637386  0.74766406  1
  Te  Te60  1  0.50135916  -0.00243481  0.25414805  1
  Te  Te61  1  0.49671469  -0.00310123  0.74483211  1
  Te  Te62  1  0.49603482  0.50256518  0.25373553  1
  Te  Te63  1  0.49780814  0.50433147  0.74231719  1
