# generated using pymatgen
data_AgSbTe2
_symmetry_space_group_name_H-M   'P 1'
_cell_length_a   12.22988050
_cell_length_b   12.23651199
_cell_length_c   12.22245465
_cell_angle_alpha   90.00253539
_cell_angle_beta   90.00054667
_cell_angle_gamma   89.99880718
_symmetry_Int_Tables_number   1
_chemical_formula_structural   AgSbTe2
_chemical_formula_sum   'Ag16 Sb16 Te32'
_cell_volume   1829.10352814
_cell_formula_units_Z   16
loop_
 _symmetry_equiv_pos_site_id
 _symmetry_equiv_pos_as_xyz
  1  'x, y, z'
loop_
 _atom_site_type_symbol
 _atom_site_label
 _atom_site_symmetry_multiplicity
 _atom_site_fract_x
 _atom_site_fract_y
 _atom_site_fract_z
 _atom_site_occupancy
  Ag  Ag0  1  0.00287519  0.49706305  -0.00514839  1
  Ag  Ag1  1  0.75284275  -0.00193224  0.75082395  1
  Ag  Ag2  1  0.00481635  0.00293843  -0.00753199  1
  Ag  Ag3  1  0.49463708  0.24855715  0.24901657  1
  Ag  Ag4  1  0.50010904  0.75079668  0.25077809  1
  Ag  Ag5  1  0.00220333  0.75504968  0.75170042  1
  Ag  Ag6  1  0.49845068  0.75454486  0.74873878  1
  Ag  Ag7  1  0.25181575  0.00492578  0.24744774  1
  Ag  Ag8  1  0.24738809  0.48540143  0.75231438  1
  Ag  Ag9  1  0.48514615  0.24666808  0.75077933  1
  Ag  Ag10  1  0.25076347  0.24821287  0.51452677  1
  Ag  Ag11  1  0.24646948  0.01362688  0.75276732  1
  Ag  Ag12  1  0.74836767  0.75019466  0.50404801  1
  Ag  Ag13  1  0.01347573  0.24601222  0.75428534  1
  Ag  Ag14  1  0.74841691  0.50091797  0.24914059  1
  Ag  Ag15  1  0.24757919  0.24724956  -0.01404745  1
  Sb  Sb16  1  0.74915781  0.25010413  0.50272614  1
  Sb  Sb17  1  0.75111229  0.75054624  -0.00270748  1
  Sb  Sb18  1  0.74897417  -0.00063728  0.24785406  1
  Sb  Sb19  1  0.00121123  0.49922062  0.50483991  1
  Sb  Sb20  1  0.75117327  0.50114412  0.75107934  1
  Sb  Sb21  1  0.00053339  0.75123059  0.24975469  1
  Sb  Sb22  1  0.49677190  0.49796936  -0.00156286  1
  Sb  Sb23  1  0.25085091  0.75151998  0.50491185  1
  Sb  Sb24  1  0.49889091  0.00046790  0.50327951  1
  Sb  Sb25  1  0.49941465  0.49982236  0.50093885  1
  Sb  Sb26  1  0.24862542  0.75341765  -0.00339343  1
  Sb  Sb27  1  0.75236333  0.24962935  -0.00141093  1
  Sb  Sb28  1  0.00535092  0.24873859  0.24745463  1
  Sb  Sb29  1  0.25032729  0.49734377  0.24798064  1
  Sb  Sb30  1  0.00125758  0.00032883  0.50858501  1
  Sb  Sb31  1  0.49566965  0.00171114  -0.00293832  1
  Te  Te32  1  0.25318535  0.24854184  0.24956863  1
  Te  Te33  1  0.25167860  0.24905180  0.75136196  1
  Te  Te34  1  0.25546186  0.75240671  0.25175204  1
  Te  Te35  1  0.25241264  0.75194985  0.74849484  1
  Te  Te36  1  0.74234543  0.25129226  0.25117329  1
  Te  Te37  1  0.74707839  0.24685463  0.74835037  1
  Te  Te38  1  0.74606722  0.75010473  0.25344344  1
  Te  Te39  1  0.74677560  0.75122104  0.74764606  1
  Te  Te40  1  0.24655622  0.00225335  -0.00215820  1
  Te  Te41  1  0.24949322  0.00477346  0.49931966  1
  Te  Te42  1  0.24570677  0.49561060  -0.00391214  1
  Te  Te43  1  0.24898854  0.49379416  0.50533707  1
  Te  Te44  1  0.75922743  0.00056654  -0.00583238  1
  Te  Te45  1  0.75097395  -0.00532529  0.50539900  1
  Te  Te46  1  0.75737438  0.49987374  0.00466844  1
  Te  Te47  1  0.75115457  0.50484339  0.49373184  1
  Te  Te48  1  0.00188809  0.24973550  -0.00267128  1
  Te  Te49  1  0.00393593  0.25077440  0.50507774  1
  Te  Te50  1  0.00036283  0.74949925  -0.00526452  1
  Te  Te51  1  -0.00412640  0.74939476  0.50579245  1
  Te  Te52  1  0.49528160  0.25077676  -0.00130651  1
  Te  Te53  1  0.49672832  0.25011832  0.50158571  1
  Te  Te54  1  0.49992189  0.74897133  -0.00088042  1
  Te  Te55  1  0.50300530  0.74983041  0.50246149  1
  Te  Te56  1  0.00434243  -0.00090336  0.24140034  1
  Te  Te57  1  0.00275791  -0.00031444  0.75227144  1
  Te  Te58  1  -0.00288052  0.50097975  0.24288062  1
  Te  Te59  1  0.00109383  0.49986441  0.75363973  1
  Te  Te60  1  0.49661012  0.00034726  0.24762629  1
  Te  Te61  1  0.49876079  -0.00102874  0.75201881  1
  Te  Te62  1  0.50288215  0.50122758  0.24874634  1
  Te  Te63  1  0.49791399  0.50012958  0.75124679  1
