# generated using pymatgen
data_AgSbTe2
_symmetry_space_group_name_H-M   'P 1'
_cell_length_a   12.23205704
_cell_length_b   12.24253355
_cell_length_c   12.23226037
_cell_angle_alpha   90.00327009
_cell_angle_beta   89.98345237
_cell_angle_gamma   89.99946638
_symmetry_Int_Tables_number   1
_chemical_formula_structural   AgSbTe2
_chemical_formula_sum   'Ag16 Sb16 Te32'
_cell_volume   1831.79765438
_cell_formula_units_Z   16
loop_
 _symmetry_equiv_pos_site_id
 _symmetry_equiv_pos_as_xyz
  1  'x, y, z'
loop_
 _atom_site_type_symbol
 _atom_site_label
 _atom_site_symmetry_multiplicity
 _atom_site_fract_x
 _atom_site_fract_y
 _atom_site_fract_z
 _atom_site_occupancy
  Ag  Ag0  1  0.73873361  -0.00466531  0.74506113  1
  Ag  Ag1  1  0.74204690  0.75172614  0.49441310  1
  Ag  Ag2  1  0.00387243  0.50533202  0.00349241  1
  Ag  Ag3  1  0.50026053  0.50682761  0.49507788  1
  Ag  Ag4  1  0.74260032  -0.00885723  0.25466311  1
  Ag  Ag5  1  0.26175310  -0.00509723  0.74917427  1
  Ag  Ag6  1  0.25731347  0.50636353  0.24878862  1
  Ag  Ag7  1  -0.00257994  0.74573585  0.24873607  1
  Ag  Ag8  1  0.50430411  0.74501218  0.25777785  1
  Ag  Ag9  1  0.25216979  0.74559931  0.00027397  1
  Ag  Ag10  1  0.49852507  0.24594955  0.74595761  1
  Ag  Ag11  1  0.50130755  0.25539499  0.25409248  1
  Ag  Ag12  1  0.49777033  0.75406477  0.74351388  1
  Ag  Ag13  1  0.25744676  0.50507937  0.75181587  1
  Ag  Ag14  1  0.50388433  -0.00756604  0.50390090  1
  Ag  Ag15  1  0.74140181  0.50848836  0.25216589  1
  Sb  Sb16  1  0.25208491  0.25391986  0.00024021  1
  Sb  Sb17  1  0.25551201  0.25076719  0.49978947  1
  Sb  Sb18  1  0.74791789  0.25127820  0.00030475  1
  Sb  Sb19  1  0.00117652  0.74886948  0.75101384  1
  Sb  Sb20  1  0.74444050  0.24830758  0.49955886  1
  Sb  Sb21  1  0.74087132  0.50380163  0.74870114  1
  Sb  Sb22  1  -0.00036102  0.50456403  0.49819694  1
  Sb  Sb23  1  0.00121479  -0.00476715  0.00197496  1
  Sb  Sb24  1  0.25922148  -0.00612597  0.25063525  1
  Sb  Sb25  1  0.00041788  0.25127119  0.75057429  1
  Sb  Sb26  1  0.49765526  0.50255783  0.00621223  1
  Sb  Sb27  1  -0.00360074  -0.00524136  0.49854512  1
  Sb  Sb28  1  0.74763790  0.74889516  0.00475234  1
  Sb  Sb29  1  -0.00196649  0.25282847  0.24939415  1
  Sb  Sb30  1  0.25789379  0.74900553  0.50084858  1
  Sb  Sb31  1  0.49981452  -0.00242246  -0.00498015  1
  Te  Te32  1  0.25564335  0.25497241  0.24899478  1
  Te  Te33  1  0.25543356  0.25081043  0.75026341  1
  Te  Te34  1  0.25226429  0.74831207  0.24937795  1
  Te  Te35  1  0.25065710  0.74829883  0.75012404  1
  Te  Te36  1  0.74520088  0.24995498  0.24947658  1
  Te  Te37  1  0.74387204  0.24431443  0.75054911  1
  Te  Te38  1  0.74514660  0.74978800  0.24852534  1
  Te  Te39  1  0.74852785  0.75287369  0.74919504  1
  Te  Te40  1  0.24798461  -0.00625928  -0.00546848  1
  Te  Te41  1  0.25538868  0.00044850  0.50563287  1
  Te  Te42  1  0.24814430  0.50316767  0.00044548  1
  Te  Te43  1  0.25492591  0.49963493  0.49982044  1
  Te  Te44  1  0.75201694  0.00060296  0.00023005  1
  Te  Te45  1  0.74677134  -0.00309871  0.49926948  1
  Te  Te46  1  0.75753402  0.50021685  0.00469526  1
  Te  Te47  1  0.74570194  0.50425169  0.49672381  1
  Te  Te48  1  0.00014764  0.25927693  -0.00006519  1
  Te  Te49  1  -0.00063628  0.24992838  0.49983820  1
  Te  Te50  1  0.00561594  0.74564801  0.00436128  1
  Te  Te51  1  -0.01190204  0.75018466  0.49278162  1
  Te  Te52  1  0.49959982  0.25011074  0.00011805  1
  Te  Te53  1  0.50082035  0.25114018  0.49958360  1
  Te  Te54  1  0.49465035  0.74963023  -0.00180356  1
  Te  Te55  1  0.50256930  0.74961903  0.49986918  1
  Te  Te56  1  -0.00596313  -0.00277506  0.25006536  1
  Te  Te57  1  -0.00064620  0.00155890  0.75028703  1
  Te  Te58  1  0.00220621  0.50218213  0.24981309  1
  Te  Te59  1  0.00744918  0.49843093  0.75208169  1
  Te  Te60  1  0.50162338  -0.00120332  0.25365482  1
  Te  Te61  1  0.50042583  -0.00210330  0.74850850  1
  Te  Te62  1  0.49971104  0.50174065  0.25101975  1
  Te  Te63  1  0.49837449  0.50144439  0.74736441  1
