# generated using pymatgen
data_AgSbTe2
_symmetry_space_group_name_H-M   'P 1'
_cell_length_a   12.23133057
_cell_length_b   12.23637528
_cell_length_c   12.21906547
_cell_angle_alpha   90.00421727
_cell_angle_beta   89.99097769
_cell_angle_gamma   90.00028878
_symmetry_Int_Tables_number   1
_chemical_formula_structural   AgSbTe2
_chemical_formula_sum   'Ag16 Sb16 Te32'
_cell_volume   1828.79268961
_cell_formula_units_Z   16
loop_
 _symmetry_equiv_pos_site_id
 _symmetry_equiv_pos_as_xyz
  1  'x, y, z'
loop_
 _atom_site_type_symbol
 _atom_site_label
 _atom_site_symmetry_multiplicity
 _atom_site_fract_x
 _atom_site_fract_y
 _atom_site_fract_z
 _atom_site_occupancy
  Ag  Ag0  1  -0.00124553  0.25089100  0.74341503  1
  Ag  Ag1  1  0.74912355  0.49881313  0.74407745  1
  Ag  Ag2  1  0.24829267  0.24904135  0.49344024  1
  Ag  Ag3  1  0.49869974  0.50256958  0.00822336  1
  Ag  Ag4  1  0.49647103  -0.00321219  0.00749723  1
  Ag  Ag5  1  0.49648001  0.25506820  0.25142273  1
  Ag  Ag6  1  0.75150575  0.74605869  0.49334960  1
  Ag  Ag7  1  0.74260106  0.50339541  0.25439106  1
  Ag  Ag8  1  0.25434841  0.74951691  0.01464643  1
  Ag  Ag9  1  0.24825844  0.75074320  0.48587452  1
  Ag  Ag10  1  0.00313006  -0.00058218  0.49699915  1
  Ag  Ag11  1  0.48613557  0.74553913  0.24831033  1
  Ag  Ag12  1  0.25646565  0.51422534  0.25170551  1
  Ag  Ag13  1  0.75179922  0.25390885  0.49763178  1
  Ag  Ag14  1  0.25299377  -0.01454146  0.25306541  1
  Ag  Ag15  1  0.01477659  0.74943639  0.25471964  1
  Sb  Sb16  1  0.00158547  0.24986621  0.25512377  1
  Sb  Sb17  1  0.50104539  0.74801124  0.75023100  1
  Sb  Sb18  1  0.00286751  -0.00254470  0.00345485  1
  Sb  Sb19  1  0.25159615  0.49955248  0.74823467  1
  Sb  Sb20  1  0.50151023  0.50112746  0.49170636  1
  Sb  Sb21  1  0.75051987  0.00111821  0.74592705  1
  Sb  Sb22  1  0.25222895  0.25041167  0.00771717  1
  Sb  Sb23  1  0.74826005  0.25249784  0.00325861  1
  Sb  Sb24  1  -0.00114095  0.50111782  0.49879042  1
  Sb  Sb25  1  0.49690826  -0.00090802  0.49471968  1
  Sb  Sb26  1  -0.00100799  0.74944541  0.74521677  1
  Sb  Sb27  1  0.74737688  -0.00240375  0.25289806  1
  Sb  Sb28  1  0.49994308  0.25256217  0.74752534  1
  Sb  Sb29  1  0.74669558  0.74693623  0.00781425  1
  Sb  Sb30  1  0.24936982  0.00049840  0.74732147  1
  Sb  Sb31  1  0.00211511  0.50155379  0.00289292  1
  Te  Te32  1  0.25136285  0.25164595  0.25423412  1
  Te  Te33  1  0.24800002  0.25160651  0.73978378  1
  Te  Te34  1  0.25157882  0.74845604  0.25219928  1
  Te  Te35  1  0.24896765  0.74843710  0.74645813  1
  Te  Te36  1  0.74905323  0.25353826  0.25471879  1
  Te  Te37  1  0.75127829  0.25342256  0.74392016  1
  Te  Te38  1  0.74815194  0.74734159  0.25390728  1
  Te  Te39  1  0.75111616  0.74460512  0.74105842  1
  Te  Te40  1  0.25311646  -0.00234229  0.00364582  1
  Te  Te41  1  0.24799176  -0.00106651  0.49729746  1
  Te  Te42  1  0.25332102  0.50230567  0.00267388  1
  Te  Te43  1  0.25094349  0.50112637  0.49689072  1
  Te  Te44  1  0.74390831  0.00000760  -0.00113568  1
  Te  Te45  1  0.75371970  0.00042043  0.50004142  1
  Te  Te46  1  0.74600292  0.50016158  0.00428610  1
  Te  Te47  1  0.74915633  0.49991708  0.49696594  1
  Te  Te48  1  -0.00017937  0.24827947  -0.01003526  1
  Te  Te49  1  -0.00017606  0.24667719  0.50085716  1
  Te  Te50  1  0.00611831  0.75196085  0.00510951  1
  Te  Te51  1  0.00131358  0.75297698  0.49688200  1
  Te  Te52  1  0.49988377  0.25121865  0.00541389  1
  Te  Te53  1  0.50003283  0.24822097  0.49526413  1
  Te  Te54  1  0.49757293  0.74884249  0.00238191  1
  Te  Te55  1  0.49903259  0.75156497  0.49660621  1
  Te  Te56  1  0.00381535  -0.00248684  0.25359188  1
  Te  Te57  1  -0.00052458  0.00439860  0.74499317  1
  Te  Te58  1  0.00028598  0.50356523  0.24816135  1
  Te  Te59  1  -0.00600431  0.49572702  0.75196524  1
  Te  Te60  1  0.49745740  -0.00076288  0.24778319  1
  Te  Te61  1  0.49974929  0.00053462  0.76196969  1
  Te  Te62  1  0.49939666  0.50083471  0.24886713  1
  Te  Te63  1  0.50484726  0.49915109  0.76164132  1
