# generated using pymatgen
data_AgSbTe2
_symmetry_space_group_name_H-M   'P 1'
_cell_length_a   12.25077042
_cell_length_b   12.26153202
_cell_length_c   12.26873112
_cell_angle_alpha   89.99823252
_cell_angle_beta   90.00272945
_cell_angle_gamma   89.99471616
_symmetry_Int_Tables_number   1
_chemical_formula_structural   AgSbTe2
_chemical_formula_sum   'Ag16 Sb16 Te32'
_cell_volume   1842.92551998
_cell_formula_units_Z   16
loop_
 _symmetry_equiv_pos_site_id
 _symmetry_equiv_pos_as_xyz
  1  'x, y, z'
loop_
 _atom_site_type_symbol
 _atom_site_label
 _atom_site_symmetry_multiplicity
 _atom_site_fract_x
 _atom_site_fract_y
 _atom_site_fract_z
 _atom_site_occupancy
  Ag  Ag0  1  0.24629493  0.00322031  0.25095637  1
  Ag  Ag1  1  0.00779700  0.24428060  0.24655382  1
  Ag  Ag2  1  0.48943968  0.00048428  0.50437807  1
  Ag  Ag3  1  0.00885178  0.75568963  0.74757761  1
  Ag  Ag4  1  0.24937349  0.00857352  0.74896299  1
  Ag  Ag5  1  0.48742068  0.24373097  0.74480717  1
  Ag  Ag6  1  0.00707551  0.00877220  -0.00109894  1
  Ag  Ag7  1  0.24180686  0.24155898  -0.00719509  1
  Ag  Ag8  1  0.24884249  0.24500632  0.50714536  1
  Ag  Ag9  1  0.00728245  0.75541341  0.25225007  1
  Ag  Ag10  1  0.49273770  0.75459986  0.25697658  1
  Ag  Ag11  1  0.49155220  0.75622713  0.74258410  1
  Ag  Ag12  1  0.49368290  0.49925721  0.50261781  1
  Ag  Ag13  1  0.01270195  0.24349383  0.75341975  1
  Ag  Ag14  1  0.75820681  0.24545680  -0.00227358  1
  Ag  Ag15  1  0.00680135  0.49581683  0.50097349  1
  Sb  Sb16  1  0.75224213  0.00246996  0.75071612  1
  Sb  Sb17  1  0.49219214  0.00236726  -0.00315180  1
  Sb  Sb18  1  0.75257497  0.24902677  0.50137316  1
  Sb  Sb19  1  0.74945677  0.49771533  0.25036648  1
  Sb  Sb20  1  0.25145468  0.75733637  0.50123377  1
  Sb  Sb21  1  0.75532570  0.00275979  0.24933999  1
  Sb  Sb22  1  0.75018329  0.75167200  0.50015618  1
  Sb  Sb23  1  0.01053816  0.00397568  0.50069395  1
  Sb  Sb24  1  0.24990903  0.49680592  0.25321350  1
  Sb  Sb25  1  0.49721795  0.49803060  -0.00276198  1
  Sb  Sb26  1  0.25024604  0.48889952  0.74581721  1
  Sb  Sb27  1  0.75387659  0.75604839  -0.00003288  1
  Sb  Sb28  1  0.24710913  0.75930247  -0.00187956  1
  Sb  Sb29  1  0.00180013  0.49077974  -0.00204292  1
  Sb  Sb30  1  0.75003159  0.49825840  0.75007365  1
  Sb  Sb31  1  0.49035767  0.24394585  0.25743287  1
  Te  Te32  1  0.24659775  0.24355014  0.25209189  1
  Te  Te33  1  0.24864956  0.24600581  0.74727342  1
  Te  Te34  1  0.24618898  0.75935270  0.24942583  1
  Te  Te35  1  0.24906392  0.76161506  0.75116989  1
  Te  Te36  1  0.76206428  0.24830308  0.24256608  1
  Te  Te37  1  0.75137779  0.24793222  0.75505669  1
  Te  Te38  1  0.75324341  0.75133879  0.24705647  1
  Te  Te39  1  0.75016577  0.75158232  0.75261734  1
  Te  Te40  1  0.24359528  0.00744371  -0.00080077  1
  Te  Te41  1  0.25549521  0.00654396  0.50123844  1
  Te  Te42  1  0.25015785  0.48044251  0.00263273  1
  Te  Te43  1  0.25063567  0.48536128  0.49932806  1
  Te  Te44  1  0.76425882  0.00948288  0.00030458  1
  Te  Te45  1  0.72704648  0.00197788  0.49939103  1
  Te  Te46  1  0.74964143  0.48393941  0.00019345  1
  Te  Te47  1  0.74770994  0.49801746  0.49992062  1
  Te  Te48  1  0.00523263  0.24968335  -0.00254232  1
  Te  Te49  1  -0.00002852  0.24998242  0.50221365  1
  Te  Te50  1  -0.00072579  0.75436999  -0.00054505  1
  Te  Te51  1  0.00201101  0.74660759  0.50086323  1
  Te  Te52  1  0.49699678  0.25014999  -0.00685439  1
  Te  Te53  1  0.50048250  0.25210738  0.50185051  1
  Te  Te54  1  0.50101650  0.74925567  -0.00283196  1
  Te  Te55  1  0.49806051  0.74745582  0.50387261  1
  Te  Te56  1  0.00474877  -0.00143547  0.25419157  1
  Te  Te57  1  0.00437941  0.00019845  0.74656920  1
  Te  Te58  1  0.00136700  0.50425840  0.25760169  1
  Te  Te59  1  0.00142450  0.50354090  0.74337892  1
  Te  Te60  1  0.49255500  -0.00435795  0.25011221  1
  Te  Te61  1  0.49470365  -0.00088290  0.75114657  1
  Te  Te62  1  0.49898695  0.51151530  0.26067783  1
  Te  Te63  1  0.49851322  0.50368594  0.74164669  1
