# generated using pymatgen
data_AgSbTe2
_symmetry_space_group_name_H-M   'P 1'
_cell_length_a   12.21633041
_cell_length_b   12.21926508
_cell_length_c   12.21964406
_cell_angle_alpha   89.99234921
_cell_angle_beta   89.99344217
_cell_angle_gamma   89.99953592
_symmetry_Int_Tables_number   1
_chemical_formula_structural   AgSbTe2
_chemical_formula_sum   'Ag16 Sb16 Te32'
_cell_volume   1824.08220105
_cell_formula_units_Z   16
loop_
 _symmetry_equiv_pos_site_id
 _symmetry_equiv_pos_as_xyz
  1  'x, y, z'
loop_
 _atom_site_type_symbol
 _atom_site_label
 _atom_site_symmetry_multiplicity
 _atom_site_fract_x
 _atom_site_fract_y
 _atom_site_fract_z
 _atom_site_occupancy
  Ag  Ag0  1  0.49715771  0.24916038  0.25072917  1
  Ag  Ag1  1  0.74893446  0.50138301  0.24810077  1
  Ag  Ag2  1  0.75571976  -0.00473009  0.75169299  1
  Ag  Ag3  1  0.75831824  0.75183359  -0.00241599  1
  Ag  Ag4  1  0.49633352  0.50097479  0.49897824  1
  Ag  Ag5  1  0.49205039  -0.00115441  0.50037023  1
  Ag  Ag6  1  0.24965738  -0.00128712  0.24966042  1
  Ag  Ag7  1  0.00784147  -0.00487017  0.50618313  1
  Ag  Ag8  1  0.24764692  0.50659696  0.75251733  1
  Ag  Ag9  1  0.24875513  0.75657172  0.50554272  1
  Ag  Ag10  1  0.24417221  -0.00709198  0.75025764  1
  Ag  Ag11  1  0.00397551  0.50743487  -0.00257134  1
  Ag  Ag12  1  0.00609814  0.75567667  0.75570234  1
  Ag  Ag13  1  0.24195273  0.75421851  -0.00669208  1
  Ag  Ag14  1  0.00669722  -0.00729217  -0.00595056  1
  Ag  Ag15  1  0.24830209  0.24578248  -0.00032648  1
  Sb  Sb16  1  0.75215868  0.50568519  0.75207374  1
  Sb  Sb17  1  0.75157552  0.24844626  0.00128725  1
  Sb  Sb18  1  0.00123456  0.75064943  0.24234647  1
  Sb  Sb19  1  0.49163629  -0.00015963  -0.00039693  1
  Sb  Sb20  1  0.00304690  0.24234796  0.75162077  1
  Sb  Sb21  1  0.00430793  0.50589107  0.50263654  1
  Sb  Sb22  1  0.75228319  0.75189225  0.50329280  1
  Sb  Sb23  1  0.49645957  0.24836486  0.74999844  1
  Sb  Sb24  1  0.74824593  0.24931603  0.49913064  1
  Sb  Sb25  1  0.00354970  0.24869394  0.24741545  1
  Sb  Sb26  1  0.49848533  0.75110482  0.25135949  1
  Sb  Sb27  1  0.49657162  0.50029117  0.00055543  1
  Sb  Sb28  1  0.49107280  0.75111813  0.74897230  1
  Sb  Sb29  1  0.75004366  -0.00124838  0.24792638  1
  Sb  Sb30  1  0.25080975  0.50094430  0.24900355  1
  Sb  Sb31  1  0.25220295  0.24253280  0.49983650  1
  Te  Te32  1  0.25371624  0.24622219  0.24488527  1
  Te  Te33  1  0.25049145  0.25042356  0.75646467  1
  Te  Te34  1  0.25024452  0.75493128  0.25057788  1
  Te  Te35  1  0.24799949  0.75186980  0.75117388  1
  Te  Te36  1  0.74291773  0.25484477  0.24875129  1
  Te  Te37  1  0.74874273  0.24136048  0.75094399  1
  Te  Te38  1  0.74953201  0.74528445  0.24322783  1
  Te  Te39  1  0.75674124  0.75442968  0.75453954  1
  Te  Te40  1  0.24986948  -0.00316441  -0.00121260  1
  Te  Te41  1  0.25017878  -0.00067398  0.50113769  1
  Te  Te42  1  0.24762392  0.50308222  -0.00178269  1
  Te  Te43  1  0.25132934  0.50355989  0.50160938  1
  Te  Te44  1  0.75408385  -0.00308001  -0.00171763  1
  Te  Te45  1  0.74977119  -0.00143295  0.50246477  1
  Te  Te46  1  0.75318146  0.50240391  0.00064147  1
  Te  Te47  1  0.74628914  0.50089673  0.49718018  1
  Te  Te48  1  0.00501071  0.24964157  0.00034922  1
  Te  Te49  1  -0.00013641  0.24171129  0.49937123  1
  Te  Te50  1  0.00287719  0.75155315  -0.00192009  1
  Te  Te51  1  0.00414421  0.75450154  0.50617720  1
  Te  Te52  1  0.49429337  0.25056917  0.00614057  1
  Te  Te53  1  0.49905037  0.24975206  0.49481963  1
  Te  Te54  1  0.49979538  0.74948413  0.00000969  1
  Te  Te55  1  0.49540703  0.75099526  0.50007197  1
  Te  Te56  1  0.00305053  0.00080076  0.24941104  1
  Te  Te57  1  0.00334846  -0.00202343  0.75174091  1
  Te  Te58  1  -0.00471108  0.49867589  0.24645771  1
  Te  Te59  1  0.00347639  0.50480448  0.75289391  1
  Te  Te60  1  0.49766273  0.00332941  0.25488705  1
  Te  Te61  1  0.49856911  0.00088423  0.74431763  1
  Te  Te62  1  0.50214561  0.49650368  0.25401680  1
  Te  Te63  1  0.49600655  0.49878199  0.74353326  1
