# generated using pymatgen
data_AgSbTe2
_symmetry_space_group_name_H-M   'P 1'
_cell_length_a   12.30443537
_cell_length_b   12.32657233
_cell_length_c   12.28832176
_cell_angle_alpha   89.99599908
_cell_angle_beta   89.99170309
_cell_angle_gamma   89.99534127
_symmetry_Int_Tables_number   1
_chemical_formula_structural   AgSbTe2
_chemical_formula_sum   'Ag16 Sb16 Te32'
_cell_volume   1863.78831776
_cell_formula_units_Z   16
loop_
 _symmetry_equiv_pos_site_id
 _symmetry_equiv_pos_as_xyz
  1  'x, y, z'
loop_
 _atom_site_type_symbol
 _atom_site_label
 _atom_site_symmetry_multiplicity
 _atom_site_fract_x
 _atom_site_fract_y
 _atom_site_fract_z
 _atom_site_occupancy
  Ag  Ag0  1  0.25781515  0.50087214  0.25848602  1
  Ag  Ag1  1  0.73906126  0.50360960  0.24814714  1
  Ag  Ag2  1  0.25116082  0.26191636  0.01105728  1
  Ag  Ag3  1  0.48580285  0.49325115  0.48978601  1
  Ag  Ag4  1  0.49650485  0.74018343  0.25410372  1
  Ag  Ag5  1  0.00251599  -0.00598372  0.00685663  1
  Ag  Ag6  1  0.49502832  0.00743286  0.49111171  1
  Ag  Ag7  1  0.75088245  0.74611386  0.01112779  1
  Ag  Ag8  1  0.49384946  0.26068978  0.25585397  1
  Ag  Ag9  1  0.74074806  -0.00693285  0.24737141  1
  Ag  Ag10  1  0.25743155  0.73270643  0.48300732  1
  Ag  Ag11  1  0.01484415  0.49959274  0.48592233  1
  Ag  Ag12  1  0.00812527  0.50345563  0.01277436  1
  Ag  Ag13  1  0.24856433  0.74003414  0.01094303  1
  Ag  Ag14  1  0.49549909  0.25222336  0.73986930  1
  Ag  Ag15  1  0.26007727  0.26407465  0.48821706  1
  Sb  Sb16  1  0.00502899  0.25136724  0.75021850  1
  Sb  Sb17  1  0.49906603  0.00060344  0.00488704  1
  Sb  Sb18  1  0.25190315  0.00035733  0.75138290  1
  Sb  Sb19  1  0.74830720  0.50032657  0.75543334  1
  Sb  Sb20  1  0.74603616  -0.00009541  0.75272424  1
  Sb  Sb21  1  0.74368015  0.74506380  0.48966712  1
  Sb  Sb22  1  0.25081016  0.50052315  0.74638348  1
  Sb  Sb23  1  0.75003398  0.25307016  0.00637094  1
  Sb  Sb24  1  0.00086928  0.74929712  0.75202615  1
  Sb  Sb25  1  0.00279981  0.00024527  0.49476961  1
  Sb  Sb26  1  0.74032080  0.25299500  0.49595765  1
  Sb  Sb27  1  0.00769727  0.25221577  0.24978086  1
  Sb  Sb28  1  0.49951258  0.74819174  0.74647627  1
  Sb  Sb29  1  0.25536422  -0.00114212  0.24987797  1
  Sb  Sb30  1  0.49218141  0.49962814  0.00662424  1
  Sb  Sb31  1  0.00453305  0.74814303  0.24993584  1
  Te  Te32  1  0.25275190  0.24879384  0.24897729  1
  Te  Te33  1  0.25378858  0.25007903  0.75393433  1
  Te  Te34  1  0.25308509  0.75086356  0.25019544  1
  Te  Te35  1  0.24939077  0.74995866  0.75938599  1
  Te  Te36  1  0.73870545  0.25758565  0.25116398  1
  Te  Te37  1  0.73802738  0.24986433  0.74888996  1
  Te  Te38  1  0.74487350  0.74463938  0.24733101  1
  Te  Te39  1  0.75151518  0.75029173  0.77176370  1
  Te  Te40  1  0.24766237  -0.00326582  0.00052866  1
  Te  Te41  1  0.24981581  -0.00025525  0.50025341  1
  Te  Te42  1  0.24986820  0.50063723  0.00029209  1
  Te  Te43  1  0.24753840  0.50160216  0.49998105  1
  Te  Te44  1  0.74986106  0.00076752  0.00405269  1
  Te  Te45  1  0.75282959  -0.00099493  0.49522379  1
  Te  Te46  1  0.75512014  0.50015046  0.00433935  1
  Te  Te47  1  0.75915351  0.50146697  0.49324479  1
  Te  Te48  1  0.00744164  0.25700709  -0.00015250  1
  Te  Te49  1  0.01313368  0.25104069  0.50165105  1
  Te  Te50  1  0.00939864  0.74558806  0.00028183  1
  Te  Te51  1  0.00985063  0.74893263  0.50041872  1
  Te  Te52  1  0.49341047  0.25099769  0.00592615  1
  Te  Te53  1  0.49796818  0.25109511  0.49318328  1
  Te  Te54  1  0.49202855  0.74881019  -0.00073922  1
  Te  Te55  1  0.49857481  0.74829639  0.49771992  1
  Te  Te56  1  -0.01318289  0.00215324  0.24405879  1
  Te  Te57  1  -0.00147273  0.00057687  0.76239953  1
  Te  Te58  1  0.00490623  0.49950584  0.25083834  1
  Te  Te59  1  -0.00169316  0.49938190  0.74883067  1
  Te  Te60  1  0.50230935  -0.00395958  0.25265916  1
  Te  Te61  1  0.50020000  0.00318402  0.73451415  1
  Te  Te62  1  0.49534596  0.50351621  0.25008018  1
  Te  Te63  1  0.50173856  0.49765931  0.73162120  1
