# generated using pymatgen
data_AgSbTe2
_symmetry_space_group_name_H-M   'P 1'
_cell_length_a   12.23572260
_cell_length_b   12.22320955
_cell_length_c   12.21719022
_cell_angle_alpha   89.99510206
_cell_angle_beta   90.00333477
_cell_angle_gamma   89.99760629
_symmetry_Int_Tables_number   1
_chemical_formula_structural   AgSbTe2
_chemical_formula_sum   'Ag16 Sb16 Te32'
_cell_volume   1827.20053024
_cell_formula_units_Z   16
loop_
 _symmetry_equiv_pos_site_id
 _symmetry_equiv_pos_as_xyz
  1  'x, y, z'
loop_
 _atom_site_type_symbol
 _atom_site_label
 _atom_site_symmetry_multiplicity
 _atom_site_fract_x
 _atom_site_fract_y
 _atom_site_fract_z
 _atom_site_occupancy
  Ag  Ag0  1  0.75289945  0.25524141  0.49483131  1
  Ag  Ag1  1  -0.00067729  0.74794738  0.76063590  1
  Ag  Ag2  1  0.50175728  0.25142338  0.75446327  1
  Ag  Ag3  1  0.50330049  0.50275184  0.00521768  1
  Ag  Ag4  1  0.75267704  0.74782638  0.00581875  1
  Ag  Ag5  1  0.24706187  0.74780463  0.00527923  1
  Ag  Ag6  1  0.24505353  0.50157810  0.24813593  1
  Ag  Ag7  1  0.50077541  0.74480838  0.24132925  1
  Ag  Ag8  1  0.75446374  0.49904926  0.24598819  1
  Ag  Ag9  1  -0.00068605  0.49681758  0.49178356  1
  Ag  Ag10  1  -0.00078103  0.74294387  0.24223633  1
  Ag  Ag11  1  -0.00211817  -0.00604504  0.00278344  1
  Ag  Ag12  1  0.24706689  0.25505140  0.49614831  1
  Ag  Ag13  1  0.74952843  0.25299157  0.00485964  1
  Ag  Ag14  1  -0.00336693  0.25816187  0.24971976  1
  Ag  Ag15  1  0.50248550  -0.00211693  0.00162682  1
  Sb  Sb16  1  0.50082430  0.74927290  0.75987554  1
  Sb  Sb17  1  0.75111184  0.49972759  0.75514685  1
  Sb  Sb18  1  -0.00092948  0.25151501  0.75184193  1
  Sb  Sb19  1  -0.00066591  0.00222240  0.49746274  1
  Sb  Sb20  1  0.75028922  0.00019427  0.75444836  1
  Sb  Sb21  1  0.50090843  0.00263738  0.49784238  1
  Sb  Sb22  1  -0.00331227  0.50572871  0.00809863  1
  Sb  Sb23  1  0.24728171  0.74529735  0.49486267  1
  Sb  Sb24  1  0.75278164  0.74499426  0.49321780  1
  Sb  Sb25  1  0.24847900  0.50040497  0.75385252  1
  Sb  Sb26  1  0.24959799  0.00006222  0.75271988  1
  Sb  Sb27  1  0.50297889  0.25379673  0.24561117  1
  Sb  Sb28  1  0.50088608  0.49779739  0.49578220  1
  Sb  Sb29  1  0.24965532  -0.00118612  0.24730473  1
  Sb  Sb30  1  0.24956946  0.25277350  0.00325370  1
  Sb  Sb31  1  0.75047148  0.00077707  0.24538124  1
  Te  Te32  1  0.24697152  0.25505599  0.25206237  1
  Te  Te33  1  0.25368305  0.25078202  0.74522348  1
  Te  Te34  1  0.24802013  0.74583344  0.24764581  1
  Te  Te35  1  0.24607845  0.74961524  0.75432893  1
  Te  Te36  1  0.75161987  0.25396600  0.24623162  1
  Te  Te37  1  0.74670670  0.25078930  0.75331457  1
  Te  Te38  1  0.75202573  0.74568327  0.24759558  1
  Te  Te39  1  0.75381927  0.74942641  0.75486629  1
  Te  Te40  1  0.24953206  -0.00537871  0.00098117  1
  Te  Te41  1  0.25063182  0.01005965  0.49995223  1
  Te  Te42  1  0.25526699  0.50391908  0.00489464  1
  Te  Te43  1  0.24797388  0.49604377  0.49396056  1
  Te  Te44  1  0.75008285  0.00015254  0.00084727  1
  Te  Te45  1  0.74945244  0.01138220  0.50076418  1
  Te  Te46  1  0.74789861  0.49892772  0.00414811  1
  Te  Te47  1  0.75196391  0.49532427  0.49392947  1
  Te  Te48  1  -0.00217149  0.24682398  0.00081323  1
  Te  Te49  1  -0.00202678  0.25101925  0.49960340  1
  Te  Te50  1  -0.00191894  0.74841315  0.00293054  1
  Te  Te51  1  -0.00040883  0.74811028  0.49600758  1
  Te  Te52  1  0.50068663  0.24905866  -0.00047722  1
  Te  Te53  1  0.50196516  0.24862098  0.50343951  1
  Te  Te54  1  0.50225910  0.75006154  0.00125912  1
  Te  Te55  1  0.50015344  0.75199288  0.49445189  1
  Te  Te56  1  0.00018382  -0.00057851  0.24525736  1
  Te  Te57  1  0.00029720  -0.00630176  0.75627886  1
  Te  Te58  1  -0.00047624  0.49881813  0.25043280  1
  Te  Te59  1  0.00019418  0.50459450  0.73913043  1
  Te  Te60  1  0.49972773  -0.00780514  0.24318004  1
  Te  Te61  1  0.49985326  0.00390749  0.75695131  1
  Te  Te62  1  0.50070456  0.50307067  0.24627387  1
  Te  Te63  1  0.49988203  0.49636097  0.75616132  1
