# generated using pymatgen
data_AgSbTe2
_symmetry_space_group_name_H-M   'P 1'
_cell_length_a   12.27073180
_cell_length_b   12.26034446
_cell_length_c   12.24105144
_cell_angle_alpha   89.99918497
_cell_angle_beta   89.99760181
_cell_angle_gamma   89.99874172
_symmetry_Int_Tables_number   1
_chemical_formula_structural   AgSbTe2
_chemical_formula_sum   'Ag16 Sb16 Te32'
_cell_volume   1841.58537909
_cell_formula_units_Z   16
loop_
 _symmetry_equiv_pos_site_id
 _symmetry_equiv_pos_as_xyz
  1  'x, y, z'
loop_
 _atom_site_type_symbol
 _atom_site_label
 _atom_site_symmetry_multiplicity
 _atom_site_fract_x
 _atom_site_fract_y
 _atom_site_fract_z
 _atom_site_occupancy
  Ag  Ag0  1  0.25151241  -0.00449069  0.74101532  1
  Ag  Ag1  1  0.48585146  0.49532196  0.50397935  1
  Ag  Ag2  1  0.49157516  0.74277570  0.74407321  1
  Ag  Ag3  1  0.01011721  0.74593256  0.74303382  1
  Ag  Ag4  1  0.00548746  0.25281862  0.25970994  1
  Ag  Ag5  1  0.49540053  0.25491048  0.25871992  1
  Ag  Ag6  1  0.01448215  0.49477831  0.50328240  1
  Ag  Ag7  1  0.74882317  0.25519771  0.50004080  1
  Ag  Ag8  1  0.49681306  0.49931110  -0.00814303  1
  Ag  Ag9  1  0.01148884  0.00669502  0.50302478  1
  Ag  Ag10  1  0.74376450  0.50070599  0.74263405  1
  Ag  Ag11  1  0.48877224  0.00700541  0.50398530  1
  Ag  Ag12  1  0.25104006  0.26412496  0.49908299  1
  Ag  Ag13  1  0.25104979  0.73643861  0.50601478  1
  Ag  Ag14  1  0.25418094  0.50455937  0.73671698  1
  Ag  Ag15  1  0.25231894  0.49556728  0.26534282  1
  Sb  Sb16  1  0.00257460  0.25218593  0.74145243  1
  Sb  Sb17  1  0.49712209  0.00152890  -0.00361362  1
  Sb  Sb18  1  0.00543636  0.74897212  0.25826974  1
  Sb  Sb19  1  0.00306637  0.00135671  -0.00326107  1
  Sb  Sb20  1  0.74967611  0.00345711  0.25722417  1
  Sb  Sb21  1  0.25110653  0.25241653  -0.00022753  1
  Sb  Sb22  1  0.00303082  0.49937405  -0.00348919  1
  Sb  Sb23  1  0.25125091  0.74664829  -0.00892645  1
  Sb  Sb24  1  0.49777609  0.25675907  0.74153477  1
  Sb  Sb25  1  0.74734000  0.25486543  -0.00149782  1
  Sb  Sb26  1  0.49510673  0.74657530  0.25642805  1
  Sb  Sb27  1  0.74782807  0.74515146  -0.00524753  1
  Sb  Sb28  1  0.74937150  -0.00001038  0.74353625  1
  Sb  Sb29  1  0.25083154  0.00504887  0.26238704  1
  Sb  Sb30  1  0.74957419  0.74529809  0.50281870  1
  Sb  Sb31  1  0.74828174  0.49668867  0.25690489  1
  Te  Te32  1  0.25092054  0.25262577  0.25212051  1
  Te  Te33  1  0.24932953  0.25086285  0.74749737  1
  Te  Te34  1  0.24957791  0.74304103  0.25679458  1
  Te  Te35  1  0.25084203  0.74726864  0.74679560  1
  Te  Te36  1  0.74917223  0.25054913  0.25521829  1
  Te  Te37  1  0.75150369  0.25546741  0.74563138  1
  Te  Te38  1  0.75150123  0.75090047  0.24721512  1
  Te  Te39  1  0.74862421  0.74502024  0.74943220  1
  Te  Te40  1  0.24971195  -0.00077286  -0.01325656  1
  Te  Te41  1  0.25054831  0.00077201  0.50127641  1
  Te  Te42  1  0.25496441  0.49970429  -0.00124233  1
  Te  Te43  1  0.24870530  0.49814868  0.50008102  1
  Te  Te44  1  0.75078955  0.00066747  0.00011837  1
  Te  Te45  1  0.74939134  0.00807263  0.50031046  1
  Te  Te46  1  0.74380675  0.49923496  -0.00936247  1
  Te  Te47  1  0.75081108  0.49603823  0.50351288  1
  Te  Te48  1  -0.00138543  0.24896891  0.01495835  1
  Te  Te49  1  0.00367080  0.25142421  0.50031872  1
  Te  Te50  1  -0.00079249  0.75138661  -0.00877007  1
  Te  Te51  1  -0.00066171  0.74841790  0.50381940  1
  Te  Te52  1  0.50139289  0.25323676  0.01202596  1
  Te  Te53  1  0.49642039  0.25027365  0.50078246  1
  Te  Te54  1  0.49924576  0.74630614  -0.00591467  1
  Te  Te55  1  0.49974172  0.74937002  0.50268153  1
  Te  Te56  1  0.00051124  0.00176877  0.25391694  1
  Te  Te57  1  0.00064497  -0.00222967  0.74551974  1
  Te  Te58  1  0.00106282  0.49833284  0.25025634  1
  Te  Te59  1  0.00478811  0.50081580  0.74939213  1
  Te  Te60  1  0.49936521  0.00267998  0.25269312  1
  Te  Te61  1  0.49843547  -0.00430204  0.74703230  1
  Te  Te62  1  0.49881036  0.49923291  0.25622221  1
  Te  Te63  1  0.49649827  0.49874774  0.74611644  1
