# generated using pymatgen
data_AgSbTe2
_symmetry_space_group_name_H-M   'P 1'
_cell_length_a   12.22115172
_cell_length_b   12.25752356
_cell_length_c   12.25250702
_cell_angle_alpha   89.99942866
_cell_angle_beta   90.00736700
_cell_angle_gamma   90.00055253
_symmetry_Int_Tables_number   1
_chemical_formula_structural   AgSbTe2
_chemical_formula_sum   'Ag16 Sb16 Te32'
_cell_volume   1835.43846420
_cell_formula_units_Z   16
loop_
 _symmetry_equiv_pos_site_id
 _symmetry_equiv_pos_as_xyz
  1  'x, y, z'
loop_
 _atom_site_type_symbol
 _atom_site_label
 _atom_site_symmetry_multiplicity
 _atom_site_fract_x
 _atom_site_fract_y
 _atom_site_fract_z
 _atom_site_occupancy
  Ag  Ag0  1  0.25485802  0.74495868  0.49512015  1
  Ag  Ag1  1  0.25165105  0.25100248  0.00093631  1
  Ag  Ag2  1  0.49018470  0.25348023  0.25119105  1
  Ag  Ag3  1  0.75072848  0.74901217  0.00148881  1
  Ag  Ag4  1  0.25395643  0.50263461  0.25220819  1
  Ag  Ag5  1  0.25094746  -0.00253399  0.24759505  1
  Ag  Ag6  1  0.00815472  -0.00359546  0.00220313  1
  Ag  Ag7  1  0.00840466  0.50336031  0.00221444  1
  Ag  Ag8  1  0.25189121  0.00209811  0.75275655  1
  Ag  Ag9  1  0.25558039  0.25527785  0.49890928  1
  Ag  Ag10  1  0.48835933  0.74671000  0.25119183  1
  Ag  Ag11  1  0.01252259  0.74895996  0.24543221  1
  Ag  Ag12  1  0.25482386  0.49796243  0.74786778  1
  Ag  Ag13  1  0.49034939  0.25347386  0.74923398  1
  Ag  Ag14  1  0.49115534  0.74664713  0.74997055  1
  Ag  Ag15  1  0.49177387  0.50100264  0.49932184  1
  Sb  Sb16  1  0.01043880  0.50224155  0.49909861  1
  Sb  Sb17  1  0.74939235  0.25142104  -0.00016817  1
  Sb  Sb18  1  0.01098617  0.25055915  0.75164556  1
  Sb  Sb19  1  0.74776511  -0.00262585  0.75461375  1
  Sb  Sb20  1  0.01102854  0.25110538  0.24781611  1
  Sb  Sb21  1  0.74556531  0.74806392  0.49907138  1
  Sb  Sb22  1  0.49519475  -0.00111985  0.49967237  1
  Sb  Sb23  1  0.00893540  -0.00172652  0.49783918  1
  Sb  Sb24  1  0.00966252  0.74929877  0.75321399  1
  Sb  Sb25  1  0.74660725  0.50152423  0.24792320  1
  Sb  Sb26  1  0.74499154  0.50198506  0.75339623  1
  Sb  Sb27  1  0.74210255  0.25218518  0.49996796  1
  Sb  Sb28  1  0.74902902  -0.00254211  0.24672563  1
  Sb  Sb29  1  0.24996797  0.74891246  0.00499474  1
  Sb  Sb30  1  0.49284144  -0.00079495  0.00051324  1
  Sb  Sb31  1  0.49287815  0.50062111  0.00052576  1
  Te  Te32  1  0.25196990  0.25038369  0.24925643  1
  Te  Te33  1  0.25222988  0.25047158  0.75053753  1
  Te  Te34  1  0.25183072  0.74946557  0.25008681  1
  Te  Te35  1  0.25289507  0.74960394  0.74726514  1
  Te  Te36  1  0.73619265  0.24917066  0.25074596  1
  Te  Te37  1  0.73668125  0.24923536  0.74919522  1
  Te  Te38  1  0.74668195  0.75099286  0.24722727  1
  Te  Te39  1  0.74087443  0.75072386  0.75225809  1
  Te  Te40  1  0.24753215  0.00376573  0.00077860  1
  Te  Te41  1  0.24968951  -0.00044634  0.49950414  1
  Te  Te42  1  0.24709324  0.49658652  0.00107681  1
  Te  Te43  1  0.25297012  0.50088955  0.49903628  1
  Te  Te44  1  0.76156417  -0.00435518  0.00003703  1
  Te  Te45  1  0.75474663  0.00134448  0.50083297  1
  Te  Te46  1  0.76259461  0.50402514  -0.00008003  1
  Te  Te47  1  0.74031418  0.49928453  0.50072906  1
  Te  Te48  1  0.00204727  0.25082386  0.00005870  1
  Te  Te49  1  0.00446996  0.25062005  0.50012115  1
  Te  Te50  1  -0.00171538  0.74922005  0.00234333  1
  Te  Te51  1  0.00294220  0.74872204  0.49296039  1
  Te  Te52  1  0.49656011  0.24921545  0.00049873  1
  Te  Te53  1  0.49499320  0.25227549  0.49905204  1
  Te  Te54  1  0.50528139  0.75079020  0.00099525  1
  Te  Te55  1  0.49624006  0.74813103  0.49800718  1
  Te  Te56  1  0.00493651  -0.00231015  0.24681688  1
  Te  Te57  1  0.00587822  0.00008960  0.75481990  1
  Te  Te58  1  0.00349513  0.50221739  0.24810867  1
  Te  Te59  1  0.00565797  0.49980041  0.75252370  1
  Te  Te60  1  0.49438455  -0.00284977  0.24921429  1
  Te  Te61  1  0.49437547  -0.00203085  0.75091215  1
  Te  Te62  1  0.49658485  0.50254593  0.24928422  1
  Te  Te63  1  0.49527967  0.50203773  0.75130540  1
