# generated using pymatgen
data_AgSbTe2
_symmetry_space_group_name_H-M   'P 1'
_cell_length_a   12.23315518
_cell_length_b   12.22614814
_cell_length_c   12.22951012
_cell_angle_alpha   90.00421420
_cell_angle_beta   89.99798014
_cell_angle_gamma   89.99806315
_symmetry_Int_Tables_number   1
_chemical_formula_structural   AgSbTe2
_chemical_formula_sum   'Ag16 Sb16 Te32'
_cell_volume   1829.09893756
_cell_formula_units_Z   16
loop_
 _symmetry_equiv_pos_site_id
 _symmetry_equiv_pos_as_xyz
  1  'x, y, z'
loop_
 _atom_site_type_symbol
 _atom_site_label
 _atom_site_symmetry_multiplicity
 _atom_site_fract_x
 _atom_site_fract_y
 _atom_site_fract_z
 _atom_site_occupancy
  Ag  Ag0  1  0.25167944  0.74661777  0.49510722  1
  Ag  Ag1  1  0.75146877  0.74529692  0.00705052  1
  Ag  Ag2  1  0.49844007  0.73652279  0.24555644  1
  Ag  Ag3  1  0.00538681  0.50662268  0.00464383  1
  Ag  Ag4  1  0.49711364  0.50205814  0.48541467  1
  Ag  Ag5  1  0.49592524  0.25328209  0.75534165  1
  Ag  Ag6  1  0.00131981  0.74502727  0.24261729  1
  Ag  Ag7  1  0.26298920  0.50640008  0.24372087  1
  Ag  Ag8  1  0.25539402  0.25730459  0.00210865  1
  Ag  Ag9  1  0.74728679  -0.00780401  0.24687280  1
  Ag  Ag10  1  0.49448290  0.50154184  0.01345797  1
  Ag  Ag11  1  0.25116996  -0.00350595  0.75286751  1
  Ag  Ag12  1  0.00497473  0.74830816  0.75796995  1
  Ag  Ag13  1  0.73605552  0.50624551  0.24579880  1
  Ag  Ag14  1  0.49770872  0.26488302  0.24604609  1
  Ag  Ag15  1  0.24759963  0.74244159  0.00498761  1
  Sb  Sb16  1  0.25106675  0.50255637  0.75841016  1
  Sb  Sb17  1  0.25186498  -0.00703397  0.24784588  1
  Sb  Sb18  1  0.00594363  0.25192725  0.75659784  1
  Sb  Sb19  1  0.00411290  0.50480706  0.49382650  1
  Sb  Sb20  1  0.74690126  0.74716025  0.49079690  1
  Sb  Sb21  1  0.00111485  -0.00994290  0.00115996  1
  Sb  Sb22  1  0.49487251  0.74710037  0.75485096  1
  Sb  Sb23  1  0.74601322  0.25313230  0.49758369  1
  Sb  Sb24  1  0.74870945  -0.00400272  0.75391097  1
  Sb  Sb25  1  0.74745869  0.50295224  0.75499293  1
  Sb  Sb26  1  0.49790407  -0.00381883  0.49744983  1
  Sb  Sb27  1  0.49913462  -0.00216560  0.00217156  1
  Sb  Sb28  1  0.00281389  0.25512149  0.24532789  1
  Sb  Sb29  1  0.74320474  0.25595989  0.00303549  1
  Sb  Sb30  1  0.00200013  -0.00448801  0.49837007  1
  Sb  Sb31  1  0.25429101  0.25461471  0.49831893  1
  Te  Te32  1  0.25374244  0.25072868  0.24695177  1
  Te  Te33  1  0.25343333  0.24610014  0.75275569  1
  Te  Te34  1  0.25107935  0.75101365  0.24643418  1
  Te  Te35  1  0.24863847  0.75195485  0.75326746  1
  Te  Te36  1  0.74519543  0.25164660  0.24843604  1
  Te  Te37  1  0.74235538  0.24741961  0.74986619  1
  Te  Te38  1  0.74893430  0.74740264  0.24848957  1
  Te  Te39  1  0.75678037  0.75211891  0.75718394  1
  Te  Te40  1  0.24981895  -0.00021925  -0.00347423  1
  Te  Te41  1  0.25016652  -0.00744886  0.50581904  1
  Te  Te42  1  0.25230333  0.50239046  0.00141540  1
  Te  Te43  1  0.25373790  0.50464171  0.49299730  1
  Te  Te44  1  0.75047732  -0.00700159  0.00557507  1
  Te  Te45  1  0.75028294  0.00017832  0.49187984  1
  Te  Te46  1  0.74803455  0.50359411  0.00362910  1
  Te  Te47  1  0.74346167  0.50068084  0.49208698  1
  Te  Te48  1  0.00844493  0.26058495  -0.00038490  1
  Te  Te49  1  -0.00002652  0.25086389  0.50178423  1
  Te  Te50  1  0.00291146  0.74673870  0.00257627  1
  Te  Te51  1  0.00692217  0.74792365  0.49950002  1
  Te  Te52  1  0.49678058  0.25325801  0.00247537  1
  Te  Te53  1  0.49858712  0.25716355  0.49694570  1
  Te  Te54  1  0.49823397  0.74738604  0.00093599  1
  Te  Te55  1  0.49591024  0.74521630  0.49829172  1
  Te  Te56  1  -0.00536454  -0.00593301  0.25014826  1
  Te  Te57  1  0.00326125  -0.00460369  0.74966909  1
  Te  Te58  1  0.00149727  0.50342813  0.24687136  1
  Te  Te59  1  -0.00077176  0.50459492  0.75526789  1
  Te  Te60  1  0.50337249  -0.00052851  0.25080311  1
  Te  Te61  1  0.49686472  0.00629470  0.74908019  1
  Te  Te62  1  0.49785810  0.50156056  0.24764882  1
  Te  Te63  1  0.50067433  0.49572860  0.75086210  1
