# generated using pymatgen
data_AgSbTe2
_symmetry_space_group_name_H-M   'P 1'
_cell_length_a   12.21818135
_cell_length_b   12.22353809
_cell_length_c   12.21590520
_cell_angle_alpha   90.00474620
_cell_angle_beta   90.00909266
_cell_angle_gamma   89.99760431
_symmetry_Int_Tables_number   1
_chemical_formula_structural   AgSbTe2
_chemical_formula_sum   'Ag16 Sb16 Te32'
_cell_volume   1824.43814192
_cell_formula_units_Z   16
loop_
 _symmetry_equiv_pos_site_id
 _symmetry_equiv_pos_as_xyz
  1  'x, y, z'
loop_
 _atom_site_type_symbol
 _atom_site_label
 _atom_site_symmetry_multiplicity
 _atom_site_fract_x
 _atom_site_fract_y
 _atom_site_fract_z
 _atom_site_occupancy
  Ag  Ag0  1  -0.00306491  -0.00199582  0.49842208  1
  Ag  Ag1  1  0.50070249  -0.00117014  0.00092943  1
  Ag  Ag2  1  0.25032679  0.50070720  0.24499102  1
  Ag  Ag3  1  0.74627346  0.24942365  0.00920770  1
  Ag  Ag4  1  0.74816892  0.00316187  0.24935977  1
  Ag  Ag5  1  0.25306021  0.24998812  0.00380476  1
  Ag  Ag6  1  0.25222701  -0.00423036  0.75247626  1
  Ag  Ag7  1  0.74906311  0.24652340  0.49058195  1
  Ag  Ag8  1  0.74630800  0.75062159  0.00454510  1
  Ag  Ag9  1  0.74939190  0.75381235  0.49549963  1
  Ag  Ag10  1  0.25140055  0.75221191  0.50027178  1
  Ag  Ag11  1  0.50577180  0.24889044  0.24565032  1
  Ag  Ag12  1  0.25397862  0.75056157  -0.00036565  1
  Ag  Ag13  1  0.74947187  0.49679383  0.24604824  1
  Ag  Ag14  1  0.49791978  0.75379222  0.75343786  1
  Ag  Ag15  1  -0.00045115  0.50058024  0.00401720  1
  Sb  Sb16  1  -0.00148246  -0.00019056  0.00169523  1
  Sb  Sb17  1  0.49925664  0.24584806  0.75483826  1
  Sb  Sb18  1  0.25045381  0.50338477  0.75491687  1
  Sb  Sb19  1  -0.00689434  0.25019691  0.24914249  1
  Sb  Sb20  1  0.74975470  0.50185115  0.75481791  1
  Sb  Sb21  1  0.50242507  -0.00192469  0.49856325  1
  Sb  Sb22  1  0.00026764  0.24779215  0.75111291  1
  Sb  Sb23  1  0.25092454  0.24842253  0.49501135  1
  Sb  Sb24  1  0.50168583  0.50119303  0.49682282  1
  Sb  Sb25  1  0.00253882  0.75235620  0.75059238  1
  Sb  Sb26  1  0.50083926  0.50114417  0.00329343  1
  Sb  Sb27  1  -0.00175746  0.50144460  0.49604686  1
  Sb  Sb28  1  0.25226011  -0.00036345  0.24760262  1
  Sb  Sb29  1  -0.00244707  0.75009975  0.24924863  1
  Sb  Sb30  1  0.74834000  -0.00212025  0.75026310  1
  Sb  Sb31  1  0.50307670  0.75232303  0.24608374  1
  Te  Te32  1  0.25592001  0.25215925  0.24684911  1
  Te  Te33  1  0.25197571  0.24590285  0.75505740  1
  Te  Te34  1  0.25254726  0.74724027  0.24880400  1
  Te  Te35  1  0.25311036  0.75218552  0.75167087  1
  Te  Te36  1  0.74787775  0.25086948  0.24781993  1
  Te  Te37  1  0.74803700  0.25045897  0.75119338  1
  Te  Te38  1  0.74746338  0.74900731  0.24932628  1
  Te  Te39  1  0.74472525  0.74988421  0.75021978  1
  Te  Te40  1  0.24910271  -0.00200425  0.00093974  1
  Te  Te41  1  0.24820110  -0.00373891  0.50016669  1
  Te  Te42  1  0.24881653  0.50123096  0.00329661  1
  Te  Te43  1  0.24675347  0.50487361  0.49425101  1
  Te  Te44  1  0.75108153  -0.00095550  0.00099970  1
  Te  Te45  1  0.75087436  -0.00256117  0.49954065  1
  Te  Te46  1  0.75104142  0.50088123  0.00395064  1
  Te  Te47  1  0.75259614  0.50216252  0.49350966  1
  Te  Te48  1  -0.00000115  0.25222269  -0.00086740  1
  Te  Te49  1  -0.00576221  0.24604484  0.50114237  1
  Te  Te50  1  -0.00065314  0.74764826  -0.00069535  1
  Te  Te51  1  -0.00206847  0.75307811  0.50060050  1
  Te  Te52  1  0.50137683  0.24625966  0.00128761  1
  Te  Te53  1  0.50556253  0.24966780  0.49646069  1
  Te  Te54  1  0.50019852  0.75353957  -0.00105980  1
  Te  Te55  1  0.50042392  0.75124036  0.50415122  1
  Te  Te56  1  -0.00817145  -0.00033918  0.25580476  1
  Te  Te57  1  0.00826350  -0.00019825  0.74332738  1
  Te  Te58  1  0.00015157  0.50000155  0.24419072  1
  Te  Te59  1  0.00026051  0.49943561  0.76009673  1
  Te  Te60  1  0.50523269  0.00524721  0.24389672  1
  Te  Te61  1  0.49477085  -0.00453973  0.75670827  1
  Te  Te62  1  0.50088684  0.49221871  0.25004645  1
  Te  Te63  1  0.49961444  0.50974695  0.74838441  1
