# generated using pymatgen
data_AgSbTe2
_symmetry_space_group_name_H-M   'P 1'
_cell_length_a   12.21787856
_cell_length_b   12.21689067
_cell_length_c   12.21773044
_cell_angle_alpha   90.00161555
_cell_angle_beta   90.00096664
_cell_angle_gamma   89.99957854
_symmetry_Int_Tables_number   1
_chemical_formula_structural   AgSbTe2
_chemical_formula_sum   'Ag16 Sb16 Te32'
_cell_volume   1823.67326054
_cell_formula_units_Z   16
loop_
 _symmetry_equiv_pos_site_id
 _symmetry_equiv_pos_as_xyz
  1  'x, y, z'
loop_
 _atom_site_type_symbol
 _atom_site_label
 _atom_site_symmetry_multiplicity
 _atom_site_fract_x
 _atom_site_fract_y
 _atom_site_fract_z
 _atom_site_occupancy
  Ag  Ag0  1  0.74766060  0.50450674  0.74549499  1
  Ag  Ag1  1  0.74362900  0.74879707  -0.00294727  1
  Ag  Ag2  1  0.00413587  0.50259529  0.50373351  1
  Ag  Ag3  1  0.49890224  -0.01401412  0.49927110  1
  Ag  Ag4  1  0.00227243  0.25418899  0.74705886  1
  Ag  Ag5  1  0.26335658  0.74394795  0.50072667  1
  Ag  Ag6  1  0.49889375  0.74863542  0.26366078  1
  Ag  Ag7  1  0.50170765  0.74672392  0.73668821  1
  Ag  Ag8  1  0.25501053  0.50074186  0.25714551  1
  Ag  Ag9  1  0.00119076  -0.00283461  0.50219686  1
  Ag  Ag10  1  0.25172437  0.50096395  0.74257305  1
  Ag  Ag11  1  0.49942734  -0.00325517  0.00062967  1
  Ag  Ag12  1  0.49639859  0.25184694  0.25219510  1
  Ag  Ag13  1  0.73630609  0.74683989  0.50239343  1
  Ag  Ag14  1  0.49564575  0.51298247  0.50077145  1
  Ag  Ag15  1  0.25334145  0.25189449  -0.00061601  1
  Sb  Sb16  1  0.25385874  -0.00045386  0.25324182  1
  Sb  Sb17  1  0.74588506  0.25102665  -0.00278272  1
  Sb  Sb18  1  0.74852543  -0.00580848  0.74794810  1
  Sb  Sb19  1  0.00107527  0.50009900  -0.00435574  1
  Sb  Sb20  1  0.49945510  0.50318472  -0.00018970  1
  Sb  Sb21  1  0.49772098  0.25389939  0.74886599  1
  Sb  Sb22  1  0.74441954  0.50329931  0.25559473  1
  Sb  Sb23  1  0.25141909  0.25841655  0.50073326  1
  Sb  Sb24  1  0.00283400  0.74804162  0.25447720  1
  Sb  Sb25  1  0.25717272  0.74906708  -0.00072625  1
  Sb  Sb26  1  0.00101310  -0.00004930  -0.00296421  1
  Sb  Sb27  1  0.74854627  0.25359358  0.50202415  1
  Sb  Sb28  1  0.00439514  0.25324335  0.25197807  1
  Sb  Sb29  1  0.74665159  -0.00235669  0.25212383  1
  Sb  Sb30  1  0.25130884  -0.00137213  0.74657241  1
  Sb  Sb31  1  -0.00126219  0.74605944  0.74511158  1
  Te  Te32  1  0.25508468  0.25517590  0.24620718  1
  Te  Te33  1  0.24792486  0.25611917  0.75308447  1
  Te  Te34  1  0.25467350  0.74479149  0.25168110  1
  Te  Te35  1  0.25318754  0.74452641  0.74815544  1
  Te  Te36  1  0.74130182  0.25128247  0.24798841  1
  Te  Te37  1  0.75508985  0.25953540  0.75125928  1
  Te  Te38  1  0.74331129  0.74831304  0.25174418  1
  Te  Te39  1  0.74774238  0.74561370  0.74706923  1
  Te  Te40  1  0.25396962  0.00362270  -0.00008010  1
  Te  Te41  1  0.25199645  -0.00731828  0.50012025  1
  Te  Te42  1  0.24933050  0.49736074  -0.00091351  1
  Te  Te43  1  0.25158096  0.50105268  0.50150463  1
  Te  Te44  1  0.74482183  -0.00557293  -0.00063736  1
  Te  Te45  1  0.74825398  -0.00650197  0.50057910  1
  Te  Te46  1  0.75090071  0.50551319  -0.00643809  1
  Te  Te47  1  0.74911679  0.50345736  0.50282141  1
  Te  Te48  1  0.00444204  0.24778271  -0.00344357  1
  Te  Te49  1  -0.00030916  0.24989108  0.50324671  1
  Te  Te50  1  -0.00915181  0.75272038  0.00122514  1
  Te  Te51  1  0.00015003  0.74949619  0.49990546  1
  Te  Te52  1  0.49754397  0.24489010  0.00177948  1
  Te  Te53  1  0.50010963  0.24796892  0.49668924  1
  Te  Te54  1  0.50226635  0.75356157  -0.00024515  1
  Te  Te55  1  0.49927603  0.74988316  0.50070693  1
  Te  Te56  1  0.00024111  0.00148550  0.25907684  1
  Te  Te57  1  -0.00008982  0.00633702  0.74418341  1
  Te  Te58  1  0.00742660  0.49842895  0.25821859  1
  Te  Te59  1  0.00200809  0.49823446  0.74580974  1
  Te  Te60  1  0.49921603  -0.00154868  0.25269231  1
  Te  Te61  1  0.49986476  -0.00323750  0.74749202  1
  Te  Te62  1  0.49718618  0.50134240  0.25180372  1
  Te  Te63  1  0.49891152  0.50134135  0.74808507  1
