# generated using pymatgen
data_AgSbTe2
_symmetry_space_group_name_H-M   'P 1'
_cell_length_a   12.21903244
_cell_length_b   12.22404993
_cell_length_c   12.22160147
_cell_angle_alpha   90.00338296
_cell_angle_beta   90.00591112
_cell_angle_gamma   90.00097176
_symmetry_Int_Tables_number   1
_chemical_formula_structural   AgSbTe2
_chemical_formula_sum   'Ag16 Sb16 Te32'
_cell_volume   1825.49247800
_cell_formula_units_Z   16
loop_
 _symmetry_equiv_pos_site_id
 _symmetry_equiv_pos_as_xyz
  1  'x, y, z'
loop_
 _atom_site_type_symbol
 _atom_site_label
 _atom_site_symmetry_multiplicity
 _atom_site_fract_x
 _atom_site_fract_y
 _atom_site_fract_z
 _atom_site_occupancy
  Ag  Ag0  1  0.73612530  0.49868511  0.25550456  1
  Ag  Ag1  1  0.50634875  0.50050965  0.48644398  1
  Ag  Ag2  1  0.50069405  0.74433113  0.75063921  1
  Ag  Ag3  1  0.50049028  0.73567236  0.24969183  1
  Ag  Ag4  1  0.74570028  0.50203879  0.74372920  1
  Ag  Ag5  1  0.25312199  0.25474792  0.00411670  1
  Ag  Ag6  1  0.74566691  0.25650446  0.49577136  1
  Ag  Ag7  1  0.50432080  -0.00087708  0.49472906  1
  Ag  Ag8  1  0.00037820  -0.00235309  0.00100375  1
  Ag  Ag9  1  0.26434601  0.50042284  0.24679719  1
  Ag  Ag10  1  -0.00750729  0.50094551  0.49897023  1
  Ag  Ag11  1  0.50236744  0.26359250  0.25154631  1
  Ag  Ag12  1  0.74436419  0.00064695  0.25197171  1
  Ag  Ag13  1  0.49776181  0.50270783  0.01387958  1
  Ag  Ag14  1  0.25390601  0.74631765  0.00144864  1
  Ag  Ag15  1  -0.00096231  0.74683045  0.75169867  1
  Sb  Sb16  1  0.25151904  -0.00174611  0.75149744  1
  Sb  Sb17  1  0.25354295  0.74709706  0.49721823  1
  Sb  Sb18  1  0.25417912  0.25450012  0.49570973  1
  Sb  Sb19  1  0.74644812  0.74850243  0.00084270  1
  Sb  Sb20  1  -0.00210017  0.25338031  0.75063678  1
  Sb  Sb21  1  0.25484821  -0.00018616  0.24840853  1
  Sb  Sb22  1  0.50191281  0.25611030  0.74870607  1
  Sb  Sb23  1  0.25418640  0.50245336  0.75246529  1
  Sb  Sb24  1  0.00128534  0.50170807  0.00025342  1
  Sb  Sb25  1  0.50036625  -0.00185663  0.00385036  1
  Sb  Sb26  1  -0.00204076  0.25170453  0.24970155  1
  Sb  Sb27  1  0.74741808  0.25219946  0.00419218  1
  Sb  Sb28  1  -0.00579152  -0.00112633  0.49952963  1
  Sb  Sb29  1  0.74761419  -0.00200406  0.74767864  1
  Sb  Sb30  1  0.74711914  0.74171616  0.49903999  1
  Sb  Sb31  1  -0.00003522  0.74746914  0.24847804  1
  Te  Te32  1  0.25463384  0.25332726  0.24574660  1
  Te  Te33  1  0.24976805  0.24955133  0.75977586  1
  Te  Te34  1  0.25395844  0.74676541  0.24570354  1
  Te  Te35  1  0.25207502  0.74880725  0.75642260  1
  Te  Te36  1  0.74658350  0.25269251  0.25218767  1
  Te  Te37  1  0.74986667  0.25616226  0.74426135  1
  Te  Te38  1  0.74523532  0.74885173  0.24960981  1
  Te  Te39  1  0.74829600  0.74564189  0.75088914  1
  Te  Te40  1  0.24664295  -0.00157706  0.00088158  1
  Te  Te41  1  0.25609986  0.00212736  0.49961145  1
  Te  Te42  1  0.25212487  0.50134513  0.00305949  1
  Te  Te43  1  0.25172851  0.49823104  0.49424545  1
  Te  Te44  1  0.75421289  0.00131224  0.00401475  1
  Te  Te45  1  0.74725142  0.00664452  0.49642647  1
  Te  Te46  1  0.74685762  0.49857766  0.00233395  1
  Te  Te47  1  0.74782052  0.49916393  0.49779883  1
  Te  Te48  1  0.00591108  0.24577485  -0.00106470  1
  Te  Te49  1  -0.00350956  0.25413203  0.50129353  1
  Te  Te50  1  0.00461355  0.75184376  -0.00250930  1
  Te  Te51  1  0.00294129  0.74599028  0.50561864  1
  Te  Te52  1  0.49675186  0.25127684  0.00192323  1
  Te  Te53  1  0.50151675  0.25248757  0.49852504  1
  Te  Te54  1  0.49734299  0.74857940  0.00031422  1
  Te  Te55  1  0.49839434  0.74795063  0.49934003  1
  Te  Te56  1  -0.00677624  -0.00073337  0.24798495  1
  Te  Te57  1  -0.00104846  -0.00701884  0.75225141  1
  Te  Te58  1  -0.00242173  0.50142541  0.25377050  1
  Te  Te59  1  -0.00382932  0.50447481  0.74782467  1
  Te  Te60  1  0.50386597  -0.00105048  0.25266285  1
  Te  Te61  1  0.50175802  -0.00869870  0.74433404  1
  Te  Te62  1  0.50103150  0.50129824  0.24932172  1
  Te  Te63  1  0.50270809  0.50399850  0.74929009  1
