# generated using pymatgen
data_AgSbTe2
_symmetry_space_group_name_H-M   'P 1'
_cell_length_a   12.21132637
_cell_length_b   12.20926861
_cell_length_c   12.21088687
_cell_angle_alpha   89.99088662
_cell_angle_beta   89.99912596
_cell_angle_gamma   89.99752622
_symmetry_Int_Tables_number   1
_chemical_formula_structural   AgSbTe2
_chemical_formula_sum   'Ag16 Sb16 Te32'
_cell_volume   1820.53775059
_cell_formula_units_Z   16
loop_
 _symmetry_equiv_pos_site_id
 _symmetry_equiv_pos_as_xyz
  1  'x, y, z'
loop_
 _atom_site_type_symbol
 _atom_site_label
 _atom_site_symmetry_multiplicity
 _atom_site_fract_x
 _atom_site_fract_y
 _atom_site_fract_z
 _atom_site_occupancy
  Ag  Ag0  1  0.75184014  0.75001297  -0.00381718  1
  Ag  Ag1  1  -0.00430695  0.50263181  -0.00269527  1
  Ag  Ag2  1  0.74919521  0.00273105  0.25365536  1
  Ag  Ag3  1  0.50402284  0.74985326  0.75100805  1
  Ag  Ag4  1  0.50398582  0.50008836  -0.00312283  1
  Ag  Ag5  1  -0.00746282  0.00104353  0.50296459  1
  Ag  Ag6  1  0.50211713  0.24970036  0.74504082  1
  Ag  Ag7  1  -0.00632597  -0.00275727  -0.00341685  1
  Ag  Ag8  1  -0.00429617  0.75270522  0.75348593  1
  Ag  Ag9  1  0.50526914  0.24953979  0.25499476  1
  Ag  Ag10  1  0.25235169  0.49877700  0.75060739  1
  Ag  Ag11  1  0.25563225  0.24883519  0.50259886  1
  Ag  Ag12  1  0.74461293  0.24385587  0.49938751  1
  Ag  Ag13  1  0.50658333  0.00651385  0.50292904  1
  Ag  Ag14  1  0.75012262  -0.00115190  0.74685959  1
  Ag  Ag15  1  0.74780809  0.49755043  0.24708389  1
  Sb  Sb16  1  0.24832888  0.74931926  -0.00349523  1
  Sb  Sb17  1  0.50742177  -0.00137415  -0.00315055  1
  Sb  Sb18  1  -0.00343670  0.50045802  0.50289431  1
  Sb  Sb19  1  0.25039422  0.00261056  0.74803625  1
  Sb  Sb20  1  0.25231083  0.49557768  0.24922282  1
  Sb  Sb21  1  0.74805532  0.50117517  0.75387824  1
  Sb  Sb22  1  0.25153695  0.75013042  0.50394618  1
  Sb  Sb23  1  0.50455066  0.75001383  0.24937114  1
  Sb  Sb24  1  0.50187813  0.49218311  0.50345594  1
  Sb  Sb25  1  0.74914199  0.75773518  0.50542365  1
  Sb  Sb26  1  -0.00648416  0.24934670  0.25153479  1
  Sb  Sb27  1  -0.00415647  0.75096883  0.24572248  1
  Sb  Sb28  1  -0.00350589  0.24768363  0.74855642  1
  Sb  Sb29  1  0.25228792  0.25094632  -0.00387377  1
  Sb  Sb30  1  0.74861077  0.25024797  0.00092635  1
  Sb  Sb31  1  0.25227000  0.00352889  0.25221055  1
  Te  Te32  1  0.25976445  0.25058694  0.25790263  1
  Te  Te33  1  0.25610671  0.25403133  0.74558861  1
  Te  Te34  1  0.25037730  0.74936066  0.25081334  1
  Te  Te35  1  0.25131876  0.74358504  0.74948758  1
  Te  Te36  1  0.74536280  0.24805252  0.25238797  1
  Te  Te37  1  0.74565875  0.24626366  0.74599905  1
  Te  Te38  1  0.74929524  0.75061789  0.24312884  1
  Te  Te39  1  0.74967212  0.75210240  0.75349913  1
  Te  Te40  1  0.23795952  0.00053140  0.00104651  1
  Te  Te41  1  0.25001088  0.00616579  0.49953730  1
  Te  Te42  1  0.24949813  0.49931314  -0.00368928  1
  Te  Te43  1  0.24880559  0.49368248  0.50465636  1
  Te  Te44  1  0.75327551  -0.00163445  -0.00094301  1
  Te  Te45  1  0.74978263  0.00071416  0.50050478  1
  Te  Te46  1  0.75029659  0.50111973  0.00174631  1
  Te  Te47  1  0.75167449  0.49321659  0.49242742  1
  Te  Te48  1  0.00094412  0.25071817  0.00006856  1
  Te  Te49  1  -0.00122502  0.24455636  0.50043355  1
  Te  Te50  1  -0.00307898  0.74993375  -0.00389862  1
  Te  Te51  1  0.00031149  0.75601619  0.50738982  1
  Te  Te52  1  0.49938986  0.25374069  -0.00155053  1
  Te  Te53  1  0.50230109  0.24861669  0.50171213  1
  Te  Te54  1  0.50364733  0.74722444  -0.00492047  1
  Te  Te55  1  0.49998977  0.75784058  0.50651842  1
  Te  Te56  1  -0.00604844  0.00019078  0.25070083  1
  Te  Te57  1  -0.00154288  -0.00180206  0.75007217  1
  Te  Te58  1  -0.00454045  0.50012710  0.24344310  1
  Te  Te59  1  0.00109847  0.50298197  0.75426738  1
  Te  Te60  1  0.50454082  0.00297829  0.25185653  1
  Te  Te61  1  0.50144991  0.00057128  0.74957545  1
  Te  Te62  1  0.50364996  0.49789845  0.24517391  1
  Te  Te63  1  0.49990001  0.50021710  0.75284101  1
