# generated using pymatgen
data_AgSbTe2
_symmetry_space_group_name_H-M   'P 1'
_cell_length_a   12.23277789
_cell_length_b   12.22192328
_cell_length_c   12.23083313
_cell_angle_alpha   90.00021328
_cell_angle_beta   90.00446824
_cell_angle_gamma   89.99453905
_symmetry_Int_Tables_number   1
_chemical_formula_structural   AgSbTe2
_chemical_formula_sum   'Ag16 Sb16 Te32'
_cell_volume   1828.60827579
_cell_formula_units_Z   16
loop_
 _symmetry_equiv_pos_site_id
 _symmetry_equiv_pos_as_xyz
  1  'x, y, z'
loop_
 _atom_site_type_symbol
 _atom_site_label
 _atom_site_symmetry_multiplicity
 _atom_site_fract_x
 _atom_site_fract_y
 _atom_site_fract_z
 _atom_site_occupancy
  Ag  Ag0  1  0.75411474  0.24938598  0.00583138  1
  Ag  Ag1  1  0.25370716  0.00392314  0.75664850  1
  Ag  Ag2  1  0.49701386  0.49520075  -0.00061738  1
  Ag  Ag3  1  0.49344665  0.00459794  0.00028342  1
  Ag  Ag4  1  0.25023955  0.00715813  0.24264289  1
  Ag  Ag5  1  0.75312275  0.49295406  0.24481809  1
  Ag  Ag6  1  0.25038583  0.49659501  0.75513813  1
  Ag  Ag7  1  0.49556970  0.00195403  0.49961683  1
  Ag  Ag8  1  0.75038836  0.00651942  0.24476082  1
  Ag  Ag9  1  0.00051095  0.24984756  0.24324780  1
  Ag  Ag10  1  0.24608384  0.24532702  0.00106557  1
  Ag  Ag11  1  0.00213635  0.48991917  0.00318056  1
  Ag  Ag12  1  0.24824948  0.24786584  0.49929494  1
  Ag  Ag13  1  0.49623189  0.75249623  0.75258511  1
  Ag  Ag14  1  0.00300238  0.49419993  0.49779939  1
  Ag  Ag15  1  0.00645995  0.01021129  0.00406232  1
  Sb  Sb16  1  0.25082624  0.75569839  -0.00100337  1
  Sb  Sb17  1  0.49956175  0.75258512  0.24751793  1
  Sb  Sb18  1  0.74671235  0.00172477  0.75607027  1
  Sb  Sb19  1  0.49882678  0.24810735  0.24671504  1
  Sb  Sb20  1  0.24703277  0.49225808  0.24430224  1
  Sb  Sb21  1  0.74891673  0.49833604  0.75551168  1
  Sb  Sb22  1  0.74889847  0.75056827  0.00112157  1
  Sb  Sb23  1  0.25123823  0.75191866  0.50125757  1
  Sb  Sb24  1  0.49543301  0.24785473  0.75368015  1
  Sb  Sb25  1  0.00470527  0.00668903  0.49622902  1
  Sb  Sb26  1  0.00337679  0.75045694  0.75178370  1
  Sb  Sb27  1  0.00437980  0.25019532  0.75838589  1
  Sb  Sb28  1  0.00034815  0.75007136  0.24895199  1
  Sb  Sb29  1  0.74879507  0.75053855  0.49853998  1
  Sb  Sb30  1  0.49672991  0.49774055  0.50024086  1
  Sb  Sb31  1  0.75201881  0.24943532  0.49279362  1
  Te  Te32  1  0.24595612  0.24598634  0.24766012  1
  Te  Te33  1  0.24905794  0.24973671  0.75108171  1
  Te  Te34  1  0.25028517  0.76348852  0.25181662  1
  Te  Te35  1  0.25413139  0.74926382  0.74936379  1
  Te  Te36  1  0.75489703  0.24908465  0.24593319  1
  Te  Te37  1  0.75065279  0.24991135  0.75922288  1
  Te  Te38  1  0.74995640  0.75176182  0.25070118  1
  Te  Te39  1  0.74088041  0.75010884  0.74892716  1
  Te  Te40  1  0.25089490  0.00169088  -0.00082346  1
  Te  Te41  1  0.25114093  0.00410355  0.50175260  1
  Te  Te42  1  0.25022859  0.49592448  0.00000151  1
  Te  Te43  1  0.24969875  0.49503537  0.50145707  1
  Te  Te44  1  0.74926994  0.00334983  0.00283359  1
  Te  Te45  1  0.74623734  0.00142929  0.49394071  1
  Te  Te46  1  0.75081392  0.49659735  0.00251347  1
  Te  Te47  1  0.75273910  0.49862178  0.49465553  1
  Te  Te48  1  0.00306863  0.24982574  0.00270408  1
  Te  Te49  1  0.00319833  0.25409276  0.49286485  1
  Te  Te50  1  -0.00040958  0.74796467  -0.00077240  1
  Te  Te51  1  -0.00035974  0.73827503  0.50085217  1
  Te  Te52  1  0.49714657  0.24949035  0.00089646  1
  Te  Te53  1  0.49449209  0.24436522  0.49941471  1
  Te  Te54  1  0.50038059  0.75004642  -0.00351203  1
  Te  Te55  1  0.50008047  0.75603778  0.50561701  1
  Te  Te56  1  -0.00086612  0.00118822  0.24800765  1
  Te  Te57  1  0.00483580  -0.00226772  0.75387405  1
  Te  Te58  1  -0.00111312  0.49876180  0.24536987  1
  Te  Te59  1  0.00416525  0.50115050  0.75254873  1
  Te  Te60  1  0.50051105  -0.00150752  0.24671014  1
  Te  Te61  1  0.49753261  -0.00114068  0.75328985  1
  Te  Te62  1  0.50504870  0.50230262  0.24581881  1
  Te  Te63  1  0.49698420  0.50298627  0.75282185  1
