# generated using pymatgen
data_AgSbTe2
_symmetry_space_group_name_H-M   'P 1'
_cell_length_a   12.22626467
_cell_length_b   12.23390719
_cell_length_c   12.24463771
_cell_angle_alpha   89.99481891
_cell_angle_beta   89.98788372
_cell_angle_gamma   90.01054146
_symmetry_Int_Tables_number   1
_chemical_formula_structural   AgSbTe2
_chemical_formula_sum   'Ag16 Sb16 Te32'
_cell_volume   1831.49145062
_cell_formula_units_Z   16
loop_
 _symmetry_equiv_pos_site_id
 _symmetry_equiv_pos_as_xyz
  1  'x, y, z'
loop_
 _atom_site_type_symbol
 _atom_site_label
 _atom_site_symmetry_multiplicity
 _atom_site_fract_x
 _atom_site_fract_y
 _atom_site_fract_z
 _atom_site_occupancy
  Ag  Ag0  1  0.24724959  0.00376295  0.75216875  1
  Ag  Ag1  1  0.75470203  0.25294952  0.49928179  1
  Ag  Ag2  1  -0.00157657  0.00661815  0.00367532  1
  Ag  Ag3  1  0.75747091  0.00925343  0.24922263  1
  Ag  Ag4  1  0.76484942  0.49118498  0.24915837  1
  Ag  Ag5  1  0.75730763  0.48989654  0.75089455  1
  Ag  Ag6  1  -0.00656233  0.25393540  0.75546061  1
  Ag  Ag7  1  0.50253155  0.00584072  0.50103142  1
  Ag  Ag8  1  0.50623732  0.24901624  0.74876437  1
  Ag  Ag9  1  -0.00329334  0.49443078  0.01465906  1
  Ag  Ag10  1  0.75846450  0.25308635  0.00117553  1
  Ag  Ag11  1  0.23357275  0.49863294  0.24751375  1
  Ag  Ag12  1  -0.00417841  0.49479016  0.48436737  1
  Ag  Ag13  1  0.24200713  0.74943277  0.00208972  1
  Ag  Ag14  1  -0.00778290  0.26375474  0.24542591  1
  Ag  Ag15  1  -0.00058158  0.73382986  0.24592017  1
  Sb  Sb16  1  0.75275473  0.74787088  0.49819497  1
  Sb  Sb17  1  0.50004990  0.75102377  0.75054746  1
  Sb  Sb18  1  0.24341695  0.00135127  0.24870036  1
  Sb  Sb19  1  0.24064960  0.25077202  -0.00002389  1
  Sb  Sb20  1  0.50422832  0.49588856  0.50033744  1
  Sb  Sb21  1  0.75186638  0.00913054  0.75097005  1
  Sb  Sb22  1  0.24597281  0.25094215  0.49989163  1
  Sb  Sb23  1  0.50306915  0.49667032  -0.00013210  1
  Sb  Sb24  1  0.00026616  0.74840268  0.75285094  1
  Sb  Sb25  1  0.24413930  0.49783172  0.75153976  1
  Sb  Sb26  1  0.75509664  0.74790546  0.00290770  1
  Sb  Sb27  1  -0.00207802  0.00484223  0.49835849  1
  Sb  Sb28  1  0.50173422  0.00384964  0.00020477  1
  Sb  Sb29  1  0.50831288  0.24973491  0.25036143  1
  Sb  Sb30  1  0.24643233  0.74932659  0.49816149  1
  Sb  Sb31  1  0.50088648  0.74957841  0.24926473  1
  Te  Te32  1  0.24504715  0.25474007  0.24975591  1
  Te  Te33  1  0.24834546  0.24596787  0.74964178  1
  Te  Te34  1  0.24603054  0.74781061  0.24666199  1
  Te  Te35  1  0.25071585  0.75497336  0.75491459  1
  Te  Te36  1  0.75121120  0.25104916  0.24958376  1
  Te  Te37  1  0.75451623  0.25147827  0.74999306  1
  Te  Te38  1  0.75417593  0.74857113  0.24918430  1
  Te  Te39  1  0.74905784  0.73800124  0.75063455  1
  Te  Te40  1  0.24604489  -0.00109567  -0.00249134  1
  Te  Te41  1  0.25409207  0.00005134  0.50451147  1
  Te  Te42  1  0.24674123  0.50133465  0.00309215  1
  Te  Te43  1  0.24618887  0.50043399  0.49567055  1
  Te  Te44  1  0.75438519  0.00147904  0.00277613  1
  Te  Te45  1  0.74852906  0.00336933  0.49751463  1
  Te  Te46  1  0.75253587  0.49855480  0.00234492  1
  Te  Te47  1  0.75223096  0.49697354  0.49788775  1
  Te  Te48  1  -0.00257943  0.25025893  -0.00029750  1
  Te  Te49  1  -0.00370574  0.25333702  0.50024471  1
  Te  Te50  1  0.00248239  0.75008748  0.00289582  1
  Te  Te51  1  -0.00012580  0.74265159  0.49292706  1
  Te  Te52  1  0.51016225  0.24980519  -0.00604149  1
  Te  Te53  1  0.50525818  0.24607649  0.50387102  1
  Te  Te54  1  0.48881168  0.75028821  -0.00031637  1
  Te  Te55  1  0.49968197  0.75989328  0.50048050  1
  Te  Te56  1  -0.00292477  0.00350965  0.24788291  1
  Te  Te57  1  0.00253986  0.00168532  0.75177853  1
  Te  Te58  1  -0.00170030  0.49784771  0.24814525  1
  Te  Te59  1  -0.00177347  0.49751438  0.75207110  1
  Te  Te60  1  0.50501220  -0.00025243  0.25362210  1
  Te  Te61  1  0.49823221  0.00343304  0.74794226  1
  Te  Te62  1  0.50042078  0.50067488  0.25177422  1
  Te  Te63  1  0.50314413  0.49395982  0.74839914  1
