# generated using pymatgen
data_AgSbTe2
_symmetry_space_group_name_H-M   'P 1'
_cell_length_a   12.23320910
_cell_length_b   12.22260950
_cell_length_c   12.23019617
_cell_angle_alpha   89.99500340
_cell_angle_beta   89.99274959
_cell_angle_gamma   89.99563019
_symmetry_Int_Tables_number   1
_chemical_formula_structural   AgSbTe2
_chemical_formula_sum   'Ag16 Sb16 Te32'
_cell_volume   1828.68015863
_cell_formula_units_Z   16
loop_
 _symmetry_equiv_pos_site_id
 _symmetry_equiv_pos_as_xyz
  1  'x, y, z'
loop_
 _atom_site_type_symbol
 _atom_site_label
 _atom_site_symmetry_multiplicity
 _atom_site_fract_x
 _atom_site_fract_y
 _atom_site_fract_z
 _atom_site_occupancy
  Ag  Ag0  1  0.25075303  0.74280622  -0.00481370  1
  Ag  Ag1  1  0.50196332  0.25595963  0.24997631  1
  Ag  Ag2  1  0.50074228  0.73932290  0.75054760  1
  Ag  Ag3  1  0.49869437  0.49722898  -0.00655797  1
  Ag  Ag4  1  0.24981723  0.50105230  0.75147337  1
  Ag  Ag5  1  -0.00145323  0.74055635  0.74602201  1
  Ag  Ag6  1  -0.00282146  0.00534229  0.50222757  1
  Ag  Ag7  1  0.50729870  0.26022768  0.75135772  1
  Ag  Ag8  1  -0.00199008  0.25453202  0.25638697  1
  Ag  Ag9  1  0.75099546  0.49496671  0.74727027  1
  Ag  Ag10  1  -0.00685537  0.25902215  0.74354873  1
  Ag  Ag11  1  0.24946447  0.49769675  0.24887949  1
  Ag  Ag12  1  0.75358591  0.74404164  0.50629147  1
  Ag  Ag13  1  -0.00354375  0.49579149  0.50679234  1
  Ag  Ag14  1  0.75601736  0.25469904  0.50590171  1
  Ag  Ag15  1  0.74842262  0.25539026  -0.00667755  1
  Sb  Sb16  1  -0.00013455  0.00317641  -0.00237551  1
  Sb  Sb17  1  0.74938494  0.74197639  -0.00995180  1
  Sb  Sb18  1  0.24682295  0.74508109  0.50595087  1
  Sb  Sb19  1  0.24759098  0.00380445  0.25005866  1
  Sb  Sb20  1  0.75190296  0.00332842  0.25246221  1
  Sb  Sb21  1  0.49895142  0.74066049  0.24992970  1
  Sb  Sb22  1  0.24779989  -0.00021492  0.74971686  1
  Sb  Sb23  1  0.00114777  0.74305833  0.25435704  1
  Sb  Sb24  1  0.00149802  0.49873983  -0.00747837  1
  Sb  Sb25  1  0.50037835  0.00318719  -0.00143701  1
  Sb  Sb26  1  0.50438573  0.49775877  0.50737100  1
  Sb  Sb27  1  0.24212702  0.25426607  0.50154899  1
  Sb  Sb28  1  0.75156012  0.00691883  0.74818912  1
  Sb  Sb29  1  0.25225968  0.25679909  -0.00184422  1
  Sb  Sb30  1  0.50316495  0.00323013  0.50154771  1
  Sb  Sb31  1  0.75091284  0.49643016  0.25286825  1
  Te  Te32  1  0.24989126  0.25520465  0.24921026  1
  Te  Te33  1  0.25036054  0.25528291  0.75092884  1
  Te  Te34  1  0.25077739  0.74267566  0.24374574  1
  Te  Te35  1  0.25035882  0.74608870  0.75168572  1
  Te  Te36  1  0.75066259  0.25204700  0.25233662  1
  Te  Te37  1  0.75045023  0.25195162  0.74793814  1
  Te  Te38  1  0.74975669  0.75004232  0.25829439  1
  Te  Te39  1  0.75089269  0.74561714  0.74822716  1
  Te  Te40  1  0.24989948  -0.01352789  0.00091789  1
  Te  Te41  1  0.24013128  -0.00202500  0.49899823  1
  Te  Te42  1  0.25243273  0.50262996  -0.00291480  1
  Te  Te43  1  0.24338310  0.50012977  0.50124312  1
  Te  Te44  1  0.75021541  0.01086869  0.00175663  1
  Te  Te45  1  0.75603073  0.00131713  0.50007732  1
  Te  Te46  1  0.74493848  0.49527964  -0.00504320  1
  Te  Te47  1  0.75293702  0.49815956  0.50321065  1
  Te  Te48  1  -0.00387594  0.24928822  -0.00069625  1
  Te  Te49  1  -0.00112928  0.25323428  0.50211616  1
  Te  Te50  1  0.00086666  0.75108137  -0.00538265  1
  Te  Te51  1  -0.00298021  0.74643146  0.50324600  1
  Te  Te52  1  0.50177345  0.25258781  -0.00301188  1
  Te  Te53  1  0.50721985  0.24885870  0.50121960  1
  Te  Te54  1  0.49970667  0.74703099  -0.00403975  1
  Te  Te55  1  0.50649786  0.75150278  0.50538736  1
  Te  Te56  1  0.00131314  0.00860896  0.25592550  1
  Te  Te57  1  0.00141127  0.00091333  0.74573213  1
  Te  Te58  1  0.00284318  0.49591909  0.25419852  1
  Te  Te59  1  -0.00034518  0.49905723  0.75033460  1
  Te  Te60  1  0.49840912  0.01225037  0.25048204  1
  Te  Te61  1  0.49869796  0.00073128  0.74940652  1
  Te  Te62  1  0.49630277  0.49530670  0.24552765  1
  Te  Te63  1  0.49932625  0.49861841  0.74940195  1
