# generated using pymatgen
data_AgSbTe2
_symmetry_space_group_name_H-M   'P 1'
_cell_length_a   12.30860452
_cell_length_b   12.34266259
_cell_length_c   12.33829837
_cell_angle_alpha   90.01767943
_cell_angle_beta   90.00884049
_cell_angle_gamma   89.99598276
_symmetry_Int_Tables_number   1
_chemical_formula_structural   AgSbTe2
_chemical_formula_sum   'Ag16 Sb16 Te32'
_cell_volume   1874.44592579
_cell_formula_units_Z   16
loop_
 _symmetry_equiv_pos_site_id
 _symmetry_equiv_pos_as_xyz
  1  'x, y, z'
loop_
 _atom_site_type_symbol
 _atom_site_label
 _atom_site_symmetry_multiplicity
 _atom_site_fract_x
 _atom_site_fract_y
 _atom_site_fract_z
 _atom_site_occupancy
  Ag  Ag0  1  -0.01067488  -0.02052104  0.50292576  1
  Ag  Ag1  1  -0.00328364  0.74805750  0.73641614  1
  Ag  Ag2  1  0.23814278  0.74047294  -0.00044236  1
  Ag  Ag3  1  -0.00568899  0.74536345  0.26918905  1
  Ag  Ag4  1  0.76080959  0.25553255  -0.00103614  1
  Ag  Ag5  1  -0.00677357  0.25137874  0.75165684  1
  Ag  Ag6  1  0.75714191  0.50118720  0.25013503  1
  Ag  Ag7  1  0.23171846  0.74815183  0.50029496  1
  Ag  Ag8  1  0.76246842  0.75641259  0.49504664  1
  Ag  Ag9  1  0.75741322  0.00232085  0.73975739  1
  Ag  Ag10  1  0.23412531  0.26115754  -0.00413376  1
  Ag  Ag11  1  0.75813590  0.24344787  0.50041426  1
  Ag  Ag12  1  -0.00056891  0.50255993  -0.00044282  1
  Ag  Ag13  1  -0.00984226  0.51312468  0.49900446  1
  Ag  Ag14  1  0.50608557  0.49945932  0.00449065  1
  Ag  Ag15  1  0.75666406  -0.00230144  0.25797852  1
  Sb  Sb16  1  0.75920995  0.74687894  -0.00007854  1
  Sb  Sb17  1  0.50927968  -0.00062288  0.49878008  1
  Sb  Sb18  1  0.75520394  0.49979093  0.74872379  1
  Sb  Sb19  1  -0.00311217  -0.00090580  -0.00054753  1
  Sb  Sb20  1  0.50475845  -0.00184427  0.00105749  1
  Sb  Sb21  1  0.23901896  -0.00389165  0.24979719  1
  Sb  Sb22  1  0.50694259  0.24974953  0.75254880  1
  Sb  Sb23  1  0.24349764  0.50244503  0.24761853  1
  Sb  Sb24  1  0.50444949  0.74999988  0.75200010  1
  Sb  Sb25  1  0.50646183  0.24998019  0.24833145  1
  Sb  Sb26  1  -0.00440389  0.25137675  0.24917041  1
  Sb  Sb27  1  0.24508754  0.50166747  0.75200547  1
  Sb  Sb28  1  0.24201072  -0.00289206  0.75071322  1
  Sb  Sb29  1  0.50801992  0.50211217  0.49535726  1
  Sb  Sb30  1  0.23529878  0.25044893  0.50299718  1
  Sb  Sb31  1  0.50457762  0.74931790  0.24792350  1
  Te  Te32  1  0.25336930  0.24982732  0.24099264  1
  Te  Te33  1  0.24357773  0.24843524  0.75458112  1
  Te  Te34  1  0.24482071  0.74930166  0.24984040  1
  Te  Te35  1  0.24547019  0.75222956  0.74908919  1
  Te  Te36  1  0.75082178  0.25254157  0.25003420  1
  Te  Te37  1  0.75347090  0.25047979  0.75026747  1
  Te  Te38  1  0.75230813  0.74741867  0.24799369  1
  Te  Te39  1  0.75370379  0.75186406  0.75042868  1
  Te  Te40  1  0.25395501  0.00063154  0.00034658  1
  Te  Te41  1  0.24918212  0.00018777  0.49999753  1
  Te  Te42  1  0.23532064  0.49873465  0.00129152  1
  Te  Te43  1  0.24991451  0.50159570  0.49854326  1
  Te  Te44  1  0.74716848  0.00649285  0.00292007  1
  Te  Te45  1  0.75176985  0.00065866  0.49986109  1
  Te  Te46  1  0.76083167  0.49866431  -0.00205041  1
  Te  Te47  1  0.75195142  0.50207686  0.50026557  1
  Te  Te48  1  -0.00161950  0.24616390  -0.00069726  1
  Te  Te49  1  -0.00312027  0.25612792  0.50117072  1
  Te  Te50  1  0.00122647  0.75166032  -0.00451570  1
  Te  Te51  1  -0.00243381  0.74867474  0.50075700  1
  Te  Te52  1  0.50076452  0.25338547  -0.00114198  1
  Te  Te53  1  0.50844792  0.25029238  0.50126218  1
  Te  Te54  1  0.48452598  0.74723746  -0.00027771  1
  Te  Te55  1  0.49363429  0.74902679  0.50053233  1
  Te  Te56  1  -0.00289118  -0.00442546  0.25388027  1
  Te  Te57  1  -0.00162883  -0.00024396  0.75016851  1
  Te  Te58  1  -0.00207900  0.50065616  0.24923122  1
  Te  Te59  1  0.00237528  0.50169068  0.75012715  1
  Te  Te60  1  0.51628493  -0.00036110  0.25130853  1
  Te  Te61  1  0.51622471  -0.00016144  0.74907011  1
  Te  Te62  1  0.51425729  0.50010395  0.24422092  1
  Te  Te63  1  0.49622094  0.49961642  0.76284808  1
