# generated using pymatgen
data_AgSbTe2
_symmetry_space_group_name_H-M   'P 1'
_cell_length_a   12.23054973
_cell_length_b   12.21589667
_cell_length_c   12.22177635
_cell_angle_alpha   90.00963354
_cell_angle_beta   89.99846179
_cell_angle_gamma   90.00466504
_symmetry_Int_Tables_number   1
_chemical_formula_structural   AgSbTe2
_chemical_formula_sum   'Ag16 Sb16 Te32'
_cell_volume   1826.02051585
_cell_formula_units_Z   16
loop_
 _symmetry_equiv_pos_site_id
 _symmetry_equiv_pos_as_xyz
  1  'x, y, z'
loop_
 _atom_site_type_symbol
 _atom_site_label
 _atom_site_symmetry_multiplicity
 _atom_site_fract_x
 _atom_site_fract_y
 _atom_site_fract_z
 _atom_site_occupancy
  Ag  Ag0  1  0.25378015  -0.00904457  0.75372641  1
  Ag  Ag1  1  0.49739946  -0.00215383  -0.00516415  1
  Ag  Ag2  1  0.25027824  0.25722579  -0.00057820  1
  Ag  Ag3  1  0.00570023  0.74844855  0.75093636  1
  Ag  Ag4  1  0.49527497  0.50869147  0.50148760  1
  Ag  Ag5  1  0.25342777  0.50194227  0.24313180  1
  Ag  Ag6  1  0.74932060  0.25106429  -0.00102506  1
  Ag  Ag7  1  0.25404140  0.50708077  0.75554416  1
  Ag  Ag8  1  0.00270611  0.25452816  0.24330189  1
  Ag  Ag9  1  0.49177377  0.50219388  -0.00174961  1
  Ag  Ag10  1  0.74591031  -0.00519815  0.75294156  1
  Ag  Ag11  1  0.00812372  0.49777488  -0.00093377  1
  Ag  Ag12  1  0.49434191  0.74847743  0.74779656  1
  Ag  Ag13  1  0.49642152  0.74538896  0.25139055  1
  Ag  Ag14  1  0.74266878  0.74883451  0.50471667  1
  Ag  Ag15  1  0.25687325  0.74560158  0.50706354  1
  Sb  Sb16  1  0.49885425  -0.00919485  0.50617783  1
  Sb  Sb17  1  0.25314701  0.74228029  -0.00821612  1
  Sb  Sb18  1  0.74620167  0.50462282  0.75214272  1
  Sb  Sb19  1  0.00294562  0.00080040  -0.00343387  1
  Sb  Sb20  1  0.49837210  0.25444168  0.24455125  1
  Sb  Sb21  1  0.00134367  0.25282417  0.75479046  1
  Sb  Sb22  1  0.00382846  0.50313634  0.50185135  1
  Sb  Sb23  1  0.00078285  -0.00189159  0.50218225  1
  Sb  Sb24  1  0.74568512  0.75053718  -0.00406918  1
  Sb  Sb25  1  0.49912777  0.25078033  0.75370928  1
  Sb  Sb26  1  0.74617062  0.50144821  0.24823989  1
  Sb  Sb27  1  0.25119034  0.25265077  0.50086955  1
  Sb  Sb28  1  0.25349840  -0.00265703  0.24597366  1
  Sb  Sb29  1  0.00358262  0.74626172  0.24875524  1
  Sb  Sb30  1  0.74681359  -0.00131097  0.24735662  1
  Sb  Sb31  1  0.74871058  0.25065180  0.50162295  1
  Te  Te32  1  0.24749154  0.25252693  0.24723902  1
  Te  Te33  1  0.24841013  0.25129769  0.75293374  1
  Te  Te34  1  0.25210810  0.74687921  0.25714849  1
  Te  Te35  1  0.25240636  0.74885256  0.74975372  1
  Te  Te36  1  0.75465515  0.24933768  0.24508756  1
  Te  Te37  1  0.75152953  0.24217385  0.75424287  1
  Te  Te38  1  0.74684633  0.75113858  0.25829377  1
  Te  Te39  1  0.74795638  0.75300825  0.74694877  1
  Te  Te40  1  0.25348936  0.00669430  -0.00406979  1
  Te  Te41  1  0.25130984  -0.00321048  0.50678152  1
  Te  Te42  1  0.25226182  0.49973393  -0.00096829  1
  Te  Te43  1  0.25334301  0.50166824  0.50201994  1
  Te  Te44  1  0.74654094  0.00376621  -0.00410256  1
  Te  Te45  1  0.74923609  -0.00324351  0.50673873  1
  Te  Te46  1  0.74861618  0.49442298  -0.00118955  1
  Te  Te47  1  0.74415052  0.50349190  0.50039877  1
  Te  Te48  1  0.00147495  0.25366152  0.00150454  1
  Te  Te49  1  -0.00171091  0.25029344  0.49080848  1
  Te  Te50  1  -0.00273918  0.74395911  -0.00470819  1
  Te  Te51  1  0.00042284  0.74884377  0.50454547  1
  Te  Te52  1  0.49906782  0.25250286  0.00087927  1
  Te  Te53  1  0.50139515  0.26062127  0.49736101  1
  Te  Te54  1  0.50149309  0.74791834  -0.00120080  1
  Te  Te55  1  0.49853682  0.74782772  0.50283051  1
  Te  Te56  1  0.00027635  0.00487784  0.24997948  1
  Te  Te57  1  0.00257623  -0.00582034  0.75116235  1
  Te  Te58  1  0.00561997  0.49872814  0.24535595  1
  Te  Te59  1  0.00413918  0.50459155  0.75363648  1
  Te  Te60  1  0.49929107  -0.00737488  0.24182141  1
  Te  Te61  1  0.49784803  -0.00224471  0.75383387  1
  Te  Te62  1  0.49631491  0.50456851  0.24600114  1
  Te  Te63  1  0.49734554  0.50227027  0.75384214  1
