# generated using pymatgen
data_AgSbTe2
_symmetry_space_group_name_H-M   'P 1'
_cell_length_a   12.22175702
_cell_length_b   12.21828803
_cell_length_c   12.22168972
_cell_angle_alpha   89.99907030
_cell_angle_beta   89.99673916
_cell_angle_gamma   89.99910921
_symmetry_Int_Tables_number   1
_chemical_formula_structural   AgSbTe2
_chemical_formula_sum   'Ag16 Sb16 Te32'
_cell_volume   1825.05205859
_cell_formula_units_Z   16
loop_
 _symmetry_equiv_pos_site_id
 _symmetry_equiv_pos_as_xyz
  1  'x, y, z'
loop_
 _atom_site_type_symbol
 _atom_site_label
 _atom_site_symmetry_multiplicity
 _atom_site_fract_x
 _atom_site_fract_y
 _atom_site_fract_z
 _atom_site_occupancy
  Ag  Ag0  1  0.74880594  0.74518828  0.49879521  1
  Ag  Ag1  1  0.49616033  0.74498496  0.25104135  1
  Ag  Ag2  1  0.25591160  0.50751119  0.25391327  1
  Ag  Ag3  1  0.25096439  0.74604925  0.49357092  1
  Ag  Ag4  1  0.00390695  0.74674648  0.25681414  1
  Ag  Ag5  1  -0.00181813  0.74695847  0.74280196  1
  Ag  Ag6  1  0.50016044  0.50710972  0.49312680  1
  Ag  Ag7  1  0.50013385  0.50846786  0.00725234  1
  Ag  Ag8  1  -0.00171317  0.25359484  0.74550792  1
  Ag  Ag9  1  -0.00056728  0.50661147  0.49889981  1
  Ag  Ag10  1  0.50174017  0.74741581  0.74923256  1
  Ag  Ag11  1  0.74917866  0.25481434  0.49908755  1
  Ag  Ag12  1  0.25444115  -0.00808099  0.25096301  1
  Ag  Ag13  1  0.49987444  -0.00850042  0.00471859  1
  Ag  Ag14  1  0.49958707  0.25475641  0.25247707  1
  Ag  Ag15  1  0.74333110  0.74849609  0.00141191  1
  Sb  Sb16  1  0.49879934  -0.01054332  0.49353556  1
  Sb  Sb17  1  0.25215996  -0.00524565  0.74885832  1
  Sb  Sb18  1  0.74028070  0.50488522  0.25399820  1
  Sb  Sb19  1  0.74383095  -0.00541139  0.24958556  1
  Sb  Sb20  1  0.74823158  -0.00442479  0.75011524  1
  Sb  Sb21  1  0.00045148  -0.00956483  0.49863288  1
  Sb  Sb22  1  0.25201906  0.25119144  0.00128662  1
  Sb  Sb23  1  0.50262060  0.25238858  0.74516174  1
  Sb  Sb24  1  0.00102383  -0.00544505  0.00238790  1
  Sb  Sb25  1  -0.00015446  0.50541176  0.00268711  1
  Sb  Sb26  1  0.25127185  0.25538193  0.49762290  1
  Sb  Sb27  1  0.75043934  0.50391437  0.74629484  1
  Sb  Sb28  1  0.25026743  0.50507565  0.74465484  1
  Sb  Sb29  1  0.74718810  0.25321146  0.00099827  1
  Sb  Sb30  1  -0.00067558  0.25492562  0.25718801  1
  Sb  Sb31  1  0.26033682  0.74948098  0.01006895  1
  Te  Te32  1  0.25542211  0.25044366  0.25141494  1
  Te  Te33  1  0.24152453  0.24792517  0.74918400  1
  Te  Te34  1  0.25133691  0.74843825  0.25162684  1
  Te  Te35  1  0.24904420  0.75061513  0.74065404  1
  Te  Te36  1  0.74512590  0.24719836  0.25594786  1
  Te  Te37  1  0.75565892  0.24829640  0.74315301  1
  Te  Te38  1  0.74990813  0.75132306  0.25229191  1
  Te  Te39  1  0.74988366  0.75081103  0.74738897  1
  Te  Te40  1  0.25702981  0.00044587  0.00782079  1
  Te  Te41  1  0.25077137  -0.00780922  0.49273287  1
  Te  Te42  1  0.25731779  0.49953480  0.00940086  1
  Te  Te43  1  0.25098082  0.50447770  0.49610141  1
  Te  Te44  1  0.74247261  -0.00694697  0.00028464  1
  Te  Te45  1  0.74969166  -0.00027685  0.49979238  1
  Te  Te46  1  0.74284342  0.50587909  0.00025291  1
  Te  Te47  1  0.75004209  0.50294272  0.49922444  1
  Te  Te48  1  -0.00359029  0.25097662  -0.00854283  1
  Te  Te49  1  -0.00388358  0.25741761  0.50192406  1
  Te  Te50  1  -0.00973414  0.74864970  -0.00153370  1
  Te  Te51  1  -0.00235253  0.74769077  0.49996373  1
  Te  Te52  1  0.50290636  0.25212368  0.00326583  1
  Te  Te53  1  0.50317349  0.25698764  0.49933204  1
  Te  Te54  1  0.50161097  0.74774601  0.00085806  1
  Te  Te55  1  0.50217581  0.74863350  0.49876535  1
  Te  Te56  1  0.01022604  -0.00576943  0.24791042  1
  Te  Te57  1  0.00216201  -0.00327583  0.75139589  1
  Te  Te58  1  0.00842113  0.50363835  0.25311285  1
  Te  Te59  1  0.00251172  0.50401698  0.74590534  1
  Te  Te60  1  0.49562668  -0.00143645  0.24677888  1
  Te  Te61  1  0.49779801  -0.00518136  0.75984478  1
  Te  Te62  1  0.49831241  0.50232671  0.25218302  1
  Te  Te63  1  0.49739346  0.50480155  0.74887306  1
