# generated using pymatgen
data_AgSbTe2
_symmetry_space_group_name_H-M   'P 1'
_cell_length_a   12.27866451
_cell_length_b   12.30673924
_cell_length_c   12.29115564
_cell_angle_alpha   89.99727643
_cell_angle_beta   89.99937910
_cell_angle_gamma   90.00430502
_symmetry_Int_Tables_number   1
_chemical_formula_structural   AgSbTe2
_chemical_formula_sum   'Ag16 Sb16 Te32'
_cell_volume   1857.32048214
_cell_formula_units_Z   16
loop_
 _symmetry_equiv_pos_site_id
 _symmetry_equiv_pos_as_xyz
  1  'x, y, z'
loop_
 _atom_site_type_symbol
 _atom_site_label
 _atom_site_symmetry_multiplicity
 _atom_site_fract_x
 _atom_site_fract_y
 _atom_site_fract_z
 _atom_site_occupancy
  Ag  Ag0  1  0.74147593  0.49288360  0.24010890  1
  Ag  Ag1  1  0.50550383  0.01992483  -0.00071555  1
  Ag  Ag2  1  -0.00370376  0.49951037  0.50432264  1
  Ag  Ag3  1  0.50538407  0.48140397  -0.00118307  1
  Ag  Ag4  1  0.74201927  0.01303583  0.76163835  1
  Ag  Ag5  1  0.27211688  0.25190309  -0.00244744  1
  Ag  Ag6  1  0.51146711  0.25197943  0.76998890  1
  Ag  Ag7  1  0.50111376  0.74894445  0.23387169  1
  Ag  Ag8  1  0.74282852  0.48820185  0.75889491  1
  Ag  Ag9  1  0.50154687  0.74828733  0.76647191  1
  Ag  Ag10  1  0.25538852  0.74568805  0.50154368  1
  Ag  Ag11  1  -0.01381358  0.25368049  0.75551861  1
  Ag  Ag12  1  0.74118266  0.00771499  0.23841646  1
  Ag  Ag13  1  0.73213648  0.25076370  -0.00712147  1
  Ag  Ag14  1  0.50961238  0.25140292  0.22910642  1
  Ag  Ag15  1  0.26319044  0.74744702  -0.00069226  1
  Sb  Sb16  1  0.50238121  0.50051143  0.50073017  1
  Sb  Sb17  1  0.74593765  0.74928587  0.49984191  1
  Sb  Sb18  1  -0.00074013  0.00014041  0.50249747  1
  Sb  Sb19  1  0.26027298  0.50018934  0.24749771  1
  Sb  Sb20  1  0.26112099  -0.00005868  0.24667025  1
  Sb  Sb21  1  0.25880927  0.00055026  0.75270748  1
  Sb  Sb22  1  -0.00889204  -0.00032660  -0.00154467  1
  Sb  Sb23  1  -0.00248279  0.74773249  0.24860023  1
  Sb  Sb24  1  -0.00334382  0.74764493  0.75135285  1
  Sb  Sb25  1  0.73912104  0.74865911  -0.00039165  1
  Sb  Sb26  1  -0.00712364  0.50038945  -0.00125105  1
  Sb  Sb27  1  -0.00989351  0.25203524  0.24436951  1
  Sb  Sb28  1  0.25828961  0.50018205  0.75257182  1
  Sb  Sb29  1  0.50119527  -0.00060864  0.50146996  1
  Sb  Sb30  1  0.25188795  0.25304271  0.50092974  1
  Sb  Sb31  1  0.74887721  0.24982291  0.50480070  1
  Te  Te32  1  0.25542554  0.24940978  0.24492106  1
  Te  Te33  1  0.25629320  0.24966990  0.75332121  1
  Te  Te34  1  0.25622173  0.75010971  0.24349429  1
  Te  Te35  1  0.25562991  0.75024382  0.75527797  1
  Te  Te36  1  0.74751634  0.25174261  0.25040664  1
  Te  Te37  1  0.74479098  0.25155530  0.74952783  1
  Te  Te38  1  0.74465750  0.74827940  0.24882893  1
  Te  Te39  1  0.74501219  0.74860244  0.75128031  1
  Te  Te40  1  0.25912156  0.00299154  -0.00020649  1
  Te  Te41  1  0.24815705  -0.01155768  0.49884597  1
  Te  Te42  1  0.25781460  0.49718241  -0.00032099  1
  Te  Te43  1  0.24442172  0.50471834  0.49985606  1
  Te  Te44  1  0.74530277  -0.00039566  -0.00127820  1
  Te  Te45  1  0.75022509  -0.00013468  0.49884046  1
  Te  Te46  1  0.74491824  0.50117728  -0.00144531  1
  Te  Te47  1  0.75274630  0.50030411  0.50136573  1
  Te  Te48  1  0.00196742  0.24963884  -0.00458506  1
  Te  Te49  1  0.00325422  0.25335473  0.50791944  1
  Te  Te50  1  0.02496371  0.75050889  -0.00009419  1
  Te  Te51  1  0.00896658  0.74723991  0.49970749  1
  Te  Te52  1  0.50183881  0.25115258  0.00066506  1
  Te  Te53  1  0.49691010  0.25011297  0.49963933  1
  Te  Te54  1  0.50037402  0.74807349  -0.00125796  1
  Te  Te55  1  0.49600836  0.74968668  0.50066597  1
  Te  Te56  1  -0.01877136  -0.00036969  0.25114408  1
  Te  Te57  1  -0.01525941  0.00517349  0.75074641  1
  Te  Te58  1  -0.01597881  0.50092495  0.25214241  1
  Te  Te59  1  -0.01072568  0.49881762  0.75052152  1
  Te  Te60  1  0.50379508  -0.00030533  0.25049069  1
  Te  Te61  1  0.50393065  -0.00013629  0.74953501  1
  Te  Te62  1  0.50417804  0.50012412  0.25203756  1
  Te  Te63  1  0.50342692  0.50014020  0.74943163  1
