# generated using pymatgen
data_AgSbTe2
_symmetry_space_group_name_H-M   'P 1'
_cell_length_a   12.22918583
_cell_length_b   12.24488326
_cell_length_c   12.23302045
_cell_angle_alpha   89.99654866
_cell_angle_beta   90.00378254
_cell_angle_gamma   89.99377690
_symmetry_Int_Tables_number   1
_chemical_formula_structural   AgSbTe2
_chemical_formula_sum   'Ag16 Sb16 Te32'
_cell_volume   1831.83305123
_cell_formula_units_Z   16
loop_
 _symmetry_equiv_pos_site_id
 _symmetry_equiv_pos_as_xyz
  1  'x, y, z'
loop_
 _atom_site_type_symbol
 _atom_site_label
 _atom_site_symmetry_multiplicity
 _atom_site_fract_x
 _atom_site_fract_y
 _atom_site_fract_z
 _atom_site_occupancy
  Ag  Ag0  1  0.49251851  0.00359947  0.50038989  1
  Ag  Ag1  1  0.49638243  0.24495434  0.75611009  1
  Ag  Ag2  1  0.49046678  0.49620491  0.00136242  1
  Ag  Ag3  1  0.00977131  0.50589818  -0.00008210  1
  Ag  Ag4  1  0.24767939  0.75279135  0.00169687  1
  Ag  Ag5  1  0.25233493  0.49643290  0.24208860  1
  Ag  Ag6  1  0.25095846  0.75478002  0.49822349  1
  Ag  Ag7  1  0.49178290  0.00407215  -0.00037079  1
  Ag  Ag8  1  0.74693217  -0.00156086  0.75577361  1
  Ag  Ag9  1  0.75242220  0.75402234  -0.00295932  1
  Ag  Ag10  1  0.00261127  0.75284071  0.75796427  1
  Ag  Ag11  1  0.49190676  0.24666716  0.24353157  1
  Ag  Ag12  1  0.00822798  -0.00550879  -0.00177179  1
  Ag  Ag13  1  0.25511827  0.24452753  0.49490853  1
  Ag  Ag14  1  0.25708989  0.24738083  0.00465206  1
  Ag  Ag15  1  0.25405087  0.00352595  0.24367965  1
  Sb  Sb16  1  0.00937565  -0.00161520  0.50202143  1
  Sb  Sb17  1  0.00726714  0.50227548  0.49994729  1
  Sb  Sb18  1  0.25280628  0.00026263  0.75797413  1
  Sb  Sb19  1  0.49430383  0.49777146  0.49927752  1
  Sb  Sb20  1  0.74421450  0.24598080  0.50197893  1
  Sb  Sb21  1  0.00545030  0.75028260  0.24187956  1
  Sb  Sb22  1  0.74822361  0.50118309  0.75487715  1
  Sb  Sb23  1  0.00269694  0.24850468  0.75461214  1
  Sb  Sb24  1  0.74846837  0.75498923  0.50305037  1
  Sb  Sb25  1  0.74685863  0.49905887  0.24413763  1
  Sb  Sb26  1  0.49483344  0.75266446  0.24651502  1
  Sb  Sb27  1  0.00963564  0.24907090  0.24655717  1
  Sb  Sb28  1  0.25058842  0.50012843  0.75981555  1
  Sb  Sb29  1  0.74649117  0.00034754  0.24532295  1
  Sb  Sb30  1  0.74249190  0.24697251  -0.00161496  1
  Sb  Sb31  1  0.49791019  0.75388228  0.75448073  1
  Te  Te32  1  0.25235016  0.24781367  0.24664851  1
  Te  Te33  1  0.25404556  0.25081811  0.75069941  1
  Te  Te34  1  0.25025650  0.75159097  0.24853338  1
  Te  Te35  1  0.24700296  0.74923081  0.75095823  1
  Te  Te36  1  0.73930190  0.24977597  0.25166478  1
  Te  Te37  1  0.74445903  0.24470637  0.74926792  1
  Te  Te38  1  0.75086785  0.74981947  0.24371354  1
  Te  Te39  1  0.75291275  0.75325299  0.75456075  1
  Te  Te40  1  0.25195272  -0.00073513  0.00042577  1
  Te  Te41  1  0.25316491  -0.00026226  0.49575608  1
  Te  Te42  1  0.25176210  0.50100170  0.00217919  1
  Te  Te43  1  0.25007801  0.50192403  0.49033681  1
  Te  Te44  1  0.74866867  -0.00315126  -0.00177832  1
  Te  Te45  1  0.74316437  -0.00062655  0.50364620  1
  Te  Te46  1  0.75006645  0.50647422  0.00059314  1
  Te  Te47  1  0.75159255  0.50067639  0.49871286  1
  Te  Te48  1  0.00532896  0.24891886  -0.00072838  1
  Te  Te49  1  0.00836650  0.25065697  0.50071567  1
  Te  Te50  1  0.00521667  0.75202968  -0.00186796  1
  Te  Te51  1  0.00480810  0.74997535  0.50817959  1
  Te  Te52  1  0.49857147  0.24761299  -0.00036149  1
  Te  Te53  1  0.49543458  0.24728702  0.50114727  1
  Te  Te54  1  0.49523346  0.75140286  -0.00143757  1
  Te  Te55  1  0.49490294  0.75381382  0.50209924  1
  Te  Te56  1  0.00417464  0.00108753  0.24515449  1
  Te  Te57  1  -0.00541975  -0.00217801  0.75362419  1
  Te  Te58  1  0.00427938  0.49932239  0.24367807  1
  Te  Te59  1  -0.00096209  0.50312654  0.75631454  1
  Te  Te60  1  0.49663359  0.00168208  0.24762590  1
  Te  Te61  1  0.50226212  0.00216656  0.75299692  1
  Te  Te62  1  0.49634042  0.49571226  0.24574141  1
  Te  Te63  1  0.50131238  0.49268567  0.75517019  1
