# generated using pymatgen
data_AgSbTe2
_symmetry_space_group_name_H-M   'P 1'
_cell_length_a   12.22623814
_cell_length_b   12.22317298
_cell_length_c   12.21482925
_cell_angle_alpha   90.00986470
_cell_angle_beta   90.00544132
_cell_angle_gamma   89.99995606
_symmetry_Int_Tables_number   1
_chemical_formula_structural   AgSbTe2
_chemical_formula_sum   'Ag16 Sb16 Te32'
_cell_volume   1825.42586683
_cell_formula_units_Z   16
loop_
 _symmetry_equiv_pos_site_id
 _symmetry_equiv_pos_as_xyz
  1  'x, y, z'
loop_
 _atom_site_type_symbol
 _atom_site_label
 _atom_site_symmetry_multiplicity
 _atom_site_fract_x
 _atom_site_fract_y
 _atom_site_fract_z
 _atom_site_occupancy
  Ag  Ag0  1  0.49775028  0.74885814  0.25336849  1
  Ag  Ag1  1  0.49995484  0.49619058  0.50435451  1
  Ag  Ag2  1  -0.00212646  0.25715137  0.74787087  1
  Ag  Ag3  1  0.50188969  0.25819192  0.74269251  1
  Ag  Ag4  1  0.25365941  -0.00220368  0.25504679  1
  Ag  Ag5  1  0.25705129  0.25133748  0.50010707  1
  Ag  Ag6  1  0.50186035  0.74126789  0.74638074  1
  Ag  Ag7  1  0.49997286  0.00341799  0.49654682  1
  Ag  Ag8  1  0.00033138  0.50145141  -0.00355880  1
  Ag  Ag9  1  0.49981011  0.50072150  -0.00361148  1
  Ag  Ag10  1  0.25353102  0.50190042  0.25184726  1
  Ag  Ag11  1  0.74290598  0.25128584  0.50343144  1
  Ag  Ag12  1  -0.00172575  0.74324731  0.74993049  1
  Ag  Ag13  1  0.74573103  -0.00126839  0.25493923  1
  Ag  Ag14  1  0.00227919  0.74775007  0.25038210  1
  Ag  Ag15  1  0.74596963  0.49796477  0.74825324  1
  Sb  Sb16  1  0.74969631  0.74793695  -0.00041007  1
  Sb  Sb17  1  0.25226978  0.00140322  0.74494582  1
  Sb  Sb18  1  0.74743728  0.50080777  0.25267732  1
  Sb  Sb19  1  0.00055220  0.49899875  0.50340024  1
  Sb  Sb20  1  0.25025718  0.74705010  0.00257944  1
  Sb  Sb21  1  0.74639080  0.74860097  0.50013741  1
  Sb  Sb22  1  0.74741685  0.00146296  0.74547359  1
  Sb  Sb23  1  0.00028759  0.00101942  0.49801854  1
  Sb  Sb24  1  0.49951656  0.25161632  0.25767051  1
  Sb  Sb25  1  0.25362103  0.74818551  0.49689777  1
  Sb  Sb26  1  0.25430894  0.49924852  0.74688355  1
  Sb  Sb27  1  0.49972751  -0.00012225  0.00310225  1
  Sb  Sb28  1  0.25170344  0.25346667  -0.00031976  1
  Sb  Sb29  1  0.74855409  0.25292156  -0.00382708  1
  Sb  Sb30  1  0.00038795  -0.00071210  0.00098999  1
  Sb  Sb31  1  0.00030080  0.25324039  0.25067027  1
  Te  Te32  1  0.24862860  0.25088655  0.25568224  1
  Te  Te33  1  0.24990710  0.24856501  0.74401103  1
  Te  Te34  1  0.25037948  0.74886431  0.25100485  1
  Te  Te35  1  0.24897754  0.75176920  0.74900114  1
  Te  Te36  1  0.75147284  0.24606133  0.25725188  1
  Te  Te37  1  0.74961561  0.25151507  0.74627139  1
  Te  Te38  1  0.75008352  0.75265494  0.25054892  1
  Te  Te39  1  0.74984108  0.74730338  0.74962913  1
  Te  Te40  1  0.25046786  0.00188403  0.01226353  1
  Te  Te41  1  0.25512606  0.00586371  0.49512264  1
  Te  Te42  1  0.25078046  0.49880518  0.00891512  1
  Te  Te43  1  0.25497581  0.49507864  0.49441145  1
  Te  Te44  1  0.74956880  0.00184526  0.01168468  1
  Te  Te45  1  0.74489876  0.00546425  0.49602105  1
  Te  Te46  1  0.74915913  0.49906979  -0.00625715  1
  Te  Te47  1  0.74475596  0.49504018  0.50481901  1
  Te  Te48  1  0.00021993  0.25588069  -0.00730372  1
  Te  Te49  1  0.00004116  0.25007401  0.50523787  1
  Te  Te50  1  0.00009607  0.74450961  -0.00214726  1
  Te  Te51  1  -0.00057534  0.75036286  0.50137540  1
  Te  Te52  1  0.49975981  0.25563800  -0.01071900  1
  Te  Te53  1  0.49989154  0.25098710  0.50120283  1
  Te  Te54  1  0.49987665  0.74470381  -0.00136107  1
  Te  Te55  1  0.50046047  0.74948144  0.50068570  1
  Te  Te56  1  0.00195480  -0.00634587  0.24901460  1
  Te  Te57  1  -0.00019254  -0.00386647  0.75125196  1
  Te  Te58  1  -0.00026821  0.50462190  0.24782550  1
  Te  Te59  1  0.00090154  0.50241845  0.75041435  1
  Te  Te60  1  0.49891714  -0.00302625  0.25118355  1
  Te  Te61  1  0.50044389  -0.00293076  0.74743323  1
  Te  Te62  1  0.50063209  0.50227444  0.24968242  1
  Te  Te63  1  0.49792921  0.50215683  0.74897164  1
