# generated using pymatgen
data_AgSbTe2
_symmetry_space_group_name_H-M   'P 1'
_cell_length_a   12.22115606
_cell_length_b   12.21541512
_cell_length_c   12.22340586
_cell_angle_alpha   89.99894483
_cell_angle_beta   89.99820206
_cell_angle_gamma   90.00287446
_symmetry_Int_Tables_number   1
_chemical_formula_structural   AgSbTe2
_chemical_formula_sum   'Ag16 Sb16 Te32'
_cell_volume   1824.78940835
_cell_formula_units_Z   16
loop_
 _symmetry_equiv_pos_site_id
 _symmetry_equiv_pos_as_xyz
  1  'x, y, z'
loop_
 _atom_site_type_symbol
 _atom_site_label
 _atom_site_symmetry_multiplicity
 _atom_site_fract_x
 _atom_site_fract_y
 _atom_site_fract_z
 _atom_site_occupancy
  Ag  Ag0  1  0.24717030  -0.00289834  0.24909498  1
  Ag  Ag1  1  0.49548384  -0.00063444  0.00234070  1
  Ag  Ag2  1  0.49673846  0.74824997  0.74568698  1
  Ag  Ag3  1  0.00449833  -0.00078455  0.00292530  1
  Ag  Ag4  1  0.00249546  0.74950661  0.74157207  1
  Ag  Ag5  1  0.24940891  0.50243356  0.25753020  1
  Ag  Ag6  1  0.49045693  0.50582905  0.49930802  1
  Ag  Ag7  1  0.75408706  0.74952139  0.49945427  1
  Ag  Ag8  1  0.24963875  0.24655879  0.00215696  1
  Ag  Ag9  1  0.00867776  0.50732335  0.49912252  1
  Ag  Ag10  1  0.24848778  0.25564163  0.49818743  1
  Ag  Ag11  1  0.49453542  0.75009291  0.25402305  1
  Ag  Ag12  1  0.24958580  0.50240082  0.74184086  1
  Ag  Ag13  1  0.00482077  -0.00952447  0.49714470  1
  Ag  Ag14  1  0.00482744  0.75224654  0.25775337  1
  Ag  Ag15  1  0.75073966  0.24681213  0.00072450  1
  Sb  Sb16  1  0.00418741  0.50166344  0.00170761  1
  Sb  Sb17  1  0.49539772  0.24962050  0.24958967  1
  Sb  Sb18  1  0.75072786  0.75215021  0.00018152  1
  Sb  Sb19  1  0.49240977  -0.00848788  0.49769412  1
  Sb  Sb20  1  0.75058819  -0.00180556  0.74993064  1
  Sb  Sb21  1  0.49591114  0.50171202  0.00129879  1
  Sb  Sb22  1  0.49637480  0.25166856  0.75017024  1
  Sb  Sb23  1  0.75121172  0.25012165  0.49904688  1
  Sb  Sb24  1  0.24852268  -0.00358893  0.74950257  1
  Sb  Sb25  1  0.75343676  -0.00236679  0.24986516  1
  Sb  Sb26  1  0.00328435  0.25140702  0.75028437  1
  Sb  Sb27  1  0.24934907  0.75488966  0.00267122  1
  Sb  Sb28  1  0.24355625  0.74289671  0.49768135  1
  Sb  Sb29  1  0.00496758  0.24766892  0.24979961  1
  Sb  Sb30  1  0.75043712  0.50304544  0.74846588  1
  Sb  Sb31  1  0.75096627  0.50295823  0.25175652  1
  Te  Te32  1  0.24986044  0.25057762  0.25031609  1
  Te  Te33  1  0.25010199  0.25698128  0.74911389  1
  Te  Te34  1  0.24963770  0.75057540  0.24855101  1
  Te  Te35  1  0.25012772  0.74476662  0.75301161  1
  Te  Te36  1  0.74887883  0.25029470  0.24394008  1
  Te  Te37  1  0.74931861  0.25059271  0.75658262  1
  Te  Te38  1  0.75032769  0.74950624  0.25448692  1
  Te  Te39  1  0.75073134  0.74902635  0.74536089  1
  Te  Te40  1  0.24851280  0.00390397  0.00075147  1
  Te  Te41  1  0.24662823  0.00852319  0.49797988  1
  Te  Te42  1  0.24974461  0.49081790  0.00206269  1
  Te  Te43  1  0.24944587  0.49856771  0.49830352  1
  Te  Te44  1  0.75121555  0.00383799  -0.00002772  1
  Te  Te45  1  0.75805271  -0.00181995  0.49982877  1
  Te  Te46  1  0.75012324  0.49133261  0.00026579  1
  Te  Te47  1  0.75123366  0.50146858  0.49954564  1
  Te  Te48  1  0.00322856  0.24455956  -0.00038956  1
  Te  Te49  1  0.00133403  0.25166898  0.50033141  1
  Te  Te50  1  -0.00220989  0.75446379  0.00056667  1
  Te  Te51  1  0.00049147  0.75013447  0.49957521  1
  Te  Te52  1  0.49641220  0.24461817  -0.00028744  1
  Te  Te53  1  0.49873793  0.25645823  0.50076265  1
  Te  Te54  1  0.50240880  0.75381532  0.00065804  1
  Te  Te55  1  0.50419638  0.74861133  0.49947893  1
  Te  Te56  1  0.00354154  -0.00334481  0.24989870  1
  Te  Te57  1  0.00099442  -0.00642743  0.74979057  1
  Te  Te58  1  0.00492438  0.50591682  0.25246505  1
  Te  Te59  1  0.00437499  0.50536872  0.74726013  1
  Te  Te60  1  0.49445416  -0.00510347  0.24742858  1
  Te  Te61  1  0.49931911  -0.00761652  0.75419702  1
  Te  Te62  1  0.49512726  0.50577859  0.25239166  1
  Te  Te63  1  0.49574233  0.50581716  0.74728717  1
