# generated using pymatgen
data_AgSbTe2
_symmetry_space_group_name_H-M   'P 1'
_cell_length_a   12.21076843
_cell_length_b   12.21200992
_cell_length_c   12.21423239
_cell_angle_alpha   90.00297660
_cell_angle_beta   90.00297659
_cell_angle_gamma   89.99875855
_symmetry_Int_Tables_number   1
_chemical_formula_structural   AgSbTe2
_chemical_formula_sum   'Ag16 Sb16 Te32'
_cell_volume   1821.36220727
_cell_formula_units_Z   16
loop_
 _symmetry_equiv_pos_site_id
 _symmetry_equiv_pos_as_xyz
  1  'x, y, z'
loop_
 _atom_site_type_symbol
 _atom_site_label
 _atom_site_symmetry_multiplicity
 _atom_site_fract_x
 _atom_site_fract_y
 _atom_site_fract_z
 _atom_site_occupancy
  Ag  Ag0  1  0.00267096  0.25425876  0.74537720  1
  Ag  Ag1  1  0.75318236  -0.00265922  0.25090286  1
  Ag  Ag2  1  0.75361405  0.50283136  0.74896097  1
  Ag  Ag3  1  -0.00243417  0.74439627  0.25252674  1
  Ag  Ag4  1  0.75455721  0.50342051  0.25100084  1
  Ag  Ag5  1  0.75577432  0.25539722  0.50097812  1
  Ag  Ag6  1  0.24817354  0.25394356  -0.00274394  1
  Ag  Ag7  1  0.24625462  0.50105751  0.25286080  1
  Ag  Ag8  1  0.50128766  0.50188351  -0.00169563  1
  Ag  Ag9  1  0.00050172  0.50033694  0.50093085  1
  Ag  Ag10  1  0.75098657  0.74496609  -0.00005600  1
  Ag  Ag11  1  0.24492425  0.74555048  0.50285988  1
  Ag  Ag12  1  0.49996868  0.74620012  0.75059861  1
  Ag  Ag13  1  0.24768489  -0.00022289  0.74839621  1
  Ag  Ag14  1  0.24444622  0.25501978  0.50366417  1
  Ag  Ag15  1  0.00039028  0.74496584  0.74642044  1
  Sb  Sb16  1  0.49742092  0.25401676  0.75041057  1
  Sb  Sb17  1  -0.00086982  0.50080332  -0.00084028  1
  Sb  Sb18  1  -0.00019683  -0.00017099  -0.00011472  1
  Sb  Sb19  1  0.50003742  0.25299710  0.24966343  1
  Sb  Sb20  1  0.50023974  -0.00182281  0.50147058  1
  Sb  Sb21  1  0.24554597  0.49989311  0.74721576  1
  Sb  Sb22  1  0.24712189  -0.00164468  0.25084031  1
  Sb  Sb23  1  0.75637270  0.74387634  0.49975131  1
  Sb  Sb24  1  0.50015002  -0.00235586  -0.00242447  1
  Sb  Sb25  1  0.24931612  0.74583958  -0.00276115  1
  Sb  Sb26  1  0.49929503  0.50177533  0.50245191  1
  Sb  Sb27  1  0.00007612  -0.00021048  0.50036587  1
  Sb  Sb28  1  0.50249004  0.74604553  0.24990800  1
  Sb  Sb29  1  -0.00028711  0.25688385  0.25570066  1
  Sb  Sb30  1  0.75197764  -0.00227509  0.74896874  1
  Sb  Sb31  1  0.75189930  0.25528876  -0.00072930  1
  Te  Te32  1  0.24874861  0.25194868  0.25254445  1
  Te  Te33  1  0.24784317  0.25018550  0.74641264  1
  Te  Te34  1  0.24612186  0.74857786  0.25214817  1
  Te  Te35  1  0.24595970  0.75003339  0.74921044  1
  Te  Te36  1  0.75128857  0.25353126  0.25259472  1
  Te  Te37  1  0.75320915  0.25085090  0.74749861  1
  Te  Te38  1  0.75269557  0.74484740  0.24994340  1
  Te  Te39  1  0.75340831  0.74952165  0.75008089  1
  Te  Te40  1  0.25110631  0.00732543  -0.00326719  1
  Te  Te41  1  0.25023983  0.00156013  0.50320489  1
  Te  Te42  1  0.25366145  0.49681098  0.00492040  1
  Te  Te43  1  0.24852880  0.49891613  0.49706280  1
  Te  Te44  1  0.74888017  -0.00470269  0.00534026  1
  Te  Te45  1  0.74976890  0.00895402  0.49528348  1
  Te  Te46  1  0.74751993  0.50176994  0.00092383  1
  Te  Te47  1  0.75185299  0.49714139  0.49927941  1
  Te  Te48  1  0.00562517  0.25005697  -0.00837540  1
  Te  Te49  1  0.00188057  0.25477409  0.50346224  1
  Te  Te50  1  -0.00422335  0.74979622  -0.00137202  1
  Te  Te51  1  0.00313828  0.74515928  0.50215427  1
  Te  Te52  1  0.49406973  0.25703088  -0.00096286  1
  Te  Te53  1  0.49730997  0.25015877  0.50085512  1
  Te  Te54  1  0.50373947  0.74495463  -0.00540829  1
  Te  Te55  1  0.49068431  0.74897141  0.50722777  1
  Te  Te56  1  -0.00571557  -0.00937132  0.24984831  1
  Te  Te57  1  0.00491534  -0.00143788  0.75010132  1
  Te  Te58  1  -0.00099794  0.50357058  0.25329335  1
  Te  Te59  1  -0.00355992  0.50177671  0.74671511  1
  Te  Te60  1  0.50840233  -0.00121333  0.24950091  1
  Te  Te61  1  0.49410068  -0.00827243  0.75085207  1
  Te  Te62  1  0.50062842  0.50172985  0.24410999  1
  Te  Te63  1  0.50659685  0.50475797  0.75395757  1
