# generated using pymatgen
data_AgSbTe2
_symmetry_space_group_name_H-M   'P 1'
_cell_length_a   12.30185983
_cell_length_b   12.33887731
_cell_length_c   12.33887716
_cell_angle_alpha   89.99426629
_cell_angle_beta   90.00286303
_cell_angle_gamma   90.00286308
_symmetry_Int_Tables_number   1
_chemical_formula_structural   AgSbTe2
_chemical_formula_sum   'Ag16 Sb16 Te32'
_cell_volume   1872.93220584
_cell_formula_units_Z   16
loop_
 _symmetry_equiv_pos_site_id
 _symmetry_equiv_pos_as_xyz
  1  'x, y, z'
loop_
 _atom_site_type_symbol
 _atom_site_label
 _atom_site_symmetry_multiplicity
 _atom_site_fract_x
 _atom_site_fract_y
 _atom_site_fract_z
 _atom_site_occupancy
  Ag  Ag0  1  0.47850790  0.50798659  0.49669729  1
  Ag  Ag1  1  0.47871597  0.50293657  0.00293653  1
  Ag  Ag2  1  0.02008709  -0.00262009  0.00780395  1
  Ag  Ag3  1  0.24471333  0.49937066  0.77022979  1
  Ag  Ag4  1  0.01827079  0.50161322  0.00161320  1
  Ag  Ag5  1  0.01126651  0.74878186  0.24878177  1
  Ag  Ag6  1  0.24471390  -0.01180203  0.23972585  1
  Ag  Ag7  1  0.24471327  0.27022996  -0.00062948  1
  Ag  Ag8  1  0.47983141  -0.00675418  0.49324581  1
  Ag  Ag9  1  0.24452333  0.51274792  0.23513502  1
  Ag  Ag10  1  0.00795665  0.25385368  0.75385376  1
  Ag  Ag11  1  0.24471400  0.73972586  0.48819753  1
  Ag  Ag12  1  0.01925201  -0.00708250  0.49291751  1
  Ag  Ag13  1  0.47850701  -0.00330270  0.00798658  1
  Ag  Ag14  1  0.24452339  0.73513559  0.01274799  1
  Ag  Ag15  1  0.02008770  0.50780390  0.49737990  1
  Sb  Sb16  1  0.75358721  0.49839038  0.75022691  1
  Sb  Sb17  1  0.75303158  0.00104829  0.75023918  1
  Sb  Sb18  1  0.75496928  -0.00212177  0.24946057  1
  Sb  Sb19  1  0.49291575  0.25278707  0.75278706  1
  Sb  Sb20  1  0.75396743  0.50207237  0.24953049  1
  Sb  Sb21  1  0.49166356  0.75018885  0.25018887  1
  Sb  Sb22  1  0.00648422  0.25072606  0.24987109  1
  Sb  Sb23  1  0.75303145  0.25023915  0.50104841  1
  Sb  Sb24  1  0.49177368  0.74986220  0.75040491  1
  Sb  Sb25  1  0.75496937  0.74946057  0.49787833  1
  Sb  Sb26  1  0.24871707  0.25431135  0.50228130  1
  Sb  Sb27  1  0.75358705  0.25022695  -0.00160974  1
  Sb  Sb28  1  0.24871707  0.00228146  0.75431122  1
  Sb  Sb29  1  0.00648416  0.74987103  0.75072608  1
  Sb  Sb30  1  0.75396746  0.74953043  0.00207229  1
  Sb  Sb31  1  0.49177383  0.25040489  0.24986215  1
  Te  Te32  1  0.25271106  0.24471034  0.23667225  1
  Te  Te33  1  0.24648003  0.25968681  0.75968727  1
  Te  Te34  1  0.24847834  0.75298058  0.25298073  1
  Te  Te35  1  0.25271113  0.73667244  0.74471066  1
  Te  Te36  1  0.74580028  0.24990224  0.25100286  1
  Te  Te37  1  0.76781204  0.24918057  0.74918053  1
  Te  Te38  1  0.77554580  0.75005977  0.25005973  1
  Te  Te39  1  0.74580026  0.75100285  0.74990227  1
  Te  Te40  1  0.24888102  -0.00888354  -0.00783990  1
  Te  Te41  1  0.24886711  0.00993685  0.50993673  1
  Te  Te42  1  0.24869157  0.50413560  0.00413613  1
  Te  Te43  1  0.24887987  0.49215991  0.49111673  1
  Te  Te44  1  0.74445314  -0.00066170  0.00038764  1
  Te  Te45  1  0.74551391  -0.00051646  0.49948358  1
  Te  Te46  1  0.74430597  0.50044628  0.00044629  1
  Te  Te47  1  0.74445293  0.50038769  0.49933831  1
  Te  Te48  1  0.00006813  0.24975068  -0.00030845  1
  Te  Te49  1  -0.00083466  0.24880224  0.50230733  1
  Te  Te50  1  0.00166223  0.75116177  -0.00270485  1
  Te  Te51  1  0.00434103  0.75035674  0.50337170  1
  Te  Te52  1  0.50008514  0.24901850  -0.00053147  1
  Te  Te53  1  0.50245212  0.24753960  0.50102741  1
  Te  Te54  1  0.49802000  0.75122955  0.00182332  1
  Te  Te55  1  0.49450158  0.75032304  0.49772903  1
  Te  Te56  1  0.00434116  0.00337199  0.25035662  1
  Te  Te57  1  -0.00083482  0.00230764  0.74880231  1
  Te  Te58  1  0.00166224  0.49729488  0.25116169  1
  Te  Te59  1  0.00006814  0.49969125  0.74975074  1
  Te  Te60  1  0.49450162  -0.00227112  0.25032311  1
  Te  Te61  1  0.50245218  0.00102718  0.74753955  1
  Te  Te62  1  0.49802010  0.50182352  0.25122960  1
  Te  Te63  1  0.50008494  0.49946870  0.74901845  1
