# generated using pymatgen
data_AgSbTe2
_symmetry_space_group_name_H-M   'P 1'
_cell_length_a   12.30358021
_cell_length_b   12.27964135
_cell_length_c   12.29686846
_cell_angle_alpha   90.00284520
_cell_angle_beta   90.01122878
_cell_angle_gamma   90.00661367
_symmetry_Int_Tables_number   1
_chemical_formula_structural   AgSbTe2
_chemical_formula_sum   'Ag16 Sb16 Te32'
_cell_volume   1857.85451887
_cell_formula_units_Z   16
loop_
 _symmetry_equiv_pos_site_id
 _symmetry_equiv_pos_as_xyz
  1  'x, y, z'
loop_
 _atom_site_type_symbol
 _atom_site_label
 _atom_site_symmetry_multiplicity
 _atom_site_fract_x
 _atom_site_fract_y
 _atom_site_fract_z
 _atom_site_occupancy
  Ag  Ag0  1  0.75354023  0.26054974  -0.01264185  1
  Ag  Ag1  1  0.25083058  0.74071854  -0.01292253  1
  Ag  Ag2  1  -0.00058640  0.49893571  -0.01121266  1
  Ag  Ag3  1  -0.01153527  0.26540990  0.75488365  1
  Ag  Ag4  1  -0.00183196  0.25911410  0.24348585  1
  Ag  Ag5  1  0.74938100  0.73999454  -0.01007628  1
  Ag  Ag6  1  0.74978888  0.25875910  0.51678861  1
  Ag  Ag7  1  0.24691091  0.50100442  0.24494149  1
  Ag  Ag8  1  0.49338894  0.73626666  0.75471563  1
  Ag  Ag9  1  0.51058403  0.26529941  0.75263003  1
  Ag  Ag10  1  0.50160839  -0.00263023  -0.00596053  1
  Ag  Ag11  1  0.75107732  0.49305981  0.75586188  1
  Ag  Ag12  1  0.49684842  0.50036031  0.51092811  1
  Ag  Ag13  1  0.25249958  0.74052651  0.51522721  1
  Ag  Ag14  1  0.24982810  0.50756146  0.75249117  1
  Ag  Ag15  1  0.00694099  0.73366590  0.75782285  1
  Sb  Sb16  1  0.00223279  0.50007566  0.50946025  1
  Sb  Sb17  1  0.74995170  0.00145648  0.24691302  1
  Sb  Sb18  1  0.00068357  0.00123468  0.50158663  1
  Sb  Sb19  1  0.00058689  -0.00036582  -0.00051624  1
  Sb  Sb20  1  0.00311394  0.74045447  0.24255141  1
  Sb  Sb21  1  0.50169709  0.50033881  -0.00640036  1
  Sb  Sb22  1  0.49845920  0.74458601  0.24417547  1
  Sb  Sb23  1  0.74847340  0.74046995  0.51648241  1
  Sb  Sb24  1  0.49911059  -0.00007263  0.50531427  1
  Sb  Sb25  1  0.25170326  0.25726372  0.50461601  1
  Sb  Sb26  1  0.25011949  -0.00839700  0.75183813  1
  Sb  Sb27  1  0.50059048  0.25592763  0.24494376  1
  Sb  Sb28  1  0.25036411  0.00118441  0.24640235  1
  Sb  Sb29  1  0.75258127  0.49904859  0.24568820  1
  Sb  Sb30  1  0.24786333  0.25881626  -0.00451883  1
  Sb  Sb31  1  0.75003630  0.00692872  0.75022070  1
  Te  Te32  1  0.24590163  0.25645158  0.25052426  1
  Te  Te33  1  0.25060333  0.25832113  0.74961508  1
  Te  Te34  1  0.24943179  0.74307141  0.24738510  1
  Te  Te35  1  0.25008648  0.74611726  0.75270730  1
  Te  Te36  1  0.75302996  0.25143326  0.24288039  1
  Te  Te37  1  0.74929088  0.25309480  0.75393754  1
  Te  Te38  1  0.75180102  0.74971987  0.23573868  1
  Te  Te39  1  0.75027938  0.74573268  0.75266069  1
  Te  Te40  1  0.25493491  -0.01505863  0.00056920  1
  Te  Te41  1  0.24972269  -0.01754409  0.49761923  1
  Te  Te42  1  0.24893817  0.50238708  -0.00538819  1
  Te  Te43  1  0.24979242  0.50346052  0.50785290  1
  Te  Te44  1  0.74650601  -0.00134352  -0.00111402  1
  Te  Te45  1  0.75074634  0.01421541  0.49792000  1
  Te  Te46  1  0.75053016  0.49893023  -0.00307131  1
  Te  Te47  1  0.74654095  0.49649589  0.50314919  1
  Te  Te48  1  0.00100846  0.24892597  -0.00863435  1
  Te  Te49  1  -0.00251307  0.25081938  0.50930387  1
  Te  Te50  1  -0.00165252  0.75128303  -0.00331301  1
  Te  Te51  1  -0.00036521  0.75074738  0.50664445  1
  Te  Te52  1  0.50133768  0.25262091  -0.00428277  1
  Te  Te53  1  0.50049233  0.24820210  0.50502638  1
  Te  Te54  1  0.50250537  0.74527652  -0.00410330  1
  Te  Te55  1  0.50178067  0.75126858  0.50579841  1
  Te  Te56  1  0.00003912  0.01795663  0.25201281  1
  Te  Te57  1  0.00046632  0.00312016  0.74890869  1
  Te  Te58  1  0.00319535  0.49604005  0.24025181  1
  Te  Te59  1  -0.00125506  0.50014869  0.75381302  1
  Te  Te60  1  0.49925107  0.00046255  0.23949556  1
  Te  Te61  1  0.49951634  0.00068250  0.75550614  1
  Te  Te62  1  0.49089680  0.49995366  0.26688706  1
  Te  Te63  1  0.50031904  0.49946117  0.74797937  1
