# generated using pymatgen
data_AgSbTe2
_symmetry_space_group_name_H-M   'P 1'
_cell_length_a   12.24405850
_cell_length_b   12.26820963
_cell_length_c   12.23970593
_cell_angle_alpha   89.99844158
_cell_angle_beta   89.99676163
_cell_angle_gamma   90.00115107
_symmetry_Int_Tables_number   1
_chemical_formula_structural   AgSbTe2
_chemical_formula_sum   'Ag16 Sb16 Te32'
_cell_volume   1838.55898237
_cell_formula_units_Z   16
loop_
 _symmetry_equiv_pos_site_id
 _symmetry_equiv_pos_as_xyz
  1  'x, y, z'
loop_
 _atom_site_type_symbol
 _atom_site_label
 _atom_site_symmetry_multiplicity
 _atom_site_fract_x
 _atom_site_fract_y
 _atom_site_fract_z
 _atom_site_occupancy
  Ag  Ag0  1  0.00885154  0.75643205  0.75116472  1
  Ag  Ag1  1  0.25132328  0.24680100  -0.01539506  1
  Ag  Ag2  1  0.25198885  0.48502353  0.74701770  1
  Ag  Ag3  1  0.00618082  0.00026299  -0.00879195  1
  Ag  Ag4  1  0.49485604  0.49514682  0.50612758  1
  Ag  Ag5  1  0.75156666  0.00284256  0.74884825  1
  Ag  Ag6  1  0.25713012  0.24882444  0.51388841  1
  Ag  Ag7  1  0.49536049  0.75192737  0.25495476  1
  Ag  Ag8  1  0.25431179  0.75131341  0.51159950  1
  Ag  Ag9  1  0.24808123  0.01318316  0.75000417  1
  Ag  Ag10  1  0.01391168  0.24489004  0.75037274  1
  Ag  Ag11  1  0.49489961  0.24878060  0.25901371  1
  Ag  Ag12  1  0.74708599  0.49720493  0.74734367  1
  Ag  Ag13  1  0.49466886  0.00453376  0.50607220  1
  Ag  Ag14  1  0.48579261  0.24917374  0.74397833  1
  Ag  Ag15  1  0.24984712  0.75370641  -0.01373028  1
  Sb  Sb16  1  0.74523146  0.75077173  0.50533690  1
  Sb  Sb17  1  0.00465499  0.49954876  0.50675118  1
  Sb  Sb18  1  0.25327446  0.49977790  0.25285483  1
  Sb  Sb19  1  0.00617003  0.24751137  0.25046126  1
  Sb  Sb20  1  0.49614045  0.00099700  -0.00586458  1
  Sb  Sb21  1  0.25251688  0.00011321  0.25097270  1
  Sb  Sb22  1  0.00473072  0.75276311  0.25006871  1
  Sb  Sb23  1  0.00521901  0.00085410  0.50767721  1
  Sb  Sb24  1  0.74427809  0.00057292  0.25069629  1
  Sb  Sb25  1  0.74182500  0.24966373  0.50596346  1
  Sb  Sb26  1  0.74879385  0.24845552  -0.00546390  1
  Sb  Sb27  1  0.49732868  0.49914538  -0.00579443  1
  Sb  Sb28  1  0.00317345  0.49976772  -0.00620311  1
  Sb  Sb29  1  0.74818023  0.75212716  -0.00534435  1
  Sb  Sb30  1  0.74211757  0.49938711  0.25384534  1
  Sb  Sb31  1  0.49063359  0.75025486  0.74774089  1
  Te  Te32  1  0.25505488  0.25089167  0.24977682  1
  Te  Te33  1  0.25000565  0.24927102  0.74995922  1
  Te  Te34  1  0.25407895  0.74924242  0.25090096  1
  Te  Te35  1  0.24927685  0.75171462  0.75013990  1
  Te  Te36  1  0.74237167  0.25052008  0.24902441  1
  Te  Te37  1  0.75211201  0.24907076  0.74984330  1
  Te  Te38  1  0.74338558  0.74917512  0.24948705  1
  Te  Te39  1  0.75970306  0.75057498  0.75030936  1
  Te  Te40  1  0.24975114  -0.00034852  -0.00119303  1
  Te  Te41  1  0.25262656  -0.00043742  0.50080771  1
  Te  Te42  1  0.25088123  0.50023199  -0.00498106  1
  Te  Te43  1  0.25336625  0.50032648  0.50279109  1
  Te  Te44  1  0.75546753  -0.00042782  -0.00680478  1
  Te  Te45  1  0.74411823  -0.00054875  0.50514205  1
  Te  Te46  1  0.74976413  0.50059593  -0.00885917  1
  Te  Te47  1  0.74303874  0.50032249  0.50578725  1
  Te  Te48  1  0.00486363  0.24816509  -0.00101690  1
  Te  Te49  1  0.00864802  0.24901691  0.50063511  1
  Te  Te50  1  0.00474287  0.75181207  -0.00169894  1
  Te  Te51  1  0.00782682  0.75034170  0.50078423  1
  Te  Te52  1  0.49541871  0.25005037  -0.00311783  1
  Te  Te53  1  0.49807522  0.24907056  0.50364176  1
  Te  Te54  1  0.49484590  0.74994813  0.00723035  1
  Te  Te55  1  0.49626402  0.75108137  0.49910630  1
  Te  Te56  1  -0.00378692  0.00024665  0.23943352  1
  Te  Te57  1  0.00315516  0.00103553  0.74965000  1
  Te  Te58  1  -0.00460927  0.49976344  0.25080279  1
  Te  Te59  1  0.00176383  0.49793755  0.74837782  1
  Te  Te60  1  0.50171849  0.00181679  0.25589590  1
  Te  Te61  1  0.49772453  -0.00047206  0.74786893  1
  Te  Te62  1  0.50073866  0.49756732  0.25696813  1
  Te  Te63  1  0.49748267  0.50068515  0.74714093  1
