# generated using pymatgen
data_AgSbTe2
_symmetry_space_group_name_H-M   'P 1'
_cell_length_a   12.24530128
_cell_length_b   12.22494630
_cell_length_c   12.23878545
_cell_angle_alpha   90.00470962
_cell_angle_beta   89.98803658
_cell_angle_gamma   89.99906945
_symmetry_Int_Tables_number   1
_chemical_formula_structural   AgSbTe2
_chemical_formula_sum   'Ag16 Sb16 Te32'
_cell_volume   1832.12350062
_cell_formula_units_Z   16
loop_
 _symmetry_equiv_pos_site_id
 _symmetry_equiv_pos_as_xyz
  1  'x, y, z'
loop_
 _atom_site_type_symbol
 _atom_site_label
 _atom_site_symmetry_multiplicity
 _atom_site_fract_x
 _atom_site_fract_y
 _atom_site_fract_z
 _atom_site_occupancy
  Ag  Ag0  1  0.00410908  0.73483218  0.25241160  1
  Ag  Ag1  1  0.25008248  0.25882744  -0.00207506  1
  Ag  Ag2  1  0.25217273  0.00387071  0.74899892  1
  Ag  Ag3  1  0.25012717  0.74104438  0.49622507  1
  Ag  Ag4  1  0.49097510  0.49788866  0.00619728  1
  Ag  Ag5  1  0.25227234  0.49650103  0.74978816  1
  Ag  Ag6  1  0.49332438  0.49974796  0.49325478  1
  Ag  Ag7  1  0.00814320  0.49773923  0.01547718  1
  Ag  Ag8  1  0.49504365  0.73969542  0.25241233  1
  Ag  Ag9  1  0.76483195  0.49872691  0.25321962  1
  Ag  Ag10  1  0.23755891  0.50142352  0.25142487  1
  Ag  Ag11  1  0.75017117  0.25606125  0.49970316  1
  Ag  Ag12  1  0.00580006  0.49915941  0.48524659  1
  Ag  Ag13  1  0.00209059  0.26529961  0.25083210  1
  Ag  Ag14  1  0.74699618  0.00501591  0.74685078  1
  Ag  Ag15  1  0.49561479  0.25525999  0.74938849  1
  Sb  Sb16  1  0.74999715  0.25420979  0.00092694  1
  Sb  Sb17  1  0.24997151  0.74196678  0.00222497  1
  Sb  Sb18  1  0.74993421  0.74682896  0.00179331  1
  Sb  Sb19  1  0.00286224  0.00052555  0.00014818  1
  Sb  Sb20  1  0.49870687  0.00155104  0.50158753  1
  Sb  Sb21  1  0.74984752  0.74567335  0.49729233  1
  Sb  Sb22  1  0.49656272  0.74532822  0.74922541  1
  Sb  Sb23  1  0.49712628  0.00129202  -0.00219601  1
  Sb  Sb24  1  0.24986215  -0.00062501  0.25064317  1
  Sb  Sb25  1  0.49892337  0.26055587  0.25048465  1
  Sb  Sb26  1  0.00254665  0.74582720  0.74885629  1
  Sb  Sb27  1  0.00240510  0.25347575  0.74992586  1
  Sb  Sb28  1  0.00131346  0.00112904  0.49985370  1
  Sb  Sb29  1  0.24995517  0.25785194  0.50076136  1
  Sb  Sb30  1  0.74859973  0.49774544  0.74767536  1
  Sb  Sb31  1  0.75006337  0.00132788  0.25162759  1
  Te  Te32  1  0.24736000  0.25069274  0.24801719  1
  Te  Te33  1  0.25268686  0.25452754  0.75053941  1
  Te  Te34  1  0.24901732  0.74990626  0.25253010  1
  Te  Te35  1  0.25045928  0.74767909  0.74634145  1
  Te  Te36  1  0.75205109  0.25314639  0.25335920  1
  Te  Te37  1  0.74707946  0.24776517  0.74675414  1
  Te  Te38  1  0.75197360  0.74702786  0.25022601  1
  Te  Te39  1  0.74999137  0.75956776  0.74982660  1
  Te  Te40  1  0.25041250  0.00869838  -0.00574565  1
  Te  Te41  1  0.25022165  -0.00829577  0.50463700  1
  Te  Te42  1  0.25007805  0.49901628  0.00036064  1
  Te  Te43  1  0.25023400  0.50075688  0.49831322  1
  Te  Te44  1  0.74986385  -0.00031325  -0.00770683  1
  Te  Te45  1  0.75003534  0.00765719  0.50480165  1
  Te  Te46  1  0.75067199  0.49991976  0.00284742  1
  Te  Te47  1  0.75021308  0.49640710  0.49870910  1
  Te  Te48  1  0.00326831  0.25402345  0.00347870  1
  Te  Te49  1  -0.00222861  0.25355241  0.49642347  1
  Te  Te50  1  0.00010271  0.74456501  0.00586482  1
  Te  Te51  1  0.00184139  0.74592271  0.49699012  1
  Te  Te52  1  0.49631197  0.25384376  -0.00220616  1
  Te  Te53  1  0.50261350  0.25378516  0.50183342  1
  Te  Te54  1  0.49998405  0.74335722  0.00423540  1
  Te  Te55  1  0.49827650  0.74478933  0.49766882  1
  Te  Te56  1  -0.00123851  -0.00125247  0.24907531  1
  Te  Te57  1  0.00348829  -0.00073248  0.75075456  1
  Te  Te58  1  0.00105640  0.49885125  0.25101863  1
  Te  Te59  1  0.00307096  0.50081189  0.74995966  1
  Te  Te60  1  0.50098453  -0.01290162  0.24947646  1
  Te  Te61  1  0.49657429  0.00453748  0.75065587  1
  Te  Te62  1  0.49728830  0.50009535  0.25090976  1
  Te  Te63  1  0.49826520  0.49683471  0.74986399  1
