# generated using pymatgen
data_AgSbTe2
_symmetry_space_group_name_H-M   'P 1'
_cell_length_a   12.23657243
_cell_length_b   12.23980553
_cell_length_c   12.25522464
_cell_angle_alpha   89.99807999
_cell_angle_beta   90.00247121
_cell_angle_gamma   90.00674838
_symmetry_Int_Tables_number   1
_chemical_formula_structural   AgSbTe2
_chemical_formula_sum   'Ag16 Sb16 Te32'
_cell_volume   1835.50501640
_cell_formula_units_Z   16
loop_
 _symmetry_equiv_pos_site_id
 _symmetry_equiv_pos_as_xyz
  1  'x, y, z'
loop_
 _atom_site_type_symbol
 _atom_site_label
 _atom_site_symmetry_multiplicity
 _atom_site_fract_x
 _atom_site_fract_y
 _atom_site_fract_z
 _atom_site_occupancy
  Ag  Ag0  1  0.49108463  0.75254671  0.25315127  1
  Ag  Ag1  1  0.23716085  0.75347608  0.50081738  1
  Ag  Ag2  1  0.00225203  0.25008475  0.74903931  1
  Ag  Ag3  1  -0.00025513  0.51497333  0.50744131  1
  Ag  Ag4  1  0.00718876  0.75323057  0.26353127  1
  Ag  Ag5  1  0.00137985  0.51151134  -0.00784148  1
  Ag  Ag6  1  0.24173741  0.75376618  -0.00090723  1
  Ag  Ag7  1  0.00458581  0.75079753  0.73764615  1
  Ag  Ag8  1  0.24602000  -0.00783908  0.25071090  1
  Ag  Ag9  1  0.76462302  0.74913624  0.50290541  1
  Ag  Ag10  1  0.75762299  0.50587119  0.74791283  1
  Ag  Ag11  1  0.49615650  0.24665930  0.25075160  1
  Ag  Ag12  1  0.00454631  -0.01374675  0.50436810  1
  Ag  Ag13  1  0.49370539  0.75125881  0.74681679  1
  Ag  Ag14  1  0.00575241  -0.01147514  -0.00528922  1
  Ag  Ag15  1  0.24273377  -0.00726831  0.74933158  1
  Sb  Sb16  1  0.49474313  -0.00552309  0.00067347  1
  Sb  Sb17  1  0.00270110  0.24747743  0.25033411  1
  Sb  Sb18  1  0.49859480  0.50597195  0.50101477  1
  Sb  Sb19  1  0.24658358  0.24679872  -0.00012112  1
  Sb  Sb20  1  0.75974040  0.74862797  -0.00240271  1
  Sb  Sb21  1  0.49570643  -0.00585674  0.49934742  1
  Sb  Sb22  1  0.75883171  -0.00504079  0.74776509  1
  Sb  Sb23  1  0.24680214  0.24689228  0.50012096  1
  Sb  Sb24  1  0.24220299  0.51010026  0.74984726  1
  Sb  Sb25  1  0.75404277  0.25008867  0.50171491  1
  Sb  Sb26  1  0.49822279  0.50532800  -0.00157956  1
  Sb  Sb27  1  0.24856119  0.50863070  0.25023128  1
  Sb  Sb28  1  0.75281865  -0.00362767  0.25133005  1
  Sb  Sb29  1  0.49804822  0.24910255  0.74969141  1
  Sb  Sb30  1  0.75221919  0.50357605  0.25170123  1
  Sb  Sb31  1  0.75300850  0.25120392  -0.00105408  1
  Te  Te32  1  0.25530928  0.24078770  0.25020671  1
  Te  Te33  1  0.24780791  0.23974243  0.74978387  1
  Te  Te34  1  0.24794200  0.75137894  0.25108064  1
  Te  Te35  1  0.24927998  0.75104058  0.74911541  1
  Te  Te36  1  0.74061623  0.24967093  0.25001184  1
  Te  Te37  1  0.75161493  0.25602724  0.74983845  1
  Te  Te38  1  0.74929529  0.75008145  0.25529843  1
  Te  Te39  1  0.74986913  0.74861082  0.74783056  1
  Te  Te40  1  0.24652269  -0.00349871  0.00034544  1
  Te  Te41  1  0.24688011  -0.00279876  0.49968284  1
  Te  Te42  1  0.24448532  0.50604491  -0.00002430  1
  Te  Te43  1  0.24498545  0.50581948  0.50012288  1
  Te  Te44  1  0.75986219  0.00065051  -0.00036198  1
  Te  Te45  1  0.75793563  -0.00459303  0.50028845  1
  Te  Te46  1  0.75692812  0.50019761  -0.00486879  1
  Te  Te47  1  0.75433437  0.50365181  0.50218701  1
  Te  Te48  1  0.00024548  0.25113571  -0.00414281  1
  Te  Te49  1  -0.00052148  0.25068816  0.50438404  1
  Te  Te50  1  0.00102541  0.75020895  0.00018564  1
  Te  Te51  1  0.00142836  0.75023808  0.49889372  1
  Te  Te52  1  0.50044498  0.25127675  0.00575861  1
  Te  Te53  1  0.50052763  0.25066584  0.49426329  1
  Te  Te54  1  0.49369996  0.74973926  0.00022489  1
  Te  Te55  1  0.49810427  0.75015018  0.50078644  1
  Te  Te56  1  0.00262321  -0.00054330  0.25074295  1
  Te  Te57  1  0.00095067  -0.00302500  0.74941569  1
  Te  Te58  1  0.00011430  0.50040608  0.25024203  1
  Te  Te59  1  0.00076287  0.50214697  0.74908904  1
  Te  Te60  1  0.49642878  -0.00593881  0.24975958  1
  Te  Te61  1  0.49420510  -0.00396239  0.75070333  1
  Te  Te62  1  0.49983489  0.50474103  0.24927451  1
  Te  Te63  1  0.50733474  0.50252557  0.75088115  1
