# generated using pymatgen
data_AgSbTe2
_symmetry_space_group_name_H-M   'P 1'
_cell_length_a   12.21071275
_cell_length_b   12.20796625
_cell_length_c   12.21328301
_cell_angle_alpha   90.00124639
_cell_angle_beta   90.00427139
_cell_angle_gamma   90.00342755
_symmetry_Int_Tables_number   1
_chemical_formula_structural   AgSbTe2
_chemical_formula_sum   'Ag16 Sb16 Te32'
_cell_volume   1820.60928660
_cell_formula_units_Z   16
loop_
 _symmetry_equiv_pos_site_id
 _symmetry_equiv_pos_as_xyz
  1  'x, y, z'
loop_
 _atom_site_type_symbol
 _atom_site_label
 _atom_site_symmetry_multiplicity
 _atom_site_fract_x
 _atom_site_fract_y
 _atom_site_fract_z
 _atom_site_occupancy
  Ag  Ag0  1  0.75021529  0.24990709  0.50006332  1
  Ag  Ag1  1  0.50007592  -0.00356864  0.00234766  1
  Ag  Ag2  1  0.00316353  0.74796292  0.75438944  1
  Ag  Ag3  1  0.24940465  0.75011836  -0.00048586  1
  Ag  Ag4  1  0.24706041  0.75022221  0.50065178  1
  Ag  Ag5  1  -0.00011691  0.50300593  0.50244971  1
  Ag  Ag6  1  0.74670382  -0.00283337  0.24783128  1
  Ag  Ag7  1  -0.00025793  0.74901485  0.24524216  1
  Ag  Ag8  1  0.49997767  0.50425878  0.00083987  1
  Ag  Ag9  1  -0.00010165  0.50709799  -0.00240897  1
  Ag  Ag10  1  0.50088864  0.75219135  0.24289232  1
  Ag  Ag11  1  0.75005385  0.75017662  0.00316577  1
  Ag  Ag12  1  0.25016597  -0.00318775  0.75214188  1
  Ag  Ag13  1  0.50274287  0.24781124  0.24690802  1
  Ag  Ag14  1  0.50009682  0.24879900  0.75294994  1
  Ag  Ag15  1  -0.00024956  0.25197449  0.75042633  1
  Sb  Sb16  1  0.24786090  0.50439380  0.75109590  1
  Sb  Sb17  1  -0.00346908  0.25081853  0.24953294  1
  Sb  Sb18  1  0.75287316  0.75009149  0.49692139  1
  Sb  Sb19  1  0.00038499  -0.00338934  0.50080909  1
  Sb  Sb20  1  0.49975591  0.50093856  0.50039309  1
  Sb  Sb21  1  0.24885293  0.25001501  0.50296000  1
  Sb  Sb22  1  0.49608467  0.75154535  0.75884176  1
  Sb  Sb23  1  0.49991317  -0.00034253  0.49822067  1
  Sb  Sb24  1  0.25342268  -0.00514357  0.24680477  1
  Sb  Sb25  1  0.75178281  0.50049190  0.75114548  1
  Sb  Sb26  1  0.25151494  0.24892778  -0.00195758  1
  Sb  Sb27  1  0.74791168  0.24892052  0.00079821  1
  Sb  Sb28  1  0.74953944  0.50346732  0.24870327  1
  Sb  Sb29  1  0.00030840  -0.00880467  -0.00119849  1
  Sb  Sb30  1  0.74833434  -0.00054862  0.75301861  1
  Sb  Sb31  1  0.25023660  0.50344297  0.24881330  1
  Te  Te32  1  0.25829528  0.24672472  0.25118524  1
  Te  Te33  1  0.24953403  0.24232628  0.74880828  1
  Te  Te34  1  0.24968272  0.75269125  0.24868739  1
  Te  Te35  1  0.24727945  0.75424320  0.75128114  1
  Te  Te36  1  0.74614835  0.24393306  0.25235601  1
  Te  Te37  1  0.75103399  0.24784736  0.74638148  1
  Te  Te38  1  0.74921963  0.75375532  0.24854351  1
  Te  Te39  1  0.75670147  0.75230386  0.75328841  1
  Te  Te40  1  0.25489088  -0.00528625  -0.00361960  1
  Te  Te41  1  0.25011682  -0.00688436  0.50684453  1
  Te  Te42  1  0.24990349  0.50700260  0.00003239  1
  Te  Te43  1  0.24335214  0.50702109  0.50030653  1
  Te  Te44  1  0.74483574  -0.00448034  0.00393133  1
  Te  Te45  1  0.74980545  0.00501611  0.49386001  1
  Te  Te46  1  0.75002299  0.50634681  0.00016653  1
  Te  Te47  1  0.75621543  0.49469458  0.49969271  1
  Te  Te48  1  0.00012117  0.25875792  -0.00441398  1
  Te  Te49  1  -0.00184331  0.25529153  0.50257464  1
  Te  Te50  1  0.00076213  0.74850623  0.00033345  1
  Te  Te51  1  0.00103664  0.74657999  0.49996558  1
  Te  Te52  1  0.50023557  0.25131806  -0.00003684  1
  Te  Te53  1  0.50249548  0.25230159  0.50037138  1
  Te  Te54  1  0.49970395  0.74845940  0.00066312  1
  Te  Te55  1  0.49704322  0.74692163  0.49332918  1
  Te  Te56  1  -0.00496175  -0.00419325  0.24901245  1
  Te  Te57  1  0.00353439  0.00116654  0.75149162  1
  Te  Te58  1  0.00030948  0.50425841  0.24765888  1
  Te  Te59  1  0.00026115  0.50001741  0.75217589  1
  Te  Te60  1  0.50201296  -0.00142881  0.24653511  1
  Te  Te61  1  0.49778851  0.00367816  0.75414903  1
  Te  Te62  1  0.49969189  0.50017787  0.24458580  1
  Te  Te63  1  0.49963972  0.49315647  0.75555173  1
