# generated using pymatgen
data_AgSbTe2
_symmetry_space_group_name_H-M   'P 1'
_cell_length_a   12.22893143
_cell_length_b   12.22260472
_cell_length_c   12.25002430
_cell_angle_alpha   89.99774744
_cell_angle_beta   89.99786146
_cell_angle_gamma   89.99123432
_symmetry_Int_Tables_number   1
_chemical_formula_structural   AgSbTe2
_chemical_formula_sum   'Ag16 Sb16 Te32'
_cell_volume   1831.00369640
_cell_formula_units_Z   16
loop_
 _symmetry_equiv_pos_site_id
 _symmetry_equiv_pos_as_xyz
  1  'x, y, z'
loop_
 _atom_site_type_symbol
 _atom_site_label
 _atom_site_symmetry_multiplicity
 _atom_site_fract_x
 _atom_site_fract_y
 _atom_site_fract_z
 _atom_site_occupancy
  Ag  Ag0  1  0.75648575  0.75495319  -0.00538384  1
  Ag  Ag1  1  -0.00283928  0.75411567  0.25489000  1
  Ag  Ag2  1  0.75943579  0.75443221  0.50563360  1
  Ag  Ag3  1  0.24590405  0.24405878  0.00172352  1
  Ag  Ag4  1  -0.00199748  0.50889976  0.50119871  1
  Ag  Ag5  1  -0.00732787  0.75023056  0.74591974  1
  Ag  Ag6  1  0.24100448  0.75591323  0.50069943  1
  Ag  Ag7  1  0.75796388  0.51269272  0.74992615  1
  Ag  Ag8  1  0.24536998  -0.00214079  0.24991887  1
  Ag  Ag9  1  0.75438438  -0.00572110  0.25032478  1
  Ag  Ag10  1  0.75156441  -0.00996960  0.74986465  1
  Ag  Ag11  1  0.50094232  -0.00427836  0.50046610  1
  Ag  Ag12  1  -0.00229762  0.50443678  -0.00103446  1
  Ag  Ag13  1  0.50070498  -0.00184479  -0.00052994  1
  Ag  Ag14  1  0.00114580  0.24459693  0.24829202  1
  Ag  Ag15  1  0.24923946  -0.00450902  0.74960524  1
  Sb  Sb16  1  0.24442810  0.75442560  -0.00049453  1
  Sb  Sb17  1  0.50194039  0.50208664  -0.00191955  1
  Sb  Sb18  1  0.49871998  0.24274275  0.24805813  1
  Sb  Sb19  1  0.50231616  0.50407128  0.50197134  1
  Sb  Sb20  1  0.50209288  0.75521829  0.25057220  1
  Sb  Sb21  1  -0.00120953  -0.00819709  0.49835410  1
  Sb  Sb22  1  0.75348301  0.24515114  0.49882226  1
  Sb  Sb23  1  0.24552694  0.24290090  0.49869809  1
  Sb  Sb24  1  0.24296365  0.50575361  0.74973810  1
  Sb  Sb25  1  0.00026993  0.24894699  0.75079240  1
  Sb  Sb26  1  0.24443362  0.50323463  0.25049783  1
  Sb  Sb27  1  0.75615758  0.50652397  0.25054357  1
  Sb  Sb28  1  0.50693671  0.75489550  0.74963757  1
  Sb  Sb29  1  -0.00141830  -0.00304609  0.00163112  1
  Sb  Sb30  1  0.49953283  0.24475075  0.75116709  1
  Sb  Sb31  1  0.75256912  0.24648799  0.00128502  1
  Te  Te32  1  0.24464752  0.24421831  0.24752641  1
  Te  Te33  1  0.24934670  0.24190476  0.75371504  1
  Te  Te34  1  0.24474825  0.75453925  0.25139094  1
  Te  Te35  1  0.24323670  0.75492714  0.74819700  1
  Te  Te36  1  0.75706430  0.24056189  0.24971506  1
  Te  Te37  1  0.75047662  0.24482010  0.74996517  1
  Te  Te38  1  0.75401780  0.75477693  0.25062322  1
  Te  Te39  1  0.75341712  0.75331909  0.74914796  1
  Te  Te40  1  0.25239077  0.00043337  0.00032354  1
  Te  Te41  1  0.25202370  -0.00399561  0.50028265  1
  Te  Te42  1  0.24821846  0.49528849  -0.00131921  1
  Te  Te43  1  0.24884309  0.50786816  0.50183442  1
  Te  Te44  1  0.74790898  -0.00208011  -0.00098068  1
  Te  Te45  1  0.74825856  -0.00342844  0.50084769  1
  Te  Te46  1  0.75228520  0.50282724  -0.00239685  1
  Te  Te47  1  0.75136811  0.50519872  0.50240070  1
  Te  Te48  1  0.00355700  0.25717554  0.00360504  1
  Te  Te49  1  0.00027844  0.26385020  0.49366266  1
  Te  Te50  1  -0.00345096  0.74559388  0.00003834  1
  Te  Te51  1  -0.00140687  0.74798418  0.49959886  1
  Te  Te52  1  0.49300476  0.24442425  0.00062903  1
  Te  Te53  1  0.49933665  0.24271682  0.49960919  1
  Te  Te54  1  0.50765190  0.75492339  0.00046342  1
  Te  Te55  1  0.49879663  0.75552605  0.49995604  1
  Te  Te56  1  0.00002446  -0.00237192  0.25034216  1
  Te  Te57  1  -0.00164137  -0.00299357  0.75000541  1
  Te  Te58  1  -0.00025501  0.50349418  0.24909132  1
  Te  Te59  1  -0.00319943  0.50226279  0.75058905  1
  Te  Te60  1  0.49975021  0.00034951  0.24907025  1
  Te  Te61  1  0.50006630  -0.00084306  0.75093921  1
  Te  Te62  1  0.49982159  0.49724900  0.25011208  1
  Te  Te63  1  0.51098770  0.49766645  0.75014557  1
