# generated using pymatgen
data_AgSbTe2
_symmetry_space_group_name_H-M   'P 1'
_cell_length_a   12.20281586
_cell_length_b   12.20238566
_cell_length_c   12.20640725
_cell_angle_alpha   90.00593902
_cell_angle_beta   89.99141390
_cell_angle_gamma   90.00656560
_symmetry_Int_Tables_number   1
_chemical_formula_structural   AgSbTe2
_chemical_formula_sum   'Ag16 Sb16 Te32'
_cell_volume   1817.57629570
_cell_formula_units_Z   16
loop_
 _symmetry_equiv_pos_site_id
 _symmetry_equiv_pos_as_xyz
  1  'x, y, z'
loop_
 _atom_site_type_symbol
 _atom_site_label
 _atom_site_symmetry_multiplicity
 _atom_site_fract_x
 _atom_site_fract_y
 _atom_site_fract_z
 _atom_site_occupancy
  Ag  Ag0  1  0.49804279  0.75225372  0.75225264  1
  Ag  Ag1  1  -0.00092045  0.24880443  0.74361405  1
  Ag  Ag2  1  0.25053551  0.75158905  0.00204049  1
  Ag  Ag3  1  0.24864845  0.00137045  0.25070574  1
  Ag  Ag4  1  0.75590141  0.24556507  0.49939993  1
  Ag  Ag5  1  0.74993621  0.24473952  0.00117687  1
  Ag  Ag6  1  0.75102550  0.00470825  0.25072858  1
  Ag  Ag7  1  -0.00127025  0.00596223  0.49743383  1
  Ag  Ag8  1  0.24434519  0.25103255  0.49769933  1
  Ag  Ag9  1  0.00324791  0.75313680  0.25084239  1
  Ag  Ag10  1  0.24824308  0.49882805  0.74750759  1
  Ag  Ag11  1  0.75053672  0.00417489  0.74936780  1
  Ag  Ag12  1  0.24767371  0.49841389  0.25310438  1
  Ag  Ag13  1  0.00410903  0.49358477  0.49928497  1
  Ag  Ag14  1  0.50118205  0.00098082  0.00197363  1
  Ag  Ag15  1  0.49960284  0.24618469  0.24998002  1
  Sb  Sb16  1  0.75267524  0.49497191  0.25314633  1
  Sb  Sb17  1  0.50109730  0.00287063  0.49774701  1
  Sb  Sb18  1  0.75211837  0.49598706  0.74691264  1
  Sb  Sb19  1  0.24758789  0.74923824  0.49772354  1
  Sb  Sb20  1  0.00188202  0.49808187  0.00235148  1
  Sb  Sb21  1  0.49630569  0.75410931  0.24746640  1
  Sb  Sb22  1  0.00174162  0.75065757  0.74959410  1
  Sb  Sb23  1  -0.00111125  0.00192818  0.00327793  1
  Sb  Sb24  1  0.49815229  0.49888246  0.00034620  1
  Sb  Sb25  1  0.74857725  0.75581575  0.00054301  1
  Sb  Sb26  1  0.75259903  0.75532437  0.49930061  1
  Sb  Sb27  1  0.50054222  0.24794530  0.75119015  1
  Sb  Sb28  1  0.49498398  0.49697546  0.49949513  1
  Sb  Sb29  1  0.24938247  0.00077782  0.74858466  1
  Sb  Sb30  1  0.00107000  0.24674894  0.25917918  1
  Sb  Sb31  1  0.25019738  0.24798113  0.00326375  1
  Te  Te32  1  0.25123630  0.24934440  0.25094486  1
  Te  Te33  1  0.24826270  0.25318921  0.74756610  1
  Te  Te34  1  0.24906817  0.75088202  0.24752397  1
  Te  Te35  1  0.25173588  0.74715494  0.75372751  1
  Te  Te36  1  0.74832818  0.24660911  0.25114159  1
  Te  Te37  1  0.75126447  0.24670973  0.74809944  1
  Te  Te38  1  0.75341444  0.75578309  0.24874431  1
  Te  Te39  1  0.74659494  0.75521027  0.75133923  1
  Te  Te40  1  0.25370145  -0.00283440  0.00441762  1
  Te  Te41  1  0.24591310  0.00453935  0.49595374  1
  Te  Te42  1  0.25019954  0.50400150  0.00069891  1
  Te  Te43  1  0.24585360  0.49658274  0.49874070  1
  Te  Te44  1  0.74733624  0.00378371  0.00122060  1
  Te  Te45  1  0.75290534  0.00478659  0.49880027  1
  Te  Te46  1  0.74980214  0.49113445  -0.00007428  1
  Te  Te47  1  0.75786600  0.49164418  0.49994484  1
  Te  Te48  1  -0.00515882  0.24969793  -0.00952547  1
  Te  Te49  1  0.00066777  0.24877533  0.50057193  1
  Te  Te50  1  0.00562640  0.74982433  0.00500695  1
  Te  Te51  1  -0.00027529  0.75103126  0.49599472  1
  Te  Te52  1  0.50323866  0.24454689  0.00332721  1
  Te  Te53  1  0.49956043  0.24987926  0.49552375  1
  Te  Te54  1  0.49657378  0.75522359  -0.00340863  1
  Te  Te55  1  0.50073427  0.74938372  0.50770128  1
  Te  Te56  1  0.00037357  -0.00211619  0.25324970  1
  Te  Te57  1  -0.00336349  0.00232349  0.74512242  1
  Te  Te58  1  0.00467947  0.50431893  0.25441135  1
  Te  Te59  1  0.00389305  0.49845682  0.74447915  1
  Te  Te60  1  0.50013376  0.00191315  0.24744961  1
  Te  Te61  1  0.50327201  -0.00222316  0.75391813  1
  Te  Te62  1  0.49374835  0.49592913  0.25020940  1
  Te  Te63  1  0.49417235  0.50488942  0.74994473  1
