# generated using pymatgen
data_AgSbTe2
_symmetry_space_group_name_H-M   'P 1'
_cell_length_a   12.22925930
_cell_length_b   12.22769675
_cell_length_c   12.21788298
_cell_angle_alpha   90.00090118
_cell_angle_beta   90.00469046
_cell_angle_gamma   90.00219548
_symmetry_Int_Tables_number   1
_chemical_formula_structural   AgSbTe2
_chemical_formula_sum   'Ag16 Sb16 Te32'
_cell_volume   1827.00936042
_cell_formula_units_Z   16
loop_
 _symmetry_equiv_pos_site_id
 _symmetry_equiv_pos_as_xyz
  1  'x, y, z'
loop_
 _atom_site_type_symbol
 _atom_site_label
 _atom_site_symmetry_multiplicity
 _atom_site_fract_x
 _atom_site_fract_y
 _atom_site_fract_z
 _atom_site_occupancy
  Ag  Ag0  1  -0.00216764  0.24933006  0.74727774  1
  Ag  Ag1  1  0.74169957  0.75054152  0.00010555  1
  Ag  Ag2  1  0.24830319  0.24672008  0.49993882  1
  Ag  Ag3  1  0.74961345  0.00399577  0.25018221  1
  Ag  Ag4  1  0.25492379  0.75279302  0.50131412  1
  Ag  Ag5  1  0.75270971  0.24546849  0.49779817  1
  Ag  Ag6  1  0.50396022  -0.00591912  -0.00040550  1
  Ag  Ag7  1  0.49907059  0.75046092  0.75362939  1
  Ag  Ag8  1  0.75095524  0.24924632  0.00231860  1
  Ag  Ag9  1  -0.00453500  0.24795935  0.25272180  1
  Ag  Ag10  1  0.50303104  0.50671183  -0.00190593  1
  Ag  Ag11  1  -0.00354098  0.49745456  -0.00012416  1
  Ag  Ag12  1  -0.00104164  0.00698166  0.49844006  1
  Ag  Ag13  1  0.50033560  -0.00022185  0.49986662  1
  Ag  Ag14  1  0.25782288  0.74988626  -0.00160499  1
  Ag  Ag15  1  0.49956282  0.50045842  0.50148919  1
  Sb  Sb16  1  0.25039871  -0.00014828  0.74793893  1
  Sb  Sb17  1  0.75066035  0.49562929  0.24767381  1
  Sb  Sb18  1  -0.00161817  0.75184436  0.24981214  1
  Sb  Sb19  1  0.74365454  0.75410427  0.49969188  1
  Sb  Sb20  1  0.50102180  0.75160062  0.24489968  1
  Sb  Sb21  1  0.25026026  0.00140955  0.25239292  1
  Sb  Sb22  1  0.00032021  0.75054014  0.75026725  1
  Sb  Sb23  1  0.50181447  0.24958406  0.74794655  1
  Sb  Sb24  1  0.00024481  0.49395624  0.50031722  1
  Sb  Sb25  1  0.24971578  0.24986149  0.00020118  1
  Sb  Sb26  1  0.25102221  0.50005258  0.74987730  1
  Sb  Sb27  1  0.24959346  0.49853205  0.25003736  1
  Sb  Sb28  1  -0.00455557  0.00194891  0.00194710  1
  Sb  Sb29  1  0.74949666  0.49943982  0.75193099  1
  Sb  Sb30  1  0.74946401  0.00074118  0.75009325  1
  Sb  Sb31  1  0.50428222  0.24788078  0.25137120  1
  Te  Te32  1  0.24081556  0.24926433  0.25626712  1
  Te  Te33  1  0.24331813  0.24977907  0.74377674  1
  Te  Te34  1  0.24785142  0.75054239  0.25138121  1
  Te  Te35  1  0.25411164  0.75023754  0.74965866  1
  Te  Te36  1  0.75323069  0.24619641  0.24928089  1
  Te  Te37  1  0.75405200  0.25017587  0.75045731  1
  Te  Te38  1  0.75203679  0.75832848  0.24352415  1
  Te  Te39  1  0.74517295  0.74997331  0.75701622  1
  Te  Te40  1  0.25696870  -0.00388903  0.00205752  1
  Te  Te41  1  0.25345951  -0.00031042  0.49844431  1
  Te  Te42  1  0.25420603  0.50290175  0.00039123  1
  Te  Te43  1  0.25503043  0.50149178  0.49953414  1
  Te  Te44  1  0.74826033  0.00275204  0.00269003  1
  Te  Te45  1  0.74763005  0.00106937  0.49709650  1
  Te  Te46  1  0.74702346  0.49793929  0.00159563  1
  Te  Te47  1  0.74488773  0.49646181  0.49783565  1
  Te  Te48  1  -0.00017663  0.25011669  -0.00056383  1
  Te  Te49  1  -0.00210960  0.25080118  0.50030473  1
  Te  Te50  1  0.00151979  0.74749416  -0.00173842  1
  Te  Te51  1  0.00482306  0.75191837  0.50198772  1
  Te  Te52  1  0.50167537  0.25014071  -0.00167752  1
  Te  Te53  1  0.50060681  0.24828708  0.50184446  1
  Te  Te54  1  0.49981653  0.74954630  -0.00040867  1
  Te  Te55  1  0.49933387  0.75138315  0.50266642  1
  Te  Te56  1  -0.00529063  0.00397792  0.25412692  1
  Te  Te57  1  0.00005831  0.00508802  0.74284773  1
  Te  Te58  1  -0.00024521  0.49380479  0.24377237  1
  Te  Te59  1  -0.00068847  0.49478482  0.75640548  1
  Te  Te60  1  0.50593935  0.00153043  0.25146207  1
  Te  Te61  1  0.49984250  -0.00389850  0.74953314  1
  Te  Te62  1  0.50005178  0.49880813  0.24967885  1
  Te  Te63  1  0.50030919  0.50445842  0.75131077  1
