# generated using pymatgen
data_AgSbTe2
_symmetry_space_group_name_H-M   'P 1'
_cell_length_a   12.23166463
_cell_length_b   12.21461204
_cell_length_c   12.22034271
_cell_angle_alpha   89.98220523
_cell_angle_beta   90.00014480
_cell_angle_gamma   89.99991363
_symmetry_Int_Tables_number   1
_chemical_formula_structural   AgSbTe2
_chemical_formula_sum   'Ag16 Sb16 Te32'
_cell_volume   1825.78067882
_cell_formula_units_Z   16
loop_
 _symmetry_equiv_pos_site_id
 _symmetry_equiv_pos_as_xyz
  1  'x, y, z'
loop_
 _atom_site_type_symbol
 _atom_site_label
 _atom_site_symmetry_multiplicity
 _atom_site_fract_x
 _atom_site_fract_y
 _atom_site_fract_z
 _atom_site_occupancy
  Ag  Ag0  1  0.49279542  0.25344622  0.74414975  1
  Ag  Ag1  1  0.24878149  0.74833192  0.00065593  1
  Ag  Ag2  1  0.50181474  0.74382312  0.25157764  1
  Ag  Ag3  1  0.74952925  0.73998002  0.49564980  1
  Ag  Ag4  1  0.75088304  0.74746990  0.00350912  1
  Ag  Ag5  1  0.75532307  0.25938121  0.49926657  1
  Ag  Ag6  1  0.24755145  0.00617482  0.74988195  1
  Ag  Ag7  1  0.49997422  0.49758696  0.49830069  1
  Ag  Ag8  1  0.00143291  0.25550330  0.25753826  1
  Ag  Ag9  1  0.24542094  0.25800851  0.50565126  1
  Ag  Ag10  1  0.24936725  0.49330975  0.74288851  1
  Ag  Ag11  1  0.00628148  0.25225859  0.74287975  1
  Ag  Ag12  1  0.00041198  0.49292899  0.49732689  1
  Ag  Ag13  1  0.75099126  0.50261045  0.25803649  1
  Ag  Ag14  1  0.24854684  0.49873507  0.25633415  1
  Ag  Ag15  1  0.00221670  -0.00035987  -0.00145832  1
  Sb  Sb16  1  0.24750948  0.00165577  0.25004735  1
  Sb  Sb17  1  0.49858017  0.00183949  0.50162048  1
  Sb  Sb18  1  0.00087719  0.50020765  0.00095791  1
  Sb  Sb19  1  0.49914922  0.25602252  0.25617340  1
  Sb  Sb20  1  0.75197671  -0.00214919  0.25029546  1
  Sb  Sb21  1  0.24783703  0.25122465  -0.00512085  1
  Sb  Sb22  1  0.49816109  -0.00232779  -0.00206691  1
  Sb  Sb23  1  0.00153965  0.00700454  0.50116691  1
  Sb  Sb24  1  0.75306863  0.25298324  0.00174232  1
  Sb  Sb25  1  0.00159928  0.74763966  0.74876394  1
  Sb  Sb26  1  0.49798395  0.74699406  0.74797123  1
  Sb  Sb27  1  0.75083482  0.49794378  0.74199341  1
  Sb  Sb28  1  0.25015686  0.74166771  0.49878113  1
  Sb  Sb29  1  -0.00109504  0.74478627  0.25100399  1
  Sb  Sb30  1  0.75269439  0.00200858  0.75049726  1
  Sb  Sb31  1  0.49936329  0.50174802  0.00063360  1
  Te  Te32  1  0.24912010  0.25369024  0.25211167  1
  Te  Te33  1  0.24790794  0.25300263  0.75039348  1
  Te  Te34  1  0.25141502  0.74702353  0.24783150  1
  Te  Te35  1  0.25098937  0.74886647  0.75324157  1
  Te  Te36  1  0.75032726  0.25417102  0.25374579  1
  Te  Te37  1  0.75228061  0.25062540  0.74599728  1
  Te  Te38  1  0.74944288  0.74715179  0.25146662  1
  Te  Te39  1  0.74913507  0.75010989  0.75122654  1
  Te  Te40  1  0.24684731  -0.00471708  -0.00252081  1
  Te  Te41  1  0.24934278  0.00635722  0.50514351  1
  Te  Te42  1  0.24989654  0.50521800  0.00169908  1
  Te  Te43  1  0.24904038  0.49897460  0.49933397  1
  Te  Te44  1  0.75491532  -0.00659780  -0.00056850  1
  Te  Te45  1  0.75005939  -0.00079023  0.50076180  1
  Te  Te46  1  0.75003115  0.50601001  0.00807740  1
  Te  Te47  1  0.75056089  0.49915841  0.49888721  1
  Te  Te48  1  -0.00160044  0.24606192  -0.00089344  1
  Te  Te49  1  0.00003526  0.25188248  0.50024135  1
  Te  Te50  1  0.00015961  0.75368705  -0.00034435  1
  Te  Te51  1  -0.00570415  0.74365841  0.49990765  1
  Te  Te52  1  0.50192978  0.24930716  -0.00876710  1
  Te  Te53  1  0.49984687  0.25362161  0.50206708  1
  Te  Te54  1  0.50093794  0.74973653  0.00311856  1
  Te  Te55  1  0.50354152  0.74537360  0.49644390  1
  Te  Te56  1  0.00081926  0.00945116  0.24509263  1
  Te  Te57  1  0.00444492  0.00468411  0.75258708  1
  Te  Te58  1  0.00140739  0.49547752  0.25202220  1
  Te  Te59  1  0.00411190  0.49539501  0.74690918  1
  Te  Te60  1  0.49951495  -0.00964329  0.24947093  1
  Te  Te61  1  0.49274735  0.00646193  0.74986673  1
  Te  Te62  1  0.49906808  0.50247687  0.25334269  1
  Te  Te63  1  0.49586901  0.49567590  0.74545775  1
