# generated using pymatgen
data_AgSbTe2
_symmetry_space_group_name_H-M   'P 1'
_cell_length_a   12.20792125
_cell_length_b   12.23027608
_cell_length_c   12.21756752
_cell_angle_alpha   90.00172633
_cell_angle_beta   90.00572146
_cell_angle_gamma   90.00711978
_symmetry_Int_Tables_number   1
_chemical_formula_structural   AgSbTe2
_chemical_formula_sum   'Ag16 Sb16 Te32'
_cell_volume   1824.15913432
_cell_formula_units_Z   16
loop_
 _symmetry_equiv_pos_site_id
 _symmetry_equiv_pos_as_xyz
  1  'x, y, z'
loop_
 _atom_site_type_symbol
 _atom_site_label
 _atom_site_symmetry_multiplicity
 _atom_site_fract_x
 _atom_site_fract_y
 _atom_site_fract_z
 _atom_site_occupancy
  Ag  Ag0  1  -0.00064710  0.75011405  0.75458657  1
  Ag  Ag1  1  0.24733530  0.74328140  -0.00244869  1
  Ag  Ag2  1  0.24732255  0.50001652  0.75735697  1
  Ag  Ag3  1  0.75369598  -0.00003199  0.74539810  1
  Ag  Ag4  1  -0.00065465  0.00368302  -0.00307974  1
  Ag  Ag5  1  -0.00228152  0.24835181  0.24375318  1
  Ag  Ag6  1  0.24294864  0.25602704  -0.00225103  1
  Ag  Ag7  1  0.49375196  0.50127863  -0.00139374  1
  Ag  Ag8  1  0.00725855  0.49617056  -0.00462557  1
  Ag  Ag9  1  0.75056550  0.00001492  0.25554660  1
  Ag  Ag10  1  0.50869075  -0.00232064  0.49947802  1
  Ag  Ag11  1  0.74625089  0.75571583  0.50040408  1
  Ag  Ag12  1  0.50211880  0.74989564  0.25201032  1
  Ag  Ag13  1  0.50176536  0.50243386  0.50021286  1
  Ag  Ag14  1  0.75004781  0.24407636  0.50060730  1
  Ag  Ag15  1  -0.00062985  0.24985315  0.75652189  1
  Sb  Sb16  1  0.50002273  -0.00045136  -0.00002825  1
  Sb  Sb17  1  -0.00140128  0.75098972  0.24650530  1
  Sb  Sb18  1  0.50079266  0.74890959  0.74890474  1
  Sb  Sb19  1  0.24934533  0.25202997  0.50151093  1
  Sb  Sb20  1  0.75242561  0.49979023  0.74902612  1
  Sb  Sb21  1  0.25073991  0.49963627  0.24214254  1
  Sb  Sb22  1  0.75735623  0.24867491  -0.00045705  1
  Sb  Sb23  1  0.50141266  0.25082012  0.75032625  1
  Sb  Sb24  1  -0.00782688  0.00077527  0.50245805  1
  Sb  Sb25  1  0.24600821  0.00000369  0.75146967  1
  Sb  Sb26  1  0.24801230  0.00049208  0.24898604  1
  Sb  Sb27  1  0.75139225  0.75090866  -0.00083113  1
  Sb  Sb28  1  0.25198083  0.74774520  0.50181390  1
  Sb  Sb29  1  0.75012432  0.49998169  0.25113176  1
  Sb  Sb30  1  0.50223007  0.24914222  0.24924334  1
  Sb  Sb31  1  -0.00008362  0.49975284  0.50265287  1
  Te  Te32  1  0.24223096  0.24944295  0.24603168  1
  Te  Te33  1  0.24410029  0.25233025  0.75293630  1
  Te  Te34  1  0.25446061  0.75032997  0.24524125  1
  Te  Te35  1  0.24446427  0.74775051  0.75375642  1
  Te  Te36  1  0.75416245  0.24554622  0.25398419  1
  Te  Te37  1  0.75502272  0.24624505  0.74623849  1
  Te  Te38  1  0.74682887  0.75418610  0.25465624  1
  Te  Te39  1  0.75503911  0.75357497  0.74616774  1
  Te  Te40  1  0.24638035  0.00012602  -0.00092904  1
  Te  Te41  1  0.26243381  0.00020294  0.50036898  1
  Te  Te42  1  0.24934871  0.50041016  -0.00263094  1
  Te  Te43  1  0.25659277  0.49961642  0.50829577  1
  Te  Te44  1  0.75335819  0.00030925  -0.00128002  1
  Te  Te45  1  0.74880059  -0.00004709  0.50013423  1
  Te  Te46  1  0.74677154  0.49966092  -0.00026156  1
  Te  Te47  1  0.74465310  0.50039083  0.50051456  1
  Te  Te48  1  0.00066424  0.25087170  -0.00178194  1
  Te  Te49  1  -0.00313796  0.25096893  0.50036553  1
  Te  Te50  1  0.00198830  0.74900836  -0.00167954  1
  Te  Te51  1  -0.00342870  0.74889171  0.50328256  1
  Te  Te52  1  0.49235246  0.25498183  0.00107146  1
  Te  Te53  1  0.50361686  0.25171080  0.49973409  1
  Te  Te54  1  0.49703749  0.74723007  0.00233450  1
  Te  Te55  1  0.50207034  0.74852490  0.49856725  1
  Te  Te56  1  -0.00371796  0.00246964  0.24691909  1
  Te  Te57  1  -0.00343809  0.00018587  0.75193165  1
  Te  Te58  1  -0.00041962  0.49601146  0.24471410  1
  Te  Te59  1  0.00226789  0.49990622  0.75307949  1
  Te  Te60  1  0.50501408  -0.00279384  0.25175744  1
  Te  Te61  1  0.50749196  0.00027179  0.74704198  1
  Te  Te62  1  0.50017835  0.50405255  0.25047181  1
  Te  Te63  1  0.49674174  0.49987126  0.75203409  1
