# generated using pymatgen
data_AgSbTe2
_symmetry_space_group_name_H-M   'P 1'
_cell_length_a   12.22139187
_cell_length_b   12.23304216
_cell_length_c   12.23068186
_cell_angle_alpha   89.99332793
_cell_angle_beta   89.99225521
_cell_angle_gamma   89.99640190
_symmetry_Int_Tables_number   1
_chemical_formula_structural   AgSbTe2
_chemical_formula_sum   'Ag16 Sb16 Te32'
_cell_volume   1828.54563556
_cell_formula_units_Z   16
loop_
 _symmetry_equiv_pos_site_id
 _symmetry_equiv_pos_as_xyz
  1  'x, y, z'
loop_
 _atom_site_type_symbol
 _atom_site_label
 _atom_site_symmetry_multiplicity
 _atom_site_fract_x
 _atom_site_fract_y
 _atom_site_fract_z
 _atom_site_occupancy
  Ag  Ag0  1  0.49731177  0.25386185  0.75040020  1
  Ag  Ag1  1  0.49115155  0.49470360  -0.00558345  1
  Ag  Ag2  1  0.25612701  0.74948862  0.50443200  1
  Ag  Ag3  1  -0.00064865  0.24836241  0.25044713  1
  Ag  Ag4  1  0.74587374  0.00651506  0.25389269  1
  Ag  Ag5  1  0.49615105  0.49488021  0.50491106  1
  Ag  Ag6  1  0.50123336  0.24716150  0.25044574  1
  Ag  Ag7  1  0.49730768  0.00589558  0.00068106  1
  Ag  Ag8  1  0.25785394  0.25627035  -0.00052608  1
  Ag  Ag9  1  0.25563145  0.74321011  -0.00442790  1
  Ag  Ag10  1  0.00972857  0.49661288  -0.00002140  1
  Ag  Ag11  1  0.74329573  0.24648594  0.49596766  1
  Ag  Ag12  1  0.49367538  0.74620385  0.74982689  1
  Ag  Ag13  1  0.00011105  0.00359913  0.49668902  1
  Ag  Ag14  1  0.50090354  0.00580524  0.49885281  1
  Ag  Ag15  1  0.25741760  0.50106304  0.75514282  1
  Sb  Sb16  1  0.25402405  0.00270252  0.25055296  1
  Sb  Sb17  1  0.74160893  0.24943252  0.00313595  1
  Sb  Sb18  1  0.25492384  -0.00086612  0.74996163  1
  Sb  Sb19  1  0.25239439  0.49787474  0.24366089  1
  Sb  Sb20  1  0.25701049  0.25124074  0.50126276  1
  Sb  Sb21  1  0.00334038  0.25197581  0.75005187  1
  Sb  Sb22  1  0.49815099  0.75295556  0.24971986  1
  Sb  Sb23  1  0.00477281  0.49699765  0.49951089  1
  Sb  Sb24  1  0.74653321  0.49466956  0.25100343  1
  Sb  Sb25  1  0.74483611  0.75222225  0.50055659  1
  Sb  Sb26  1  0.00234839  0.00292951  0.00315672  1
  Sb  Sb27  1  0.74418573  0.75002610  -0.00076292  1
  Sb  Sb28  1  0.00190141  0.75110117  0.24972230  1
  Sb  Sb29  1  0.00700713  0.74779946  0.75053945  1
  Sb  Sb30  1  0.74510578  0.00318579  0.74705113  1
  Sb  Sb31  1  0.74084414  0.49694826  0.74949716  1
  Te  Te32  1  0.25058093  0.24988738  0.24487539  1
  Te  Te33  1  0.25491924  0.25465105  0.75462167  1
  Te  Te34  1  0.24894393  0.74983840  0.24994858  1
  Te  Te35  1  0.25510982  0.74713720  0.75096489  1
  Te  Te36  1  0.74762688  0.24637277  0.25293205  1
  Te  Te37  1  0.74318910  0.25028669  0.74226465  1
  Te  Te38  1  0.75146318  0.76049993  0.25018845  1
  Te  Te39  1  0.73998607  0.74964354  0.75012881  1
  Te  Te40  1  0.25513599  -0.00017929  0.00015047  1
  Te  Te41  1  0.25261842  -0.00358888  0.50005094  1
  Te  Te42  1  0.25348477  0.49972428  -0.00076743  1
  Te  Te43  1  0.25387079  0.50314664  0.50475280  1
  Te  Te44  1  0.74510768  -0.00094616  0.00505005  1
  Te  Te45  1  0.74567494  0.00231773  0.49789738  1
  Te  Te46  1  0.75007127  0.50122613  0.00000113  1
  Te  Te47  1  0.74550958  0.49608251  0.50004506  1
  Te  Te48  1  0.00345088  0.25099065  0.00155581  1
  Te  Te49  1  -0.00131012  0.24770525  0.49773926  1
  Te  Te50  1  0.00711964  0.74700081  -0.00056539  1
  Te  Te51  1  0.00530567  0.75317887  0.50015719  1
  Te  Te52  1  0.49957599  0.24992099  0.00024848  1
  Te  Te53  1  0.49786004  0.24856155  0.49863417  1
  Te  Te54  1  0.49624565  0.74911625  -0.00073811  1
  Te  Te55  1  0.49655841  0.75054060  0.50056661  1
  Te  Te56  1  -0.00441722  0.00529470  0.25370179  1
  Te  Te57  1  -0.00238987  -0.00003448  0.74230572  1
  Te  Te58  1  -0.00200169  0.49327981  0.24545593  1
  Te  Te59  1  0.00747908  0.50001231  0.75558432  1
  Te  Te60  1  0.50233542  0.00357915  0.25140026  1
  Te  Te61  1  0.50005269  0.00205574  0.74960580  1
  Te  Te62  1  0.50166255  0.49333871  0.25072519  1
  Te  Te63  1  0.49706772  0.49804428  0.75076716  1
