# generated using pymatgen
data_AgSbTe2
_symmetry_space_group_name_H-M   'P 1'
_cell_length_a   12.23705608
_cell_length_b   12.24402881
_cell_length_c   12.22728239
_cell_angle_alpha   90.00167079
_cell_angle_beta   90.01017199
_cell_angle_gamma   89.99575000
_symmetry_Int_Tables_number   1
_chemical_formula_structural   AgSbTe2
_chemical_formula_sum   'Ag16 Sb16 Te32'
_cell_volume   1832.02428885
_cell_formula_units_Z   16
loop_
 _symmetry_equiv_pos_site_id
 _symmetry_equiv_pos_as_xyz
  1  'x, y, z'
loop_
 _atom_site_type_symbol
 _atom_site_label
 _atom_site_symmetry_multiplicity
 _atom_site_fract_x
 _atom_site_fract_y
 _atom_site_fract_z
 _atom_site_occupancy
  Ag  Ag0  1  0.50141854  0.25243015  0.75912420  1
  Ag  Ag1  1  0.76427704  0.49909567  0.24119950  1
  Ag  Ag2  1  0.50253529  0.74763929  0.75774684  1
  Ag  Ag3  1  0.25296289  0.25830265  0.00069409  1
  Ag  Ag4  1  0.74809510  0.74817393  0.00247186  1
  Ag  Ag5  1  0.74573905  0.00076087  0.76209352  1
  Ag  Ag6  1  0.74610146  0.25199424  0.00253648  1
  Ag  Ag7  1  0.50801688  0.00362593  -0.00295437  1
  Ag  Ag8  1  -0.00379250  0.73490467  0.24595745  1
  Ag  Ag9  1  0.23601371  0.49800125  0.24073992  1
  Ag  Ag10  1  -0.00279147  0.26458659  0.24431081  1
  Ag  Ag11  1  0.75106495  0.00115218  0.23887478  1
  Ag  Ag12  1  -0.00193812  0.49729480  0.01291642  1
  Ag  Ag13  1  0.25204768  0.49764764  0.76045959  1
  Ag  Ag14  1  -0.00025286  0.49957915  0.48521653  1
  Ag  Ag15  1  0.50106572  0.49529935  -0.00123881  1
  Sb  Sb16  1  -0.00794274  0.00224313  0.00185893  1
  Sb  Sb17  1  0.24852890  0.74587449  0.49930582  1
  Sb  Sb18  1  0.75140352  0.74782578  0.49802936  1
  Sb  Sb19  1  0.25161047  0.74088821  0.00066853  1
  Sb  Sb20  1  0.50316539  0.25188702  0.24107484  1
  Sb  Sb21  1  0.50176876  0.49951314  0.50011803  1
  Sb  Sb22  1  -0.00185616  0.74535744  0.75486934  1
  Sb  Sb23  1  -0.00076994  0.25364736  0.75579354  1
  Sb  Sb24  1  0.74751985  0.49930190  0.75998589  1
  Sb  Sb25  1  0.24836031  0.25393018  0.49826066  1
  Sb  Sb26  1  0.50427572  0.74721568  0.24315723  1
  Sb  Sb27  1  0.50322122  0.00067608  0.50197731  1
  Sb  Sb28  1  0.24887207  0.00142380  0.24335242  1
  Sb  Sb29  1  -0.00309689  0.00056643  0.49637996  1
  Sb  Sb30  1  0.25332713  0.00182032  0.75673072  1
  Sb  Sb31  1  0.75117766  0.25220656  0.49703559  1
  Te  Te32  1  0.24770137  0.25308524  0.24647726  1
  Te  Te33  1  0.25072938  0.25347141  0.75448182  1
  Te  Te34  1  0.24454413  0.74644469  0.24947082  1
  Te  Te35  1  0.25332174  0.74622804  0.75014733  1
  Te  Te36  1  0.75044617  0.25058764  0.24690111  1
  Te  Te37  1  0.74842146  0.24841821  0.75432603  1
  Te  Te38  1  0.75100660  0.74930470  0.24641605  1
  Te  Te39  1  0.74732112  0.75158771  0.75428832  1
  Te  Te40  1  0.25923810  0.00963089  0.00013576  1
  Te  Te41  1  0.24978121  -0.00002752  0.49992740  1
  Te  Te42  1  0.25168579  0.49830315  0.00048112  1
  Te  Te43  1  0.24633627  0.49946000  0.49802892  1
  Te  Te44  1  0.74843436  0.00112043  0.00088475  1
  Te  Te45  1  0.74999832  0.00008977  0.49793241  1
  Te  Te46  1  0.74855475  0.49871049  0.00093195  1
  Te  Te47  1  0.75426174  0.49992046  0.48998032  1
  Te  Te48  1  -0.00197815  0.25166501  0.00284160  1
  Te  Te49  1  -0.00004134  0.25511273  0.49248365  1
  Te  Te50  1  -0.00378880  0.74732196  0.00337083  1
  Te  Te51  1  0.00003715  0.74459283  0.49394680  1
  Te  Te52  1  0.50315167  0.25357380  -0.00094575  1
  Te  Te53  1  0.49965970  0.25009251  0.51452087  1
  Te  Te54  1  0.50252228  0.74817717  -0.00268830  1
  Te  Te55  1  0.49953581  0.74999082  0.51220243  1
  Te  Te56  1  -0.00465310  -0.00024801  0.25017685  1
  Te  Te57  1  -0.00702956  -0.00102800  0.74814988  1
  Te  Te58  1  -0.00101946  0.49927332  0.24556195  1
  Te  Te59  1  0.00485091  0.50068148  0.75218428  1
  Te  Te60  1  0.50567337  -0.00036849  0.24703105  1
  Te  Te61  1  0.50360824  0.00050084  0.75229195  1
  Te  Te62  1  0.49911999  0.50037220  0.24790204  1
  Te  Te63  1  0.49844017  0.49908866  0.75141155  1
