# generated using pymatgen
data_AgSbTe2
_symmetry_space_group_name_H-M   'P 1'
_cell_length_a   12.21717792
_cell_length_b   12.22751519
_cell_length_c   12.22354538
_cell_angle_alpha   90.00411164
_cell_angle_beta   90.00050950
_cell_angle_gamma   89.99810631
_symmetry_Int_Tables_number   1
_chemical_formula_structural   AgSbTe2
_chemical_formula_sum   'Ag16 Sb16 Te32'
_cell_volume   1826.02322782
_cell_formula_units_Z   16
loop_
 _symmetry_equiv_pos_site_id
 _symmetry_equiv_pos_as_xyz
  1  'x, y, z'
loop_
 _atom_site_type_symbol
 _atom_site_label
 _atom_site_symmetry_multiplicity
 _atom_site_fract_x
 _atom_site_fract_y
 _atom_site_fract_z
 _atom_site_occupancy
  Ag  Ag0  1  0.74694409  0.00217441  0.74456789  1
  Ag  Ag1  1  0.25528021  0.75097983  0.49903401  1
  Ag  Ag2  1  0.50145399  -0.00496505  0.50354754  1
  Ag  Ag3  1  -0.00066537  0.25009670  0.25863044  1
  Ag  Ag4  1  0.50147292  0.74988785  0.74400350  1
  Ag  Ag5  1  0.74721916  0.49812133  0.74792416  1
  Ag  Ag6  1  0.50296364  -0.00388510  -0.00305871  1
  Ag  Ag7  1  0.49896713  0.74978235  0.25656110  1
  Ag  Ag8  1  0.24643298  0.24841612  0.50101919  1
  Ag  Ag9  1  -0.00421440  0.25014505  0.74157360  1
  Ag  Ag10  1  -0.00172853  0.00504141  0.50092241  1
  Ag  Ag11  1  0.50151198  0.50532156  0.50301150  1
  Ag  Ag12  1  -0.00306246  0.49939322  -0.00104719  1
  Ag  Ag13  1  0.75393290  0.24750129  0.50428320  1
  Ag  Ag14  1  0.50293942  0.50360216  -0.00344065  1
  Ag  Ag15  1  0.00065741  0.74924059  0.25492944  1
  Sb  Sb16  1  0.74882694  0.00140094  0.25586134  1
  Sb  Sb17  1  0.74466171  0.75227510  0.50101011  1
  Sb  Sb18  1  0.24973840  0.50034747  0.25264199  1
  Sb  Sb19  1  0.24937190  0.25077884  -0.00116509  1
  Sb  Sb20  1  -0.00075357  0.74950622  0.74417982  1
  Sb  Sb21  1  0.25404187  0.00054179  0.74554003  1
  Sb  Sb22  1  0.50352689  0.25017518  0.74603396  1
  Sb  Sb23  1  0.49994494  0.25034313  0.25501389  1
  Sb  Sb24  1  0.74949917  0.49865194  0.25333766  1
  Sb  Sb25  1  0.74761436  0.74904419  -0.00081171  1
  Sb  Sb26  1  -0.00306462  0.49633855  0.50147651  1
  Sb  Sb27  1  0.25311431  0.74934014  0.00077216  1
  Sb  Sb28  1  -0.00351107  -0.00038468  -0.00117015  1
  Sb  Sb29  1  0.25343417  0.49941981  0.74720986  1
  Sb  Sb30  1  0.25052872  -0.00031897  0.25409954  1
  Sb  Sb31  1  0.75047254  0.25103292  -0.00448517  1
  Te  Te32  1  0.24292683  0.25007105  0.25740015  1
  Te  Te33  1  0.23996334  0.24998523  0.74348686  1
  Te  Te34  1  0.25036110  0.74987433  0.25686779  1
  Te  Te35  1  0.25629845  0.74997709  0.74243152  1
  Te  Te36  1  0.75620060  0.25005717  0.25820673  1
  Te  Te37  1  0.75334163  0.25031916  0.74635966  1
  Te  Te38  1  0.75143651  0.75003794  0.24980381  1
  Te  Te39  1  0.74524459  0.74888355  0.74996712  1
  Te  Te40  1  0.26018448  0.00095124  -0.00118349  1
  Te  Te41  1  0.25051679  0.00086595  0.50069880  1
  Te  Te42  1  0.25283631  0.49893945  -0.00134540  1
  Te  Te43  1  0.25753222  0.49998607  0.50088938  1
  Te  Te44  1  0.74349497  0.00117515  -0.00931299  1
  Te  Te45  1  0.74982226  0.00313177  0.50407312  1
  Te  Te46  1  0.74728119  0.49910798  -0.00636181  1
  Te  Te47  1  0.74539535  0.49473266  0.50455875  1
  Te  Te48  1  0.00113998  0.25261308  0.00121185  1
  Te  Te49  1  0.00061677  0.25145780  0.50026695  1
  Te  Te50  1  0.00263060  0.74643636  0.00626604  1
  Te  Te51  1  0.00364368  0.75128555  0.49736772  1
  Te  Te52  1  0.49851418  0.25272352  0.00223935  1
  Te  Te53  1  0.49846973  0.24793412  0.49801714  1
  Te  Te54  1  0.49801441  0.74778945  0.00105855  1
  Te  Te55  1  0.50047033  0.75142593  0.49912120  1
  Te  Te56  1  -0.00115997  -0.00142592  0.25178916  1
  Te  Te57  1  -0.00597877  0.00065249  0.74858799  1
  Te  Te58  1  -0.00131051  0.50206162  0.24556439  1
  Te  Te59  1  -0.00542595  0.49978532  0.75301049  1
  Te  Te60  1  0.50154691  -0.00419484  0.25129197  1
  Te  Te61  1  0.50383537  0.00070606  0.74649554  1
  Te  Te62  1  0.50130431  0.50402080  0.24872152  1
  Te  Te63  1  0.50330057  0.49928658  0.75044399  1
