# generated using pymatgen
data_AgSbTe2
_symmetry_space_group_name_H-M   'P 1'
_cell_length_a   12.20520583
_cell_length_b   12.20829688
_cell_length_c   12.20874361
_cell_angle_alpha   90.00169519
_cell_angle_beta   90.00143634
_cell_angle_gamma   90.00574792
_symmetry_Int_Tables_number   1
_chemical_formula_structural   AgSbTe2
_chemical_formula_sum   'Ag16 Sb16 Te32'
_cell_volume   1819.16109881
_cell_formula_units_Z   16
loop_
 _symmetry_equiv_pos_site_id
 _symmetry_equiv_pos_as_xyz
  1  'x, y, z'
loop_
 _atom_site_type_symbol
 _atom_site_label
 _atom_site_symmetry_multiplicity
 _atom_site_fract_x
 _atom_site_fract_y
 _atom_site_fract_z
 _atom_site_occupancy
  Ag  Ag0  1  0.49910272  -0.00250774  0.49932770  1
  Ag  Ag1  1  0.25062628  0.25229792  -0.00316427  1
  Ag  Ag2  1  0.74938640  0.25007695  -0.00329238  1
  Ag  Ag3  1  0.49913990  0.74804443  0.25160796  1
  Ag  Ag4  1  0.49689912  0.49787444  -0.00065332  1
  Ag  Ag5  1  0.00074532  0.00177111  -0.00259317  1
  Ag  Ag6  1  0.74977310  0.74988077  -0.00109047  1
  Ag  Ag7  1  0.25118514  -0.00005529  0.24956416  1
  Ag  Ag8  1  0.25510090  0.50008914  0.24761376  1
  Ag  Ag9  1  -0.00054842  0.75229648  0.75056605  1
  Ag  Ag10  1  0.49748512  0.25304398  0.75327376  1
  Ag  Ag11  1  0.25337975  0.49668547  0.75244485  1
  Ag  Ag12  1  0.00100778  -0.00169270  0.50278940  1
  Ag  Ag13  1  0.49819468  0.50224094  0.50023652  1
  Ag  Ag14  1  0.00251159  0.24792284  0.75381782  1
  Ag  Ag15  1  0.74749835  0.75143637  0.50079947  1
  Sb  Sb16  1  0.74688740  -0.00128030  0.24968371  1
  Sb  Sb17  1  0.75190121  -0.00058414  0.75101718  1
  Sb  Sb18  1  0.00271628  0.24804812  0.24562226  1
  Sb  Sb19  1  0.49709271  0.25231414  0.24698968  1
  Sb  Sb20  1  0.74543621  0.49990706  0.75089994  1
  Sb  Sb21  1  0.25033236  0.24987760  0.50457228  1
  Sb  Sb22  1  0.24778759  0.00338887  0.75166563  1
  Sb  Sb23  1  0.50039191  0.74782225  0.74905107  1
  Sb  Sb24  1  0.00300304  0.49824768  -0.00226593  1
  Sb  Sb25  1  0.74909327  0.24864016  0.50358779  1
  Sb  Sb26  1  0.49889202  0.00083955  0.00059063  1
  Sb  Sb27  1  0.74434149  0.50201184  0.24862942  1
  Sb  Sb28  1  0.25295555  0.75053565  0.49984246  1
  Sb  Sb29  1  0.00038155  0.75206143  0.24923856  1
  Sb  Sb30  1  0.00083629  0.50223524  0.50317412  1
  Sb  Sb31  1  0.25015177  0.74782713  -0.00033603  1
  Te  Te32  1  0.25032518  0.25037616  0.24332144  1
  Te  Te33  1  0.24975320  0.25316036  0.75376714  1
  Te  Te34  1  0.25543933  0.74951484  0.24945959  1
  Te  Te35  1  0.24397767  0.74330366  0.75086480  1
  Te  Te36  1  0.75061968  0.25062061  0.23979179  1
  Te  Te37  1  0.75075939  0.25076590  0.75633508  1
  Te  Te38  1  0.74457024  0.74947937  0.24897289  1
  Te  Te39  1  0.75500882  0.74920628  0.75150344  1
  Te  Te40  1  0.24688905  0.00350663  0.00334148  1
  Te  Te41  1  0.24978598  0.00075437  0.49468355  1
  Te  Te42  1  0.25345641  0.49767624  -0.00009043  1
  Te  Te43  1  0.25560041  0.49951588  0.49891822  1
  Te  Te44  1  0.75425111  -0.00076530  0.00134504  1
  Te  Te45  1  0.74982778  -0.00382177  0.49838094  1
  Te  Te46  1  0.74460097  0.50093199  0.00099892  1
  Te  Te47  1  0.74361048  0.50498963  0.49906425  1
  Te  Te48  1  0.00011043  0.24801812  -0.00414192  1
  Te  Te49  1  -0.00223276  0.24382135  0.50773601  1
  Te  Te50  1  -0.00528694  0.75317974  -0.00223877  1
  Te  Te51  1  -0.00563996  0.75403056  0.50282864  1
  Te  Te52  1  0.49952388  0.25168974  -0.00342797  1
  Te  Te53  1  0.50191051  0.25005255  0.50538446  1
  Te  Te54  1  0.50502723  0.74866867  0.00043671  1
  Te  Te55  1  0.50314886  0.75023957  0.50000683  1
  Te  Te56  1  0.00688754  -0.00075998  0.25086270  1
  Te  Te57  1  0.00230902  0.00047901  0.74980275  1
  Te  Te58  1  0.01155231  0.50003537  0.25141777  1
  Te  Te59  1  0.00724346  0.49891736  0.74887329  1
  Te  Te60  1  0.49521310  -0.00331172  0.25410212  1
  Te  Te61  1  0.49719448  0.00441185  0.74380361  1
  Te  Te62  1  0.49504214  0.50197466  0.25018585  1
  Te  Te63  1  0.49583259  0.49804093  0.75049918  1
