# generated using pymatgen
data_AgSbTe2
_symmetry_space_group_name_H-M   'P 1'
_cell_length_a   12.22266268
_cell_length_b   12.22334554
_cell_length_c   12.22635134
_cell_angle_alpha   90.00731010
_cell_angle_beta   90.00295745
_cell_angle_gamma   90.00196231
_symmetry_Int_Tables_number   1
_chemical_formula_structural   AgSbTe2
_chemical_formula_sum   'Ag16 Sb16 Te32'
_cell_volume   1826.63923967
_cell_formula_units_Z   16
loop_
 _symmetry_equiv_pos_site_id
 _symmetry_equiv_pos_as_xyz
  1  'x, y, z'
loop_
 _atom_site_type_symbol
 _atom_site_label
 _atom_site_symmetry_multiplicity
 _atom_site_fract_x
 _atom_site_fract_y
 _atom_site_fract_z
 _atom_site_occupancy
  Ag  Ag0  1  0.50447356  0.24969281  0.75184014  1
  Ag  Ag1  1  0.24477039  0.00756973  0.25180529  1
  Ag  Ag2  1  -0.00476880  0.24826491  0.75637587  1
  Ag  Ag3  1  0.24288558  0.24984869  0.00529200  1
  Ag  Ag4  1  0.24602717  0.49250839  0.24876780  1
  Ag  Ag5  1  0.00344233  0.74956226  0.25068358  1
  Ag  Ag6  1  0.00034884  0.01008747  0.00047609  1
  Ag  Ag7  1  -0.00209838  0.49022156  0.00319765  1
  Ag  Ag8  1  0.75816848  0.25232733  -0.00454189  1
  Ag  Ag9  1  0.75550236  0.49399298  0.24564918  1
  Ag  Ag10  1  0.24505886  0.75244861  0.49512261  1
  Ag  Ag11  1  0.24632143  0.24792534  0.49289193  1
  Ag  Ag12  1  0.75383258  0.48929980  0.75475096  1
  Ag  Ag13  1  0.75494567  0.01075041  0.75223545  1
  Ag  Ag14  1  0.49439788  0.25081759  0.24860347  1
  Ag  Ag15  1  0.00424372  0.00387840  0.49796473  1
  Sb  Sb16  1  0.24504227  0.75042298  0.00463005  1
  Sb  Sb17  1  0.49758882  0.74837702  0.25139658  1
  Sb  Sb18  1  0.49516063  0.00437303  0.50000677  1
  Sb  Sb19  1  0.24513599  0.00473065  0.74931576  1
  Sb  Sb20  1  0.00221744  0.49556645  0.49695052  1
  Sb  Sb21  1  0.50226338  0.49448174  0.00035383  1
  Sb  Sb22  1  0.24628728  0.49499865  0.75297062  1
  Sb  Sb23  1  -0.00001881  0.75051198  0.74837936  1
  Sb  Sb24  1  0.75565922  0.24912527  0.50288126  1
  Sb  Sb25  1  0.50072057  0.75027790  0.74832599  1
  Sb  Sb26  1  0.75394907  0.74737617  0.00136287  1
  Sb  Sb27  1  0.00660118  0.25162639  0.24295749  1
  Sb  Sb28  1  0.49924901  0.00575080  0.00008853  1
  Sb  Sb29  1  0.75518985  0.75153737  0.49765896  1
  Sb  Sb30  1  0.75661289  0.00849954  0.24753907  1
  Sb  Sb31  1  0.49888336  0.49561781  0.50006528  1
  Te  Te32  1  0.24927761  0.25026128  0.24845058  1
  Te  Te33  1  0.25046779  0.25123139  0.75272058  1
  Te  Te34  1  0.24783130  0.74946512  0.25241538  1
  Te  Te35  1  0.25222989  0.74839521  0.74159637  1
  Te  Te36  1  0.74437739  0.25296872  0.24916438  1
  Te  Te37  1  0.75135600  0.25092880  0.74888128  1
  Te  Te38  1  0.75265922  0.74214314  0.25076449  1
  Te  Te39  1  0.74796831  0.74805623  0.74918439  1
  Te  Te40  1  0.24447980  0.00309490  0.00219926  1
  Te  Te41  1  0.24585325  0.00425817  0.49866238  1
  Te  Te42  1  0.24493194  0.49671440  0.00346553  1
  Te  Te43  1  0.24880593  0.49635646  0.49494619  1
  Te  Te44  1  0.75542313  0.00416921  -0.00208483  1
  Te  Te45  1  0.75803958  -0.00097219  0.50353427  1
  Te  Te46  1  0.75367145  0.49701708  0.00087214  1
  Te  Te47  1  0.75043060  0.50097401  0.49854728  1
  Te  Te48  1  -0.00050259  0.25001129  -0.00116773  1
  Te  Te49  1  0.00475145  0.24612995  0.50764823  1
  Te  Te50  1  0.00076711  0.75064172  0.00430099  1
  Te  Te51  1  0.00490438  0.75483144  0.49688112  1
  Te  Te52  1  0.49891084  0.24993502  -0.00073209  1
  Te  Te53  1  0.49152387  0.24914650  0.49984856  1
  Te  Te54  1  0.49901793  0.75135846  -0.00075075  1
  Te  Te55  1  0.48989089  0.75167628  0.50033582  1
  Te  Te56  1  0.00212933  -0.00246547  0.24955767  1
  Te  Te57  1  -0.00233713  0.00082121  0.75244433  1
  Te  Te58  1  0.00038422  0.50132000  0.24812986  1
  Te  Te59  1  -0.00390858  0.49857014  0.75386447  1
  Te  Te60  1  0.49379935  0.00458866  0.25007945  1
  Te  Te61  1  0.50845369  0.00556924  0.75005432  1
  Te  Te62  1  0.49869962  0.49616695  0.25019233  1
  Te  Te63  1  0.50761864  0.49416665  0.74999597  1
