# generated using pymatgen
data_AgSbTe2
_symmetry_space_group_name_H-M   'P 1'
_cell_length_a   12.21993040
_cell_length_b   12.24171733
_cell_length_c   12.24091434
_cell_angle_alpha   89.99826339
_cell_angle_beta   89.99332426
_cell_angle_gamma   89.99354877
_symmetry_Int_Tables_number   1
_chemical_formula_structural   AgSbTe2
_chemical_formula_sum   'Ag16 Sb16 Te32'
_cell_volume   1831.15426359
_cell_formula_units_Z   16
loop_
 _symmetry_equiv_pos_site_id
 _symmetry_equiv_pos_as_xyz
  1  'x, y, z'
loop_
 _atom_site_type_symbol
 _atom_site_label
 _atom_site_symmetry_multiplicity
 _atom_site_fract_x
 _atom_site_fract_y
 _atom_site_fract_z
 _atom_site_occupancy
  Ag  Ag0  1  0.25583726  0.24331974  -0.00243811  1
  Ag  Ag1  1  0.74759725  0.75511084  0.00494684  1
  Ag  Ag2  1  0.25230407  0.75628802  0.00391767  1
  Ag  Ag3  1  0.00139330  0.75210377  0.24936535  1
  Ag  Ag4  1  0.25206800  0.50020712  0.25118785  1
  Ag  Ag5  1  0.25535987  0.49465309  0.74841621  1
  Ag  Ag6  1  0.25531487  -0.00036129  0.24687084  1
  Ag  Ag7  1  0.74620949  0.75502823  0.49428436  1
  Ag  Ag8  1  0.49802253  0.00591788  0.49867367  1
  Ag  Ag9  1  0.73881220  0.24583419  0.49882426  1
  Ag  Ag10  1  0.74577516  -0.00466273  0.25328148  1
  Ag  Ag11  1  0.25687847  0.00508236  0.75257774  1
  Ag  Ag12  1  0.25993033  0.24791850  0.50324697  1
  Ag  Ag13  1  0.49300532  0.24709979  0.74370386  1
  Ag  Ag14  1  0.49249163  0.00005308  0.00146544  1
  Ag  Ag15  1  0.49557868  0.49296633  0.50097065  1
  Sb  Sb16  1  0.74692276  0.50365041  0.25294858  1
  Sb  Sb17  1  0.49516930  0.49884902  -0.00029892  1
  Sb  Sb18  1  0.49914956  0.75290584  0.24937378  1
  Sb  Sb19  1  0.00455183  0.50109330  0.49807235  1
  Sb  Sb20  1  0.74360115  0.00061445  0.74739125  1
  Sb  Sb21  1  0.00779881  0.24949530  0.74850833  1
  Sb  Sb22  1  0.00322938  0.75017342  0.74940010  1
  Sb  Sb23  1  0.49704415  0.24750018  0.25695599  1
  Sb  Sb24  1  0.49704219  0.75263522  0.74952719  1
  Sb  Sb25  1  0.00832425  -0.00112481  0.00221939  1
  Sb  Sb26  1  0.74440416  0.49885303  0.74715681  1
  Sb  Sb27  1  0.00197348  -0.00054791  0.49777886  1
  Sb  Sb28  1  0.25338807  0.75179818  0.49548252  1
  Sb  Sb29  1  0.00449517  0.24873859  0.25105311  1
  Sb  Sb30  1  0.00345880  0.50210593  0.00184441  1
  Sb  Sb31  1  0.74165685  0.24309534  0.00134125  1
  Te  Te32  1  0.24774318  0.24778148  0.25083917  1
  Te  Te33  1  0.25213735  0.24876188  0.74783213  1
  Te  Te34  1  0.24805300  0.75272330  0.24840460  1
  Te  Te35  1  0.24854558  0.75054000  0.75559889  1
  Te  Te36  1  0.75317527  0.24629953  0.25394698  1
  Te  Te37  1  0.74572449  0.25102632  0.74586604  1
  Te  Te38  1  0.75199000  0.75157405  0.24917538  1
  Te  Te39  1  0.75167030  0.74905455  0.75242006  1
  Te  Te40  1  0.25277032  -0.00047611  0.00386023  1
  Te  Te41  1  0.25294587  -0.00053441  0.49660973  1
  Te  Te42  1  0.25239044  0.50099032  0.00200081  1
  Te  Te43  1  0.25404866  0.50118764  0.49866758  1
  Te  Te44  1  0.74428486  -0.00194114  0.00151439  1
  Te  Te45  1  0.74692063  0.00037699  0.49927128  1
  Te  Te46  1  0.74943882  0.50696231  0.00028560  1
  Te  Te47  1  0.74387346  0.49820328  0.49997813  1
  Te  Te48  1  0.00744465  0.25087938  -0.00058175  1
  Te  Te49  1  -0.00142321  0.25097265  0.50061022  1
  Te  Te50  1  -0.00050591  0.75006365  0.00396062  1
  Te  Te51  1  -0.00983957  0.74896710  0.49591863  1
  Te  Te52  1  0.49610554  0.24646172  -0.00665547  1
  Te  Te53  1  0.49765806  0.24730299  0.50157228  1
  Te  Te54  1  0.49897657  0.75424251  -0.00132467  1
  Te  Te55  1  0.50548998  0.75319438  0.50140596  1
  Te  Te56  1  -0.00075633  -0.00515620  0.24983020  1
  Te  Te57  1  0.01146589  -0.00014201  0.75020786  1
  Te  Te58  1  0.00785589  0.50657611  0.25004592  1
  Te  Te59  1  0.01070553  0.49999865  0.75027606  1
  Te  Te60  1  0.49874298  0.00109323  0.25063413  1
  Te  Te61  1  0.49552174  0.00215350  0.74841466  1
  Te  Te62  1  0.49349059  0.49904002  0.25572649  1
  Te  Te63  1  0.49456704  0.49542791  0.74563781  1
