# generated using pymatgen
data_AgSbTe2
_symmetry_space_group_name_H-M   'P 1'
_cell_length_a   12.27096867
_cell_length_b   12.26277648
_cell_length_c   12.26800388
_cell_angle_alpha   89.99626908
_cell_angle_beta   89.99948878
_cell_angle_gamma   90.00394410
_symmetry_Int_Tables_number   1
_chemical_formula_structural   AgSbTe2
_chemical_formula_sum   'Ag16 Sb16 Te32'
_cell_volume   1846.04193526
_cell_formula_units_Z   16
loop_
 _symmetry_equiv_pos_site_id
 _symmetry_equiv_pos_as_xyz
  1  'x, y, z'
loop_
 _atom_site_type_symbol
 _atom_site_label
 _atom_site_symmetry_multiplicity
 _atom_site_fract_x
 _atom_site_fract_y
 _atom_site_fract_z
 _atom_site_occupancy
  Ag  Ag0  1  -0.01676761  0.00362509  -0.00545722  1
  Ag  Ag1  1  0.74567927  0.24902445  0.00170558  1
  Ag  Ag2  1  0.25454971  0.49826509  0.75296037  1
  Ag  Ag3  1  0.50788372  0.24903541  0.24336365  1
  Ag  Ag4  1  0.25137942  0.24645795  0.50534826  1
  Ag  Ag5  1  0.74903162  0.75498885  0.50611636  1
  Ag  Ag6  1  -0.00573765  0.00162956  0.50709991  1
  Ag  Ag7  1  0.74499587  0.50184008  0.76554469  1
  Ag  Ag8  1  0.51595438  0.49539960  -0.00501116  1
  Ag  Ag9  1  0.25138083  0.00225284  0.75090979  1
  Ag  Ag10  1  -0.01709578  0.49577133  -0.00399535  1
  Ag  Ag11  1  0.74591299  0.49457908  0.23360379  1
  Ag  Ag12  1  0.50654511  0.75087765  0.75269666  1
  Ag  Ag13  1  0.74807745  0.00402449  0.23666303  1
  Ag  Ag14  1  0.51631010  0.00445972  -0.00522486  1
  Ag  Ag15  1  0.74851616  -0.00256460  0.76238306  1
  Sb  Sb16  1  0.74845993  0.24670832  0.49923148  1
  Sb  Sb17  1  0.25514482  0.49453317  0.24476255  1
  Sb  Sb18  1  0.25112856  0.75105108  -0.00394980  1
  Sb  Sb19  1  0.25430072  0.24925513  -0.00341195  1
  Sb  Sb20  1  0.50581840  0.75050105  0.24652998  1
  Sb  Sb21  1  -0.00792286  0.24994067  0.24754130  1
  Sb  Sb22  1  0.50095905  0.49888137  0.50691899  1
  Sb  Sb23  1  0.50336742  0.00095691  0.50679155  1
  Sb  Sb24  1  -0.00156826  0.24804754  0.75106927  1
  Sb  Sb25  1  0.25021441  0.75293073  0.50622066  1
  Sb  Sb26  1  -0.00256166  0.49673965  0.50462403  1
  Sb  Sb27  1  0.50209385  0.24968515  0.75569053  1
  Sb  Sb28  1  0.74951352  0.75069775  -0.00723579  1
  Sb  Sb29  1  0.25322114  0.00439945  0.24955506  1
  Sb  Sb30  1  -0.00599377  0.75028188  0.25030771  1
  Sb  Sb31  1  -0.00844337  0.75157706  0.74893998  1
  Te  Te32  1  0.26232243  0.25070988  0.25796024  1
  Te  Te33  1  0.25081438  0.24857181  0.74574247  1
  Te  Te34  1  0.25240622  0.74821085  0.25471232  1
  Te  Te35  1  0.26314529  0.75025428  0.74934855  1
  Te  Te36  1  0.74492559  0.24937164  0.24832626  1
  Te  Te37  1  0.74998571  0.25052969  0.75394217  1
  Te  Te38  1  0.74740448  0.75171791  0.26571040  1
  Te  Te39  1  0.74398929  0.75110263  0.74360316  1
  Te  Te40  1  0.24714461  0.00185732  -0.00695656  1
  Te  Te41  1  0.24559045  0.00124045  0.50487770  1
  Te  Te42  1  0.24931057  0.49777137  -0.00693167  1
  Te  Te43  1  0.24695067  0.49747113  0.50947019  1
  Te  Te44  1  0.75040561  -0.00651468  -0.00300446  1
  Te  Te45  1  0.75298898  0.00389431  0.50413496  1
  Te  Te46  1  0.74942878  0.50709655  -0.00258915  1
  Te  Te47  1  0.75345861  0.49818840  0.50336507  1
  Te  Te48  1  -0.00903377  0.24742561  -0.00030649  1
  Te  Te49  1  0.00420100  0.24225905  0.49900477  1
  Te  Te50  1  0.00348339  0.75301525  0.00001371  1
  Te  Te51  1  -0.00601523  0.76026765  0.50010759  1
  Te  Te52  1  0.50540993  0.24919136  0.00338514  1
  Te  Te53  1  0.49780889  0.24939636  0.48830322  1
  Te  Te54  1  0.49816024  0.75083635  -0.00647912  1
  Te  Te55  1  0.50581802  0.74991231  0.50865920  1
  Te  Te56  1  -0.00643740  -0.00039037  0.24206303  1
  Te  Te57  1  -0.00251842  -0.00082255  0.75546386  1
  Te  Te58  1  -0.00766912  0.50037835  0.24010751  1
  Te  Te59  1  -0.00256489  0.50137273  0.75593622  1
  Te  Te60  1  0.50392896  -0.00178279  0.24110544  1
  Te  Te61  1  0.50285427  0.00288810  0.75371716  1
  Te  Te62  1  0.50407343  0.50188124  0.24089802  1
  Te  Te63  1  0.50388154  0.49684432  0.75401695  1
