# generated using pymatgen
data_AgSbTe2
_symmetry_space_group_name_H-M   'P 1'
_cell_length_a   12.21193203
_cell_length_b   12.20630281
_cell_length_c   12.20728890
_cell_angle_alpha   89.99139691
_cell_angle_beta   89.99463814
_cell_angle_gamma   89.99454458
_symmetry_Int_Tables_number   1
_chemical_formula_structural   AgSbTe2
_chemical_formula_sum   'Ag16 Sb16 Te32'
_cell_volume   1819.64945668
_cell_formula_units_Z   16
loop_
 _symmetry_equiv_pos_site_id
 _symmetry_equiv_pos_as_xyz
  1  'x, y, z'
loop_
 _atom_site_type_symbol
 _atom_site_label
 _atom_site_symmetry_multiplicity
 _atom_site_fract_x
 _atom_site_fract_y
 _atom_site_fract_z
 _atom_site_occupancy
  Ag  Ag0  1  0.25397083  0.25733562  -0.00332357  1
  Ag  Ag1  1  -0.00141039  0.00127596  0.50370228  1
  Ag  Ag2  1  -0.00133405  0.74880422  0.75317614  1
  Ag  Ag3  1  0.25105420  0.25177926  0.50313330  1
  Ag  Ag4  1  0.50077596  -0.00386427  -0.00428746  1
  Ag  Ag5  1  0.50230308  0.74883454  0.75818124  1
  Ag  Ag6  1  0.25336804  0.49730066  0.75626441  1
  Ag  Ag7  1  0.00341732  0.50176426  -0.00200670  1
  Ag  Ag8  1  0.49645797  0.50388557  -0.00096099  1
  Ag  Ag9  1  0.74903513  0.24974184  0.50283253  1
  Ag  Ag10  1  0.49781752  0.25171338  0.75313768  1
  Ag  Ag11  1  0.74386119  0.74703782  -0.00299692  1
  Ag  Ag12  1  0.74629333  0.50152768  0.24582385  1
  Ag  Ag13  1  0.25344181  0.49917928  0.24285082  1
  Ag  Ag14  1  0.50143604  0.74516462  0.24151108  1
  Ag  Ag15  1  0.74725448  -0.00165026  0.75077896  1
  Sb  Sb16  1  -0.00028395  -0.00252375  -0.00436476  1
  Sb  Sb17  1  0.00029072  0.25192425  0.24967699  1
  Sb  Sb18  1  0.49919186  0.25579724  0.24613690  1
  Sb  Sb19  1  -0.00136671  0.74676002  0.24593773  1
  Sb  Sb20  1  0.74639507  0.50115643  0.75410218  1
  Sb  Sb21  1  0.74694311  -0.00138940  0.24881963  1
  Sb  Sb22  1  0.00202652  0.25151198  0.75044075  1
  Sb  Sb23  1  0.25845715  0.74067896  -0.00114096  1
  Sb  Sb24  1  0.49956104  0.49892206  0.50137907  1
  Sb  Sb25  1  0.50128880  0.00244607  0.50423281  1
  Sb  Sb26  1  0.75033459  0.74985941  0.50256388  1
  Sb  Sb27  1  0.25316826  0.00243608  0.75158638  1
  Sb  Sb28  1  0.00024011  0.49922731  0.50283203  1
  Sb  Sb29  1  0.25313019  -0.00032533  0.24822563  1
  Sb  Sb30  1  0.74571193  0.25270915  -0.00272300  1
  Sb  Sb31  1  0.24968949  0.74890914  0.50206777  1
  Te  Te32  1  0.25103328  0.25631787  0.25111220  1
  Te  Te33  1  0.25259222  0.25282952  0.75007623  1
  Te  Te34  1  0.25509663  0.74308689  0.25144251  1
  Te  Te35  1  0.25146186  0.74539896  0.74858970  1
  Te  Te36  1  0.74907839  0.25486743  0.25552214  1
  Te  Te37  1  0.74645550  0.24778687  0.74719450  1
  Te  Te38  1  0.74658245  0.74620602  0.24694673  1
  Te  Te39  1  0.74693296  0.75118225  0.75218598  1
  Te  Te40  1  0.25380083  0.01013791  0.00077786  1
  Te  Te41  1  0.24574588  0.00797326  0.49935247  1
  Te  Te42  1  0.25180070  0.49848818  -0.00069089  1
  Te  Te43  1  0.24885651  0.49340295  0.50064518  1
  Te  Te44  1  0.74707813  -0.00198217  -0.00293045  1
  Te  Te45  1  0.75211413  0.00440268  0.50295842  1
  Te  Te46  1  0.74872072  0.50109770  0.00241603  1
  Te  Te47  1  0.75147558  0.49430542  0.49317591  1
  Te  Te48  1  0.00557954  0.25484405  -0.00066009  1
  Te  Te49  1  0.00046451  0.24673985  0.50041308  1
  Te  Te50  1  -0.00638162  0.74760562  -0.00450872  1
  Te  Te51  1  -0.00057945  0.75479920  0.50676955  1
  Te  Te52  1  0.49823569  0.25174339  -0.00391623  1
  Te  Te53  1  0.49899756  0.24871697  0.50598840  1
  Te  Te54  1  0.50075592  0.74796726  -0.00275712  1
  Te  Te55  1  0.50064852  0.75115307  0.50259906  1
  Te  Te56  1  0.00008317  -0.00212653  0.25685107  1
  Te  Te57  1  -0.00429660  -0.00489584  0.74818414  1
  Te  Te58  1  0.00135316  0.50200761  0.24406738  1
  Te  Te59  1  0.00301429  0.50424082  0.75439367  1
  Te  Te60  1  0.50012205  -0.00827586  0.24270907  1
  Te  Te61  1  0.50286483  -0.00159465  0.75392322  1
  Te  Te62  1  0.49936522  0.50295627  0.24701374  1
  Te  Te63  1  0.49842679  0.50068728  0.75256563  1
