# generated using pymatgen
data_AgSbTe2
_symmetry_space_group_name_H-M   'P 1'
_cell_length_a   12.29588032
_cell_length_b   12.31688922
_cell_length_c   12.32955835
_cell_angle_alpha   90.00000003
_cell_angle_beta   90.00000003
_cell_angle_gamma   89.99585115
_symmetry_Int_Tables_number   1
_chemical_formula_structural   AgSbTe2
_chemical_formula_sum   'Ag16 Sb16 Te32'
_cell_volume   1867.27456738
_cell_formula_units_Z   16
loop_
 _symmetry_equiv_pos_site_id
 _symmetry_equiv_pos_as_xyz
  1  'x, y, z'
loop_
 _atom_site_type_symbol
 _atom_site_label
 _atom_site_symmetry_multiplicity
 _atom_site_fract_x
 _atom_site_fract_y
 _atom_site_fract_z
 _atom_site_occupancy
  Ag  Ag0  1  -0.00420779  0.49131282  -0.00000011  1
  Ag  Ag1  1  -0.00902777  0.50082699  0.50000016  1
  Ag  Ag2  1  0.24340013  0.74706345  -0.00000018  1
  Ag  Ag3  1  0.49941475  0.74383249  0.75958933  1
  Ag  Ag4  1  0.50986695  0.50820813  0.49999988  1
  Ag  Ag5  1  -0.00100920  -0.00396653  0.50000003  1
  Ag  Ag6  1  -0.00375448  0.26801135  0.23622893  1
  Ag  Ag7  1  0.23723680  0.25974190  0.00000031  1
  Ag  Ag8  1  0.49941473  0.74383222  0.24041067  1
  Ag  Ag9  1  0.76088882  0.50056366  0.24555819  1
  Ag  Ag10  1  -0.00375437  0.26801104  0.76377165  1
  Ag  Ag11  1  0.76088611  0.50056346  0.75444178  1
  Ag  Ag12  1  0.76705096  0.25882944  -0.00000002  1
  Ag  Ag13  1  0.49942716  -0.00729450  0.00000002  1
  Ag  Ag14  1  -0.00133517  0.73786006  0.75753526  1
  Ag  Ag15  1  -0.00133528  0.73786022  0.24246474  1
  Sb  Sb16  1  0.75248467  -0.00030654  0.75353974  1
  Sb  Sb17  1  0.24627820  0.74852939  0.50000002  1
  Sb  Sb18  1  0.75363645  0.25641047  0.50000002  1
  Sb  Sb19  1  0.75166804  0.74889321  -0.00000005  1
  Sb  Sb20  1  0.75188936  0.74744208  0.50000001  1
  Sb  Sb21  1  0.50086402  -0.00397457  0.50000000  1
  Sb  Sb22  1  0.24193304  0.25242262  0.50000001  1
  Sb  Sb23  1  0.50135843  0.25896493  0.24502696  1
  Sb  Sb24  1  0.24320635  0.50149645  0.75140968  1
  Sb  Sb25  1  0.24854086  -0.00173530  0.24652105  1
  Sb  Sb26  1  -0.00059368  0.00086208  -0.00000001  1
  Sb  Sb27  1  0.24320550  0.50149642  0.24859046  1
  Sb  Sb28  1  0.75248469  -0.00030652  0.24646021  1
  Sb  Sb29  1  0.50331873  0.49976961  0.00000013  1
  Sb  Sb30  1  0.50135840  0.25896461  0.75497304  1
  Sb  Sb31  1  0.24854082  -0.00173531  0.75347894  1
  Te  Te32  1  0.24480246  0.24975136  0.24573792  1
  Te  Te33  1  0.24480255  0.24975129  0.75426176  1
  Te  Te34  1  0.24771254  0.74957885  0.24470767  1
  Te  Te35  1  0.24771264  0.74957893  0.75529246  1
  Te  Te36  1  0.75268434  0.25292703  0.25014180  1
  Te  Te37  1  0.75268430  0.25292751  0.74985817  1
  Te  Te38  1  0.75561853  0.74805707  0.25001066  1
  Te  Te39  1  0.75561847  0.74805687  0.74998936  1
  Te  Te40  1  0.25763261  -0.00783626  0.00000002  1
  Te  Te41  1  0.23932739  0.00086982  0.50000000  1
  Te  Te42  1  0.23982611  0.50230646  0.00000019  1
  Te  Te43  1  0.25605895  0.50042141  0.49999966  1
  Te  Te44  1  0.74107264  0.01332925  -0.00000003  1
  Te  Te45  1  0.75987470  0.00059409  0.50000006  1
  Te  Te46  1  0.75477235  0.49959063  -0.00000026  1
  Te  Te47  1  0.75064567  0.50095163  0.50000030  1
  Te  Te48  1  -0.00009444  0.24583618  -0.00000044  1
  Te  Te49  1  0.00059145  0.26248877  0.49999994  1
  Te  Te50  1  0.00058528  0.75575892  0.00000003  1
  Te  Te51  1  0.00147613  0.74066107  0.49999998  1
  Te  Te52  1  0.49021802  0.24701577  -0.00000004  1
  Te  Te53  1  0.49686969  0.25282476  0.50000005  1
  Te  Te54  1  0.50598095  0.75145084  -0.00000000  1
  Te  Te55  1  0.49794274  0.74319269  0.49999999  1
  Te  Te56  1  -0.00000904  -0.00926738  0.25504633  1
  Te  Te57  1  -0.00000913  -0.00926716  0.74495359  1
  Te  Te58  1  0.00016377  0.50091253  0.24477810  1
  Te  Te59  1  0.00016454  0.50091272  0.75522175  1
  Te  Te60  1  0.49987379  -0.01243369  0.25331927  1
  Te  Te61  1  0.49987385  -0.01243367  0.74668075  1
  Te  Te62  1  0.50609473  0.50452097  0.25106438  1
  Te  Te63  1  0.50609521  0.50452090  0.74893570  1
