# generated using pymatgen
data_AgSbTe2
_symmetry_space_group_name_H-M   'P 1'
_cell_length_a   12.20293540
_cell_length_b   12.20660217
_cell_length_c   12.19860354
_cell_angle_alpha   89.99722113
_cell_angle_beta   89.99675705
_cell_angle_gamma   90.00069586
_symmetry_Int_Tables_number   1
_chemical_formula_structural   AgSbTe2
_chemical_formula_sum   'Ag16 Sb16 Te32'
_cell_volume   1817.05979159
_cell_formula_units_Z   16
loop_
 _symmetry_equiv_pos_site_id
 _symmetry_equiv_pos_as_xyz
  1  'x, y, z'
loop_
 _atom_site_type_symbol
 _atom_site_label
 _atom_site_symmetry_multiplicity
 _atom_site_fract_x
 _atom_site_fract_y
 _atom_site_fract_z
 _atom_site_occupancy
  Ag  Ag0  1  0.24812904  -0.00276287  0.24656977  1
  Ag  Ag1  1  0.74668606  0.00531267  0.75353167  1
  Ag  Ag2  1  0.49421472  0.75208696  0.24591507  1
  Ag  Ag3  1  0.50617571  0.24772100  0.75131158  1
  Ag  Ag4  1  0.00016933  0.49607418  0.49677060  1
  Ag  Ag5  1  0.50023842  -0.00181031  -0.00154626  1
  Ag  Ag6  1  0.50047338  0.75271856  0.75372549  1
  Ag  Ag7  1  0.75206091  0.25076799  0.50443269  1
  Ag  Ag8  1  0.00249925  0.24958935  0.25168114  1
  Ag  Ag9  1  0.00573542  0.75085649  0.24778924  1
  Ag  Ag10  1  0.74881591  0.49458399  0.74948983  1
  Ag  Ag11  1  0.24753907  0.25084866  0.49695745  1
  Ag  Ag12  1  0.74973120  0.24645412  -0.00450949  1
  Ag  Ag13  1  0.25223035  0.75327459  0.00579513  1
  Ag  Ag14  1  -0.00003287  0.00061831  0.00344749  1
  Ag  Ag15  1  0.24685572  0.50187967  0.25078308  1
  Sb  Sb16  1  0.24959197  0.24644368  0.00273152  1
  Sb  Sb17  1  0.50019039  0.49822354  0.49963040  1
  Sb  Sb18  1  -0.00771630  0.24962282  0.74856621  1
  Sb  Sb19  1  0.74779455  0.75391860  -0.00117527  1
  Sb  Sb20  1  0.00084944  0.75095988  0.75260076  1
  Sb  Sb21  1  -0.00003940  0.00405093  0.49587643  1
  Sb  Sb22  1  0.49736356  0.24780122  0.24833029  1
  Sb  Sb23  1  0.75271199  0.49774283  0.25134256  1
  Sb  Sb24  1  0.50020083  0.00134377  0.50127342  1
  Sb  Sb25  1  0.24869486  0.74934011  0.49232053  1
  Sb  Sb26  1  0.25053724  0.49888971  0.74827799  1
  Sb  Sb27  1  0.25294850  0.00080225  0.75304761  1
  Sb  Sb28  1  0.50022355  0.50210042  0.00003503  1
  Sb  Sb29  1  0.75157853  0.74956309  0.50143655  1
  Sb  Sb30  1  -0.00029076  0.49887223  0.00347023  1
  Sb  Sb31  1  0.75156925  0.00202800  0.24616022  1
  Te  Te32  1  0.24778290  0.25012763  0.25205948  1
  Te  Te33  1  0.25716461  0.25094016  0.74507928  1
  Te  Te34  1  0.24980549  0.75103200  0.24950014  1
  Te  Te35  1  0.25653103  0.74944908  0.75559924  1
  Te  Te36  1  0.75319246  0.25073145  0.25070649  1
  Te  Te37  1  0.74897699  0.24971485  0.74994949  1
  Te  Te38  1  0.74958699  0.74935597  0.25022685  1
  Te  Te39  1  0.74410332  0.75007227  0.74992950  1
  Te  Te40  1  0.25011338  -0.00254792  0.00374639  1
  Te  Te41  1  0.24877676  0.00657054  0.49352806  1
  Te  Te42  1  0.24892156  0.50567664  0.00571211  1
  Te  Te43  1  0.24502224  0.49483917  0.49619132  1
  Te  Te44  1  0.74925774  0.00383401  -0.00325182  1
  Te  Te45  1  0.75130023  0.00724397  0.50726139  1
  Te  Te46  1  0.75102064  0.49211667  -0.00601876  1
  Te  Te47  1  0.75449740  0.49403965  0.50352570  1
  Te  Te48  1  -0.00201232  0.24590418  0.00424833  1
  Te  Te49  1  -0.00036652  0.25219729  0.49678550  1
  Te  Te50  1  0.00289449  0.75436546  0.00463280  1
  Te  Te51  1  0.00029920  0.74457768  0.49362937  1
  Te  Te52  1  0.50292079  0.24513543  -0.00307388  1
  Te  Te53  1  0.50155590  0.25007844  0.50356091  1
  Te  Te54  1  0.49840322  0.75361947  0.00040739  1
  Te  Te55  1  0.49968055  0.74997800  0.50061463  1
  Te  Te56  1  0.00181809  -0.00014761  0.24630344  1
  Te  Te57  1  -0.00505195  -0.00199511  0.75716920  1
  Te  Te58  1  0.00286600  0.49956584  0.25285981  1
  Te  Te59  1  -0.00513239  0.50175384  0.74407353  1
  Te  Te60  1  0.49693111  -0.00398771  0.24510454  1
  Te  Te61  1  0.50258274  -0.00010913  0.75375625  1
  Te  Te62  1  0.49427918  0.50618327  0.25019984  1
  Te  Te63  1  0.50454835  0.49976807  0.74991454  1
