# generated using pymatgen
data_AgSbTe2
_symmetry_space_group_name_H-M   'P 1'
_cell_length_a   12.22265419
_cell_length_b   12.21375505
_cell_length_c   12.22421238
_cell_angle_alpha   90.00134020
_cell_angle_beta   89.99987903
_cell_angle_gamma   90.00153431
_symmetry_Int_Tables_number   1
_chemical_formula_structural   AgSbTe2
_chemical_formula_sum   'Ag16 Sb16 Te32'
_cell_volume   1824.88548488
_cell_formula_units_Z   16
loop_
 _symmetry_equiv_pos_site_id
 _symmetry_equiv_pos_as_xyz
  1  'x, y, z'
loop_
 _atom_site_type_symbol
 _atom_site_label
 _atom_site_symmetry_multiplicity
 _atom_site_fract_x
 _atom_site_fract_y
 _atom_site_fract_z
 _atom_site_occupancy
  Ag  Ag0  1  0.50079667  0.74830553  0.74868147  1
  Ag  Ag1  1  0.74603498  0.74903734  0.00175079  1
  Ag  Ag2  1  0.49829068  0.49864196  0.00363606  1
  Ag  Ag3  1  0.25067258  0.00593840  0.74767830  1
  Ag  Ag4  1  0.25074144  0.01448948  0.25148517  1
  Ag  Ag5  1  0.25135724  0.25064779  0.01451027  1
  Ag  Ag6  1  0.00073705  0.49234513  0.49736603  1
  Ag  Ag7  1  0.24688566  0.25270922  0.48653068  1
  Ag  Ag8  1  0.01353030  0.25101129  0.25680988  1
  Ag  Ag9  1  0.75325456  0.25284775  0.49451711  1
  Ag  Ag10  1  0.48606064  0.25303186  0.25334877  1
  Ag  Ag11  1  0.25310894  0.48593093  0.25333423  1
  Ag  Ag12  1  0.74904474  0.00433581  0.25254676  1
  Ag  Ag13  1  0.00472003  0.25038883  0.74180855  1
  Ag  Ag14  1  0.74745637  0.74769978  0.49844747  1
  Ag  Ag15  1  0.49917644  0.49620192  0.49670301  1
  Sb  Sb16  1  0.74977973  0.00144353  0.74798959  1
  Sb  Sb17  1  0.50180442  0.74680018  0.25146088  1
  Sb  Sb18  1  0.49950552  0.00414539  0.49829214  1
  Sb  Sb19  1  -0.00140680  0.74903036  0.25307387  1
  Sb  Sb20  1  0.74757691  0.49523731  0.25300563  1
  Sb  Sb21  1  0.25039510  0.49410277  0.74717603  1
  Sb  Sb22  1  0.49884261  0.00117566  0.00166777  1
  Sb  Sb23  1  0.74833144  0.25031657  0.00499467  1
  Sb  Sb24  1  0.00027048  0.00841229  0.49902377  1
  Sb  Sb25  1  0.25339918  0.74874581  0.00005932  1
  Sb  Sb26  1  0.49640388  0.25107800  0.74696193  1
  Sb  Sb27  1  0.00179189  0.49703959  0.00297459  1
  Sb  Sb28  1  0.25256532  0.74793376  0.49953290  1
  Sb  Sb29  1  0.00076421  0.00185725  0.00110249  1
  Sb  Sb30  1  0.74954605  0.49864764  0.74769526  1
  Sb  Sb31  1  -0.00008050  0.74974028  0.74595204  1
  Te  Te32  1  0.25101367  0.24939904  0.25134132  1
  Te  Te33  1  0.24828632  0.24648936  0.74823208  1
  Te  Te34  1  0.24937858  0.75405684  0.24929774  1
  Te  Te35  1  0.25312041  0.75840507  0.75073328  1
  Te  Te36  1  0.75001419  0.24637884  0.25229463  1
  Te  Te37  1  0.75514044  0.24774894  0.74500669  1
  Te  Te38  1  0.75008910  0.75688133  0.25245695  1
  Te  Te39  1  0.74736912  0.75213306  0.74749863  1
  Te  Te40  1  0.25035515  0.00344708  0.00390945  1
  Te  Te41  1  0.25002651  0.00199905  0.49693244  1
  Te  Te42  1  0.25309833  0.49760725  0.00408793  1
  Te  Te43  1  0.25211322  0.49858294  0.49728277  1
  Te  Te44  1  0.74988083  -0.00370589  0.00501603  1
  Te  Te45  1  0.74987542  -0.00002447  0.49621038  1
  Te  Te46  1  0.74478688  0.50370544  0.00110377  1
  Te  Te47  1  0.74799786  0.49780214  0.49875451  1
  Te  Te48  1  0.00337862  0.25182106  0.00144854  1
  Te  Te49  1  0.00031542  0.25267549  0.49791166  1
  Te  Te50  1  -0.00920202  0.74773943  -0.00114882  1
  Te  Te51  1  -0.00732833  0.73938113  0.50126030  1
  Te  Te52  1  0.49764257  0.25530857  0.00141325  1
  Te  Te53  1  0.50011352  0.25379327  0.49917513  1
  Te  Te54  1  0.50343577  0.74446278  -0.00220446  1
  Te  Te55  1  0.50383289  0.74346600  0.50195584  1
  Te  Te56  1  0.00213593  0.00470893  0.25000382  1
  Te  Te57  1  0.00622295  0.00541167  0.75052208  1
  Te  Te58  1  0.00447423  0.49600202  0.25364797  1
  Te  Te59  1  0.00043327  0.49424449  0.74481108  1
  Te  Te60  1  0.49821164  0.00536328  0.24994048  1
  Te  Te61  1  0.49514696  -0.00481688  0.75008616  1
  Te  Te62  1  0.49783970  0.49685336  0.25216241  1
  Te  Te63  1  0.49944304  0.50340997  0.74873856  1
