# generated using pymatgen
data_AgSbTe2
_symmetry_space_group_name_H-M   'P 1'
_cell_length_a   12.21666287
_cell_length_b   12.21759969
_cell_length_c   12.21984068
_cell_angle_alpha   89.99933208
_cell_angle_beta   89.99869390
_cell_angle_gamma   89.99595719
_symmetry_Int_Tables_number   1
_chemical_formula_structural   AgSbTe2
_chemical_formula_sum   'Ag16 Sb16 Te32'
_cell_volume   1823.91259742
_cell_formula_units_Z   16
loop_
 _symmetry_equiv_pos_site_id
 _symmetry_equiv_pos_as_xyz
  1  'x, y, z'
loop_
 _atom_site_type_symbol
 _atom_site_label
 _atom_site_symmetry_multiplicity
 _atom_site_fract_x
 _atom_site_fract_y
 _atom_site_fract_z
 _atom_site_occupancy
  Ag  Ag0  1  0.25093262  0.24568190  0.50372046  1
  Ag  Ag1  1  0.25113875  -0.00086672  0.24343355  1
  Ag  Ag2  1  0.75424991  0.50391897  0.24524347  1
  Ag  Ag3  1  0.00306960  0.50548859  0.00319290  1
  Ag  Ag4  1  0.00887013  0.24792584  0.75426610  1
  Ag  Ag5  1  0.24567534  0.50140491  0.24506632  1
  Ag  Ag6  1  0.24293046  0.75461093  0.00216562  1
  Ag  Ag7  1  0.49541383  0.00279862  0.49951510  1
  Ag  Ag8  1  0.00369173  0.75110930  0.75991175  1
  Ag  Ag9  1  0.24844970  0.24385401  -0.00398159  1
  Ag  Ag10  1  0.00135733  0.74875620  0.24051727  1
  Ag  Ag11  1  0.75010411  -0.00387788  0.24599923  1
  Ag  Ag12  1  0.75782090  0.75171641  0.00448593  1
  Ag  Ag13  1  0.49087969  0.24481227  0.75175992  1
  Ag  Ag14  1  0.49332123  0.00086849  0.00039340  1
  Ag  Ag15  1  0.25091331  0.00550274  0.75583467  1
  Sb  Sb16  1  0.75171132  0.75261074  0.49444135  1
  Sb  Sb17  1  0.24901180  0.75408014  0.49817195  1
  Sb  Sb18  1  0.49588235  0.24594774  0.24769316  1
  Sb  Sb19  1  0.49769772  0.75311488  0.24696433  1
  Sb  Sb20  1  0.75268954  0.24727280  0.00061478  1
  Sb  Sb21  1  0.00484795  0.00190679  0.49914843  1
  Sb  Sb22  1  0.75334183  0.50224486  0.75560358  1
  Sb  Sb23  1  0.49723026  0.49772599  0.00102822  1
  Sb  Sb24  1  0.74943289  0.24709627  0.49957984  1
  Sb  Sb25  1  0.49399228  0.75570379  0.75458037  1
  Sb  Sb26  1  0.00432008  0.25099013  0.24387190  1
  Sb  Sb27  1  0.00866829  -0.00711627  0.00032413  1
  Sb  Sb28  1  0.24738309  0.49441904  0.75586434  1
  Sb  Sb29  1  0.00215224  0.49829228  0.49620086  1
  Sb  Sb30  1  0.49634919  0.49568319  0.49891579  1
  Sb  Sb31  1  0.74946108  -0.00199340  0.75525586  1
  Te  Te32  1  0.24877792  0.24701896  0.24756505  1
  Te  Te33  1  0.24852507  0.24955678  0.75291395  1
  Te  Te34  1  0.24754376  0.75214847  0.24784419  1
  Te  Te35  1  0.24588607  0.75298367  0.75268618  1
  Te  Te36  1  0.75154766  0.24904013  0.24994761  1
  Te  Te37  1  0.75235380  0.25037930  0.74969881  1
  Te  Te38  1  0.75348435  0.75139773  0.24618313  1
  Te  Te39  1  0.75786002  0.74976387  0.75689112  1
  Te  Te40  1  0.25071350  0.00047124  0.00098615  1
  Te  Te41  1  0.25374404  0.00361827  0.49908806  1
  Te  Te42  1  0.24868864  0.50113446  0.00447236  1
  Te  Te43  1  0.25119658  0.49323934  0.48971678  1
  Te  Te44  1  0.74257299  -0.00245049  0.00483236  1
  Te  Te45  1  0.74151997  0.00036963  0.49151242  1
  Te  Te46  1  0.75203298  0.50341643  0.00556402  1
  Te  Te47  1  0.74875673  0.49994018  0.48888477  1
  Te  Te48  1  0.00317967  0.25674229  -0.00440457  1
  Te  Te49  1  0.00574810  0.25027791  0.50989740  1
  Te  Te50  1  0.00184043  0.74939844  0.00074091  1
  Te  Te51  1  0.00005100  0.74980211  0.50197640  1
  Te  Te52  1  0.49601514  0.24649328  -0.00391550  1
  Te  Te53  1  0.49535542  0.24554437  0.50538271  1
  Te  Te54  1  0.49849779  0.75466131  -0.00192188  1
  Te  Te55  1  0.50013458  0.75847224  0.50292204  1
  Te  Te56  1  0.00062550  -0.00340792  0.25062961  1
  Te  Te57  1  0.00285638  0.00039524  0.74943650  1
  Te  Te58  1  0.00177753  0.50192760  0.24651597  1
  Te  Te59  1  -0.00043311  0.50160898  0.75495775  1
  Te  Te60  1  0.49701784  0.00053962  0.24782221  1
  Te  Te61  1  0.49784543  0.00299548  0.75227573  1
  Te  Te62  1  0.50010969  0.49977491  0.25004409  1
  Te  Te63  1  0.50118397  0.49106262  0.74907064  1
