# generated using pymatgen
data_AgSbTe2
_symmetry_space_group_name_H-M   'P 1'
_cell_length_a   12.23114878
_cell_length_b   12.26281954
_cell_length_c   12.24654238
_cell_angle_alpha   90.00834751
_cell_angle_beta   90.01371386
_cell_angle_gamma   90.00046080
_symmetry_Int_Tables_number   1
_chemical_formula_structural   AgSbTe2
_chemical_formula_sum   'Ag16 Sb16 Te32'
_cell_volume   1836.83886055
_cell_formula_units_Z   16
loop_
 _symmetry_equiv_pos_site_id
 _symmetry_equiv_pos_as_xyz
  1  'x, y, z'
loop_
 _atom_site_type_symbol
 _atom_site_label
 _atom_site_symmetry_multiplicity
 _atom_site_fract_x
 _atom_site_fract_y
 _atom_site_fract_z
 _atom_site_occupancy
  Ag  Ag0  1  0.75651051  0.25302080  -0.00143339  1
  Ag  Ag1  1  0.24258500  0.25096985  0.49495477  1
  Ag  Ag2  1  0.75441002  0.00440714  0.74832099  1
  Ag  Ag3  1  0.00185258  -0.00358753  0.49050056  1
  Ag  Ag4  1  0.00131805  0.73592206  0.25662962  1
  Ag  Ag5  1  -0.00401095  0.49673735  0.01621763  1
  Ag  Ag6  1  0.50530679  0.25035979  0.74843199  1
  Ag  Ag7  1  -0.00195977  0.00314996  0.01006911  1
  Ag  Ag8  1  -0.00108429  0.50356905  0.48636354  1
  Ag  Ag9  1  0.24062629  0.00091575  0.25486263  1
  Ag  Ag10  1  0.76487270  0.49887190  0.25211205  1
  Ag  Ag11  1  0.00138799  0.26426077  0.25227920  1
  Ag  Ag12  1  0.76125459  0.74631673  0.49802085  1
  Ag  Ag13  1  0.23850589  0.74922415  0.49425337  1
  Ag  Ag14  1  0.75492534  0.49677672  0.74799871  1
  Ag  Ag15  1  0.23594111  0.49925095  0.25528508  1
  Sb  Sb16  1  -0.00121013  0.74963426  0.74234913  1
  Sb  Sb17  1  0.24502553  0.49803907  0.74658748  1
  Sb  Sb18  1  0.49983826  0.74928957  0.25213511  1
  Sb  Sb19  1  -0.00169291  0.24998975  0.74922616  1
  Sb  Sb20  1  0.75542600  0.74864394  0.00144209  1
  Sb  Sb21  1  0.24637208  0.00188043  0.74761023  1
  Sb  Sb22  1  0.75534272  0.25138476  0.49992228  1
  Sb  Sb23  1  0.75973349  0.00060723  0.25060915  1
  Sb  Sb24  1  0.24448527  0.25059778  0.00311539  1
  Sb  Sb25  1  0.49936750  0.25115057  0.25108837  1
  Sb  Sb26  1  0.50166079  0.49877448  0.50029932  1
  Sb  Sb27  1  0.50055987  0.00179889  0.50030841  1
  Sb  Sb28  1  0.50350431  0.49723137  0.00007166  1
  Sb  Sb29  1  0.24268336  0.74948179  0.00543842  1
  Sb  Sb30  1  0.50391398  0.74945564  0.74645003  1
  Sb  Sb31  1  0.50243072  0.00379259  -0.00020923  1
  Te  Te32  1  0.24873984  0.25194827  0.25174687  1
  Te  Te33  1  0.25614397  0.25034722  0.74604168  1
  Te  Te34  1  0.24877877  0.74780626  0.25348307  1
  Te  Te35  1  0.25164889  0.74986374  0.74084410  1
  Te  Te36  1  0.75177629  0.25210206  0.24795018  1
  Te  Te37  1  0.74934617  0.25083910  0.74943967  1
  Te  Te38  1  0.75107727  0.74774248  0.25455250  1
  Te  Te39  1  0.75005066  0.74812295  0.74501245  1
  Te  Te40  1  0.24336261  -0.00003733  0.00087729  1
  Te  Te41  1  0.24714257  -0.00039066  0.49974753  1
  Te  Te42  1  0.24381324  0.49994900  0.00232464  1
  Te  Te43  1  0.24806688  0.50019555  0.49935254  1
  Te  Te44  1  0.75461988  0.00145975  -0.00126210  1
  Te  Te45  1  0.75299136  -0.00150047  0.50170315  1
  Te  Te46  1  0.75349851  0.49888784  0.00088148  1
  Te  Te47  1  0.75190391  0.50042032  0.49869280  1
  Te  Te48  1  -0.00376074  0.25006492  0.00100735  1
  Te  Te49  1  0.00313431  0.25018024  0.49879243  1
  Te  Te50  1  0.00032400  0.75088069  0.00827042  1
  Te  Te51  1  -0.00094175  0.74976687  0.49757846  1
  Te  Te52  1  0.50880606  0.24951687  -0.00482809  1
  Te  Te53  1  0.49085182  0.24933139  0.50304597  1
  Te  Te54  1  0.49786483  0.75065463  -0.00126602  1
  Te  Te55  1  0.50055884  0.75021558  0.50034092  1
  Te  Te56  1  0.00017892  0.00186305  0.25223419  1
  Te  Te57  1  -0.00494403  -0.00076208  0.75016507  1
  Te  Te58  1  -0.00037349  0.49764171  0.25168727  1
  Te  Te59  1  -0.00475361  0.50121144  0.75036737  1
  Te  Te60  1  0.48575046  0.00005525  0.24851037  1
  Te  Te61  1  0.50785581  0.00367841  0.75149353  1
  Te  Te62  1  0.49886021  0.49969730  0.24854097  1
  Te  Te63  1  0.50774485  0.49633009  0.75136123  1
