# generated using pymatgen
data_AgSbTe2
_symmetry_space_group_name_H-M   'P 1'
_cell_length_a   12.22801573
_cell_length_b   12.22482021
_cell_length_c   12.21411776
_cell_angle_alpha   89.99839030
_cell_angle_beta   90.00224408
_cell_angle_gamma   90.00570059
_symmetry_Int_Tables_number   1
_chemical_formula_structural   AgSbTe2
_chemical_formula_sum   'Ag16 Sb16 Te32'
_cell_volume   1825.83097158
_cell_formula_units_Z   16
loop_
 _symmetry_equiv_pos_site_id
 _symmetry_equiv_pos_as_xyz
  1  'x, y, z'
loop_
 _atom_site_type_symbol
 _atom_site_label
 _atom_site_symmetry_multiplicity
 _atom_site_fract_x
 _atom_site_fract_y
 _atom_site_fract_z
 _atom_site_occupancy
  Ag  Ag0  1  0.25440117  0.74724558  0.00725907  1
  Ag  Ag1  1  0.50243820  0.00006718  0.49181922  1
  Ag  Ag2  1  0.25722767  -0.00096789  0.25021168  1
  Ag  Ag3  1  0.00012371  0.49851008  0.49404009  1
  Ag  Ag4  1  0.74693793  0.24786586  0.49450948  1
  Ag  Ag5  1  0.00245319  0.49948461  0.00549421  1
  Ag  Ag6  1  0.49973179  0.24654563  0.25158636  1
  Ag  Ag7  1  0.74223277  0.00159364  0.25195745  1
  Ag  Ag8  1  0.49942928  0.50027473  0.49238645  1
  Ag  Ag9  1  0.25185099  0.25250011  0.00795190  1
  Ag  Ag10  1  0.49713889  0.75259939  0.24962444  1
  Ag  Ag11  1  0.00041477  0.25153356  0.24994773  1
  Ag  Ag12  1  0.25499159  0.74947290  0.49141724  1
  Ag  Ag13  1  0.49739817  0.50217450  0.00829365  1
  Ag  Ag14  1  0.74665375  0.00004489  0.74890637  1
  Ag  Ag15  1  0.74599912  0.74986872  0.00447032  1
  Sb  Sb16  1  -0.00128352  0.00142765  0.49586103  1
  Sb  Sb17  1  0.50001826  -0.00290655  0.00927238  1
  Sb  Sb18  1  0.25057285  0.50015893  0.75106845  1
  Sb  Sb19  1  -0.00106424  0.74975917  0.75031007  1
  Sb  Sb20  1  0.25251629  0.25071682  0.49195038  1
  Sb  Sb21  1  0.74833049  0.24990936  0.00588652  1
  Sb  Sb22  1  0.00233719  0.74705959  0.24947069  1
  Sb  Sb23  1  0.74545729  0.75156879  0.49471298  1
  Sb  Sb24  1  0.00027863  0.00102880  0.00350478  1
  Sb  Sb25  1  0.25291717  0.50239758  0.24842252  1
  Sb  Sb26  1  0.50161310  0.24859774  0.74971326  1
  Sb  Sb27  1  0.25371570  -0.00049430  0.74908560  1
  Sb  Sb28  1  0.74891037  0.50024471  0.75011168  1
  Sb  Sb29  1  -0.00169390  0.25072884  0.74974438  1
  Sb  Sb30  1  0.74755254  0.49873685  0.25001319  1
  Sb  Sb31  1  0.50118125  0.75113110  0.75193143  1
  Te  Te32  1  0.25184114  0.24423911  0.24665434  1
  Te  Te33  1  0.24965480  0.24782761  0.76361488  1
  Te  Te34  1  0.25198173  0.75418514  0.24886235  1
  Te  Te35  1  0.24968075  0.75181563  0.75349277  1
  Te  Te36  1  0.74778527  0.24576734  0.25322351  1
  Te  Te37  1  0.75007981  0.24400644  0.74217139  1
  Te  Te38  1  0.74683646  0.75639335  0.24613698  1
  Te  Te39  1  0.75010531  0.75590944  0.75816886  1
  Te  Te40  1  0.25011161  -0.00274570  0.00240339  1
  Te  Te41  1  0.25247512  -0.00313529  0.49743103  1
  Te  Te42  1  0.25112389  0.50292782  -0.00063949  1
  Te  Te43  1  0.25219048  0.50306780  0.50091971  1
  Te  Te44  1  0.74972075  -0.00295106  0.00282193  1
  Te  Te45  1  0.74834093  0.00039059  0.49483142  1
  Te  Te46  1  0.74932229  0.50358304  -0.00091905  1
  Te  Te47  1  0.74857013  0.49845978  0.50111246  1
  Te  Te48  1  0.00103353  0.25516842  0.00409991  1
  Te  Te49  1  -0.00069608  0.25500176  0.49632178  1
  Te  Te50  1  0.00234658  0.74351551  0.00086247  1
  Te  Te51  1  0.00563192  0.74221138  0.49920072  1
  Te  Te52  1  0.49877801  0.25489804  0.00462030  1
  Te  Te53  1  0.50021551  0.25275647  0.49592842  1
  Te  Te54  1  0.49768123  0.74767171  0.00341479  1
  Te  Te55  1  0.49823210  0.74690792  0.49618720  1
  Te  Te56  1  0.00048360  0.00695421  0.25027719  1
  Te  Te57  1  -0.00901479  0.00058613  0.74936709  1
  Te  Te58  1  -0.00153691  0.49501641  0.25034227  1
  Te  Te59  1  -0.00040868  0.49944190  0.74968714  1
  Te  Te60  1  0.49948619  0.00061167  0.25175832  1
  Te  Te61  1  0.50535122  0.00050277  0.73818248  1
  Te  Te62  1  0.50100910  0.50037400  0.25080686  1
  Te  Te63  1  0.50080454  0.49976209  0.74772157  1
