# generated using pymatgen
data_AgSbTe2
_symmetry_space_group_name_H-M   'P 1'
_cell_length_a   12.22292533
_cell_length_b   12.22860081
_cell_length_c   12.22859763
_cell_angle_alpha   90.01188605
_cell_angle_beta   90.00308345
_cell_angle_gamma   90.00322274
_symmetry_Int_Tables_number   1
_chemical_formula_structural   AgSbTe2
_chemical_formula_sum   'Ag16 Sb16 Te32'
_cell_volume   1827.79957301
_cell_formula_units_Z   16
loop_
 _symmetry_equiv_pos_site_id
 _symmetry_equiv_pos_as_xyz
  1  'x, y, z'
loop_
 _atom_site_type_symbol
 _atom_site_label
 _atom_site_symmetry_multiplicity
 _atom_site_fract_x
 _atom_site_fract_y
 _atom_site_fract_z
 _atom_site_occupancy
  Ag  Ag0  1  -0.00056207  0.23854189  0.25227243  1
  Ag  Ag1  1  0.23512808  0.00055832  0.24867257  1
  Ag  Ag2  1  0.75847046  0.50113953  0.24266534  1
  Ag  Ag3  1  0.24041827  0.74946611  0.00387249  1
  Ag  Ag4  1  -0.00161312  0.49339777  0.49450891  1
  Ag  Ag5  1  -0.00241651  0.76135339  0.24343672  1
  Ag  Ag6  1  0.24212247  0.24918882  0.49841920  1
  Ag  Ag7  1  -0.00644693  0.50299956  0.00580938  1
  Ag  Ag8  1  0.50650325  0.49966064  -0.00030296  1
  Ag  Ag9  1  -0.00144465  -0.00263323  0.01426527  1
  Ag  Ag10  1  -0.00045046  0.25313887  0.74743543  1
  Ag  Ag11  1  0.76474453  -0.00051266  0.24673428  1
  Ag  Ag12  1  0.75819398  0.74423208  0.00433761  1
  Ag  Ag13  1  0.00078321  0.00648799  0.48559473  1
  Ag  Ag14  1  0.75494608  0.49812428  0.75792760  1
  Ag  Ag15  1  0.50135864  0.25345038  0.75172829  1
  Sb  Sb16  1  0.49997191  0.00448456  0.49834976  1
  Sb  Sb17  1  0.50190910  0.00114402  0.00122649  1
  Sb  Sb18  1  0.24507666  0.00194180  0.75140209  1
  Sb  Sb19  1  0.50026412  0.25284566  0.24864326  1
  Sb  Sb20  1  0.75528651  0.00174699  0.75383225  1
  Sb  Sb21  1  0.75552978  0.74957703  0.49483610  1
  Sb  Sb22  1  0.75479240  0.25727627  0.00047023  1
  Sb  Sb23  1  0.24478182  0.49792714  0.75146628  1
  Sb  Sb24  1  0.50269870  0.49549346  0.50047385  1
  Sb  Sb25  1  -0.00201677  0.74576456  0.75815470  1
  Sb  Sb26  1  0.24324526  0.75112818  0.49555356  1
  Sb  Sb27  1  0.50192905  0.74828264  0.24715678  1
  Sb  Sb28  1  0.50286251  0.74567219  0.75500556  1
  Sb  Sb29  1  0.23793687  0.50003909  0.24832137  1
  Sb  Sb30  1  0.75923003  0.25019675  0.49955002  1
  Sb  Sb31  1  0.24478466  0.24964701  0.00223856  1
  Te  Te32  1  0.24737698  0.24655035  0.25296848  1
  Te  Te33  1  0.24594336  0.24978450  0.74558524  1
  Te  Te34  1  0.24693740  0.75359533  0.24529078  1
  Te  Te35  1  0.25109195  0.75018633  0.75882470  1
  Te  Te36  1  0.75290605  0.24938044  0.25021430  1
  Te  Te37  1  0.75238710  0.25392298  0.74950665  1
  Te  Te38  1  0.75247048  0.74904157  0.24656324  1
  Te  Te39  1  0.75008491  0.74414854  0.75720083  1
  Te  Te40  1  0.24802111  -0.00335486  0.00340462  1
  Te  Te41  1  0.24560009  0.00156905  0.49626321  1
  Te  Te42  1  0.24851222  0.50439375  0.00094680  1
  Te  Te43  1  0.24451434  0.49735185  0.49961979  1
  Te  Te44  1  0.75213535  -0.00615423  0.00379811  1
  Te  Te45  1  0.75508376  -0.00157572  0.49446195  1
  Te  Te46  1  0.75370560  0.50048963  0.00143534  1
  Te  Te47  1  0.75466065  0.50087458  0.49881796  1
  Te  Te48  1  0.00152961  0.24997534  0.00091577  1
  Te  Te49  1  0.00191845  0.25056390  0.49856824  1
  Te  Te50  1  -0.00077231  0.74906698  0.00145899  1
  Te  Te51  1  0.00095027  0.74963324  0.49359219  1
  Te  Te52  1  0.49661618  0.25516707  -0.00467301  1
  Te  Te53  1  0.48952520  0.25008700  0.50514337  1
  Te  Te54  1  0.50041456  0.74487903  -0.00080669  1
  Te  Te55  1  0.49772453  0.75043814  0.50179111  1
  Te  Te56  1  -0.00079733  0.00168401  0.24775852  1
  Te  Te57  1  -0.00161453  0.00757242  0.75007745  1
  Te  Te58  1  -0.00137251  0.49861941  0.24800134  1
  Te  Te59  1  -0.00326072  0.49659678  0.75129187  1
  Te  Te60  1  0.50170273  0.00078072  0.24987805  1
  Te  Te61  1  0.50174568  0.00920734  0.74988326  1
  Te  Te62  1  0.51061159  0.49847816  0.24570481  1
  Te  Te63  1  0.50562940  0.49528529  0.75245461  1
