# generated using pymatgen
data_AgSbTe2
_symmetry_space_group_name_H-M   'P 1'
_cell_length_a   12.23031089
_cell_length_b   12.21646804
_cell_length_c   12.22580178
_cell_angle_alpha   90.00518244
_cell_angle_beta   89.99995693
_cell_angle_gamma   89.99580100
_symmetry_Int_Tables_number   1
_chemical_formula_structural   AgSbTe2
_chemical_formula_sum   'Ag16 Sb16 Te32'
_cell_volume   1826.67172874
_cell_formula_units_Z   16
loop_
 _symmetry_equiv_pos_site_id
 _symmetry_equiv_pos_as_xyz
  1  'x, y, z'
loop_
 _atom_site_type_symbol
 _atom_site_label
 _atom_site_symmetry_multiplicity
 _atom_site_fract_x
 _atom_site_fract_y
 _atom_site_fract_z
 _atom_site_occupancy
  Ag  Ag0  1  0.50239194  0.24081660  0.25131401  1
  Ag  Ag1  1  0.49613120  0.75741347  0.24613712  1
  Ag  Ag2  1  -0.00242956  0.24447249  0.25200531  1
  Ag  Ag3  1  -0.00165407  0.24817962  0.74792849  1
  Ag  Ag4  1  0.25572881  -0.00706725  0.25221436  1
  Ag  Ag5  1  0.25505341  0.75653272  0.49533126  1
  Ag  Ag6  1  0.74720411  0.50090063  0.75172492  1
  Ag  Ag7  1  0.25807750  0.75263056  0.00478801  1
  Ag  Ag8  1  0.74434924  -0.00060777  0.25172764  1
  Ag  Ag9  1  0.49769045  -0.00298382  0.49343594  1
  Ag  Ag10  1  0.50169495  0.50801452  0.00061684  1
  Ag  Ag11  1  0.25369261  -0.00478376  0.74813883  1
  Ag  Ag12  1  0.74905751  0.24723869  0.49624904  1
  Ag  Ag13  1  0.00383973  0.75627952  0.24896918  1
  Ag  Ag14  1  0.74140975  0.74939307  0.00368904  1
  Ag  Ag15  1  0.49773397  0.75235793  0.75510033  1
  Sb  Sb16  1  -0.00158468  0.50206469  -0.00039010  1
  Sb  Sb17  1  0.74614784  0.75247268  0.49628594  1
  Sb  Sb18  1  0.50012945  0.24738318  0.74921884  1
  Sb  Sb19  1  0.00055605  -0.00121272  0.00312373  1
  Sb  Sb20  1  0.50159069  0.50240829  0.49905082  1
  Sb  Sb21  1  0.25131456  0.50802376  0.24883907  1
  Sb  Sb22  1  0.00208785  0.75160359  0.75060923  1
  Sb  Sb23  1  0.25257527  0.24726523  0.00274753  1
  Sb  Sb24  1  -0.00174521  0.49966227  0.49991033  1
  Sb  Sb25  1  0.74796694  0.50084749  0.24888351  1
  Sb  Sb26  1  0.25117216  0.24468640  0.49726340  1
  Sb  Sb27  1  0.74768427  0.24944962  0.00317060  1
  Sb  Sb28  1  0.25171079  0.50271591  0.75224321  1
  Sb  Sb29  1  0.49951724  -0.00799797  0.00763845  1
  Sb  Sb30  1  0.74713996  -0.00091945  0.74799408  1
  Sb  Sb31  1  0.00204887  0.00003959  0.49719593  1
  Te  Te32  1  0.24862212  0.24316852  0.25014454  1
  Te  Te33  1  0.24552173  0.24525584  0.75005454  1
  Te  Te34  1  0.25132923  0.75234462  0.24859788  1
  Te  Te35  1  0.25017616  0.75329588  0.75121097  1
  Te  Te36  1  0.75053988  0.24820416  0.25131418  1
  Te  Te37  1  0.75295051  0.25038702  0.74867937  1
  Te  Te38  1  0.74931597  0.75162390  0.24969918  1
  Te  Te39  1  0.74941030  0.74922587  0.75135861  1
  Te  Te40  1  0.25023293  -0.00546323  0.00024292  1
  Te  Te41  1  0.25490279  -0.00372598  0.49790381  1
  Te  Te42  1  0.25642553  0.50822889  -0.00088587  1
  Te  Te43  1  0.24994625  0.51000686  0.50095901  1
  Te  Te44  1  0.75006184  -0.00703641  0.00586601  1
  Te  Te45  1  0.74354400  0.00418495  0.49602886  1
  Te  Te46  1  0.74607467  0.50562935  -0.00447073  1
  Te  Te47  1  0.74956065  0.49304004  0.50729239  1
  Te  Te48  1  0.00058776  0.25161854  0.00356562  1
  Te  Te49  1  -0.00332750  0.25056124  0.49589064  1
  Te  Te50  1  0.00007681  0.74865516  0.00490062  1
  Te  Te51  1  0.00464336  0.74902323  0.49377316  1
  Te  Te52  1  0.49955054  0.25936400  0.00542811  1
  Te  Te53  1  0.50234955  0.24722759  0.49572328  1
  Te  Te54  1  0.50061828  0.74913236  0.00023826  1
  Te  Te55  1  0.49895473  0.75247859  0.49877629  1
  Te  Te56  1  0.00026731  0.00039336  0.25075773  1
  Te  Te57  1  0.00429242  0.00550975  0.74910026  1
  Te  Te58  1  0.00024009  0.49654593  0.24977872  1
  Te  Te59  1  -0.00503155  0.49415430  0.75012522  1
  Te  Te60  1  0.49927717  -0.00124641  0.25087925  1
  Te  Te61  1  0.49695999  -0.00296551  0.74435232  1
  Te  Te62  1  0.50036985  0.50097982  0.24676967  1
  Te  Te63  1  0.50327301  0.50291798  0.75279032  1
