# generated using pymatgen
data_AgSbTe2
_symmetry_space_group_name_H-M   'P 1'
_cell_length_a   12.23111246
_cell_length_b   12.23802918
_cell_length_c   12.24760485
_cell_angle_alpha   90.00258691
_cell_angle_beta   90.00219684
_cell_angle_gamma   89.99629144
_symmetry_Int_Tables_number   1
_chemical_formula_structural   AgSbTe2
_chemical_formula_sum   'Ag16 Sb16 Te32'
_cell_volume   1833.27918703
_cell_formula_units_Z   16
loop_
 _symmetry_equiv_pos_site_id
 _symmetry_equiv_pos_as_xyz
  1  'x, y, z'
loop_
 _atom_site_type_symbol
 _atom_site_label
 _atom_site_symmetry_multiplicity
 _atom_site_fract_x
 _atom_site_fract_y
 _atom_site_fract_z
 _atom_site_occupancy
  Ag  Ag0  1  0.50639040  -0.00568804  0.00330488  1
  Ag  Ag1  1  0.75558505  0.75149301  0.49874903  1
  Ag  Ag2  1  0.75474235  0.50943301  0.25150845  1
  Ag  Ag3  1  0.24564621  0.75566950  0.00260523  1
  Ag  Ag4  1  0.24167278  -0.00381997  0.24595820  1
  Ag  Ag5  1  -0.00309908  0.24257827  0.25035555  1
  Ag  Ag6  1  0.75278803  0.75680144  0.00198132  1
  Ag  Ag7  1  0.75604123  0.50872836  0.74881829  1
  Ag  Ag8  1  0.50699392  0.75429170  0.24625422  1
  Ag  Ag9  1  -0.00539004  -0.00473869  0.00208811  1
  Ag  Ag10  1  -0.00524317  -0.00279397  0.49838999  1
  Ag  Ag11  1  -0.00732203  0.75541110  0.75065405  1
  Ag  Ag12  1  -0.00592881  0.50444421  0.50025559  1
  Ag  Ag13  1  0.75771864  -0.00783232  0.75489743  1
  Ag  Ag14  1  -0.00382716  0.24408028  0.74969732  1
  Ag  Ag15  1  0.75618912  -0.00779807  0.24494720  1
  Sb  Sb16  1  0.75450977  0.24753577  0.49966355  1
  Sb  Sb17  1  0.24179524  0.50523472  0.24975989  1
  Sb  Sb18  1  0.50504431  0.50651483  0.00200855  1
  Sb  Sb19  1  0.75393714  0.24075057  0.00030739  1
  Sb  Sb20  1  0.50636351  0.24631930  0.75223460  1
  Sb  Sb21  1  -0.00410988  0.50559372  0.00051636  1
  Sb  Sb22  1  0.50365827  0.24617907  0.24824667  1
  Sb  Sb23  1  0.24141968  0.75350108  0.49704018  1
  Sb  Sb24  1  -0.00765918  0.75791427  0.24789503  1
  Sb  Sb25  1  0.24466778  0.24386821  0.00209826  1
  Sb  Sb26  1  0.24118157  0.50358871  0.75018560  1
  Sb  Sb27  1  0.50988032  0.50550917  0.49815090  1
  Sb  Sb28  1  0.24294811  0.24663329  0.49895456  1
  Sb  Sb29  1  0.50737147  -0.00434288  0.49737024  1
  Sb  Sb30  1  0.23968622  -0.00253290  0.75438869  1
  Sb  Sb31  1  0.50917713  0.75195185  0.75394239  1
  Te  Te32  1  0.24506642  0.24467972  0.24922693  1
  Te  Te33  1  0.24168371  0.25109703  0.75028893  1
  Te  Te34  1  0.25668233  0.75317838  0.24657501  1
  Te  Te35  1  0.24465259  0.74944582  0.75458197  1
  Te  Te36  1  0.75464863  0.24980118  0.24926835  1
  Te  Te37  1  0.75565475  0.24996446  0.75067856  1
  Te  Te38  1  0.75102151  0.75149874  0.24858627  1
  Te  Te39  1  0.75152971  0.75179065  0.75057907  1
  Te  Te40  1  0.24638616  -0.00474837  0.00315070  1
  Te  Te41  1  0.24302192  -0.00159167  0.49282005  1
  Te  Te42  1  0.25251903  0.51008486  0.00033133  1
  Te  Te43  1  0.24039246  0.50078832  0.49989824  1
  Te  Te44  1  0.75384881  -0.00232975  0.00106752  1
  Te  Te45  1  0.75400309  -0.00248183  0.49935849  1
  Te  Te46  1  0.74950544  0.50835453  0.00075240  1
  Te  Te47  1  0.75507868  0.50377050  0.49918938  1
  Te  Te48  1  0.00017356  0.24333083  0.00004564  1
  Te  Te49  1  -0.00105811  0.24682106  0.50017459  1
  Te  Te50  1  -0.00322166  0.75331979  -0.00178893  1
  Te  Te51  1  -0.00394341  0.75164117  0.50343357  1
  Te  Te52  1  0.49732981  0.23992614  -0.00053286  1
  Te  Te53  1  0.49663427  0.25081371  0.50076436  1
  Te  Te54  1  0.50371968  0.75478032  0.00283068  1
  Te  Te55  1  0.50698409  0.75016886  0.49377214  1
  Te  Te56  1  -0.00309046  -0.00087256  0.24975481  1
  Te  Te57  1  -0.00188489  -0.00091822  0.74947708  1
  Te  Te58  1  -0.00435698  0.49324880  0.25105546  1
  Te  Te59  1  -0.00437836  0.50020234  0.74979738  1
  Te  Te60  1  0.50432083  -0.00127229  0.24777832  1
  Te  Te61  1  0.50758663  0.00161591  0.75374286  1
  Te  Te62  1  0.50756747  0.50145637  0.25031640  1
  Te  Te63  1  0.50909339  0.49795664  0.74979756  1
