# generated using pymatgen
data_AgSbTe2
_symmetry_space_group_name_H-M   'P 1'
_cell_length_a   12.21027586
_cell_length_b   12.21113684
_cell_length_c   12.20932024
_cell_angle_alpha   90.00029092
_cell_angle_beta   89.99183922
_cell_angle_gamma   90.00180237
_symmetry_Int_Tables_number   1
_chemical_formula_structural   AgSbTe2
_chemical_formula_sum   'Ag16 Sb16 Te32'
_cell_volume   1820.42610326
_cell_formula_units_Z   16
loop_
 _symmetry_equiv_pos_site_id
 _symmetry_equiv_pos_as_xyz
  1  'x, y, z'
loop_
 _atom_site_type_symbol
 _atom_site_label
 _atom_site_symmetry_multiplicity
 _atom_site_fract_x
 _atom_site_fract_y
 _atom_site_fract_z
 _atom_site_occupancy
  Ag  Ag0  1  0.49890607  0.49739527  0.49701507  1
  Ag  Ag1  1  0.24948798  0.00578313  0.25607590  1
  Ag  Ag2  1  0.00115823  0.49581553  0.50050039  1
  Ag  Ag3  1  0.49709018  0.74688131  0.25174038  1
  Ag  Ag4  1  0.25125051  0.25013252  0.00609045  1
  Ag  Ag5  1  0.24728210  0.00034677  0.74264704  1
  Ag  Ag6  1  0.75057732  0.50076969  0.74671429  1
  Ag  Ag7  1  0.24705809  0.24707920  0.49362061  1
  Ag  Ag8  1  0.00695224  0.00329187  0.49955474  1
  Ag  Ag9  1  0.75209329  0.25372864  0.49843147  1
  Ag  Ag10  1  0.74848367  0.74654759  -0.00063610  1
  Ag  Ag11  1  0.00698528  0.24957446  0.25711151  1
  Ag  Ag12  1  0.00118378  0.74937195  0.74579484  1
  Ag  Ag13  1  0.49296014  0.25243234  0.25352677  1
  Ag  Ag14  1  0.49996064  0.49971048  0.00288956  1
  Ag  Ag15  1  0.24857234  0.75272256  0.49881948  1
  Sb  Sb16  1  0.00187202  0.25019556  0.74084857  1
  Sb  Sb17  1  0.24812184  0.50025902  0.74535889  1
  Sb  Sb18  1  0.49818614  0.74729276  0.74768794  1
  Sb  Sb19  1  -0.00020512  0.49875482  -0.00067768  1
  Sb  Sb20  1  0.25218264  0.49197349  0.25340655  1
  Sb  Sb21  1  0.75109755  0.00039159  0.25353554  1
  Sb  Sb22  1  0.00416967  0.75025335  0.25471139  1
  Sb  Sb23  1  0.75318457  -0.00118097  0.74585825  1
  Sb  Sb24  1  0.75011992  0.74579161  0.50042764  1
  Sb  Sb25  1  0.00241563  0.00101177  0.00010865  1
  Sb  Sb26  1  0.49822672  0.25228164  0.74555378  1
  Sb  Sb27  1  0.25183288  0.74890269  0.00168386  1
  Sb  Sb28  1  0.49817328  0.00129676  0.00248735  1
  Sb  Sb29  1  0.74782323  0.49967956  0.25385442  1
  Sb  Sb30  1  0.49148161  0.00310378  0.49754551  1
  Sb  Sb31  1  0.74832207  0.25397700  0.00122419  1
  Te  Te32  1  0.25090961  0.24880432  0.25272197  1
  Te  Te33  1  0.24913915  0.24483067  0.74918923  1
  Te  Te34  1  0.25282927  0.75652663  0.25254224  1
  Te  Te35  1  0.24675278  0.75397267  0.74746995  1
  Te  Te36  1  0.74874274  0.24879765  0.25405968  1
  Te  Te37  1  0.75024843  0.25395491  0.74604438  1
  Te  Te38  1  0.74430242  0.75134242  0.24553294  1
  Te  Te39  1  0.75333544  0.74785120  0.75219947  1
  Te  Te40  1  0.24958798  0.00495943  0.00114411  1
  Te  Te41  1  0.24833955  0.00093551  0.49906900  1
  Te  Te42  1  0.25539787  0.49517939  -0.00320416  1
  Te  Te43  1  0.25038611  0.49977592  0.50244273  1
  Te  Te44  1  0.75000154  -0.00646517  -0.00151012  1
  Te  Te45  1  0.75862835  0.00687824  0.50128901  1
  Te  Te46  1  0.74647465  0.50227237  -0.00613133  1
  Te  Te47  1  0.74946715  0.49711588  0.50363693  1
  Te  Te48  1  0.00378172  0.25180980  0.00858850  1
  Te  Te49  1  0.00298194  0.25181631  0.49825517  1
  Te  Te50  1  -0.00299799  0.74827537  -0.00379760  1
  Te  Te51  1  0.00213789  0.74858115  0.50083982  1
  Te  Te52  1  0.49782775  0.25466122  0.00615928  1
  Te  Te53  1  0.49821276  0.25313516  0.49617853  1
  Te  Te54  1  0.50138691  0.74464482  0.00404327  1
  Te  Te55  1  0.49791527  0.74496560  0.49625714  1
  Te  Te56  1  0.00501873  0.00276815  0.25513672  1
  Te  Te57  1  0.00429864  -0.00407281  0.74509958  1
  Te  Te58  1  -0.00093398  0.49610588  0.25632002  1
  Te  Te59  1  -0.00353611  0.50391528  0.74570590  1
  Te  Te60  1  0.49467351  0.00104443  0.25066476  1
  Te  Te61  1  0.49239528  -0.00022136  0.75012856  1
  Te  Te62  1  0.50021012  0.49969290  0.25184720  1
  Te  Te63  1  0.50507799  0.50057830  0.74856587  1
