# generated using pymatgen
data_AgSbTe2
_symmetry_space_group_name_H-M   'P 1'
_cell_length_a   12.22762419
_cell_length_b   12.22933358
_cell_length_c   12.23612817
_cell_angle_alpha   89.99577168
_cell_angle_beta   90.00251249
_cell_angle_gamma   89.99994756
_symmetry_Int_Tables_number   1
_chemical_formula_structural   AgSbTe2
_chemical_formula_sum   'Ag16 Sb16 Te32'
_cell_volume   1829.73792484
_cell_formula_units_Z   16
loop_
 _symmetry_equiv_pos_site_id
 _symmetry_equiv_pos_as_xyz
  1  'x, y, z'
loop_
 _atom_site_type_symbol
 _atom_site_label
 _atom_site_symmetry_multiplicity
 _atom_site_fract_x
 _atom_site_fract_y
 _atom_site_fract_z
 _atom_site_occupancy
  Ag  Ag0  1  0.74432673  0.49157764  0.24986389  1
  Ag  Ag1  1  -0.00672495  0.24970447  0.25135019  1
  Ag  Ag2  1  0.26817149  0.25000874  0.50067457  1
  Ag  Ag3  1  0.74563775  0.01089956  0.75319830  1
  Ag  Ag4  1  0.73287688  0.25179818  0.50510786  1
  Ag  Ag5  1  0.25502312  0.75002264  0.50058927  1
  Ag  Ag6  1  0.51021068  0.24962997  0.73378642  1
  Ag  Ag7  1  0.50254041  0.01902689  0.50304618  1
  Ag  Ag8  1  0.50436037  0.48123849  0.50074796  1
  Ag  Ag9  1  0.74662657  0.75142241  -0.00135013  1
  Ag  Ag10  1  0.74401464  0.48855793  0.74988739  1
  Ag  Ag11  1  0.50819863  0.49358136  -0.00088597  1
  Ag  Ag12  1  0.50606579  0.25262055  0.26619661  1
  Ag  Ag13  1  0.50818014  0.00630894  -0.00405050  1
  Ag  Ag14  1  -0.01101720  0.24784703  0.74864998  1
  Ag  Ag15  1  -0.00838304  0.00522942  -0.00272173  1
  Sb  Sb16  1  -0.00347710  0.75409152  0.75066257  1
  Sb  Sb17  1  0.25899319  0.49549808  0.74634160  1
  Sb  Sb18  1  0.74424010  0.74886657  0.50102097  1
  Sb  Sb19  1  0.25787144  0.49575637  0.25345748  1
  Sb  Sb20  1  0.25704380  0.00467290  0.74657023  1
  Sb  Sb21  1  0.25199973  0.00399052  0.25392523  1
  Sb  Sb22  1  0.50324269  0.74563051  0.25111363  1
  Sb  Sb23  1  0.25591341  0.25034307  -0.00099493  1
  Sb  Sb24  1  0.74414772  0.24655181  -0.01042859  1
  Sb  Sb25  1  -0.00590220  0.00798481  0.50427797  1
  Sb  Sb26  1  -0.00427969  0.75150097  0.24928273  1
  Sb  Sb27  1  0.74784528  0.01410031  0.24483026  1
  Sb  Sb28  1  0.25356153  0.75011337  -0.00094083  1
  Sb  Sb29  1  -0.00745780  0.49334971  0.50042451  1
  Sb  Sb30  1  -0.01311735  0.49296157  -0.00107269  1
  Sb  Sb31  1  0.50292358  0.75095034  0.74948055  1
  Te  Te32  1  0.25014851  0.25181009  0.26176431  1
  Te  Te33  1  0.24951293  0.25065775  0.73898447  1
  Te  Te34  1  0.24811003  0.74766084  0.26170537  1
  Te  Te35  1  0.24689917  0.74839519  0.73877766  1
  Te  Te36  1  0.74820215  0.25396085  0.25683209  1
  Te  Te37  1  0.74831216  0.25019308  0.75033771  1
  Te  Te38  1  0.75109129  0.73576405  0.24298002  1
  Te  Te39  1  0.75119720  0.74954456  0.75573822  1
  Te  Te40  1  0.25362157  -0.00458079  -0.00158156  1
  Te  Te41  1  0.25975378  0.00359103  0.50137254  1
  Te  Te42  1  0.26520718  0.50513475  0.00003340  1
  Te  Te43  1  0.26130750  0.49641628  0.50028980  1
  Te  Te44  1  0.74550496  -0.00314054  -0.00325204  1
  Te  Te45  1  0.74400963  0.00115155  0.50681335  1
  Te  Te46  1  0.74369579  0.50536964  -0.00168216  1
  Te  Te47  1  0.74381611  0.49892696  0.50183170  1
  Te  Te48  1  0.00509101  0.24297965  -0.00012749  1
  Te  Te49  1  -0.00064237  0.24758917  0.50025587  1
  Te  Te50  1  -0.00465532  0.76091057  0.00093328  1
  Te  Te51  1  0.01133516  0.75184986  0.49887310  1
  Te  Te52  1  0.49636063  0.24852687  0.00008708  1
  Te  Te53  1  0.50192762  0.25011504  0.50040992  1
  Te  Te54  1  0.50454712  0.75226369  0.00040322  1
  Te  Te55  1  0.49474716  0.75061683  0.49907633  1
  Te  Te56  1  -0.00136760  0.01091920  0.24059003  1
  Te  Te57  1  -0.00904131  0.00830007  0.75544629  1
  Te  Te58  1  -0.01083676  0.48792342  0.24829055  1
  Te  Te59  1  -0.01241388  0.48839435  0.75219271  1
  Te  Te60  1  0.50200733  0.00968016  0.24908366  1
  Te  Te61  1  0.50538474  0.00508476  0.75156491  1
  Te  Te62  1  0.50633594  0.49377814  0.25006132  1
  Te  Te63  1  0.50717423  0.49437629  0.74987337  1
