# generated using pymatgen
data_AgSbTe2
_symmetry_space_group_name_H-M   'P 1'
_cell_length_a   12.29812308
_cell_length_b   12.32059033
_cell_length_c   12.28754282
_cell_angle_alpha   90.00813718
_cell_angle_beta   89.98908703
_cell_angle_gamma   90.00643470
_symmetry_Int_Tables_number   1
_chemical_formula_structural   AgSbTe2
_chemical_formula_sum   'Ag16 Sb16 Te32'
_cell_volume   1861.81009779
_cell_formula_units_Z   16
loop_
 _symmetry_equiv_pos_site_id
 _symmetry_equiv_pos_as_xyz
  1  'x, y, z'
loop_
 _atom_site_type_symbol
 _atom_site_label
 _atom_site_symmetry_multiplicity
 _atom_site_fract_x
 _atom_site_fract_y
 _atom_site_fract_z
 _atom_site_occupancy
  Ag  Ag0  1  0.24466621  0.24493751  0.01595771  1
  Ag  Ag1  1  0.49650834  0.49371533  0.00763682  1
  Ag  Ag2  1  0.76629150  0.24922452  0.48872127  1
  Ag  Ag3  1  0.23335990  0.24923400  0.48299642  1
  Ag  Ag4  1  0.00712915  0.23240644  0.26086709  1
  Ag  Ag5  1  0.22863391  0.01434240  0.24672438  1
  Ag  Ag6  1  -0.00390838  0.77111914  0.25647790  1
  Ag  Ag7  1  0.76628590  0.49613134  0.25586610  1
  Ag  Ag8  1  -0.00244900  0.75271526  0.73965078  1
  Ag  Ag9  1  -0.00375802  0.00318190  0.48248733  1
  Ag  Ag10  1  0.23446212  0.48579182  0.25124107  1
  Ag  Ag11  1  -0.00356290  0.49674789  0.49040059  1
  Ag  Ag12  1  0.77060163  0.00337575  0.25479353  1
  Ag  Ag13  1  0.00350788  0.00297012  0.02215168  1
  Ag  Ag14  1  0.49607435  0.00396633  0.00775986  1
  Ag  Ag15  1  0.76089143  0.75139815  0.49199797  1
  Sb  Sb16  1  0.00031159  0.24941337  0.74329854  1
  Sb  Sb17  1  0.24646198  0.49834473  0.74942518  1
  Sb  Sb18  1  0.75286045  0.50055734  0.74474848  1
  Sb  Sb19  1  0.50405613  0.75023171  0.74950977  1
  Sb  Sb20  1  0.75306793  0.75071987  0.00714221  1
  Sb  Sb21  1  0.23965274  0.75143144  0.49481931  1
  Sb  Sb22  1  0.24779702  0.00147965  0.75186242  1
  Sb  Sb23  1  0.50060843  0.24982016  0.75274138  1
  Sb  Sb24  1  0.75182497  -0.00041206  0.74461565  1
  Sb  Sb25  1  0.50520163  0.75072420  0.25048471  1
  Sb  Sb26  1  0.75595775  0.24839188  0.01349427  1
  Sb  Sb27  1  0.49999941  0.49865432  0.49326471  1
  Sb  Sb28  1  0.49981589  0.00118992  0.49108428  1
  Sb  Sb29  1  0.49304847  0.24951379  0.25019009  1
  Sb  Sb30  1  0.24854128  0.75339801  0.00434513  1
  Sb  Sb31  1  0.00265208  0.49645024  0.01373494  1
  Te  Te32  1  0.24785074  0.24954626  0.25071117  1
  Te  Te33  1  0.25066507  0.25087882  0.74886242  1
  Te  Te34  1  0.24247799  0.74931926  0.25216741  1
  Te  Te35  1  0.24100457  0.74901197  0.74796805  1
  Te  Te36  1  0.75473017  0.24987549  0.25303959  1
  Te  Te37  1  0.74994704  0.25069206  0.73100884  1
  Te  Te38  1  0.75394867  0.75000253  0.25261745  1
  Te  Te39  1  0.75714784  0.74956839  0.73860333  1
  Te  Te40  1  0.24480812  0.00086491  0.00232163  1
  Te  Te41  1  0.25292242  0.00257689  0.49608134  1
  Te  Te42  1  0.24824214  0.49644416  0.00439843  1
  Te  Te43  1  0.25318810  0.49693434  0.49549779  1
  Te  Te44  1  0.75437511  0.00136772  0.00691553  1
  Te  Te45  1  0.74768002  0.00416393  0.49556444  1
  Te  Te46  1  0.74850210  0.49782982  0.00760512  1
  Te  Te47  1  0.74780747  0.49528066  0.49558086  1
  Te  Te48  1  0.00383634  0.24643489  -0.00096031  1
  Te  Te49  1  0.00277119  0.24853685  0.49831199  1
  Te  Te50  1  -0.00068323  0.75651172  0.00656192  1
  Te  Te51  1  -0.00158865  0.75212971  0.49136926  1
  Te  Te52  1  0.49367040  0.24750097  -0.00035058  1
  Te  Te53  1  0.49754064  0.24931940  0.50172730  1
  Te  Te54  1  0.50034866  0.75396406  -0.00117824  1
  Te  Te55  1  0.51617853  0.75055295  0.50354929  1
  Te  Te56  1  0.00026685  0.00168443  0.25237029  1
  Te  Te57  1  -0.00052067  -0.00394539  0.74777591  1
  Te  Te58  1  -0.00000982  0.49626151  0.25175595  1
  Te  Te59  1  -0.00064422  0.50552569  0.73616022  1
  Te  Te60  1  0.49912443  -0.00095248  0.24447101  1
  Te  Te61  1  0.49999931  -0.00109200  0.76803866  1
  Te  Te62  1  0.49822275  0.50069661  0.24542332  1
  Te  Te63  1  0.49959813  0.50134738  0.76553902  1
