# generated using pymatgen
data_AgSbTe2
_symmetry_space_group_name_H-M   'P 1'
_cell_length_a   12.24155737
_cell_length_b   12.21998409
_cell_length_c   12.23265196
_cell_angle_alpha   90.00849913
_cell_angle_beta   90.00066134
_cell_angle_gamma   89.99986646
_symmetry_Int_Tables_number   1
_chemical_formula_structural   AgSbTe2
_chemical_formula_sum   'Ag16 Sb16 Te32'
_cell_volume   1829.90240294
_cell_formula_units_Z   16
loop_
 _symmetry_equiv_pos_site_id
 _symmetry_equiv_pos_as_xyz
  1  'x, y, z'
loop_
 _atom_site_type_symbol
 _atom_site_label
 _atom_site_symmetry_multiplicity
 _atom_site_fract_x
 _atom_site_fract_y
 _atom_site_fract_z
 _atom_site_occupancy
  Ag  Ag0  1  0.25372283  0.25239682  -0.00282516  1
  Ag  Ag1  1  0.25278245  0.74470166  0.50299791  1
  Ag  Ag2  1  0.49959763  0.25149166  0.75474602  1
  Ag  Ag3  1  0.50072469  0.49699492  -0.00582995  1
  Ag  Ag4  1  0.49924480  0.50158116  0.50547461  1
  Ag  Ag5  1  0.74807130  -0.00025450  0.24302568  1
  Ag  Ag6  1  0.25167238  0.50011623  0.24805737  1
  Ag  Ag7  1  -0.00198018  0.00183795  -0.00299654  1
  Ag  Ag8  1  -0.00010007  0.49793908  -0.00008479  1
  Ag  Ag9  1  0.00102553  0.50209892  0.50074359  1
  Ag  Ag10  1  0.25782962  0.00004944  0.75540524  1
  Ag  Ag11  1  0.74826520  0.50008776  0.24666886  1
  Ag  Ag12  1  0.50167255  0.00246023  -0.00853235  1
  Ag  Ag13  1  0.74283426  0.49986062  0.75361152  1
  Ag  Ag14  1  0.49971981  0.74804864  0.75095881  1
  Ag  Ag15  1  0.74235628  0.00006591  0.75709991  1
  Sb  Sb16  1  0.74810951  0.74935674  -0.00173902  1
  Sb  Sb17  1  0.00015703  -0.00168765  0.50158568  1
  Sb  Sb18  1  0.00104122  0.74810163  0.74970377  1
  Sb  Sb19  1  0.00076707  0.74787877  0.25004227  1
  Sb  Sb20  1  0.49894377  0.25235636  0.24532558  1
  Sb  Sb21  1  0.25338404  0.25350195  0.50295178  1
  Sb  Sb22  1  0.74602474  0.25040479  -0.00174166  1
  Sb  Sb23  1  0.74738431  0.25273489  0.50184800  1
  Sb  Sb24  1  0.25097756  -0.00082087  0.24488486  1
  Sb  Sb25  1  0.49915113  0.74771773  0.24938122  1
  Sb  Sb26  1  0.00056805  0.25182767  0.24671915  1
  Sb  Sb27  1  0.74725660  0.74639520  0.50259347  1
  Sb  Sb28  1  0.00101759  0.25144752  0.75353355  1
  Sb  Sb29  1  0.25250416  0.74832494  -0.00258530  1
  Sb  Sb30  1  0.49983634  -0.00174486  0.50725561  1
  Sb  Sb31  1  0.25748025  0.50017630  0.75094340  1
  Te  Te32  1  0.25058425  0.25577884  0.24404553  1
  Te  Te33  1  0.25451407  0.24469712  0.75418060  1
  Te  Te34  1  0.25089040  0.74393402  0.25785915  1
  Te  Te35  1  0.25438863  0.75462241  0.74635632  1
  Te  Te36  1  0.74965116  0.25116541  0.25130939  1
  Te  Te37  1  0.74386536  0.24987045  0.74984779  1
  Te  Te38  1  0.74971150  0.74871746  0.25163507  1
  Te  Te39  1  0.74387754  0.75008232  0.74909817  1
  Te  Te40  1  0.25087366  0.00027981  -0.00048563  1
  Te  Te41  1  0.24794215  -0.00277283  0.50174743  1
  Te  Te42  1  0.24987626  0.49927076  0.00089256  1
  Te  Te43  1  0.25108310  0.50074241  0.49966108  1
  Te  Te44  1  0.74966724  0.00056203  -0.00165568  1
  Te  Te45  1  0.75222664  -0.00063648  0.49925890  1
  Te  Te46  1  0.74963345  0.49967570  0.00020602  1
  Te  Te47  1  0.74912600  0.50083714  0.49919350  1
  Te  Te48  1  0.00902803  0.25178003  -0.00162569  1
  Te  Te49  1  0.00149951  0.25977760  0.50127554  1
  Te  Te50  1  0.00135552  0.74882588  -0.00058645  1
  Te  Te51  1  0.00787300  0.74268849  0.50071716  1
  Te  Te52  1  0.49599017  0.25131492  -0.00397302  1
  Te  Te53  1  0.49903780  0.25655781  0.50863315  1
  Te  Te54  1  0.49927570  0.74951616  -0.00571934  1
  Te  Te55  1  0.49569251  0.74613718  0.50506736  1
  Te  Te56  1  -0.00597840  0.00019067  0.24458258  1
  Te  Te57  1  -0.00387432  -0.00027057  0.75377822  1
  Te  Te58  1  -0.00386137  0.49994160  0.24571260  1
  Te  Te59  1  -0.00763355  0.50050791  0.75371481  1
  Te  Te60  1  0.50534799  0.00012402  0.24530152  1
  Te  Te61  1  0.50223196  -0.00023086  0.75034858  1
  Te  Te62  1  0.50345353  0.50022234  0.24734902  1
  Te  Te63  1  0.50060807  0.50064266  0.75305067  1
