# generated using pymatgen
data_AgSbTe2
_symmetry_space_group_name_H-M   'P 1'
_cell_length_a   12.20077068
_cell_length_b   12.19751851
_cell_length_c   12.20009264
_cell_angle_alpha   90.00078312
_cell_angle_beta   90.00004547
_cell_angle_gamma   90.00079280
_symmetry_Int_Tables_number   1
_chemical_formula_structural   AgSbTe2
_chemical_formula_sum   'Ag16 Sb16 Te32'
_cell_volume   1815.60712616
_cell_formula_units_Z   16
loop_
 _symmetry_equiv_pos_site_id
 _symmetry_equiv_pos_as_xyz
  1  'x, y, z'
loop_
 _atom_site_type_symbol
 _atom_site_label
 _atom_site_symmetry_multiplicity
 _atom_site_fract_x
 _atom_site_fract_y
 _atom_site_fract_z
 _atom_site_occupancy
  Ag  Ag0  1  0.50257180  0.74842795  0.75249260  1
  Ag  Ag1  1  -0.00044896  0.00133428  0.49696170  1
  Ag  Ag2  1  0.50025199  0.25001199  0.25143597  1
  Ag  Ag3  1  0.24795778  -0.00193775  0.75024709  1
  Ag  Ag4  1  0.75025960  0.75217409  -0.00211461  1
  Ag  Ag5  1  0.24959736  0.75195867  -0.00146307  1
  Ag  Ag6  1  0.50181390  0.50302506  -0.00180327  1
  Ag  Ag7  1  0.75220892  -0.00371181  0.75196526  1
  Ag  Ag8  1  -0.00180982  0.75486681  0.24836614  1
  Ag  Ag9  1  -0.00067275  0.49863835  0.49939906  1
  Ag  Ag10  1  0.24779282  0.24939900  0.49888823  1
  Ag  Ag11  1  0.75584505  -0.00089271  0.24869069  1
  Ag  Ag12  1  0.50089126  0.49906018  0.50168162  1
  Ag  Ag13  1  -0.00222476  -0.00312933  0.00259888  1
  Ag  Ag14  1  -0.00044422  0.24521808  0.25317282  1
  Ag  Ag15  1  0.74764916  0.50387780  0.75007161  1
  Sb  Sb16  1  0.50225343  -0.00347307  -0.00081336  1
  Sb  Sb17  1  0.75018727  0.24655402  0.00173534  1
  Sb  Sb18  1  0.75037138  0.50196408  0.24944006  1
  Sb  Sb19  1  0.24112130  0.00010372  0.24982864  1
  Sb  Sb20  1  0.75336408  0.24996384  0.49814798  1
  Sb  Sb21  1  0.49949083  0.25271622  0.74759493  1
  Sb  Sb22  1  0.50202083  0.75000936  0.24707162  1
  Sb  Sb23  1  0.24810253  0.75206143  0.50228769  1
  Sb  Sb24  1  0.49973921  0.00233615  0.50013509  1
  Sb  Sb25  1  0.24967698  0.24750683  0.00086186  1
  Sb  Sb26  1  0.75085766  0.75038499  0.50345224  1
  Sb  Sb27  1  0.00074181  0.24746157  0.74495961  1
  Sb  Sb28  1  -0.00339780  0.75306897  0.75300832  1
  Sb  Sb29  1  -0.00224543  0.50382543  0.00046942  1
  Sb  Sb30  1  0.24972924  0.49986911  0.25110548  1
  Sb  Sb31  1  0.25251486  0.50368239  0.74915090  1
  Te  Te32  1  0.24979054  0.24910536  0.25448513  1
  Te  Te33  1  0.25112725  0.24218150  0.74482805  1
  Te  Te34  1  0.24519402  0.75087337  0.24288210  1
  Te  Te35  1  0.25478015  0.75455099  0.75437780  1
  Te  Te36  1  0.75076618  0.24409794  0.24968218  1
  Te  Te37  1  0.74882878  0.24780848  0.75055166  1
  Te  Te38  1  0.75351179  0.75482473  0.24409161  1
  Te  Te39  1  0.74726567  0.75186985  0.75348659  1
  Te  Te40  1  0.24599815  -0.00363729  -0.00509230  1
  Te  Te41  1  0.24547214  0.00285331  0.50498041  1
  Te  Te42  1  0.25492416  0.50581300  -0.00229761  1
  Te  Te43  1  0.24914306  0.49549860  0.50176347  1
  Te  Te44  1  0.75294776  -0.00336327  -0.00191160  1
  Te  Te45  1  0.75546658  -0.00048100  0.50132167  1
  Te  Te46  1  0.74684995  0.50555236  -0.00474536  1
  Te  Te47  1  0.74998072  0.50029368  0.50521468  1
  Te  Te48  1  0.00210334  0.24511088  0.00909729  1
  Te  Te49  1  0.00294791  0.24970026  0.49543414  1
  Te  Te50  1  -0.00065391  0.75209623  0.00310074  1
  Te  Te51  1  0.00139268  0.74994604  0.49351892  1
  Te  Te52  1  0.49811502  0.25772537  0.00648191  1
  Te  Te53  1  0.49485299  0.25465964  0.49603023  1
  Te  Te54  1  0.50064707  0.74622417  -0.00140308  1
  Te  Te55  1  0.49875334  0.74258199  0.50380393  1
  Te  Te56  1  -0.00136714  0.00029188  0.25079649  1
  Te  Te57  1  -0.00238712  -0.00079363  0.74973845  1
  Te  Te58  1  -0.00158484  0.49902182  0.25528582  1
  Te  Te59  1  -0.00588216  0.50001691  0.74425516  1
  Te  Te60  1  0.50799925  0.00452618  0.25107060  1
  Te  Te61  1  0.50240674  -0.00405014  0.74932575  1
  Te  Te62  1  0.50157614  0.49640382  0.25150928  1
  Te  Te63  1  0.50326650  0.50234126  0.74930934  1
