# generated using pymatgen
data_AgSbTe2
_symmetry_space_group_name_H-M   'P 1'
_cell_length_a   12.21086332
_cell_length_b   12.21507396
_cell_length_c   12.21308029
_cell_angle_alpha   90.00360273
_cell_angle_beta   89.99687049
_cell_angle_gamma   90.00028777
_symmetry_Int_Tables_number   1
_chemical_formula_structural   AgSbTe2
_chemical_formula_sum   'Ag16 Sb16 Te32'
_cell_volume   1821.66150709
_cell_formula_units_Z   16
loop_
 _symmetry_equiv_pos_site_id
 _symmetry_equiv_pos_as_xyz
  1  'x, y, z'
loop_
 _atom_site_type_symbol
 _atom_site_label
 _atom_site_symmetry_multiplicity
 _atom_site_fract_x
 _atom_site_fract_y
 _atom_site_fract_z
 _atom_site_occupancy
  Ag  Ag0  1  0.25030249  0.75236301  0.50049974  1
  Ag  Ag1  1  0.25225307  0.00372239  0.75021363  1
  Ag  Ag2  1  0.49476035  0.24787308  0.75225381  1
  Ag  Ag3  1  0.49559038  0.49590988  -0.00012666  1
  Ag  Ag4  1  0.24993634  0.24965079  -0.00369854  1
  Ag  Ag5  1  0.00170330  0.49513144  0.49746070  1
  Ag  Ag6  1  0.75228010  0.49729642  0.25028493  1
  Ag  Ag7  1  0.49856778  0.74998481  0.25004288  1
  Ag  Ag8  1  0.00608838  0.00603425  -0.00011948  1
  Ag  Ag9  1  0.00447656  0.00467149  0.50012614  1
  Ag  Ag10  1  0.49527944  0.00147115  0.50231919  1
  Ag  Ag11  1  -0.00009960  0.25245936  0.25046398  1
  Ag  Ag12  1  0.00442481  0.49402789  0.00226832  1
  Ag  Ag13  1  0.75294988  0.25027839  0.49834702  1
  Ag  Ag14  1  0.25026170  0.49594072  0.75247155  1
  Ag  Ag15  1  0.49406305  0.00452801  -0.00246230  1
  Sb  Sb16  1  0.00143791  0.74766476  0.25170902  1
  Sb  Sb17  1  0.24799852  0.24790525  0.50401449  1
  Sb  Sb18  1  0.00545075  0.24959174  0.75054001  1
  Sb  Sb19  1  0.49547206  0.75238664  0.74888262  1
  Sb  Sb20  1  0.49757534  0.49862308  0.50003225  1
  Sb  Sb21  1  0.00339047  0.75018494  0.74854729  1
  Sb  Sb22  1  0.74877008  0.74906035  0.49673318  1
  Sb  Sb23  1  0.74911561  0.49560366  0.74900478  1
  Sb  Sb24  1  0.24794742  0.49862271  0.24770935  1
  Sb  Sb25  1  0.25197287  0.75049167  0.00008328  1
  Sb  Sb26  1  0.74851663  0.74874559  0.00267134  1
  Sb  Sb27  1  0.49976090  0.25016343  0.24833841  1
  Sb  Sb28  1  0.75043867  0.00373062  0.25156544  1
  Sb  Sb29  1  0.75088987  0.25183172  0.00177893  1
  Sb  Sb30  1  0.25000773  0.00072979  0.24999937  1
  Sb  Sb31  1  0.74700446  0.00405230  0.74860760  1
  Te  Te32  1  0.24286674  0.25049778  0.24052776  1
  Te  Te33  1  0.25497901  0.24976772  0.75469763  1
  Te  Te34  1  0.25695635  0.74965772  0.25886265  1
  Te  Te35  1  0.25098580  0.75002890  0.74215228  1
  Te  Te36  1  0.75558699  0.25545467  0.25607203  1
  Te  Te37  1  0.73917293  0.25051094  0.74114899  1
  Te  Te38  1  0.74227943  0.74056649  0.25083117  1
  Te  Te39  1  0.74960407  0.74949341  0.74948540  1
  Te  Te40  1  0.24982540  -0.00002012  -0.00365779  1
  Te  Te41  1  0.24914481  0.00032100  0.50364118  1
  Te  Te42  1  0.24894628  0.50027620  -0.00356897  1
  Te  Te43  1  0.24589330  0.50104019  0.50509246  1
  Te  Te44  1  0.75089525  0.00040156  0.00001421  1
  Te  Te45  1  0.75198223  0.00385568  0.49970506  1
  Te  Te46  1  0.75153738  0.49893111  0.00352430  1
  Te  Te47  1  0.75518579  0.49728248  0.49761721  1
  Te  Te48  1  0.00078369  0.24973994  0.00052842  1
  Te  Te49  1  -0.00033681  0.24905138  0.49905684  1
  Te  Te50  1  0.00030666  0.75090712  0.00200975  1
  Te  Te51  1  0.00395223  0.75188357  0.49801601  1
  Te  Te52  1  0.49889231  0.24858681  -0.00025268  1
  Te  Te53  1  0.50123536  0.24554669  0.50046062  1
  Te  Te54  1  0.49889485  0.75101946  0.00545631  1
  Te  Te55  1  0.49721480  0.75480695  0.49631205  1
  Te  Te56  1  -0.00136454  0.00297822  0.24955165  1
  Te  Te57  1  0.00551764  0.00029129  0.75052710  1
  Te  Te58  1  -0.00234894  0.49824445  0.24896285  1
  Te  Te59  1  0.00443226  0.49985073  0.75176003  1
  Te  Te60  1  0.50156445  -0.00197155  0.24879889  1
  Te  Te61  1  0.49667587  0.00233937  0.75142722  1
  Te  Te62  1  0.50362312  0.50116562  0.24651208  1
  Te  Te63  1  0.49652798  0.49676289  0.75416502  1
