# generated using pymatgen
data_AgSbTe2
_symmetry_space_group_name_H-M   'P 1'
_cell_length_a   12.20869472
_cell_length_b   12.22209312
_cell_length_c   12.21567449
_cell_angle_alpha   89.99992688
_cell_angle_beta   90.00505797
_cell_angle_gamma   89.99741926
_symmetry_Int_Tables_number   1
_chemical_formula_structural   AgSbTe2
_chemical_formula_sum   'Ag16 Sb16 Te32'
_cell_volume   1822.77167715
_cell_formula_units_Z   16
loop_
 _symmetry_equiv_pos_site_id
 _symmetry_equiv_pos_as_xyz
  1  'x, y, z'
loop_
 _atom_site_type_symbol
 _atom_site_label
 _atom_site_symmetry_multiplicity
 _atom_site_fract_x
 _atom_site_fract_y
 _atom_site_fract_z
 _atom_site_occupancy
  Ag  Ag0  1  0.25001680  0.49812791  0.25215195  1
  Ag  Ag1  1  0.75353019  0.24718287  -0.00392717  1
  Ag  Ag2  1  0.75156120  0.75282636  -0.00455075  1
  Ag  Ag3  1  0.74776362  0.24921404  0.50355339  1
  Ag  Ag4  1  -0.00374678  0.75044963  0.24912870  1
  Ag  Ag5  1  -0.00835014  0.24589266  0.75114775  1
  Ag  Ag6  1  0.74986620  0.00100194  0.74935980  1
  Ag  Ag7  1  0.74866197  0.49930655  0.74664010  1
  Ag  Ag8  1  -0.00548395  0.00273470  -0.00258250  1
  Ag  Ag9  1  0.50543624  0.49889118  0.50041416  1
  Ag  Ag10  1  -0.00507076  0.24962098  0.24834926  1
  Ag  Ag11  1  0.74677183  0.75089349  0.50536471  1
  Ag  Ag12  1  0.50570432  0.00057119  0.50384871  1
  Ag  Ag13  1  0.50767943  0.75293547  0.74660155  1
  Ag  Ag14  1  0.50501221  0.25068825  0.25371325  1
  Ag  Ag15  1  0.25014371  0.00086278  0.74931482  1
  Sb  Sb16  1  0.25123753  0.75105258  0.50083973  1
  Sb  Sb17  1  0.74925937  0.49722507  0.25415617  1
  Sb  Sb18  1  -0.00880502  0.75385743  0.75140199  1
  Sb  Sb19  1  0.25153791  0.49936106  0.74732902  1
  Sb  Sb20  1  0.75033592  0.00201489  0.25100911  1
  Sb  Sb21  1  -0.00425715  0.49722733  0.00052895  1
  Sb  Sb22  1  0.50295644  0.74949712  0.25287850  1
  Sb  Sb23  1  0.24777275  0.75261851  -0.00095972  1
  Sb  Sb24  1  -0.00568099  0.49920351  0.50000711  1
  Sb  Sb25  1  0.24646356  0.24776418  -0.00081852  1
  Sb  Sb26  1  0.50931307  0.24791232  0.74602238  1
  Sb  Sb27  1  0.25340239  0.24929607  0.50034957  1
  Sb  Sb28  1  -0.00599839  0.00164551  0.50246877  1
  Sb  Sb29  1  0.50606475  0.00113212  -0.00361948  1
  Sb  Sb30  1  0.24898380  0.00101823  0.25100189  1
  Sb  Sb31  1  0.50382056  0.49888954  -0.00081428  1
  Te  Te32  1  0.24706692  0.25265940  0.25006630  1
  Te  Te33  1  0.24198053  0.24649675  0.75061329  1
  Te  Te34  1  0.24448504  0.74631988  0.24929087  1
  Te  Te35  1  0.25614675  0.75255904  0.75044067  1
  Te  Te36  1  0.75237323  0.25122222  0.25060004  1
  Te  Te37  1  0.75058857  0.24904943  0.74941886  1
  Te  Te38  1  0.75396498  0.74859919  0.24935203  1
  Te  Te39  1  0.74962414  0.75060456  0.74881593  1
  Te  Te40  1  0.24313914  -0.00048240  -0.00671129  1
  Te  Te41  1  0.25784329  -0.00042217  0.50683431  1
  Te  Te42  1  0.25135341  0.50028908  0.00650672  1
  Te  Te43  1  0.25905219  0.50032933  0.49643354  1
  Te  Te44  1  0.75292395  0.00093625  -0.00325811  1
  Te  Te45  1  0.74686499  0.00085139  0.50278348  1
  Te  Te46  1  0.74961724  0.49978625  -0.00773793  1
  Te  Te47  1  0.74567557  0.49916020  0.50414584  1
  Te  Te48  1  -0.00439285  0.24781241  0.00217962  1
  Te  Te49  1  -0.00692608  0.24923002  0.49747395  1
  Te  Te50  1  -0.00532734  0.75371915  0.00276066  1
  Te  Te51  1  -0.00693304  0.75039887  0.49478133  1
  Te  Te52  1  0.50746094  0.24872203  0.00771243  1
  Te  Te53  1  0.50450195  0.24980504  0.49765844  1
  Te  Te54  1  0.50742912  0.75089004  -0.00288940  1
  Te  Te55  1  0.50513253  0.75096824  0.50094516  1
  Te  Te56  1  0.00168225  0.00283445  0.24643790  1
  Te  Te57  1  -0.00317864  0.00263624  0.75199666  1
  Te  Te58  1  0.00335005  0.49727509  0.25089120  1
  Te  Te59  1  -0.00179211  0.49387895  0.74908036  1
  Te  Te60  1  0.49785850  0.00434389  0.25599851  1
  Te  Te61  1  0.50315133  -0.00128115  0.74708281  1
  Te  Te62  1  0.49804563  0.49730554  0.25480012  1
  Te  Te63  1  0.50133524  0.50258733  0.74518673  1
