# generated using pymatgen
data_AgSbTe2
_symmetry_space_group_name_H-M   'P 1'
_cell_length_a   12.30569992
_cell_length_b   12.31701501
_cell_length_c   12.28036594
_cell_angle_alpha   90.01312894
_cell_angle_beta   90.01412629
_cell_angle_gamma   89.98396011
_symmetry_Int_Tables_number   1
_chemical_formula_structural   AgSbTe2
_chemical_formula_sum   'Ag16 Sb16 Te32'
_cell_volume   1861.32863094
_cell_formula_units_Z   16
loop_
 _symmetry_equiv_pos_site_id
 _symmetry_equiv_pos_as_xyz
  1  'x, y, z'
loop_
 _atom_site_type_symbol
 _atom_site_label
 _atom_site_symmetry_multiplicity
 _atom_site_fract_x
 _atom_site_fract_y
 _atom_site_fract_z
 _atom_site_occupancy
  Ag  Ag0  1  0.00895831  0.50049756  0.00876522  1
  Ag  Ag1  1  0.76483496  0.49963689  0.24147937  1
  Ag  Ag2  1  0.23857358  0.25825412  0.00568159  1
  Ag  Ag3  1  0.00558095  -0.00118859  0.00703462  1
  Ag  Ag4  1  0.75214437  0.00305014  0.75709622  1
  Ag  Ag5  1  0.48587928  0.75032136  0.24583569  1
  Ag  Ag6  1  0.00799408  0.74843445  0.76703101  1
  Ag  Ag7  1  0.00724106  0.25805451  0.24013388  1
  Ag  Ag8  1  0.24062427  0.74212659  0.00702982  1
  Ag  Ag9  1  0.24280853  0.50119149  0.76663137  1
  Ag  Ag10  1  0.76302792  0.24996364  0.00271027  1
  Ag  Ag11  1  0.49732430  0.24691138  0.75606296  1
  Ag  Ag12  1  0.23989087  0.50613042  0.23793899  1
  Ag  Ag13  1  0.24232043  -0.00886278  0.24167354  1
  Ag  Ag14  1  0.49804602  0.00035310  0.49794437  1
  Ag  Ag15  1  0.01096269  0.74499426  0.23775211  1
  Sb  Sb16  1  0.49294800  0.49902996  0.00107600  1
  Sb  Sb17  1  0.49727073  0.25145563  0.24673502  1
  Sb  Sb18  1  0.24939831  0.24992959  0.49664662  1
  Sb  Sb19  1  0.75443197  0.49956604  0.75957709  1
  Sb  Sb20  1  0.75756108  0.74957159  0.00227010  1
  Sb  Sb21  1  0.24799226  -0.00003230  0.75673440  1
  Sb  Sb22  1  0.75372923  -0.00093738  0.24623798  1
  Sb  Sb23  1  0.49543839  0.74969840  0.75388049  1
  Sb  Sb24  1  0.75016216  0.24941864  0.49857430  1
  Sb  Sb25  1  0.00109890  0.50029131  0.49404518  1
  Sb  Sb26  1  0.24933997  0.75022639  0.49273745  1
  Sb  Sb27  1  0.75053364  0.75059769  0.49782258  1
  Sb  Sb28  1  0.00189516  0.25070600  0.75824878  1
  Sb  Sb29  1  0.49865090  0.49993505  0.49717771  1
  Sb  Sb30  1  0.00107761  -0.00097912  0.49765870  1
  Sb  Sb31  1  0.49684992  0.00045450  0.00177897  1
  Te  Te32  1  0.25217883  0.25374063  0.24802562  1
  Te  Te33  1  0.25015704  0.25039115  0.75304485  1
  Te  Te34  1  0.24869925  0.74909214  0.24901442  1
  Te  Te35  1  0.24677462  0.74909517  0.75522220  1
  Te  Te36  1  0.74564528  0.25115373  0.24600046  1
  Te  Te37  1  0.75098069  0.24947894  0.75191943  1
  Te  Te38  1  0.75188467  0.74817266  0.24912054  1
  Te  Te39  1  0.75039007  0.75085054  0.74991105  1
  Te  Te40  1  0.24689113  0.00340913  0.00499216  1
  Te  Te41  1  0.25225111  -0.00003954  0.48775261  1
  Te  Te42  1  0.24834979  0.49713008  -0.00009542  1
  Te  Te43  1  0.25024187  0.50006726  0.50242284  1
  Te  Te44  1  0.75544931  0.00229685  -0.00485867  1
  Te  Te45  1  0.74768879  0.00045853  0.51014854  1
  Te  Te46  1  0.75807396  0.49748076  0.00531952  1
  Te  Te47  1  0.74886420  0.50027631  0.48413616  1
  Te  Te48  1  0.00215733  0.24875962  0.00415288  1
  Te  Te49  1  -0.00069159  0.25057577  0.47842263  1
  Te  Te50  1  0.00158147  0.75188887  -0.00003141  1
  Te  Te51  1  -0.00049100  0.74902758  0.50144172  1
  Te  Te52  1  0.49924694  0.25177528  -0.00571428  1
  Te  Te53  1  0.50005725  0.24609471  0.51006580  1
  Te  Te54  1  0.48922840  0.74825195  0.00660071  1
  Te  Te55  1  0.50031174  0.75448835  0.49348412  1
  Te  Te56  1  0.00007713  -0.00577261  0.24836319  1
  Te  Te57  1  -0.00119375  -0.00099837  0.74908340  1
  Te  Te58  1  0.00253264  0.50259533  0.24884324  1
  Te  Te59  1  0.00396909  0.50178195  0.75080158  1
  Te  Te60  1  0.50222273  -0.00183673  0.25029472  1
  Te  Te61  1  0.49985932  -0.00009658  0.75057939  1
  Te  Te62  1  0.49454951  0.50320991  0.25031399  1
  Te  Te63  1  0.49747231  0.49840007  0.74921964  1
