# generated using pymatgen
data_AgSbTe2
_symmetry_space_group_name_H-M   'P 1'
_cell_length_a   12.27900908
_cell_length_b   12.30048837
_cell_length_c   12.30980125
_cell_angle_alpha   90.00883847
_cell_angle_beta   90.00592177
_cell_angle_gamma   89.99633357
_symmetry_Int_Tables_number   1
_chemical_formula_structural   AgSbTe2
_chemical_formula_sum   'Ag16 Sb16 Te32'
_cell_volume   1859.24536675
_cell_formula_units_Z   16
loop_
 _symmetry_equiv_pos_site_id
 _symmetry_equiv_pos_as_xyz
  1  'x, y, z'
loop_
 _atom_site_type_symbol
 _atom_site_label
 _atom_site_symmetry_multiplicity
 _atom_site_fract_x
 _atom_site_fract_y
 _atom_site_fract_z
 _atom_site_occupancy
  Ag  Ag0  1  0.49372401  0.50074581  -0.00422656  1
  Ag  Ag1  1  0.73397575  0.24428719  0.50055606  1
  Ag  Ag2  1  0.73731507  0.00239109  0.25729523  1
  Ag  Ag3  1  0.49321723  0.75186061  0.25212551  1
  Ag  Ag4  1  0.49447057  0.25369063  0.73987735  1
  Ag  Ag5  1  0.26077407  0.50318867  0.25474251  1
  Ag  Ag6  1  0.49315188  0.74552962  0.74818881  1
  Ag  Ag7  1  0.25973071  0.50002560  0.74486845  1
  Ag  Ag8  1  0.49023292  0.49092107  0.50531993  1
  Ag  Ag9  1  0.26304065  0.24183669  0.50357606  1
  Ag  Ag10  1  0.01263138  0.00439198  0.49904081  1
  Ag  Ag11  1  0.49261194  0.01072333  0.49930438  1
  Ag  Ag12  1  0.25978720  0.00169695  0.73569623  1
  Ag  Ag13  1  0.25908700  0.74831622  0.00036302  1
  Ag  Ag14  1  0.73795262  0.24873080  0.00079254  1
  Ag  Ag15  1  0.25937655  -0.00175514  0.26353734  1
  Sb  Sb16  1  0.00963914  0.75271715  0.25018905  1
  Sb  Sb17  1  0.01150260  0.49490977  0.50004303  1
  Sb  Sb18  1  0.00075311  0.24979832  0.25017706  1
  Sb  Sb19  1  0.74305804  0.75550875  0.49864664  1
  Sb  Sb20  1  0.00643621  0.49791146  -0.00030849  1
  Sb  Sb21  1  0.00869302  0.24942902  0.74894974  1
  Sb  Sb22  1  0.25981587  0.25084553  -0.00122001  1
  Sb  Sb23  1  0.73888038  0.74995937  0.00264576  1
  Sb  Sb24  1  0.73773681  0.00218947  0.74342359  1
  Sb  Sb25  1  0.49921394  0.00268676  0.00076323  1
  Sb  Sb26  1  0.01405773  0.75263649  0.74916349  1
  Sb  Sb27  1  0.73498507  0.49800335  0.25384512  1
  Sb  Sb28  1  0.73608292  0.49838781  0.74804347  1
  Sb  Sb29  1  0.00260663  0.00192585  -0.00121284  1
  Sb  Sb30  1  0.25394547  0.75505913  0.49945612  1
  Sb  Sb31  1  0.49877871  0.24548947  0.25846981  1
  Te  Te32  1  0.25129082  0.24475166  0.25115411  1
  Te  Te33  1  0.25494055  0.24656299  0.74978112  1
  Te  Te34  1  0.25550529  0.75342808  0.25165251  1
  Te  Te35  1  0.25588069  0.75159178  0.74919282  1
  Te  Te36  1  0.74871524  0.24603400  0.25501855  1
  Te  Te37  1  0.74213240  0.24945059  0.74426397  1
  Te  Te38  1  0.74154463  0.75695812  0.24899721  1
  Te  Te39  1  0.73809915  0.74940446  0.75146235  1
  Te  Te40  1  0.24962968  0.00173802  0.00401019  1
  Te  Te41  1  0.25795393  0.00114416  0.49850999  1
  Te  Te42  1  0.25398695  0.49711507  0.00227582  1
  Te  Te43  1  0.25234906  0.49734957  0.49886920  1
  Te  Te44  1  0.75148030  0.00281583  0.00738887  1
  Te  Te45  1  0.73878348  0.00336301  0.49799797  1
  Te  Te46  1  0.74572164  0.49718180  -0.00047291  1
  Te  Te47  1  0.74777988  0.48921483  0.49966359  1
  Te  Te48  1  -0.02085807  0.25100739  -0.00078215  1
  Te  Te49  1  0.00088939  0.24499141  0.50022921  1
  Te  Te50  1  0.01066531  0.74875236  -0.00125609  1
  Te  Te51  1  -0.00731722  0.76073049  0.50120398  1
  Te  Te52  1  0.50291682  0.25284536  -0.01002821  1
  Te  Te53  1  0.49498700  0.24933915  0.50104047  1
  Te  Te54  1  0.49479191  0.74804087  -0.00143972  1
  Te  Te55  1  0.49948958  0.74615215  0.50117756  1
  Te  Te56  1  0.00710933  -0.00027713  0.25455097  1
  Te  Te57  1  0.01327818  -0.00111409  0.74558080  1
  Te  Te58  1  0.01825658  0.50161789  0.25044955  1
  Te  Te59  1  0.01913811  0.50197263  0.74922259  1
  Te  Te60  1  0.49566288  -0.00006891  0.24972471  1
  Te  Te61  1  0.49639262  0.00030941  0.75071926  1
  Te  Te62  1  0.49552767  0.50272448  0.25335030  1
  Te  Te63  1  0.49601100  0.50083379  0.74435898  1
