# generated using pymatgen
data_AgSbTe2
_symmetry_space_group_name_H-M   'P 1'
_cell_length_a   12.28609960
_cell_length_b   12.29871579
_cell_length_c   12.29718650
_cell_angle_alpha   89.99370313
_cell_angle_beta   89.97996287
_cell_angle_gamma   89.99203161
_symmetry_Int_Tables_number   1
_chemical_formula_structural   AgSbTe2
_chemical_formula_sum   'Ag16 Sb16 Te32'
_cell_volume   1858.14466792
_cell_formula_units_Z   16
loop_
 _symmetry_equiv_pos_site_id
 _symmetry_equiv_pos_as_xyz
  1  'x, y, z'
loop_
 _atom_site_type_symbol
 _atom_site_label
 _atom_site_symmetry_multiplicity
 _atom_site_fract_x
 _atom_site_fract_y
 _atom_site_fract_z
 _atom_site_occupancy
  Ag  Ag0  1  -0.00342730  0.00460980  0.50020508  1
  Ag  Ag1  1  -0.00600544  0.25063020  0.75049898  1
  Ag  Ag2  1  0.75693614  0.01105383  0.76137597  1
  Ag  Ag3  1  0.51845728  0.01471499  0.00345574  1
  Ag  Ag4  1  0.75305076  0.24257109  -0.00346792  1
  Ag  Ag5  1  0.50186709  0.49446398  0.50118656  1
  Ag  Ag6  1  0.24266218  0.74534043  0.49606174  1
  Ag  Ag7  1  -0.01364423  0.01074629  -0.00117921  1
  Ag  Ag8  1  0.75468507  0.00610121  0.23702221  1
  Ag  Ag9  1  0.00009574  0.49583405  0.50394721  1
  Ag  Ag10  1  0.24282235  0.25385409  0.49895735  1
  Ag  Ag11  1  -0.00251148  0.75261705  0.25476697  1
  Ag  Ag12  1  0.50532373  0.24994232  0.24492356  1
  Ag  Ag13  1  0.51375626  0.49055305  -0.00064336  1
  Ag  Ag14  1  0.75567002  0.48982645  0.75656783  1
  Ag  Ag15  1  -0.01358384  0.48969858  -0.00733848  1
  Sb  Sb16  1  0.24606661  0.49784141  0.74841203  1
  Sb  Sb17  1  0.24889225  0.49900118  0.25131079  1
  Sb  Sb18  1  0.50349578  0.25164598  0.75062844  1
  Sb  Sb19  1  0.24437106  0.00259873  0.74951059  1
  Sb  Sb20  1  0.75198975  0.74887177  0.49959754  1
  Sb  Sb21  1  -0.00231552  0.25035035  0.25019359  1
  Sb  Sb22  1  0.24703140  0.00132179  0.25136208  1
  Sb  Sb23  1  0.75237960  0.25099077  0.50414342  1
  Sb  Sb24  1  0.50344158  0.75045181  0.25147362  1
  Sb  Sb25  1  0.50279853  0.00352358  0.50139127  1
  Sb  Sb26  1  0.75040028  0.49530354  0.24651307  1
  Sb  Sb27  1  -0.00100714  0.75038003  0.74973902  1
  Sb  Sb28  1  0.24865202  0.24953280  0.00190257  1
  Sb  Sb29  1  0.24696670  0.74945653  0.00313862  1
  Sb  Sb30  1  0.75039444  0.75236999  -0.00025299  1
  Sb  Sb31  1  0.50162072  0.74818931  0.74955636  1
  Te  Te32  1  0.26318102  0.25021084  0.25521840  1
  Te  Te33  1  0.23483244  0.25021215  0.74252055  1
  Te  Te34  1  0.24199334  0.74933635  0.25384996  1
  Te  Te35  1  0.25185097  0.75098356  0.73867605  1
  Te  Te36  1  0.74351754  0.24608892  0.23996283  1
  Te  Te37  1  0.75550243  0.25075538  0.75456166  1
  Te  Te38  1  0.75566694  0.76249919  0.24952463  1
  Te  Te39  1  0.74840163  0.74914580  0.74972565  1
  Te  Te40  1  0.24899867  -0.00105816  -0.00100360  1
  Te  Te41  1  0.24620205  0.00571031  0.50017583  1
  Te  Te42  1  0.25019973  0.50064973  -0.00006723  1
  Te  Te43  1  0.24495095  0.49434877  0.49991987  1
  Te  Te44  1  0.75162856  0.00020704  -0.00251355  1
  Te  Te45  1  0.75425121  -0.00085606  0.50493698  1
  Te  Te46  1  0.75236556  0.50031854  -0.00131527  1
  Te  Te47  1  0.75189688  0.49945813  0.50129288  1
  Te  Te48  1  0.00162149  0.25136468  0.00225252  1
  Te  Te49  1  -0.00202540  0.25268733  0.49653487  1
  Te  Te50  1  0.00119313  0.74714893  0.00502821  1
  Te  Te51  1  -0.00134241  0.74656465  0.49721898  1
  Te  Te52  1  0.49693693  0.25055803  -0.00046300  1
  Te  Te53  1  0.50114518  0.25391253  0.50204450  1
  Te  Te54  1  0.49647240  0.74213173  -0.00122391  1
  Te  Te55  1  0.49418097  0.74012742  0.50041121  1
  Te  Te56  1  -0.00174511  0.00271718  0.24964899  1
  Te  Te57  1  -0.00177544  -0.00128218  0.75183818  1
  Te  Te58  1  -0.00092650  0.50026810  0.25232977  1
  Te  Te59  1  -0.00344496  0.50096697  0.75160599  1
  Te  Te60  1  0.50422154  0.00065728  0.24811544  1
  Te  Te61  1  0.50955346  -0.00038313  0.75379618  1
  Te  Te62  1  0.50107841  0.49987123  0.24797384  1
  Te  Te63  1  0.50808402  0.50029178  0.75246232  1
