# generated using pymatgen
data_AgSbTe2
_symmetry_space_group_name_H-M   'P 1'
_cell_length_a   12.30831912
_cell_length_b   12.30348730
_cell_length_c   12.33786731
_cell_angle_alpha   90.00410054
_cell_angle_beta   90.00352878
_cell_angle_gamma   90.00960598
_symmetry_Int_Tables_number   1
_chemical_formula_structural   AgSbTe2
_chemical_formula_sum   'Ag16 Sb16 Te32'
_cell_volume   1868.38796051
_cell_formula_units_Z   16
loop_
 _symmetry_equiv_pos_site_id
 _symmetry_equiv_pos_as_xyz
  1  'x, y, z'
loop_
 _atom_site_type_symbol
 _atom_site_label
 _atom_site_symmetry_multiplicity
 _atom_site_fract_x
 _atom_site_fract_y
 _atom_site_fract_z
 _atom_site_occupancy
  Ag  Ag0  1  0.48978934  0.00434371  0.50595938  1
  Ag  Ag1  1  0.25100803  0.76462833  0.49819319  1
  Ag  Ag2  1  0.25492281  0.00775518  0.25342659  1
  Ag  Ag3  1  0.01566640  0.23864870  0.25365916  1
  Ag  Ag4  1  0.24952970  0.76648288  0.00172020  1
  Ag  Ag5  1  0.48452901  0.24042963  0.26040348  1
  Ag  Ag6  1  0.00843480  0.75717225  0.73994193  1
  Ag  Ag7  1  0.74652706  0.75749572  0.50258770  1
  Ag  Ag8  1  0.48991544  0.00616715  -0.00726974  1
  Ag  Ag9  1  0.01025528  0.75876993  0.25538136  1
  Ag  Ag10  1  0.26124663  0.23392635  0.49020054  1
  Ag  Ag11  1  0.25718925  0.23298227  0.01207336  1
  Ag  Ag12  1  0.73665808  -0.00241140  0.74322449  1
  Ag  Ag13  1  0.25838679  0.00015805  0.74622192  1
  Ag  Ag14  1  0.48852254  0.24072804  0.74006112  1
  Ag  Ag15  1  0.49678076  0.49432269  0.50016292  1
  Sb  Sb16  1  0.25080716  0.49477119  0.25023883  1
  Sb  Sb17  1  0.00423415  0.50207478  0.49967384  1
  Sb  Sb18  1  0.00869822  -0.00032702  0.49986510  1
  Sb  Sb19  1  0.01035290  0.00067190  -0.00012160  1
  Sb  Sb20  1  0.74663714  -0.00149669  0.25494631  1
  Sb  Sb21  1  0.74223022  0.24248104  0.50063136  1
  Sb  Sb22  1  0.25177404  0.50360644  0.74818899  1
  Sb  Sb23  1  0.75144270  0.75831444  0.00065559  1
  Sb  Sb24  1  0.48797895  0.75791648  0.25381654  1
  Sb  Sb25  1  0.00310513  0.50048022  0.00062876  1
  Sb  Sb26  1  0.01004374  0.24584433  0.74882527  1
  Sb  Sb27  1  0.74425453  0.24247981  0.00038806  1
  Sb  Sb28  1  0.49513096  0.75750500  0.74753329  1
  Sb  Sb29  1  0.74487134  0.50559514  0.74373535  1
  Sb  Sb30  1  0.74766114  0.50240231  0.25550027  1
  Sb  Sb31  1  0.49649774  0.49571575  0.00040748  1
  Te  Te32  1  0.25004925  0.24853174  0.25225032  1
  Te  Te33  1  0.24832191  0.24599663  0.74662683  1
  Te  Te34  1  0.24972943  0.75187330  0.25376569  1
  Te  Te35  1  0.25064710  0.75325665  0.74655914  1
  Te  Te36  1  0.76029068  0.24960638  0.25063020  1
  Te  Te37  1  0.75487950  0.24220879  0.74944837  1
  Te  Te38  1  0.76397950  0.75045100  0.25142129  1
  Te  Te39  1  0.75264870  0.75495404  0.74803414  1
  Te  Te40  1  0.25204239  -0.00033975  0.00204211  1
  Te  Te41  1  0.24994242  -0.00013134  0.49804153  1
  Te  Te42  1  0.24877190  0.50484032  0.00014404  1
  Te  Te43  1  0.25411403  0.50375097  0.50019335  1
  Te  Te44  1  0.73098848  -0.00007359  -0.00863651  1
  Te  Te45  1  0.73939294  -0.00450672  0.50310579  1
  Te  Te46  1  0.75169005  0.50028832  -0.00079420  1
  Te  Te47  1  0.73993985  0.51330494  0.50043115  1
  Te  Te48  1  0.00891567  0.24937068  0.00303362  1
  Te  Te49  1  0.00534333  0.25119976  0.49625159  1
  Te  Te50  1  0.00620634  0.74987789  0.00709096  1
  Te  Te51  1  0.00992260  0.75133908  0.49801335  1
  Te  Te52  1  0.49734866  0.24957310  0.00126497  1
  Te  Te53  1  0.49989286  0.24395052  0.49976972  1
  Te  Te54  1  0.49422617  0.74710052  0.00121736  1
  Te  Te55  1  0.49277302  0.75475283  0.49925635  1
  Te  Te56  1  0.00207070  0.00188239  0.24943449  1
  Te  Te57  1  0.00296002  -0.00508920  0.75005069  1
  Te  Te58  1  -0.00078412  0.50025295  0.24978136  1
  Te  Te59  1  -0.00235102  0.51294114  0.75007002  1
  Te  Te60  1  0.49701298  0.00077801  0.25293947  1
  Te  Te61  1  0.49346162  0.00127188  0.74740139  1
  Te  Te62  1  0.50075924  0.48580821  0.25281421  1
  Te  Te63  1  0.49973185  0.48134397  0.74748617  1
