# generated using pymatgen
data_AgSbTe2
_symmetry_space_group_name_H-M   'P 1'
_cell_length_a   12.21965844
_cell_length_b   12.21266490
_cell_length_c   12.20986418
_cell_angle_alpha   90.00717270
_cell_angle_beta   89.99725947
_cell_angle_gamma   89.99938037
_symmetry_Int_Tables_number   1
_chemical_formula_structural   AgSbTe2
_chemical_formula_sum   'Ag16 Sb16 Te32'
_cell_volume   1822.13410358
_cell_formula_units_Z   16
loop_
 _symmetry_equiv_pos_site_id
 _symmetry_equiv_pos_as_xyz
  1  'x, y, z'
loop_
 _atom_site_type_symbol
 _atom_site_label
 _atom_site_symmetry_multiplicity
 _atom_site_fract_x
 _atom_site_fract_y
 _atom_site_fract_z
 _atom_site_occupancy
  Ag  Ag0  1  0.74969434  0.00150746  0.24650394  1
  Ag  Ag1  1  0.50216198  -0.00052112  0.49879673  1
  Ag  Ag2  1  0.50213555  0.50087951  0.50520303  1
  Ag  Ag3  1  -0.00088952  0.75385783  0.24516756  1
  Ag  Ag4  1  0.25026431  0.75299907  -0.00198258  1
  Ag  Ag5  1  -0.00082845  0.74825415  0.75561193  1
  Ag  Ag6  1  0.25022259  -0.00055166  0.24523075  1
  Ag  Ag7  1  -0.00275098  0.24553679  0.24699593  1
  Ag  Ag8  1  0.74961828  0.24594310  0.00282330  1
  Ag  Ag9  1  0.50063096  0.74773419  0.75339865  1
  Ag  Ag10  1  0.50067491  -0.00249198  0.00127826  1
  Ag  Ag11  1  0.74696395  0.50352303  0.75057616  1
  Ag  Ag12  1  0.25077176  0.24636207  0.00183369  1
  Ag  Ag13  1  0.74975435  0.75325538  -0.00194125  1
  Ag  Ag14  1  0.25282023  0.50419028  0.75190637  1
  Ag  Ag15  1  0.74789074  0.24892729  0.49827501  1
  Sb  Sb16  1  -0.00106019  0.25040678  0.75284884  1
  Sb  Sb17  1  0.74778130  0.75120373  0.50142840  1
  Sb  Sb18  1  -0.00151722  -0.00226384  0.00309029  1
  Sb  Sb19  1  0.25164618  0.24865674  0.49776121  1
  Sb  Sb20  1  0.50081675  0.75414475  0.24551152  1
  Sb  Sb21  1  0.50074677  0.50288644  -0.00447373  1
  Sb  Sb22  1  0.50310509  0.24609754  0.24875641  1
  Sb  Sb23  1  -0.00086039  0.50257429  -0.00119455  1
  Sb  Sb24  1  0.74998599  0.49897495  0.24914316  1
  Sb  Sb25  1  -0.00256234  0.49932042  0.50214453  1
  Sb  Sb26  1  0.50066083  0.25335897  0.75075836  1
  Sb  Sb27  1  0.25312970  -0.00306554  0.75619914  1
  Sb  Sb28  1  0.74719041  -0.00319577  0.75420813  1
  Sb  Sb29  1  0.24994644  0.50053296  0.24770875  1
  Sb  Sb30  1  0.25156958  0.75079604  0.50168179  1
  Sb  Sb31  1  -0.00353745  0.00061725  0.49574472  1
  Te  Te32  1  0.24492018  0.24818315  0.24540963  1
  Te  Te33  1  0.24738837  0.25482815  0.75642324  1
  Te  Te34  1  0.24574354  0.75211585  0.24427717  1
  Te  Te35  1  0.25005937  0.74764879  0.75415342  1
  Te  Te36  1  0.75286077  0.24851308  0.24601008  1
  Te  Te37  1  0.75223291  0.25463900  0.75270518  1
  Te  Te38  1  0.75388721  0.75239714  0.24519890  1
  Te  Te39  1  0.74996295  0.74738234  0.75325610  1
  Te  Te40  1  0.25523811  -0.00028254  0.00316279  1
  Te  Te41  1  0.25896211  0.00190432  0.49213953  1
  Te  Te42  1  0.25268364  0.50031376  -0.00435581  1
  Te  Te43  1  0.25655940  0.49856273  0.50632091  1
  Te  Te44  1  0.74568219  0.00055676  0.00251709  1
  Te  Te45  1  0.74450609  0.00404011  0.49536889  1
  Te  Te46  1  0.74750506  0.49958096  -0.00428390  1
  Te  Te47  1  0.74575904  0.49599109  0.50384959  1
  Te  Te48  1  -0.00197582  0.24963676  0.00454710  1
  Te  Te49  1  -0.00620693  0.24969866  0.49479466  1
  Te  Te50  1  -0.00057986  0.75052188  0.00032202  1
  Te  Te51  1  0.00002836  0.75014447  0.49846683  1
  Te  Te52  1  0.50120142  0.24485610  -0.00069023  1
  Te  Te53  1  0.50448865  0.24738687  0.50053284  1
  Te  Te54  1  0.50058492  0.75266453  -0.00342335  1
  Te  Te55  1  0.50068408  0.75159057  0.50588063  1
  Te  Te56  1  -0.00069683  -0.00132906  0.25155273  1
  Te  Te57  1  0.00061358  -0.00914075  0.74699012  1
  Te  Te58  1  0.00101226  0.50235399  0.25148273  1
  Te  Te59  1  -0.00040179  0.50660950  0.74898774  1
  Te  Te60  1  0.50070613  -0.00110583  0.24964621  1
  Te  Te61  1  0.49997993  -0.00588061  0.74962321  1
  Te  Te62  1  0.49931783  0.50179027  0.26129425  1
  Te  Te63  1  0.50111667  0.50337689  0.74684527  1
