# generated using pymatgen
data_AgSbTe2
_symmetry_space_group_name_H-M   'P 1'
_cell_length_a   12.22537518
_cell_length_b   12.23175885
_cell_length_c   12.22488751
_cell_angle_alpha   90.00193818
_cell_angle_beta   89.99805659
_cell_angle_gamma   90.00091331
_symmetry_Int_Tables_number   1
_chemical_formula_structural   AgSbTe2
_chemical_formula_sum   'Ag16 Sb16 Te32'
_cell_volume   1828.08328223
_cell_formula_units_Z   16
loop_
 _symmetry_equiv_pos_site_id
 _symmetry_equiv_pos_as_xyz
  1  'x, y, z'
loop_
 _atom_site_type_symbol
 _atom_site_label
 _atom_site_symmetry_multiplicity
 _atom_site_fract_x
 _atom_site_fract_y
 _atom_site_fract_z
 _atom_site_occupancy
  Ag  Ag0  1  0.24328410  0.25298568  0.49608987  1
  Ag  Ag1  1  0.24492134  0.25292643  0.00544307  1
  Ag  Ag2  1  0.75529391  0.49771045  0.25451718  1
  Ag  Ag3  1  0.24671640  0.74595606  0.49582603  1
  Ag  Ag4  1  -0.00133121  0.49509709  0.00649126  1
  Ag  Ag5  1  0.75465755  0.00369155  0.74497930  1
  Ag  Ag6  1  -0.00138460  0.49422243  0.49398602  1
  Ag  Ag7  1  0.50120863  0.49821983  0.49341261  1
  Ag  Ag8  1  -0.00181767  0.74379841  0.25543985  1
  Ag  Ag9  1  0.75417500  0.00232452  0.25438332  1
  Ag  Ag10  1  0.75492546  0.49644696  0.74469715  1
  Ag  Ag11  1  0.50181590  0.74500308  0.25471512  1
  Ag  Ag12  1  -0.00060355  0.25619673  0.25633109  1
  Ag  Ag13  1  0.50116435  0.25463011  0.25414699  1
  Ag  Ag14  1  -0.00191339  0.25321306  0.74339423  1
  Ag  Ag15  1  -0.00184556  0.00605938  0.49636349  1
  Sb  Sb16  1  0.24421179  0.00345678  0.74557490  1
  Sb  Sb17  1  0.50107742  0.49691616  0.00903526  1
  Sb  Sb18  1  0.75482165  0.25188558  0.00290172  1
  Sb  Sb19  1  0.50243785  0.25301121  0.74401743  1
  Sb  Sb20  1  0.75354762  0.74761673  0.49557308  1
  Sb  Sb21  1  0.50185955  0.74678593  0.74224734  1
  Sb  Sb22  1  0.50107007  0.00242061  0.00328361  1
  Sb  Sb23  1  0.75246662  0.74842701  0.00397641  1
  Sb  Sb24  1  0.24427004  0.00268009  0.25302202  1
  Sb  Sb25  1  -0.00167073  0.74742183  0.74304285  1
  Sb  Sb26  1  0.24204839  0.49659058  0.25396062  1
  Sb  Sb27  1  0.24634665  0.74581900  0.00639053  1
  Sb  Sb28  1  -0.00088378  0.00538646  0.00330062  1
  Sb  Sb29  1  0.50331674  0.00240302  0.49649360  1
  Sb  Sb30  1  0.75900813  0.25247956  0.49676727  1
  Sb  Sb31  1  0.24331574  0.49779351  0.74605569  1
  Te  Te32  1  0.24812778  0.24870248  0.25312389  1
  Te  Te33  1  0.24509643  0.24920563  0.74621428  1
  Te  Te34  1  0.24953628  0.75288348  0.25435400  1
  Te  Te35  1  0.25127348  0.75134612  0.74219223  1
  Te  Te36  1  0.75120520  0.25111891  0.24927660  1
  Te  Te37  1  0.75423112  0.25070717  0.75237766  1
  Te  Te38  1  0.75136325  0.74919531  0.24997525  1
  Te  Te39  1  0.74966823  0.75019838  0.75217227  1
  Te  Te40  1  0.24980220  0.00833740  -0.00223409  1
  Te  Te41  1  0.24325301  0.00226011  0.50066579  1
  Te  Te42  1  0.24434421  0.49472158  -0.00358310  1
  Te  Te43  1  0.24879795  0.49845952  0.50082498  1
  Te  Te44  1  0.75068667  -0.00066142  -0.00004621  1
  Te  Te45  1  0.75503134  -0.00121188  0.49878041  1
  Te  Te46  1  0.75527319  0.50005762  0.00102327  1
  Te  Te47  1  0.75153957  0.50043628  0.49775462  1
  Te  Te48  1  0.00392081  0.25353652  0.00208091  1
  Te  Te49  1  0.00122435  0.25199256  0.49803937  1
  Te  Te50  1  0.00311338  0.74225791  0.00890442  1
  Te  Te51  1  0.00366213  0.74792608  0.49597065  1
  Te  Te52  1  0.48957103  0.25121777  0.00750961  1
  Te  Te53  1  0.49066421  0.25273241  0.49612658  1
  Te  Te54  1  0.49551076  0.74984257  0.01084878  1
  Te  Te55  1  0.49296684  0.74653902  0.49456467  1
  Te  Te56  1  -0.00495995  0.00162615  0.25247937  1
  Te  Te57  1  -0.00556011  0.00228687  0.74718839  1
  Te  Te58  1  -0.00119525  0.49771977  0.25370154  1
  Te  Te59  1  -0.00502187  0.49776038  0.74623600  1
  Te  Te60  1  0.51052668  0.00140267  0.25111222  1
  Te  Te61  1  0.51221184  -0.00062645  0.75030215  1
  Te  Te62  1  0.50608438  0.49833849  0.25286990  1
  Te  Te63  1  0.51154045  0.50011478  0.74333407  1
