# generated using pymatgen
data_AgSbTe2
_symmetry_space_group_name_H-M   'P 1'
_cell_length_a   12.24223149
_cell_length_b   12.23149038
_cell_length_c   12.23118405
_cell_angle_alpha   89.99762255
_cell_angle_beta   89.99615987
_cell_angle_gamma   89.99947376
_symmetry_Int_Tables_number   1
_chemical_formula_structural   AgSbTe2
_chemical_formula_sum   'Ag16 Sb16 Te32'
_cell_volume   1831.50650433
_cell_formula_units_Z   16
loop_
 _symmetry_equiv_pos_site_id
 _symmetry_equiv_pos_as_xyz
  1  'x, y, z'
loop_
 _atom_site_type_symbol
 _atom_site_label
 _atom_site_symmetry_multiplicity
 _atom_site_fract_x
 _atom_site_fract_y
 _atom_site_fract_z
 _atom_site_occupancy
  Ag  Ag0  1  0.25683210  0.75176356  0.00943881  1
  Ag  Ag1  1  0.00467827  -0.00575955  0.49445362  1
  Ag  Ag2  1  0.50189642  0.75292209  0.74783949  1
  Ag  Ag3  1  0.49945495  0.50852872  0.00328225  1
  Ag  Ag4  1  0.24899082  0.24335828  0.49234301  1
  Ag  Ag5  1  0.25030355  0.75675354  0.49131021  1
  Ag  Ag6  1  0.49386608  0.75383765  0.25199500  1
  Ag  Ag7  1  0.74280177  0.75137039  0.00200920  1
  Ag  Ag8  1  0.74870274  0.75496145  0.49800664  1
  Ag  Ag9  1  0.00630346  0.24587097  0.25601744  1
  Ag  Ag10  1  0.74743872  -0.00659434  0.74483484  1
  Ag  Ag11  1  0.25100911  -0.00581364  0.25706178  1
  Ag  Ag12  1  0.49605827  -0.00819710  0.49548354  1
  Ag  Ag13  1  0.49410017  0.24548984  0.25404599  1
  Ag  Ag14  1  0.00221958  0.50713344  0.49577062  1
  Ag  Ag15  1  0.00626712  0.75369663  0.25789421  1
  Sb  Sb16  1  0.00027146  -0.00308678  0.00599987  1
  Sb  Sb17  1  0.49908557  0.24763570  0.74674254  1
  Sb  Sb18  1  0.75051704  0.24599348  0.49813351  1
  Sb  Sb19  1  0.25172450  -0.00408816  0.74143868  1
  Sb  Sb20  1  0.25273009  0.24781221  0.01011644  1
  Sb  Sb21  1  0.74794527  0.50572543  0.74811651  1
  Sb  Sb22  1  0.00030018  0.50550069  0.00358602  1
  Sb  Sb23  1  0.25084840  0.50392087  0.74817894  1
  Sb  Sb24  1  0.74965514  0.50483222  0.25104225  1
  Sb  Sb25  1  0.49958228  -0.00742399  0.00478398  1
  Sb  Sb26  1  0.74915406  -0.00501512  0.25362002  1
  Sb  Sb27  1  0.00127412  0.24611717  0.74331819  1
  Sb  Sb28  1  0.74737678  0.24784622  0.00282731  1
  Sb  Sb29  1  0.25026613  0.50754303  0.25101102  1
  Sb  Sb30  1  0.49850407  0.50682812  0.49817649  1
  Sb  Sb31  1  -0.00190830  0.75234598  0.74143207  1
  Te  Te32  1  0.25082459  0.24472393  0.25365807  1
  Te  Te33  1  0.25005371  0.24886463  0.74195282  1
  Te  Te34  1  0.25069663  0.75236051  0.25232642  1
  Te  Te35  1  0.25550644  0.75150235  0.75003067  1
  Te  Te36  1  0.74876786  0.24928507  0.24878317  1
  Te  Te37  1  0.74968246  0.24178712  0.75179844  1
  Te  Te38  1  0.74928378  0.75104597  0.25131701  1
  Te  Te39  1  0.74764840  0.75333686  0.74836750  1
  Te  Te40  1  0.24937529  -0.00452300  0.00708992  1
  Te  Te41  1  0.25115293  -0.00292524  0.49709478  1
  Te  Te42  1  0.25306269  0.50560974  -0.00150606  1
  Te  Te43  1  0.24677899  0.50080467  0.50087664  1
  Te  Te44  1  0.75018145  -0.00588965  -0.00791694  1
  Te  Te45  1  0.74801732  -0.00403071  0.50213749  1
  Te  Te46  1  0.74698241  0.50638102  -0.00161077  1
  Te  Te47  1  0.75462232  0.50729141  0.50171460  1
  Te  Te48  1  0.00005782  0.25155549  0.00857017  1
  Te  Te49  1  0.00029252  0.24670723  0.49546514  1
  Te  Te50  1  0.00056495  0.74852583  0.00653933  1
  Te  Te51  1  0.00130912  0.75261416  0.49849917  1
  Te  Te52  1  0.50001890  0.25644274  0.00482006  1
  Te  Te53  1  0.49919273  0.25010149  0.49593421  1
  Te  Te54  1  0.50013089  0.75048250  0.00374764  1
  Te  Te55  1  0.49959101  0.74919567  0.49653180  1
  Te  Te56  1  0.00143624  -0.00253322  0.25340706  1
  Te  Te57  1  -0.00375449  0.00063131  0.74275705  1
  Te  Te58  1  -0.00049542  0.50083388  0.25563383  1
  Te  Te59  1  -0.00033973  0.49840678  0.74218282  1
  Te  Te60  1  0.49830506  -0.00247799  0.25336969  1
  Te  Te61  1  0.50201082  -0.00363215  0.74421079  1
  Te  Te62  1  0.50026358  0.50090691  0.24697453  1
  Te  Te63  1  0.50052878  0.50480567  0.75493244  1
