# generated using pymatgen
data_AgSbTe2
_symmetry_space_group_name_H-M   'P 1'
_cell_length_a   12.24221566
_cell_length_b   12.22520138
_cell_length_c   12.24440690
_cell_angle_alpha   89.99222581
_cell_angle_beta   90.00427824
_cell_angle_gamma   90.00271968
_symmetry_Int_Tables_number   1
_chemical_formula_structural   AgSbTe2
_chemical_formula_sum   'Ag16 Sb16 Te32'
_cell_volume   1832.54140268
_cell_formula_units_Z   16
loop_
 _symmetry_equiv_pos_site_id
 _symmetry_equiv_pos_as_xyz
  1  'x, y, z'
loop_
 _atom_site_type_symbol
 _atom_site_label
 _atom_site_symmetry_multiplicity
 _atom_site_fract_x
 _atom_site_fract_y
 _atom_site_fract_z
 _atom_site_occupancy
  Ag  Ag0  1  0.50127150  0.76515176  0.25409631  1
  Ag  Ag1  1  -0.00046138  0.00689727  0.49175379  1
  Ag  Ag2  1  0.49889485  0.24736534  0.74317388  1
  Ag  Ag3  1  0.74614551  0.75412127  0.49746539  1
  Ag  Ag4  1  0.49478997  0.23718945  0.25640850  1
  Ag  Ag5  1  0.25117310  0.24433698  0.00591668  1
  Ag  Ag6  1  0.74752851  0.49596186  0.74538386  1
  Ag  Ag7  1  0.49831760  0.00545491  0.01494755  1
  Ag  Ag8  1  0.00206571  0.00619024  0.00875401  1
  Ag  Ag9  1  0.25487388  0.24531600  0.49504208  1
  Ag  Ag10  1  0.50171401  0.49192607  0.49887180  1
  Ag  Ag11  1  0.26226260  0.00630707  0.25107365  1
  Ag  Ag12  1  0.73666197  0.00222473  0.25381392  1
  Ag  Ag13  1  0.00080914  0.24715058  0.74724254  1
  Ag  Ag14  1  0.50034247  0.00643100  0.48644592  1
  Ag  Ag15  1  0.00520330  0.24237547  0.25288390  1
  Sb  Sb16  1  0.25073375  0.00438254  0.74833747  1
  Sb  Sb17  1  0.25184896  0.49053896  0.25215993  1
  Sb  Sb18  1  0.25257578  0.49283933  0.74732217  1
  Sb  Sb19  1  -0.00393074  0.75461956  0.74733425  1
  Sb  Sb20  1  0.74671318  0.49765220  0.25354317  1
  Sb  Sb21  1  0.74826945  0.75465772  0.00334025  1
  Sb  Sb22  1  0.74874788  0.00239859  0.74578443  1
  Sb  Sb23  1  0.00037313  0.49052009  -0.00071198  1
  Sb  Sb24  1  0.49984507  0.49315961  0.00096266  1
  Sb  Sb25  1  0.25253143  0.75956350  0.00424027  1
  Sb  Sb26  1  -0.00139940  0.76207931  0.25232193  1
  Sb  Sb27  1  0.74849419  0.24652214  0.00050357  1
  Sb  Sb28  1  -0.00274929  0.49049329  0.50093528  1
  Sb  Sb29  1  0.50300937  0.75301432  0.74650662  1
  Sb  Sb30  1  0.74357046  0.24637418  0.49949496  1
  Sb  Sb31  1  0.25303266  0.75654528  0.49645459  1
  Te  Te32  1  0.25118594  0.24682725  0.25185332  1
  Te  Te33  1  0.25100237  0.24942258  0.74781419  1
  Te  Te34  1  0.25499136  0.75752613  0.24983487  1
  Te  Te35  1  0.24902414  0.74621631  0.75090236  1
  Te  Te36  1  0.74963952  0.24690876  0.24960785  1
  Te  Te37  1  0.74961371  0.25244168  0.75049132  1
  Te  Te38  1  0.74688758  0.75233038  0.25366525  1
  Te  Te39  1  0.75006016  0.74428012  0.74392981  1
  Te  Te40  1  0.25055382  0.00497482  0.00205713  1
  Te  Te41  1  0.25062759  0.00401506  0.49883179  1
  Te  Te42  1  0.24973118  0.49111039  0.00007540  1
  Te  Te43  1  0.25625983  0.49341121  0.49923949  1
  Te  Te44  1  0.74953203  -0.00077159  0.00507066  1
  Te  Te45  1  0.74930432  -0.00260995  0.49737586  1
  Te  Te46  1  0.75015639  0.50255719  -0.00819988  1
  Te  Te47  1  0.74649665  0.50594621  0.50198813  1
  Te  Te48  1  0.00213841  0.24574216  0.00004918  1
  Te  Te49  1  0.00264856  0.24675202  0.49973870  1
  Te  Te50  1  0.00060436  0.75883739  -0.00058427  1
  Te  Te51  1  -0.00298862  0.75654621  0.50040454  1
  Te  Te52  1  0.49835657  0.24687537  0.00012889  1
  Te  Te53  1  0.50057358  0.24735196  0.49977141  1
  Te  Te54  1  0.49917633  0.75662538  0.00441093  1
  Te  Te55  1  0.50111883  0.75380172  0.49836656  1
  Te  Te56  1  -0.00029847  0.00247254  0.25156497  1
  Te  Te57  1  -0.00079308  0.00550610  0.74902077  1
  Te  Te58  1  -0.00049708  0.49105093  0.24940169  1
  Te  Te59  1  -0.00451576  0.49288215  0.75009818  1
  Te  Te60  1  0.50114765  0.00255510  0.25062069  1
  Te  Te61  1  0.50116558  0.00479882  0.74948083  1
  Te  Te62  1  0.50123306  0.49783814  0.25390565  1
  Te  Te63  1  0.50260487  0.49601683  0.74728041  1
