# generated using pymatgen
data_AgSbTe2
_symmetry_space_group_name_H-M   'P 1'
_cell_length_a   12.20995690
_cell_length_b   12.21432417
_cell_length_c   12.21260951
_cell_angle_alpha   89.99733747
_cell_angle_beta   89.99851882
_cell_angle_gamma   90.00015193
_symmetry_Int_Tables_number   1
_chemical_formula_structural   AgSbTe2
_chemical_formula_sum   'Ag16 Sb16 Te32'
_cell_volume   1821.34426717
_cell_formula_units_Z   16
loop_
 _symmetry_equiv_pos_site_id
 _symmetry_equiv_pos_as_xyz
  1  'x, y, z'
loop_
 _atom_site_type_symbol
 _atom_site_label
 _atom_site_symmetry_multiplicity
 _atom_site_fract_x
 _atom_site_fract_y
 _atom_site_fract_z
 _atom_site_occupancy
  Ag  Ag0  1  0.74588552  0.00035445  0.25732384  1
  Ag  Ag1  1  0.50243466  0.24968675  0.25534162  1
  Ag  Ag2  1  0.25795075  0.24609292  0.49888445  1
  Ag  Ag3  1  0.74885797  0.75292476  0.49517719  1
  Ag  Ag4  1  0.25496911  0.00177886  0.74705983  1
  Ag  Ag5  1  0.25310315  0.75041626  0.00258549  1
  Ag  Ag6  1  0.74489759  0.49946532  0.25340613  1
  Ag  Ag7  1  -0.00340731  -0.00024669  0.49750564  1
  Ag  Ag8  1  0.50029677  0.49911673  0.00391046  1
  Ag  Ag9  1  0.74493162  0.49797517  0.74718135  1
  Ag  Ag10  1  0.49948760  0.00171464  0.00133274  1
  Ag  Ag11  1  0.50335350  0.00723763  0.49802833  1
  Ag  Ag12  1  0.74237211  0.24637711  0.49686603  1
  Ag  Ag13  1  0.50063723  0.24757085  0.74432846  1
  Ag  Ag14  1  0.25491271  0.49965507  0.24994851  1
  Ag  Ag15  1  -0.00244951  0.75117658  0.25239412  1
  Sb  Sb16  1  -0.00173062  0.24768344  0.74552651  1
  Sb  Sb17  1  0.74733517  0.75038853  0.00396938  1
  Sb  Sb18  1  0.50064819  0.75145376  0.74877476  1
  Sb  Sb19  1  0.25603495  0.24891782  0.00212469  1
  Sb  Sb20  1  0.25634506  0.49756251  0.75020364  1
  Sb  Sb21  1  -0.00284625  0.24788972  0.25416904  1
  Sb  Sb22  1  0.25541610  0.00095896  0.25208059  1
  Sb  Sb23  1  0.74471827  0.25014100  0.00359570  1
  Sb  Sb24  1  -0.00299225  0.50122458  0.49786797  1
  Sb  Sb25  1  0.00106051  -0.00288233  0.00280467  1
  Sb  Sb26  1  0.25167811  0.75310989  0.49723746  1
  Sb  Sb27  1  0.50294337  0.49067195  0.49581352  1
  Sb  Sb28  1  -0.00140185  0.75254879  0.74660770  1
  Sb  Sb29  1  0.74390306  0.00254582  0.74145483  1
  Sb  Sb30  1  0.50265550  0.74920581  0.25099675  1
  Sb  Sb31  1  0.00063221  0.50240359  0.00338340  1
  Te  Te32  1  0.25377385  0.25385967  0.25435176  1
  Te  Te33  1  0.25513977  0.24721753  0.74440470  1
  Te  Te34  1  0.24622286  0.74601098  0.24824348  1
  Te  Te35  1  0.24919362  0.75350670  0.75426062  1
  Te  Te36  1  0.74703943  0.25128427  0.25362797  1
  Te  Te37  1  0.74532659  0.25358279  0.74426268  1
  Te  Te38  1  0.75227633  0.74865852  0.25338148  1
  Te  Te39  1  0.75092161  0.74375355  0.74427993  1
  Te  Te40  1  0.25427142  -0.00274984  -0.00238027  1
  Te  Te41  1  0.25239120  0.00169380  0.50136939  1
  Te  Te42  1  0.25463149  0.50346417  0.00297072  1
  Te  Te43  1  0.24916361  0.49650958  0.49595220  1
  Te  Te44  1  0.74386549  -0.00172932  0.00570991  1
  Te  Te45  1  0.74747118  0.00149858  0.49931106  1
  Te  Te46  1  0.74417869  0.50090812  0.00276168  1
  Te  Te47  1  0.74982383  0.49976833  0.49619221  1
  Te  Te48  1  0.00132498  0.24873189  -0.00063565  1
  Te  Te49  1  -0.00037855  0.24258046  0.49963119  1
  Te  Te50  1  0.00697624  0.75114132  0.00706799  1
  Te  Te51  1  -0.00379960  0.75605402  0.49520706  1
  Te  Te52  1  0.49937283  0.24843787  0.00097460  1
  Te  Te53  1  0.50112301  0.24845324  0.49859234  1
  Te  Te54  1  0.49553981  0.75070698  -0.00064285  1
  Te  Te55  1  0.50471426  0.76004957  0.50074518  1
  Te  Te56  1  -0.00500895  -0.00308416  0.25413318  1
  Te  Te57  1  0.00664471  0.00011420  0.74474967  1
  Te  Te58  1  -0.00182780  0.50457458  0.24894520  1
  Te  Te59  1  -0.00876936  0.50000452  0.75083241  1
  Te  Te60  1  0.50230598  0.00303025  0.25029114  1
  Te  Te61  1  0.49801326  0.00424891  0.75076190  1
  Te  Te62  1  0.50199039  0.49750853  0.24729001  1
  Te  Te63  1  0.50345486  0.49509015  0.75547229  1
