# generated using pymatgen
data_AgSbTe2
_symmetry_space_group_name_H-M   'P 1'
_cell_length_a   12.22114471
_cell_length_b   12.21921467
_cell_length_c   12.20720129
_cell_angle_alpha   90.00702288
_cell_angle_beta   89.99772148
_cell_angle_gamma   89.99706903
_symmetry_Int_Tables_number   1
_chemical_formula_structural   AgSbTe2
_chemical_formula_sum   'Ag16 Sb16 Te32'
_cell_volume   1822.93541672
_cell_formula_units_Z   16
loop_
 _symmetry_equiv_pos_site_id
 _symmetry_equiv_pos_as_xyz
  1  'x, y, z'
loop_
 _atom_site_type_symbol
 _atom_site_label
 _atom_site_symmetry_multiplicity
 _atom_site_fract_x
 _atom_site_fract_y
 _atom_site_fract_z
 _atom_site_occupancy
  Ag  Ag0  1  0.50105870  -0.00207774  0.48992334  1
  Ag  Ag1  1  0.24937585  0.74393527  0.49754945  1
  Ag  Ag2  1  -0.00393962  0.00144931  0.00511368  1
  Ag  Ag3  1  0.75052303  0.49693801  0.25321241  1
  Ag  Ag4  1  0.50206530  0.75479648  0.25466559  1
  Ag  Ag5  1  0.75007804  0.24614872  0.00822512  1
  Ag  Ag6  1  0.24691238  0.50171231  0.74035770  1
  Ag  Ag7  1  0.50343348  0.24513854  0.25110125  1
  Ag  Ag8  1  0.74455202  0.00318404  0.24855812  1
  Ag  Ag9  1  0.00574187  0.50207086  0.49584464  1
  Ag  Ag10  1  0.00146594  0.74836923  0.74577413  1
  Ag  Ag11  1  0.24992839  0.25638273  0.49427735  1
  Ag  Ag12  1  0.24861443  0.49803993  0.25860275  1
  Ag  Ag13  1  -0.00286579  0.25108908  0.25083963  1
  Ag  Ag14  1  0.50415091  0.00153892  0.01032953  1
  Ag  Ag15  1  0.74950664  0.74945742  0.49448353  1
  Sb  Sb16  1  0.74877284  0.25127721  0.49173610  1
  Sb  Sb17  1  -0.00137871  -0.00043720  0.49454524  1
  Sb  Sb18  1  0.49805744  0.24919198  0.74762471  1
  Sb  Sb19  1  0.49865575  0.75102914  0.74574844  1
  Sb  Sb20  1  0.50158730  0.49832305  0.00558464  1
  Sb  Sb21  1  -0.00157025  0.49882240  0.00412213  1
  Sb  Sb22  1  0.49388403  0.50156922  0.49468588  1
  Sb  Sb23  1  0.75252113  0.50160338  0.74496139  1
  Sb  Sb24  1  0.00208357  0.25129095  0.74854441  1
  Sb  Sb25  1  0.25014763  0.74949909  0.00342983  1
  Sb  Sb26  1  0.25600665  0.00141841  0.25219167  1
  Sb  Sb27  1  -0.00063398  0.74931325  0.25353420  1
  Sb  Sb28  1  0.24819216  -0.00190057  0.74711220  1
  Sb  Sb29  1  0.25059312  0.25013685  0.00604206  1
  Sb  Sb30  1  0.75139157  -0.00099727  0.75021446  1
  Sb  Sb31  1  0.74990809  0.75304136  0.00636419  1
  Te  Te32  1  0.24999862  0.25354121  0.25383200  1
  Te  Te33  1  0.24978652  0.25652857  0.74208678  1
  Te  Te34  1  0.25268978  0.74457468  0.25449516  1
  Te  Te35  1  0.24717769  0.74588679  0.74485805  1
  Te  Te36  1  0.74894090  0.24983968  0.24939718  1
  Te  Te37  1  0.75001889  0.25178841  0.76006614  1
  Te  Te38  1  0.74808462  0.74971711  0.25391964  1
  Te  Te39  1  0.75397871  0.74794160  0.74156611  1
  Te  Te40  1  0.25042143  0.00020407  -0.00081625  1
  Te  Te41  1  0.25326891  -0.00158835  0.50037256  1
  Te  Te42  1  0.24967741  0.50007887  0.00167416  1
  Te  Te43  1  0.24956384  0.50104815  0.49663864  1
  Te  Te44  1  0.74899433  0.00184824  0.00363998  1
  Te  Te45  1  0.74689417  -0.00256122  0.49594895  1
  Te  Te46  1  0.75035496  0.49534984  0.00684903  1
  Te  Te47  1  0.75458596  0.50227596  0.49535552  1
  Te  Te48  1  -0.00143770  0.24650337  0.00408657  1
  Te  Te49  1  0.00300259  0.25146838  0.49633861  1
  Te  Te50  1  -0.00012856  0.75516750  -0.00587361  1
  Te  Te51  1  0.00192051  0.74893675  0.50129879  1
  Te  Te52  1  0.50158747  0.24471268  0.00446674  1
  Te  Te53  1  0.49780152  0.24482587  0.49623239  1
  Te  Te54  1  0.50052511  0.75749556  0.00539062  1
  Te  Te55  1  0.49984171  0.75288256  0.49640644  1
  Te  Te56  1  -0.00447947  0.00275787  0.24679330  1
  Te  Te57  1  -0.00017532  -0.00408569  0.75660298  1
  Te  Te58  1  0.00023509  0.49842040  0.25281961  1
  Te  Te59  1  0.00383364  0.50287165  0.74602648  1
  Te  Te60  1  0.50047209  0.00072694  0.25060941  1
  Te  Te61  1  0.49990264  -0.00025127  0.75118315  1
  Te  Te62  1  0.50123797  0.49915654  0.24969393  1
  Te  Te63  1  0.49260405  0.50058293  0.75274117  1
