# generated using pymatgen
data_AgSbTe2
_symmetry_space_group_name_H-M   'P 1'
_cell_length_a   12.22501463
_cell_length_b   12.21388721
_cell_length_c   12.21330837
_cell_angle_alpha   90.00376434
_cell_angle_beta   90.00724353
_cell_angle_gamma   90.00063953
_symmetry_Int_Tables_number   1
_chemical_formula_structural   AgSbTe2
_chemical_formula_sum   'Ag16 Sb16 Te32'
_cell_volume   1823.62950746
_cell_formula_units_Z   16
loop_
 _symmetry_equiv_pos_site_id
 _symmetry_equiv_pos_as_xyz
  1  'x, y, z'
loop_
 _atom_site_type_symbol
 _atom_site_label
 _atom_site_symmetry_multiplicity
 _atom_site_fract_x
 _atom_site_fract_y
 _atom_site_fract_z
 _atom_site_occupancy
  Ag  Ag0  1  0.24737157  0.24971656  0.50986310  1
  Ag  Ag1  1  0.24885813  0.49124313  0.75425490  1
  Ag  Ag2  1  0.49656449  0.25417638  0.75378348  1
  Ag  Ag3  1  -0.00132833  0.25258018  0.24693541  1
  Ag  Ag4  1  0.50410093  0.74525161  0.24929881  1
  Ag  Ag5  1  -0.00400878  0.74894050  0.74950408  1
  Ag  Ag6  1  0.75188884  0.49725045  0.75702458  1
  Ag  Ag7  1  -0.00052576  0.00195578  0.50639782  1
  Ag  Ag8  1  0.75189997  0.25811347  -0.00524276  1
  Ag  Ag9  1  0.24881327  0.25465598  -0.00915000  1
  Ag  Ag10  1  0.50437181  0.49573339  -0.00388757  1
  Ag  Ag11  1  0.75170206  0.74894078  0.50421314  1
  Ag  Ag12  1  -0.00428748  0.49474857  -0.00470633  1
  Ag  Ag13  1  0.75044978  0.49864440  0.24403828  1
  Ag  Ag14  1  0.24666392  0.00880387  0.74901735  1
  Ag  Ag15  1  0.75433076  0.00162762  0.74954351  1
  Sb  Sb16  1  0.24834170  0.75073778  0.50419004  1
  Sb  Sb17  1  -0.00078213  0.49758178  0.50503492  1
  Sb  Sb18  1  0.50074432  0.00422709  -0.00317494  1
  Sb  Sb19  1  0.75245443  0.25017509  0.50620330  1
  Sb  Sb20  1  0.24975876  0.74598530  -0.00306176  1
  Sb  Sb21  1  -0.00373163  0.74664159  0.25057039  1
  Sb  Sb22  1  0.50341198  0.74608063  0.75095603  1
  Sb  Sb23  1  0.50193896  0.25378323  0.24686223  1
  Sb  Sb24  1  0.50057392  0.00084258  0.50282853  1
  Sb  Sb25  1  0.24880304  0.49677659  0.24645443  1
  Sb  Sb26  1  0.75266070  0.00153700  0.24965648  1
  Sb  Sb27  1  0.50084036  0.49895127  0.50352360  1
  Sb  Sb28  1  -0.00092952  0.00447775  -0.00629116  1
  Sb  Sb29  1  0.75033460  0.74136303  -0.00310896  1
  Sb  Sb30  1  0.24729365  0.00375664  0.24998990  1
  Sb  Sb31  1  0.00431445  0.25206123  0.75319283  1
  Te  Te32  1  0.24714850  0.24980349  0.24870793  1
  Te  Te33  1  0.24986029  0.25110491  0.75117787  1
  Te  Te34  1  0.25632110  0.75034094  0.25042526  1
  Te  Te35  1  0.24698198  0.75002583  0.74900830  1
  Te  Te36  1  0.75221375  0.25355340  0.24740395  1
  Te  Te37  1  0.74730011  0.25242016  0.75100067  1
  Te  Te38  1  0.74822150  0.74695684  0.25384269  1
  Te  Te39  1  0.75164110  0.74936454  0.74703363  1
  Te  Te40  1  0.24923221  0.00773645  -0.00694884  1
  Te  Te41  1  0.24533401  0.00326362  0.50558721  1
  Te  Te42  1  0.24936840  0.49614961  -0.00404726  1
  Te  Te43  1  0.24959061  0.49479546  0.50688060  1
  Te  Te44  1  0.75098600  0.00889568  -0.00656711  1
  Te  Te45  1  0.75438351  -0.00220862  0.50524854  1
  Te  Te46  1  0.75080719  0.49797355  -0.00280630  1
  Te  Te47  1  0.75077239  0.50294270  0.50107285  1
  Te  Te48  1  -0.00081750  0.25363143  0.00383270  1
  Te  Te49  1  0.00387887  0.24714361  0.49303630  1
  Te  Te50  1  0.00063772  0.74337586  -0.00431413  1
  Te  Te51  1  -0.00351919  0.75366373  0.50322248  1
  Te  Te52  1  0.49997589  0.25427670  -0.00293195  1
  Te  Te53  1  0.49266911  0.24966087  0.50458824  1
  Te  Te54  1  0.49970312  0.74214215  0.00377533  1
  Te  Te55  1  0.50590338  0.74994465  0.49579326  1
  Te  Te56  1  -0.00017252  0.00429165  0.25645133  1
  Te  Te57  1  -0.00139986  -0.00434995  0.74772219  1
  Te  Te58  1  -0.00369067  0.49691344  0.24542913  1
  Te  Te59  1  -0.00197288  0.50326070  0.75271914  1
  Te  Te60  1  0.50024368  -0.00742442  0.24969758  1
  Te  Te61  1  0.49988780  0.00381519  0.75055463  1
  Te  Te62  1  0.50459953  0.50192516  0.24508596  1
  Te  Te63  1  0.50101810  0.49724941  0.75360418  1
