# generated using pymatgen
data_AgSbTe2
_symmetry_space_group_name_H-M   'P 1'
_cell_length_a   12.20415962
_cell_length_b   12.20257819
_cell_length_c   12.20449545
_cell_angle_alpha   90.00410252
_cell_angle_beta   89.99480888
_cell_angle_gamma   90.00301215
_symmetry_Int_Tables_number   1
_chemical_formula_structural   AgSbTe2
_chemical_formula_sum   'Ag16 Sb16 Te32'
_cell_volume   1817.52044462
_cell_formula_units_Z   16
loop_
 _symmetry_equiv_pos_site_id
 _symmetry_equiv_pos_as_xyz
  1  'x, y, z'
loop_
 _atom_site_type_symbol
 _atom_site_label
 _atom_site_symmetry_multiplicity
 _atom_site_fract_x
 _atom_site_fract_y
 _atom_site_fract_z
 _atom_site_occupancy
  Ag  Ag0  1  -0.00111193  0.49710623  0.50646577  1
  Ag  Ag1  1  0.00044457  0.74551798  0.75128189  1
  Ag  Ag2  1  -0.00029024  0.25564568  0.75165276  1
  Ag  Ag3  1  0.75137684  0.00273615  0.24708650  1
  Ag  Ag4  1  -0.00212399  0.49703098  -0.00661915  1
  Ag  Ag5  1  0.75182217  0.74827433  -0.00209657  1
  Ag  Ag6  1  0.24905215  0.24747637  -0.00326209  1
  Ag  Ag7  1  0.75588112  0.49704115  0.75346195  1
  Ag  Ag8  1  0.50189256  0.49647861  -0.00438653  1
  Ag  Ag9  1  0.24620985  0.75079449  0.50272830  1
  Ag  Ag10  1  0.75412486  0.25092506  0.50265362  1
  Ag  Ag11  1  0.49938243  0.25068415  0.75482130  1
  Ag  Ag12  1  -0.00039990  0.24928730  0.24836079  1
  Ag  Ag13  1  0.24899976  0.00284447  0.75290611  1
  Ag  Ag14  1  0.24864737  0.00251027  0.24679996  1
  Ag  Ag15  1  0.49819371  0.00342428  -0.00145929  1
  Sb  Sb16  1  0.24785669  0.49644077  0.24833517  1
  Sb  Sb17  1  0.00013325  0.00338033  0.50067876  1
  Sb  Sb18  1  0.75125226  0.25175166  -0.00224869  1
  Sb  Sb19  1  0.75466588  0.74906158  0.50256011  1
  Sb  Sb20  1  0.49930731  0.00223731  0.50289141  1
  Sb  Sb21  1  0.49860440  0.74842530  0.75295916  1
  Sb  Sb22  1  0.75031374  0.00311941  0.75331897  1
  Sb  Sb23  1  0.24536402  0.24921136  0.50293277  1
  Sb  Sb24  1  0.00048094  0.75101264  0.24810428  1
  Sb  Sb25  1  0.75285303  0.49704310  0.24657327  1
  Sb  Sb26  1  0.24195643  0.49678889  0.75114021  1
  Sb  Sb27  1  0.50007366  0.24741405  0.24448954  1
  Sb  Sb28  1  0.49972695  0.75154667  0.24816878  1
  Sb  Sb29  1  0.00177084  0.00417925  -0.00088308  1
  Sb  Sb30  1  0.24743418  0.75301305  -0.00239102  1
  Sb  Sb31  1  0.50163944  0.49672126  0.50570984  1
  Te  Te32  1  0.24592375  0.24440452  0.24765241  1
  Te  Te33  1  0.24849436  0.24633656  0.75179420  1
  Te  Te34  1  0.24870474  0.75897133  0.25411411  1
  Te  Te35  1  0.24567548  0.75622974  0.74812216  1
  Te  Te36  1  0.75430307  0.24574452  0.25375964  1
  Te  Te37  1  0.75285048  0.25120638  0.74775967  1
  Te  Te38  1  0.75101526  0.75694387  0.24552369  1
  Te  Te39  1  0.75508584  0.74753809  0.75293339  1
  Te  Te40  1  0.25243279  0.00167427  -0.00020284  1
  Te  Te41  1  0.25042949  -0.00301052  0.49968263  1
  Te  Te42  1  0.24988526  0.49672339  0.00091484  1
  Te  Te43  1  0.24488531  0.50466699  0.49908778  1
  Te  Te44  1  0.74621890  -0.00305906  0.00292974  1
  Te  Te45  1  0.74921749  0.00363958  0.49371009  1
  Te  Te46  1  0.75116377  0.50172864  -0.00274709  1
  Te  Te47  1  0.75365296  0.49720279  0.50357717  1
  Te  Te48  1  0.00188714  0.25338593  -0.00181793  1
  Te  Te49  1  -0.00231640  0.25397538  0.50188534  1
  Te  Te50  1  -0.00304070  0.74385991  -0.00343284  1
  Te  Te51  1  0.00240438  0.74380889  0.50433784  1
  Te  Te52  1  0.49778993  0.24983029  -0.00391904  1
  Te  Te53  1  0.50577152  0.25162188  0.50767336  1
  Te  Te54  1  0.50422411  0.74936216  -0.00172307  1
  Te  Te55  1  0.49324097  0.74876545  0.50039101  1
  Te  Te56  1  0.00073337  0.00517692  0.24976100  1
  Te  Te57  1  0.00352104  0.00073515  0.75070159  1
  Te  Te58  1  -0.00101120  0.49399577  0.24896942  1
  Te  Te59  1  -0.00057808  0.49775961  0.75151615  1
  Te  Te60  1  0.49894584  0.00177938  0.24345407  1
  Te  Te61  1  0.49686871  0.00475363  0.75502060  1
  Te  Te62  1  0.50029299  0.49931659  0.24041941  1
  Te  Te63  1  0.50579310  0.49580786  0.75541668  1
