# generated using pymatgen
data_AgSbTe2
_symmetry_space_group_name_H-M   'P 1'
_cell_length_a   12.23049563
_cell_length_b   12.22451091
_cell_length_c   12.21500359
_cell_angle_alpha   90.00243160
_cell_angle_beta   90.00526212
_cell_angle_gamma   90.00032526
_symmetry_Int_Tables_number   1
_chemical_formula_structural   AgSbTe2
_chemical_formula_sum   'Ag16 Sb16 Te32'
_cell_volume   1826.28749827
_cell_formula_units_Z   16
loop_
 _symmetry_equiv_pos_site_id
 _symmetry_equiv_pos_as_xyz
  1  'x, y, z'
loop_
 _atom_site_type_symbol
 _atom_site_label
 _atom_site_symmetry_multiplicity
 _atom_site_fract_x
 _atom_site_fract_y
 _atom_site_fract_z
 _atom_site_occupancy
  Ag  Ag0  1  0.75625474  0.49847156  0.74552539  1
  Ag  Ag1  1  0.74976261  0.25474462  0.50616297  1
  Ag  Ag2  1  0.49288598  0.49731253  0.50388702  1
  Ag  Ag3  1  0.00371376  0.50158126  -0.01130714  1
  Ag  Ag4  1  0.25043126  0.25933818  0.50374215  1
  Ag  Ag5  1  0.25011398  0.74279590  0.50938299  1
  Ag  Ag6  1  0.24992080  0.74771654  -0.01125990  1
  Ag  Ag7  1  0.25096724  0.49887254  0.25694651  1
  Ag  Ag8  1  0.00018273  0.25842790  0.74547376  1
  Ag  Ag9  1  0.74832282  0.00121652  0.74911542  1
  Ag  Ag10  1  0.49688167  0.25290688  0.25458662  1
  Ag  Ag11  1  0.25179828  -0.00637138  0.74934187  1
  Ag  Ag12  1  0.49746754  -0.00100061  -0.00672782  1
  Ag  Ag13  1  0.49146566  0.75031927  0.74892765  1
  Ag  Ag14  1  0.00709457  0.74303388  0.74891775  1
  Ag  Ag15  1  0.00548057  0.49785349  0.50916755  1
  Sb  Sb16  1  0.00187924  -0.00232893  -0.00706692  1
  Sb  Sb17  1  0.75033313  0.74597959  0.50588294  1
  Sb  Sb18  1  0.00124874  0.00107306  0.50511631  1
  Sb  Sb19  1  0.49870556  0.00092110  0.50565976  1
  Sb  Sb20  1  0.74575820  0.00433263  0.25186506  1
  Sb  Sb21  1  0.49588034  0.50091414  -0.00505399  1
  Sb  Sb22  1  0.75033918  0.74884642  -0.00523109  1
  Sb  Sb23  1  0.49601479  0.74800282  0.25166885  1
  Sb  Sb24  1  0.24928294  0.25252599  -0.00569333  1
  Sb  Sb25  1  0.24362700  0.50610401  0.74274580  1
  Sb  Sb26  1  0.74865446  0.49700960  0.25306938  1
  Sb  Sb27  1  0.00385527  0.74633777  0.25220007  1
  Sb  Sb28  1  0.00233231  0.25429872  0.25461637  1
  Sb  Sb29  1  0.25269769  0.00169596  0.25050406  1
  Sb  Sb30  1  0.75008930  0.25088346  -0.00692811  1
  Sb  Sb31  1  0.49875099  0.25140582  0.74625079  1
  Te  Te32  1  0.25313012  0.25295619  0.25607534  1
  Te  Te33  1  0.24775020  0.24273792  0.74592153  1
  Te  Te34  1  0.25025594  0.74664051  0.25249902  1
  Te  Te35  1  0.25027970  0.75090394  0.74897138  1
  Te  Te36  1  0.74553224  0.24934304  0.25909098  1
  Te  Te37  1  0.75134375  0.25037026  0.74589996  1
  Te  Te38  1  0.75005820  0.75162709  0.25023565  1
  Te  Te39  1  0.75098269  0.75105245  0.74865382  1
  Te  Te40  1  0.25305596  -0.00350279  -0.00289799  1
  Te  Te41  1  0.25020109  -0.00197372  0.50297420  1
  Te  Te42  1  0.24754315  0.50309395  0.00710369  1
  Te  Te43  1  0.25066219  0.49937828  0.49998840  1
  Te  Te44  1  0.74516484  0.00016584  -0.00673065  1
  Te  Te45  1  0.74999264  0.00606966  0.50617609  1
  Te  Te46  1  0.75587690  0.49992380  -0.00404117  1
  Te  Te47  1  0.75074238  0.49704552  0.50302057  1
  Te  Te48  1  0.00029310  0.25558084  -0.00534211  1
  Te  Te49  1  0.00217891  0.25286677  0.50382365  1
  Te  Te50  1  0.00506506  0.74632218  -0.00412869  1
  Te  Te51  1  0.00373449  0.74569914  0.50394925  1
  Te  Te52  1  0.49931873  0.24790694  0.00560824  1
  Te  Te53  1  0.49705699  0.25232081  0.49893145  1
  Te  Te54  1  0.49519831  0.75176479  -0.00381419  1
  Te  Te55  1  0.49643808  0.74656507  0.50370857  1
  Te  Te56  1  -0.00160211  0.00027101  0.24712653  1
  Te  Te57  1  -0.00019745  -0.00168676  0.75079295  1
  Te  Te58  1  0.00372912  0.49957404  0.25139382  1
  Te  Te59  1  -0.00059906  0.50009010  0.74848568  1
  Te  Te60  1  0.50064674  0.00424597  0.24209816  1
  Te  Te61  1  0.49949561  -0.00168943  0.75241870  1
  Te  Te62  1  0.49714288  0.49668250  0.25314853  1
  Te  Te63  1  0.50733524  0.50243286  0.74736988  1
