# generated using pymatgen
data_AgSbTe2
_symmetry_space_group_name_H-M   'P 1'
_cell_length_a   12.30588857
_cell_length_b   12.31074135
_cell_length_c   12.30969103
_cell_angle_alpha   90.00006216
_cell_angle_beta   89.98874514
_cell_angle_gamma   89.99560793
_symmetry_Int_Tables_number   1
_chemical_formula_structural   AgSbTe2
_chemical_formula_sum   'Ag16 Sb16 Te32'
_cell_volume   1864.85181535
_cell_formula_units_Z   16
loop_
 _symmetry_equiv_pos_site_id
 _symmetry_equiv_pos_as_xyz
  1  'x, y, z'
loop_
 _atom_site_type_symbol
 _atom_site_label
 _atom_site_symmetry_multiplicity
 _atom_site_fract_x
 _atom_site_fract_y
 _atom_site_fract_z
 _atom_site_occupancy
  Ag  Ag0  1  0.74469575  -0.00014969  0.75531468  1
  Ag  Ag1  1  0.02185610  0.24548596  0.25112043  1
  Ag  Ag2  1  0.48041033  0.75900342  0.24298505  1
  Ag  Ag3  1  0.25520828  0.00014352  0.75922146  1
  Ag  Ag4  1  0.02172784  0.75442051  0.24654759  1
  Ag  Ag5  1  0.25462803  0.23433654  0.02214165  1
  Ag  Ag6  1  0.49055483  -0.00282989  0.00487720  1
  Ag  Ag7  1  0.74867965  0.49927174  0.75193806  1
  Ag  Ag8  1  0.25415591  0.00004442  0.24272288  1
  Ag  Ag9  1  0.25129573  0.24174947  0.47979427  1
  Ag  Ag10  1  0.74727955  0.24564601  0.49462043  1
  Ag  Ag11  1  0.25112006  0.76048788  0.47693340  1
  Ag  Ag12  1  0.25090577  0.49988564  0.24894509  1
  Ag  Ag13  1  0.25586623  0.76405908  0.01996046  1
  Ag  Ag14  1  0.74517831  0.75701383  0.00514636  1
  Ag  Ag15  1  0.48043009  0.24244577  0.24755008  1
  Sb  Sb16  1  0.49877017  0.50156524  0.00326862  1
  Sb  Sb17  1  0.49700065  0.00108482  0.49594799  1
  Sb  Sb18  1  0.74852911  0.24620697  0.00228235  1
  Sb  Sb19  1  0.74806306  -0.00004945  0.24665185  1
  Sb  Sb20  1  0.74881905  0.75269489  0.49660887  1
  Sb  Sb21  1  0.49883925  0.75428536  0.75516932  1
  Sb  Sb22  1  0.00097412  0.50088087  0.00229898  1
  Sb  Sb23  1  0.00215053  0.75151607  0.75396927  1
  Sb  Sb24  1  0.00673029  -0.00043231  0.00144180  1
  Sb  Sb25  1  0.00224529  0.00048820  0.49854564  1
  Sb  Sb26  1  0.00226839  0.24860848  0.74902519  1
  Sb  Sb27  1  0.00134492  0.49923693  0.49768979  1
  Sb  Sb28  1  0.74904992  0.49931195  0.24961284  1
  Sb  Sb29  1  0.25089247  0.49985038  0.75062061  1
  Sb  Sb30  1  0.49819203  0.24632907  0.75169548  1
  Sb  Sb31  1  0.49882816  0.49876221  0.49690437  1
  Te  Te32  1  0.25052762  0.25119578  0.24850404  1
  Te  Te33  1  0.24874330  0.24786543  0.74756578  1
  Te  Te34  1  0.25034611  0.74901318  0.25081049  1
  Te  Te35  1  0.24925718  0.75234752  0.75102824  1
  Te  Te36  1  0.75010701  0.24975244  0.25432152  1
  Te  Te37  1  0.75117742  0.24317527  0.74975296  1
  Te  Te38  1  0.74948309  0.75019640  0.24743406  1
  Te  Te39  1  0.75099559  0.75817926  0.74934603  1
  Te  Te40  1  0.25037965  -0.00011316  0.00051202  1
  Te  Te41  1  0.25056693  0.00127751  0.50122478  1
  Te  Te42  1  0.24945216  0.50189493  -0.00332487  1
  Te  Te43  1  0.24967213  0.49602875  0.50315202  1
  Te  Te44  1  0.74507942  -0.00334510  -0.00099492  1
  Te  Te45  1  0.74856167  0.00413279  0.50738601  1
  Te  Te46  1  0.75043797  0.50569420  -0.00269033  1
  Te  Te47  1  0.75020696  0.49621558  0.50307825  1
  Te  Te48  1  0.00318905  0.24979953  0.00624098  1
  Te  Te49  1  0.00350065  0.24985928  0.49629292  1
  Te  Te50  1  0.00077040  0.75042131  0.00302476  1
  Te  Te51  1  0.00298271  0.75007887  0.49154810  1
  Te  Te52  1  0.49862478  0.24834884  0.00200937  1
  Te  Te53  1  0.49738826  0.25059233  0.49502602  1
  Te  Te54  1  0.49751813  0.74974899  0.00181149  1
  Te  Te55  1  0.49710422  0.74886785  0.48913509  1
  Te  Te56  1  0.00406341  0.00025255  0.24987808  1
  Te  Te57  1  0.00105830  -0.00005460  0.75017943  1
  Te  Te58  1  0.00632606  0.49966004  0.24984875  1
  Te  Te59  1  -0.01062413  0.50005922  0.75016628  1
  Te  Te60  1  0.49836727  0.00029646  0.24678062  1
  Te  Te61  1  0.49435514  -0.00018443  0.75982551  1
  Te  Te62  1  0.49546571  0.49708030  0.25001289  1
  Te  Te63  1  0.50822597  0.50030877  0.74956156  1
