# generated using pymatgen
data_AgSbTe2
_symmetry_space_group_name_H-M   'P 1'
_cell_length_a   12.22416913
_cell_length_b   12.22740450
_cell_length_c   12.21616242
_cell_angle_alpha   90.00524314
_cell_angle_beta   89.99615647
_cell_angle_gamma   90.00480653
_symmetry_Int_Tables_number   1
_chemical_formula_structural   AgSbTe2
_chemical_formula_sum   'Ag16 Sb16 Te32'
_cell_volume   1825.94807658
_cell_formula_units_Z   16
loop_
 _symmetry_equiv_pos_site_id
 _symmetry_equiv_pos_as_xyz
  1  'x, y, z'
loop_
 _atom_site_type_symbol
 _atom_site_label
 _atom_site_symmetry_multiplicity
 _atom_site_fract_x
 _atom_site_fract_y
 _atom_site_fract_z
 _atom_site_occupancy
  Ag  Ag0  1  0.75300193  0.00031089  0.74774474  1
  Ag  Ag1  1  0.75585914  0.25716958  0.49990228  1
  Ag  Ag2  1  -0.00327258  0.74749568  0.74001256  1
  Ag  Ag3  1  0.75537726  0.49740411  0.25688370  1
  Ag  Ag4  1  -0.00414439  0.25899108  0.25686767  1
  Ag  Ag5  1  0.24714085  -0.00149688  0.74885392  1
  Ag  Ag6  1  0.23973012  0.74666840  0.50014495  1
  Ag  Ag7  1  0.75948205  0.74239012  0.50199271  1
  Ag  Ag8  1  -0.00515463  0.25237905  0.74294802  1
  Ag  Ag9  1  -0.00600325  0.50383516  0.49613003  1
  Ag  Ag10  1  -0.00138665  0.74053001  0.26072478  1
  Ag  Ag11  1  0.75539845  0.49970333  0.74220640  1
  Ag  Ag12  1  0.24498120  0.50038644  0.25314618  1
  Ag  Ag13  1  0.50231876  0.49750771  0.00336845  1
  Ag  Ag14  1  0.50339767  0.25486185  0.24981518  1
  Ag  Ag15  1  0.50101771  0.00211383  -0.00105198  1
  Sb  Sb16  1  0.75006794  0.00112285  0.25231192  1
  Sb  Sb17  1  0.50519026  0.25091874  0.74904941  1
  Sb  Sb18  1  0.24498963  0.50136660  0.74764995  1
  Sb  Sb19  1  0.50199545  0.74547547  0.25099823  1
  Sb  Sb20  1  0.50091221  0.00157683  0.50043671  1
  Sb  Sb21  1  -0.00099041  0.00033226  -0.00421556  1
  Sb  Sb22  1  0.50664612  0.49838257  0.49777256  1
  Sb  Sb23  1  0.24935193  0.74888129  -0.00080354  1
  Sb  Sb24  1  0.75061261  0.74875053  -0.00186747  1
  Sb  Sb25  1  0.25100258  0.25073162  0.00007127  1
  Sb  Sb26  1  0.24264377  0.25324881  0.49981794  1
  Sb  Sb27  1  0.24998587  -0.00137213  0.25093785  1
  Sb  Sb28  1  -0.00201994  0.49979870  0.00379773  1
  Sb  Sb29  1  0.50352357  0.74990904  0.74876883  1
  Sb  Sb30  1  0.74931522  0.25076823  0.00072920  1
  Sb  Sb31  1  -0.00040924  -0.00462204  0.50197395  1
  Te  Te32  1  0.24738970  0.25320342  0.25118318  1
  Te  Te33  1  0.24330852  0.24604153  0.74836861  1
  Te  Te34  1  0.24620824  0.74761340  0.25442815  1
  Te  Te35  1  0.24490248  0.75169262  0.74598314  1
  Te  Te36  1  0.75355272  0.25063828  0.25300695  1
  Te  Te37  1  0.75303182  0.25135133  0.74668497  1
  Te  Te38  1  0.75346397  0.74902976  0.25482668  1
  Te  Te39  1  0.75333725  0.74844932  0.74656213  1
  Te  Te40  1  0.25624603  -0.00053800  -0.00569290  1
  Te  Te41  1  0.25133904  -0.00689219  0.50534606  1
  Te  Te42  1  0.25759488  0.50074442  0.00609299  1
  Te  Te43  1  0.24500038  0.50409097  0.49671428  1
  Te  Te44  1  0.74419304  -0.00055997  -0.00729211  1
  Te  Te45  1  0.74907403  -0.00073531  0.50520146  1
  Te  Te46  1  0.74529283  0.50069708  0.00132398  1
  Te  Te47  1  0.75200848  0.50060795  0.49990530  1
  Te  Te48  1  0.00049540  0.25010921  0.00086238  1
  Te  Te49  1  -0.00336367  0.25395523  0.49935236  1
  Te  Te50  1  0.00005647  0.75017253  -0.00001381  1
  Te  Te51  1  -0.00193215  0.74813889  0.49989066  1
  Te  Te52  1  0.49978981  0.25127393  0.00489419  1
  Te  Te53  1  0.50719064  0.25031328  0.49429713  1
  Te  Te54  1  0.49976383  0.75025435  0.00063967  1
  Te  Te55  1  0.50064028  0.75003530  0.49927944  1
  Te  Te56  1  0.00071550  0.00200348  0.24738185  1
  Te  Te57  1  -0.00209325  0.00056223  0.75176197  1
  Te  Te58  1  -0.00248213  0.49965056  0.24959358  1
  Te  Te59  1  -0.00214870  0.49997218  0.75022708  1
  Te  Te60  1  0.49931239  0.00605372  0.24410738  1
  Te  Te61  1  0.50107744  0.00071018  0.75410272  1
  Te  Te62  1  0.50194668  0.49742954  0.24808747  1
  Te  Te63  1  0.50452687  0.49841107  0.75577448  1
