# generated using pymatgen
data_AgSbTe2
_symmetry_space_group_name_H-M   'P 1'
_cell_length_a   12.21184557
_cell_length_b   12.21380209
_cell_length_c   12.20942650
_cell_angle_alpha   89.99869963
_cell_angle_beta   89.99711588
_cell_angle_gamma   90.00139459
_symmetry_Int_Tables_number   1
_chemical_formula_structural   AgSbTe2
_chemical_formula_sum   'Ag16 Sb16 Te32'
_cell_volume   1821.07338041
_cell_formula_units_Z   16
loop_
 _symmetry_equiv_pos_site_id
 _symmetry_equiv_pos_as_xyz
  1  'x, y, z'
loop_
 _atom_site_type_symbol
 _atom_site_label
 _atom_site_symmetry_multiplicity
 _atom_site_fract_x
 _atom_site_fract_y
 _atom_site_fract_z
 _atom_site_occupancy
  Ag  Ag0  1  -0.00367936  0.24927675  0.25356163  1
  Ag  Ag1  1  0.25211849  0.00255725  0.74515751  1
  Ag  Ag2  1  0.50098387  0.24745519  0.74651939  1
  Ag  Ag3  1  0.74790146  0.00115119  0.74239954  1
  Ag  Ag4  1  0.74825142  0.49910512  0.74570794  1
  Ag  Ag5  1  0.75109233  0.49916493  0.25368907  1
  Ag  Ag6  1  -0.00377547  -0.00152445  0.50010434  1
  Ag  Ag7  1  0.24815503  0.75346170  0.50191493  1
  Ag  Ag8  1  0.50415594  0.00333963  0.50367197  1
  Ag  Ag9  1  0.74821484  0.24604224  0.50028138  1
  Ag  Ag10  1  0.75279393  0.75412972  0.50005669  1
  Ag  Ag11  1  0.75166044  0.74991183  -0.00018548  1
  Ag  Ag12  1  0.25071310  0.24926954  -0.00311519  1
  Ag  Ag13  1  -0.00469317  0.75098425  0.25522398  1
  Ag  Ag14  1  0.50366970  0.24915044  0.25421970  1
  Ag  Ag15  1  0.25175545  0.49697936  0.74771268  1
  Sb  Sb16  1  0.25044316  0.00074976  0.25564647  1
  Sb  Sb17  1  -0.00154335  0.24781223  0.74552241  1
  Sb  Sb18  1  -0.00287614  0.50139582  0.49890664  1
  Sb  Sb19  1  0.50305003  0.49466129  0.50119282  1
  Sb  Sb20  1  0.50061200  0.49827294  -0.00132792  1
  Sb  Sb21  1  0.24991345  0.49810471  0.25322721  1
  Sb  Sb22  1  0.50119704  0.00259873  -0.00426940  1
  Sb  Sb23  1  0.75026743  0.00176580  0.25932154  1
  Sb  Sb24  1  -0.00096316  0.49915728  0.00077097  1
  Sb  Sb25  1  0.25148598  0.24683443  0.50411318  1
  Sb  Sb26  1  0.50287735  0.75350948  0.74595294  1
  Sb  Sb27  1  0.50577229  0.75047032  0.25502664  1
  Sb  Sb28  1  0.75027687  0.24943119  0.00050659  1
  Sb  Sb29  1  0.24697756  0.75051557  -0.00224798  1
  Sb  Sb30  1  -0.00331022  0.75164182  0.74367527  1
  Sb  Sb31  1  -0.00159112  0.00059968  0.00031555  1
  Te  Te32  1  0.24991758  0.25228904  0.24659920  1
  Te  Te33  1  0.25112325  0.25006972  0.75007823  1
  Te  Te34  1  0.24509412  0.74811689  0.25235044  1
  Te  Te35  1  0.25045766  0.75001523  0.74840404  1
  Te  Te36  1  0.75004992  0.25226008  0.24979677  1
  Te  Te37  1  0.74912365  0.25118882  0.74950864  1
  Te  Te38  1  0.75156109  0.74695768  0.25384360  1
  Te  Te39  1  0.74967740  0.74807092  0.74633219  1
  Te  Te40  1  0.24982083  0.00236324  -0.00999634  1
  Te  Te41  1  0.24950999  -0.00281530  0.50480749  1
  Te  Te42  1  0.25024059  0.49754020  -0.00805123  1
  Te  Te43  1  0.25023212  0.50685014  0.50609828  1
  Te  Te44  1  0.75033627  -0.00477184  -0.01132427  1
  Te  Te45  1  0.75027907  -0.00011789  0.50244022  1
  Te  Te46  1  0.74993498  0.50447154  -0.00254968  1
  Te  Te47  1  0.74988194  0.50047015  0.50253022  1
  Te  Te48  1  0.00494585  0.24879949  0.00970233  1
  Te  Te49  1  -0.00353666  0.24499785  0.49478076  1
  Te  Te50  1  -0.00490108  0.75124096  0.01046113  1
  Te  Te51  1  -0.00249901  0.75390184  0.49591995  1
  Te  Te52  1  0.49569432  0.24888566  -0.00019713  1
  Te  Te53  1  0.50219579  0.24579923  0.50104913  1
  Te  Te54  1  0.50719100  0.75098576  0.00269534  1
  Te  Te55  1  0.50054943  0.75840811  0.49858952  1
  Te  Te56  1  0.00057775  0.00064045  0.25613800  1
  Te  Te57  1  -0.00030308  0.00057516  0.74342614  1
  Te  Te58  1  -0.00504370  0.49868157  0.25024535  1
  Te  Te59  1  -0.00164985  0.49970066  0.75006658  1
  Te  Te60  1  0.49916981  0.00737434  0.25682978  1
  Te  Te61  1  0.50064235  0.00376092  0.74628821  1
  Te  Te62  1  0.50576828  0.49264024  0.25047568  1
  Te  Te63  1  0.50205118  0.49267335  0.74940843  1
