# generated using pymatgen
data_AgSbTe2
_symmetry_space_group_name_H-M   'P 1'
_cell_length_a   12.31150834
_cell_length_b   12.29697813
_cell_length_c   12.26206798
_cell_angle_alpha   89.99303593
_cell_angle_beta   89.99744968
_cell_angle_gamma   89.99383086
_symmetry_Int_Tables_number   1
_chemical_formula_structural   AgSbTe2
_chemical_formula_sum   'Ag16 Sb16 Te32'
_cell_volume   1856.40777113
_cell_formula_units_Z   16
loop_
 _symmetry_equiv_pos_site_id
 _symmetry_equiv_pos_as_xyz
  1  'x, y, z'
loop_
 _atom_site_type_symbol
 _atom_site_label
 _atom_site_symmetry_multiplicity
 _atom_site_fract_x
 _atom_site_fract_y
 _atom_site_fract_z
 _atom_site_occupancy
  Ag  Ag0  1  -0.00868271  0.25114148  0.73210475  1
  Ag  Ag1  1  0.24785904  0.00827739  0.73954131  1
  Ag  Ag2  1  0.75122386  0.01322302  0.73714790  1
  Ag  Ag3  1  0.50350867  0.25329078  0.26776341  1
  Ag  Ag4  1  0.50196556  0.48967030  0.49950075  1
  Ag  Ag5  1  0.75253900  0.25523857  0.50655484  1
  Ag  Ag6  1  0.50857032  0.25132700  0.73349340  1
  Ag  Ag7  1  0.24249971  0.74074185  0.49796648  1
  Ag  Ag8  1  -0.00124952  0.49126094  0.49697521  1
  Ag  Ag9  1  0.75275910  0.00799798  0.26541477  1
  Ag  Ag10  1  -0.00279461  0.25400165  0.26752624  1
  Ag  Ag11  1  0.24723264  0.25783810  0.49974475  1
  Ag  Ag12  1  0.24632472  0.49429206  0.26043429  1
  Ag  Ag13  1  0.75711770  0.74478391  0.49880905  1
  Ag  Ag14  1  -0.00132927  0.74585411  0.26253238  1
  Ag  Ag15  1  0.75123952  0.48573804  0.73785393  1
  Sb  Sb16  1  0.24890716  0.49184557  0.73791054  1
  Sb  Sb17  1  0.50063509  0.49706319  0.00086331  1
  Sb  Sb18  1  0.75286100  0.74950489  0.00560797  1
  Sb  Sb19  1  -0.00028758  0.00060584  -0.00047072  1
  Sb  Sb20  1  0.24873274  0.00367749  0.26116361  1
  Sb  Sb21  1  0.75348688  0.49020602  0.26216521  1
  Sb  Sb22  1  0.24657298  0.74907820  0.00184585  1
  Sb  Sb23  1  0.24939615  0.25061925  -0.00114181  1
  Sb  Sb24  1  0.50052369  0.00191521  -0.00019739  1
  Sb  Sb25  1  0.50349526  0.01422828  0.49983006  1
  Sb  Sb26  1  -0.00103096  0.49873256  0.00209517  1
  Sb  Sb27  1  -0.00150007  0.74705289  0.73387701  1
  Sb  Sb28  1  -0.00425082  0.01336240  0.50047846  1
  Sb  Sb29  1  0.75048688  0.25037996  -0.00529235  1
  Sb  Sb30  1  0.50115844  0.74707407  0.74231469  1
  Sb  Sb31  1  0.50247562  0.74600597  0.25908784  1
  Te  Te32  1  0.24662587  0.24610403  0.25442228  1
  Te  Te33  1  0.24874087  0.24967599  0.74603795  1
  Te  Te34  1  0.24909428  0.75602649  0.25735002  1
  Te  Te35  1  0.24890958  0.75712444  0.74207584  1
  Te  Te36  1  0.75281416  0.24954636  0.25235988  1
  Te  Te37  1  0.75147414  0.24675020  0.74844354  1
  Te  Te38  1  0.75047907  0.75553850  0.25609163  1
  Te  Te39  1  0.75148390  0.75737044  0.74077167  1
  Te  Te40  1  0.25023366  -0.00155249  -0.01905678  1
  Te  Te41  1  0.25264013  0.00051512  0.50553350  1
  Te  Te42  1  0.25020706  0.50220318  0.01927874  1
  Te  Te43  1  0.24711797  0.49656579  0.49750210  1
  Te  Te44  1  0.74997637  -0.00147465  -0.00556231  1
  Te  Te45  1  0.74890623  0.00103178  0.50157722  1
  Te  Te46  1  0.74946293  0.50250567  -0.02418418  1
  Te  Te47  1  0.75223426  0.49635663  0.50261975  1
  Te  Te48  1  0.00094864  0.25118176  0.00367669  1
  Te  Te49  1  -0.00178285  0.25330490  0.49957764  1
  Te  Te50  1  0.00087089  0.74885044  0.02216562  1
  Te  Te51  1  -0.00110967  0.73852914  0.49559294  1
  Te  Te52  1  0.49923023  0.25122121  0.00146586  1
  Te  Te53  1  0.50165524  0.25660691  0.50016362  1
  Te  Te54  1  0.49894367  0.74917254  0.00034042  1
  Te  Te55  1  0.50037242  0.73037154  0.49980565  1
  Te  Te56  1  -0.00428761  0.00679465  0.25105814  1
  Te  Te57  1  -0.00615748  0.00728994  0.74870037  1
  Te  Te58  1  -0.00096311  0.49314296  0.25389417  1
  Te  Te59  1  -0.00002806  0.49570035  0.74628895  1
  Te  Te60  1  0.50596145  0.01076697  0.25003472  1
  Te  Te61  1  0.50705611  0.00891597  0.74905836  1
  Te  Te62  1  0.49819366  0.49374879  0.25324643  1
  Te  Te63  1  0.50024980  0.49408551  0.74616869  1
