# generated using pymatgen
data_AgSbTe2
_symmetry_space_group_name_H-M   'P 1'
_cell_length_a   12.23577430
_cell_length_b   12.22191374
_cell_length_c   12.23536770
_cell_angle_alpha   90.00415635
_cell_angle_beta   90.00168050
_cell_angle_gamma   89.99815341
_symmetry_Int_Tables_number   1
_chemical_formula_structural   AgSbTe2
_chemical_formula_sum   'Ag16 Sb16 Te32'
_cell_volume   1829.73289375
_cell_formula_units_Z   16
loop_
 _symmetry_equiv_pos_site_id
 _symmetry_equiv_pos_as_xyz
  1  'x, y, z'
loop_
 _atom_site_type_symbol
 _atom_site_label
 _atom_site_symmetry_multiplicity
 _atom_site_fract_x
 _atom_site_fract_y
 _atom_site_fract_z
 _atom_site_occupancy
  Ag  Ag0  1  -0.00185045  0.50223565  0.50386226  1
  Ag  Ag1  1  0.74702503  0.25659740  0.50482678  1
  Ag  Ag2  1  0.49862517  0.49770188  0.00511332  1
  Ag  Ag3  1  0.25217084  0.25736471  -0.00044651  1
  Ag  Ag4  1  -0.00328299  0.25628581  0.74899268  1
  Ag  Ag5  1  0.74968079  0.74375367  0.50343909  1
  Ag  Ag6  1  0.25678852  0.49998539  0.25064777  1
  Ag  Ag7  1  0.50344433  0.25489612  0.74863729  1
  Ag  Ag8  1  0.50137053  0.50025671  0.49487516  1
  Ag  Ag9  1  0.25133250  0.74189802  0.49964649  1
  Ag  Ag10  1  0.50027614  0.73898251  0.25324331  1
  Ag  Ag11  1  -0.00476657  0.74290931  0.74710583  1
  Ag  Ag12  1  0.75025683  0.00004361  0.74878249  1
  Ag  Ag13  1  0.00080995  0.49991239  -0.00393828  1
  Ag  Ag14  1  0.49949052  0.26153493  0.25040633  1
  Ag  Ag15  1  0.74963532  0.74553301  -0.00329682  1
  Sb  Sb16  1  0.25274787  0.00016189  0.25023495  1
  Sb  Sb17  1  0.50165155  0.00056455  0.50126419  1
  Sb  Sb18  1  0.50192413  0.00116778  -0.00179482  1
  Sb  Sb19  1  -0.00108622  0.25639343  0.25120675  1
  Sb  Sb20  1  0.74775378  -0.00037480  0.25003826  1
  Sb  Sb21  1  -0.00235484  -0.00121570  0.50282587  1
  Sb  Sb22  1  0.75219578  0.49971512  0.74745678  1
  Sb  Sb23  1  0.74855415  0.25474735  -0.00435133  1
  Sb  Sb24  1  0.74249902  0.50006444  0.25169901  1
  Sb  Sb25  1  0.25128964  0.00039250  0.74970287  1
  Sb  Sb26  1  -0.00227408  -0.00041985  -0.00404923  1
  Sb  Sb27  1  0.25184360  0.25675856  0.49995282  1
  Sb  Sb28  1  0.24992467  0.74319027  0.00021542  1
  Sb  Sb29  1  -0.00103824  0.74420191  0.25214763  1
  Sb  Sb30  1  0.50419701  0.74452741  0.74809922  1
  Sb  Sb31  1  0.24890181  0.50015965  0.74900596  1
  Te  Te32  1  0.25479270  0.25197738  0.24831180  1
  Te  Te33  1  0.24892338  0.24776940  0.75199734  1
  Te  Te34  1  0.25496959  0.74795319  0.25199952  1
  Te  Te35  1  0.24365183  0.75277658  0.74635083  1
  Te  Te36  1  0.74398388  0.24776779  0.25697083  1
  Te  Te37  1  0.75082478  0.24774965  0.74751391  1
  Te  Te38  1  0.74478778  0.75154532  0.25223736  1
  Te  Te39  1  0.75176671  0.75248795  0.74739680  1
  Te  Te40  1  0.24973524  0.01139542  0.00024698  1
  Te  Te41  1  0.24949967  -0.01327671  0.49961602  1
  Te  Te42  1  0.25135030  0.49664850  0.00382195  1
  Te  Te43  1  0.25104270  0.50380686  0.49661149  1
  Te  Te44  1  0.75042969  -0.00979011  -0.00512732  1
  Te  Te45  1  0.75052610  -0.00139700  0.50461865  1
  Te  Te46  1  0.75054432  0.50554927  0.00206932  1
  Te  Te47  1  0.75003457  0.50041380  0.49855967  1
  Te  Te48  1  -0.00120572  0.25567909  -0.00274047  1
  Te  Te49  1  -0.00135076  0.25468487  0.50294456  1
  Te  Te50  1  -0.00121189  0.74491385  -0.00246225  1
  Te  Te51  1  -0.00507932  0.74582253  0.50173345  1
  Te  Te52  1  0.50190318  0.25401812  0.00004411  1
  Te  Te53  1  0.50049300  0.25335160  0.50100640  1
  Te  Te54  1  0.50129336  0.74532949  -0.00057408  1
  Te  Te55  1  0.50360437  0.74633274  0.50119938  1
  Te  Te56  1  0.00035598  0.00094779  0.24939196  1
  Te  Te57  1  -0.00441149  0.00237673  0.75063172  1
  Te  Te58  1  0.00983899  0.49959621  0.24989630  1
  Te  Te59  1  0.00041916  0.49959340  0.74921243  1
  Te  Te60  1  0.49979656  -0.00007984  0.24969603  1
  Te  Te61  1  0.50468188  0.00947729  0.75039132  1
  Te  Te62  1  0.49714711  0.50003214  0.25072110  1
  Te  Te63  1  0.49912625  0.49462106  0.75016137  1
