# generated using pymatgen
data_AgSbTe2
_symmetry_space_group_name_H-M   'P 1'
_cell_length_a   12.22084400
_cell_length_b   12.22187302
_cell_length_c   12.21581987
_cell_angle_alpha   90.00309581
_cell_angle_beta   89.99780397
_cell_angle_gamma   89.99841151
_symmetry_Int_Tables_number   1
_chemical_formula_structural   AgSbTe2
_chemical_formula_sum   'Ag16 Sb16 Te32'
_cell_volume   1824.57444087
_cell_formula_units_Z   16
loop_
 _symmetry_equiv_pos_site_id
 _symmetry_equiv_pos_as_xyz
  1  'x, y, z'
loop_
 _atom_site_type_symbol
 _atom_site_label
 _atom_site_symmetry_multiplicity
 _atom_site_fract_x
 _atom_site_fract_y
 _atom_site_fract_z
 _atom_site_occupancy
  Ag  Ag0  1  -0.00517765  0.49739087  0.49736117  1
  Ag  Ag1  1  0.49597797  0.00036478  0.00803163  1
  Ag  Ag2  1  0.74251885  0.00512217  0.25476489  1
  Ag  Ag3  1  0.49894906  0.24342024  0.25402154  1
  Ag  Ag4  1  0.25228293  0.24702608  0.49123813  1
  Ag  Ag5  1  0.49935747  0.00034719  0.49250903  1
  Ag  Ag6  1  0.74969233  0.49540753  0.25879603  1
  Ag  Ag7  1  0.25505099  0.75294018  0.49703063  1
  Ag  Ag8  1  0.25299473  0.24523317  0.00929016  1
  Ag  Ag9  1  0.74632272  0.74652729  0.49820035  1
  Ag  Ag10  1  0.50011566  0.75091082  0.74609431  1
  Ag  Ag11  1  0.25452331  0.75440266  0.00339778  1
  Ag  Ag12  1  0.74843751  0.25368710  0.49250156  1
  Ag  Ag13  1  0.00047910  0.25021843  0.25419015  1
  Ag  Ag14  1  0.25715748  0.00548877  0.25133311  1
  Ag  Ag15  1  0.74855066  0.50057414  0.74091851  1
  Sb  Sb16  1  0.74596918  0.24806511  0.00957913  1
  Sb  Sb17  1  0.50705684  0.50084651  0.49804915  1
  Sb  Sb18  1  -0.00122710  0.74729293  0.74712036  1
  Sb  Sb19  1  -0.00131816  0.25333690  0.74546401  1
  Sb  Sb20  1  0.00099110  0.00309456  0.49588278  1
  Sb  Sb21  1  0.49951335  0.50034230  0.00258257  1
  Sb  Sb22  1  -0.00029325  0.49757567  0.00408446  1
  Sb  Sb23  1  0.25249156  0.50120558  0.74598494  1
  Sb  Sb24  1  0.50148280  0.25004382  0.74635201  1
  Sb  Sb25  1  0.00545974  0.00193112  0.00523013  1
  Sb  Sb26  1  0.00111311  0.74803636  0.25246387  1
  Sb  Sb27  1  0.74445037  0.75252298  0.00169530  1
  Sb  Sb28  1  0.25179750  0.49365739  0.25385486  1
  Sb  Sb29  1  0.74551069  -0.00074770  0.74264199  1
  Sb  Sb30  1  0.25287470  -0.00093167  0.74746304  1
  Sb  Sb31  1  0.49913855  0.75813710  0.25408734  1
  Te  Te32  1  0.25202794  0.25005940  0.25267333  1
  Te  Te33  1  0.25012313  0.25080785  0.74841882  1
  Te  Te34  1  0.24989208  0.75371340  0.25282877  1
  Te  Te35  1  0.25447003  0.74910584  0.74678299  1
  Te  Te36  1  0.74886666  0.24844459  0.25185447  1
  Te  Te37  1  0.74998671  0.25457994  0.74267084  1
  Te  Te38  1  0.75008133  0.75039915  0.25414725  1
  Te  Te39  1  0.74700175  0.74756953  0.74575266  1
  Te  Te40  1  0.25379582  0.00067150  0.00324325  1
  Te  Te41  1  0.25130621  0.00005620  0.49759877  1
  Te  Te42  1  0.24915685  0.50092326  -0.00075458  1
  Te  Te43  1  0.24410482  0.50074674  0.49959864  1
  Te  Te44  1  0.74306801  -0.00057157  0.00744897  1
  Te  Te45  1  0.74840648  -0.00005405  0.49615538  1
  Te  Te46  1  0.75128788  0.50044999  0.00055075  1
  Te  Te47  1  0.74973562  0.49981520  0.49759280  1
  Te  Te48  1  0.00809002  0.25009089  0.00620226  1
  Te  Te49  1  0.00045033  0.25254393  0.49624900  1
  Te  Te50  1  0.01108732  0.74977581  -0.00067131  1
  Te  Te51  1  0.00027176  0.74462339  0.50003000  1
  Te  Te52  1  0.49538114  0.24533776  0.00164518  1
  Te  Te53  1  0.49901257  0.24681293  0.49898839  1
  Te  Te54  1  0.49498361  0.75402403  -0.00344406  1
  Te  Te55  1  0.49873582  0.75245325  0.50088145  1
  Te  Te56  1  -0.00013732  0.00649534  0.25000771  1
  Te  Te57  1  -0.00170800  0.00045935  0.75200447  1
  Te  Te58  1  -0.00594043  0.49506658  0.25424098  1
  Te  Te59  1  -0.00852540  0.49946642  0.74324250  1
  Te  Te60  1  0.49885237  0.00166744  0.25204820  1
  Te  Te61  1  0.50099116  -0.00471973  0.74941768  1
  Te  Te62  1  0.50648334  0.49002468  0.24927129  1
  Te  Te63  1  0.50641628  0.50569058  0.75110820  1
