# generated using pymatgen
data_AgSbTe2
_symmetry_space_group_name_H-M   'P 1'
_cell_length_a   12.21692363
_cell_length_b   12.21433081
_cell_length_c   12.22163633
_cell_angle_alpha   89.99442831
_cell_angle_beta   90.00866260
_cell_angle_gamma   90.00956242
_symmetry_Int_Tables_number   1
_chemical_formula_structural   AgSbTe2
_chemical_formula_sum   'Ag16 Sb16 Te32'
_cell_volume   1823.73142139
_cell_formula_units_Z   16
loop_
 _symmetry_equiv_pos_site_id
 _symmetry_equiv_pos_as_xyz
  1  'x, y, z'
loop_
 _atom_site_type_symbol
 _atom_site_label
 _atom_site_symmetry_multiplicity
 _atom_site_fract_x
 _atom_site_fract_y
 _atom_site_fract_z
 _atom_site_occupancy
  Ag  Ag0  1  0.24659495  0.49310205  0.75070276  1
  Ag  Ag1  1  0.24459982  0.24822396  0.50862909  1
  Ag  Ag2  1  -0.00302976  -0.00104678  -0.00477292  1
  Ag  Ag3  1  -0.00168015  -0.00085396  0.50458500  1
  Ag  Ag4  1  0.50701724  0.75278177  0.24564117  1
  Ag  Ag5  1  0.24294374  0.00682880  0.75272271  1
  Ag  Ag6  1  0.49913738  0.50226554  -0.00038850  1
  Ag  Ag7  1  0.75462820  0.75462432  0.49551006  1
  Ag  Ag8  1  0.75642575  -0.00140294  0.75395614  1
  Ag  Ag9  1  0.74918872  0.75734031  0.00448924  1
  Ag  Ag10  1  0.00645917  0.24392071  0.74881728  1
  Ag  Ag11  1  0.75325470  -0.00784603  0.24649244  1
  Ag  Ag12  1  0.50324952  -0.00303639  -0.00020156  1
  Ag  Ag13  1  0.24822002  0.24620175  -0.00824401  1
  Ag  Ag14  1  -0.00736478  0.75473801  0.25116950  1
  Ag  Ag15  1  0.00147633  0.50066990  0.50259394  1
  Sb  Sb16  1  0.75084784  0.50922704  0.24963539  1
  Sb  Sb17  1  0.00098710  0.50134356  -0.00259254  1
  Sb  Sb18  1  0.50182460  0.75143773  0.75480909  1
  Sb  Sb19  1  0.49209748  0.24856593  0.75174529  1
  Sb  Sb20  1  0.50113130  -0.00240159  0.50008918  1
  Sb  Sb21  1  0.75230233  0.24153947  -0.00252440  1
  Sb  Sb22  1  -0.00150055  0.75786487  0.74950456  1
  Sb  Sb23  1  0.24912462  0.49994330  0.24851414  1
  Sb  Sb24  1  0.50067502  0.24702575  0.24686137  1
  Sb  Sb25  1  0.24751171  -0.00021982  0.24759611  1
  Sb  Sb26  1  0.75554349  0.24546345  0.50293070  1
  Sb  Sb27  1  -0.00014693  0.24587943  0.25095613  1
  Sb  Sb28  1  0.25053049  0.75355674  -0.00070146  1
  Sb  Sb29  1  0.49807070  0.50345280  0.50092528  1
  Sb  Sb30  1  0.24469431  0.75175292  0.50071398  1
  Sb  Sb31  1  0.75303516  0.50015561  0.75091004  1
  Te  Te32  1  0.24989247  0.25016268  0.24967113  1
  Te  Te33  1  0.24738221  0.24771935  0.75072240  1
  Te  Te34  1  0.25028704  0.75014021  0.25095960  1
  Te  Te35  1  0.25058100  0.75030406  0.74906364  1
  Te  Te36  1  0.74990428  0.23926209  0.25034744  1
  Te  Te37  1  0.75836711  0.24379112  0.74943784  1
  Te  Te38  1  0.75136225  0.75327041  0.24869271  1
  Te  Te39  1  0.74962435  0.75527068  0.75047625  1
  Te  Te40  1  0.24872739  0.00220881  -0.00279079  1
  Te  Te41  1  0.24703598  0.00241901  0.50425192  1
  Te  Te42  1  0.25223823  0.49651643  -0.00399235  1
  Te  Te43  1  0.24618381  0.49769773  0.50467200  1
  Te  Te44  1  0.75108513  -0.00123450  -0.00164832  1
  Te  Te45  1  0.75215047  -0.00234534  0.50130110  1
  Te  Te46  1  0.74525044  0.50627865  -0.00164730  1
  Te  Te47  1  0.75502499  0.50436565  0.50140952  1
  Te  Te48  1  0.00362878  0.24741027  -0.00204923  1
  Te  Te49  1  0.00340333  0.24797034  0.50079319  1
  Te  Te50  1  -0.00300690  0.75330953  0.00451524  1
  Te  Te51  1  -0.00295067  0.75286234  0.49706823  1
  Te  Te52  1  0.49513697  0.24880824  0.00096394  1
  Te  Te53  1  0.49077877  0.25151637  0.49907574  1
  Te  Te54  1  0.50148557  0.75318479  0.00348228  1
  Te  Te55  1  0.50719518  0.74903090  0.49160883  1
  Te  Te56  1  -0.00212635  -0.00348322  0.25017525  1
  Te  Te57  1  0.00108001  0.00052046  0.75037368  1
  Te  Te58  1  -0.00006045  0.50620761  0.25540615  1
  Te  Te59  1  0.00380605  0.49444027  0.74691253  1
  Te  Te60  1  0.50320670  -0.00395505  0.24575028  1
  Te  Te61  1  0.50005557  0.00013708  0.75509529  1
  Te  Te62  1  0.50003373  0.50535823  0.24378407  1
  Te  Te63  1  0.49538706  0.49975664  0.75504256  1
