# generated using pymatgen
data_AgSbTe2
_symmetry_space_group_name_H-M   'P 1'
_cell_length_a   12.21417320
_cell_length_b   12.21856175
_cell_length_c   12.21981139
_cell_angle_alpha   90.00036165
_cell_angle_beta   90.00122638
_cell_angle_gamma   89.99626145
_symmetry_Int_Tables_number   1
_chemical_formula_structural   AgSbTe2
_chemical_formula_sum   'Ag16 Sb16 Te32'
_cell_volume   1823.68011918
_cell_formula_units_Z   16
loop_
 _symmetry_equiv_pos_site_id
 _symmetry_equiv_pos_as_xyz
  1  'x, y, z'
loop_
 _atom_site_type_symbol
 _atom_site_label
 _atom_site_symmetry_multiplicity
 _atom_site_fract_x
 _atom_site_fract_y
 _atom_site_fract_z
 _atom_site_occupancy
  Ag  Ag0  1  0.74898001  -0.00057278  0.24395985  1
  Ag  Ag1  1  0.25151949  0.25191047  0.00399300  1
  Ag  Ag2  1  0.49897240  0.50290022  0.49343611  1
  Ag  Ag3  1  0.50655068  0.25616146  0.24933911  1
  Ag  Ag4  1  0.50434621  0.74282803  0.25158170  1
  Ag  Ag5  1  0.74874741  0.75463709  0.00703381  1
  Ag  Ag6  1  0.25472464  0.74511232  0.49713665  1
  Ag  Ag7  1  0.74576400  0.25085435  0.49171007  1
  Ag  Ag8  1  0.74852910  0.24488670  0.00732415  1
  Ag  Ag9  1  0.74865672  -0.00142029  0.75618200  1
  Ag  Ag10  1  0.74247901  0.50023465  0.24942707  1
  Ag  Ag11  1  0.50133058  0.74716585  0.74905723  1
  Ag  Ag12  1  -0.00718348  -0.00083667  0.00258542  1
  Ag  Ag13  1  -0.00501159  0.74991016  0.24803511  1
  Ag  Ag14  1  0.25762716  0.50207236  0.25110314  1
  Ag  Ag15  1  0.25505857  0.50225467  0.74953968  1
  Sb  Sb16  1  -0.00691247  0.24957445  0.24759946  1
  Sb  Sb17  1  0.25447966  0.25507516  0.49554089  1
  Sb  Sb18  1  -0.00129995  0.50109462  0.00260465  1
  Sb  Sb19  1  0.50068314  0.49989917  0.00868682  1
  Sb  Sb20  1  0.50131352  0.25359372  0.75101915  1
  Sb  Sb21  1  -0.00178369  0.75149196  0.75184346  1
  Sb  Sb22  1  0.25254406  -0.00188116  0.75379385  1
  Sb  Sb23  1  0.50843633  -0.00025919  0.00125766  1
  Sb  Sb24  1  -0.00383802  -0.00259362  0.49654952  1
  Sb  Sb25  1  0.25155599  0.74832692  0.00308786  1
  Sb  Sb26  1  0.74545012  0.74824498  0.49239173  1
  Sb  Sb27  1  0.00005591  0.50208091  0.49706583  1
  Sb  Sb28  1  0.25126197  -0.00075061  0.24744638  1
  Sb  Sb29  1  0.74417457  0.50197465  0.75048836  1
  Sb  Sb30  1  -0.00070866  0.24915369  0.75201639  1
  Sb  Sb31  1  0.50187247  -0.00253017  0.49803618  1
  Te  Te32  1  0.25369970  0.25261550  0.24798617  1
  Te  Te33  1  0.25117699  0.25396023  0.75348356  1
  Te  Te34  1  0.25396722  0.74798135  0.24926808  1
  Te  Te35  1  0.25369047  0.74708352  0.74979760  1
  Te  Te36  1  0.74946898  0.25084283  0.24695885  1
  Te  Te37  1  0.74830635  0.24721905  0.75424079  1
  Te  Te38  1  0.74695954  0.74916219  0.25044217  1
  Te  Te39  1  0.74677430  0.75151545  0.75305390  1
  Te  Te40  1  0.24117984  0.00678977  -0.00115012  1
  Te  Te41  1  0.24854583  -0.00573632  0.50157195  1
  Te  Te42  1  0.24857201  0.49543877  0.00193550  1
  Te  Te43  1  0.25309330  0.50212384  0.49646726  1
  Te  Te44  1  0.75154009  0.00025151  0.00237705  1
  Te  Te45  1  0.75087098  0.00521930  0.49882461  1
  Te  Te46  1  0.75138814  0.49947728  0.00324961  1
  Te  Te47  1  0.74631683  0.49662822  0.49736105  1
  Te  Te48  1  -0.00215673  0.24521867  0.00121717  1
  Te  Te49  1  -0.00789643  0.24955820  0.50023190  1
  Te  Te50  1  -0.00402291  0.75378541  0.00372815  1
  Te  Te51  1  0.00713198  0.74997951  0.49457039  1
  Te  Te52  1  0.50158167  0.24967481  0.00439748  1
  Te  Te53  1  0.50379775  0.25459797  0.49555592  1
  Te  Te54  1  0.50391887  0.75000568  0.00113763  1
  Te  Te55  1  0.49780722  0.74656555  0.49732109  1
  Te  Te56  1  -0.00450696  -0.00547153  0.24628916  1
  Te  Te57  1  -0.00693376  -0.00092874  0.75569382  1
  Te  Te58  1  0.00017988  0.50665351  0.25004378  1
  Te  Te59  1  0.01009679  0.50091318  0.74918915  1
  Te  Te60  1  0.50477883  -0.00007469  0.25105194  1
  Te  Te61  1  0.50528184  -0.00734550  0.74869260  1
  Te  Te62  1  0.50081327  0.50109824  0.25198747  1
  Te  Te63  1  0.49620226  0.50460317  0.74215203  1
