# generated using pymatgen
data_AgSbTe2
_symmetry_space_group_name_H-M   'P 1'
_cell_length_a   12.20477292
_cell_length_b   12.20070682
_cell_length_c   12.20405830
_cell_angle_alpha   90.00030104
_cell_angle_beta   89.99681067
_cell_angle_gamma   89.99124353
_symmetry_Int_Tables_number   1
_chemical_formula_structural   AgSbTe2
_chemical_formula_sum   'Ag16 Sb16 Te32'
_cell_volume   1817.26792975
_cell_formula_units_Z   16
loop_
 _symmetry_equiv_pos_site_id
 _symmetry_equiv_pos_as_xyz
  1  'x, y, z'
loop_
 _atom_site_type_symbol
 _atom_site_label
 _atom_site_symmetry_multiplicity
 _atom_site_fract_x
 _atom_site_fract_y
 _atom_site_fract_z
 _atom_site_occupancy
  Ag  Ag0  1  0.74573108  0.25248795  0.00033541  1
  Ag  Ag1  1  0.50151760  0.75154764  0.75177320  1
  Ag  Ag2  1  0.25386724  0.00344876  0.75103316  1
  Ag  Ag3  1  -0.00358577  0.74634101  0.24894073  1
  Ag  Ag4  1  0.50166493  -0.00000842  0.50230092  1
  Ag  Ag5  1  -0.00072769  0.50067457  0.49835599  1
  Ag  Ag6  1  0.00085999  0.25144178  0.75412182  1
  Ag  Ag7  1  0.74945623  0.75054576  0.49832577  1
  Ag  Ag8  1  0.49817708  0.24811275  0.75702394  1
  Ag  Ag9  1  0.50086534  0.25080375  0.24341565  1
  Ag  Ag10  1  0.24869917  0.49866217  0.24609852  1
  Ag  Ag11  1  0.74838940  -0.00137356  0.24902299  1
  Ag  Ag12  1  0.74899197  0.74795385  0.00203319  1
  Ag  Ag13  1  -0.00032381  0.49794061  0.00193276  1
  Ag  Ag14  1  0.50061811  0.49450712  0.00052727  1
  Ag  Ag15  1  0.25387569  0.25351508  -0.00211864  1
  Sb  Sb16  1  -0.00143093  0.74865192  0.75136303  1
  Sb  Sb17  1  0.25230836  0.74611264  0.00003908  1
  Sb  Sb18  1  0.25094929  0.74887929  0.50028131  1
  Sb  Sb19  1  0.25276004  0.00237154  0.24902465  1
  Sb  Sb20  1  -0.00128579  0.00232996  -0.00012890  1
  Sb  Sb21  1  0.50073770  0.00715756  -0.00278795  1
  Sb  Sb22  1  0.74930938  0.24981017  0.49819770  1
  Sb  Sb23  1  0.75140178  0.50129832  0.24653595  1
  Sb  Sb24  1  -0.00231859  -0.00118275  0.50005150  1
  Sb  Sb25  1  0.74927106  0.49881164  0.75322967  1
  Sb  Sb26  1  0.50124787  0.50040189  0.49922518  1
  Sb  Sb27  1  0.50482043  0.75002573  0.24723208  1
  Sb  Sb28  1  0.74526901  0.00083317  0.75003114  1
  Sb  Sb29  1  -0.00102953  0.25459095  0.24537596  1
  Sb  Sb30  1  0.25055257  0.49571165  0.75444756  1
  Sb  Sb31  1  0.25024022  0.25071105  0.50294339  1
  Te  Te32  1  0.25334162  0.25168328  0.24454330  1
  Te  Te33  1  0.25247211  0.24755166  0.75369040  1
  Te  Te34  1  0.24351980  0.74671203  0.24871624  1
  Te  Te35  1  0.25574613  0.75649604  0.75115416  1
  Te  Te36  1  0.74687441  0.24515302  0.24596837  1
  Te  Te37  1  0.74869844  0.24787012  0.75592453  1
  Te  Te38  1  0.75198076  0.75361909  0.24770042  1
  Te  Te39  1  0.74552407  0.75230316  0.75176126  1
  Te  Te40  1  0.24949147  0.00705246  -0.00405886  1
  Te  Te41  1  0.25627574  -0.00025260  0.50402592  1
  Te  Te42  1  0.24988613  0.49604241  0.00331055  1
  Te  Te43  1  0.24409835  0.50033369  0.49240205  1
  Te  Te44  1  0.75032564  -0.00097731  0.00550413  1
  Te  Te45  1  0.74625759  -0.00456568  0.49554169  1
  Te  Te46  1  0.74971746  0.49944981  0.00134571  1
  Te  Te47  1  0.75513671  0.50662172  0.49845611  1
  Te  Te48  1  -0.00130159  0.25471296  -0.00239238  1
  Te  Te49  1  -0.00164707  0.25566943  0.50570802  1
  Te  Te50  1  -0.00494150  0.74373900  0.00090035  1
  Te  Te51  1  -0.00569056  0.74628816  0.49921691  1
  Te  Te52  1  0.50171148  0.25120477  -0.00153980  1
  Te  Te53  1  0.50178408  0.24820157  0.50161832  1
  Te  Te54  1  0.50394305  0.74411755  -0.00280073  1
  Te  Te55  1  0.50530771  0.75137145  0.50360060  1
  Te  Te56  1  -0.00374279  -0.00607141  0.25181439  1
  Te  Te57  1  0.00635966  0.00557274  0.74815570  1
  Te  Te58  1  0.00334133  0.50187159  0.24771419  1
  Te  Te59  1  0.00217434  0.49555352  0.75145001  1
  Te  Te60  1  0.50159827  0.00284645  0.25559828  1
  Te  Te61  1  0.49761125  0.00188005  0.74652540  1
  Te  Te62  1  0.49525873  0.49639302  0.24735697  1
  Te  Te63  1  0.49800777  0.49844074  0.75290380  1
