# generated using pymatgen
data_AgSbTe2
_symmetry_space_group_name_H-M   'P 1'
_cell_length_a   12.22845630
_cell_length_b   12.23219132
_cell_length_c   12.23115793
_cell_angle_alpha   89.99830888
_cell_angle_beta   90.00702998
_cell_angle_gamma   90.00398378
_symmetry_Int_Tables_number   1
_chemical_formula_structural   AgSbTe2
_chemical_formula_sum   'Ag16 Sb16 Te32'
_cell_volume   1829.54657705
_cell_formula_units_Z   16
loop_
 _symmetry_equiv_pos_site_id
 _symmetry_equiv_pos_as_xyz
  1  'x, y, z'
loop_
 _atom_site_type_symbol
 _atom_site_label
 _atom_site_symmetry_multiplicity
 _atom_site_fract_x
 _atom_site_fract_y
 _atom_site_fract_z
 _atom_site_occupancy
  Ag  Ag0  1  0.75712620  0.25463663  -0.00273972  1
  Ag  Ag1  1  0.74850784  0.49825058  0.24243543  1
  Ag  Ag2  1  0.50389639  0.74694142  0.24846578  1
  Ag  Ag3  1  0.75255680  0.25134241  0.50158961  1
  Ag  Ag4  1  -0.00624760  0.25291115  0.75712872  1
  Ag  Ag5  1  -0.00498464  0.00886128  0.00085264  1
  Ag  Ag6  1  0.24328601  0.25654626  0.00097757  1
  Ag  Ag7  1  0.25117724  0.49730900  0.23996628  1
  Ag  Ag8  1  0.50208594  0.49776752  0.00309925  1
  Ag  Ag9  1  0.75344061  0.00723698  0.75457380  1
  Ag  Ag10  1  0.75321145  0.49290882  0.75773824  1
  Ag  Ag11  1  0.24717155  0.49572910  0.76066067  1
  Ag  Ag12  1  0.75100954  0.00161096  0.24607593  1
  Ag  Ag13  1  0.24907144  0.00209948  0.24438461  1
  Ag  Ag14  1  0.74864458  0.74825648  0.49697661  1
  Ag  Ag15  1  -0.00236562  0.49115879  -0.00157787  1
  Sb  Sb16  1  0.50274102  0.25376690  0.24721732  1
  Sb  Sb17  1  -0.00367797  0.49703965  0.50128665  1
  Sb  Sb18  1  0.50361012  -0.00070062  0.49766516  1
  Sb  Sb19  1  0.25166125  0.74858758  0.49661176  1
  Sb  Sb20  1  0.50390216  0.50089668  0.49611557  1
  Sb  Sb21  1  0.74973471  0.74391786  0.00349856  1
  Sb  Sb22  1  0.50380398  0.74607624  0.75262128  1
  Sb  Sb23  1  0.50811069  0.25271502  0.75259869  1
  Sb  Sb24  1  0.25039899  0.74198568  0.00228610  1
  Sb  Sb25  1  0.50491193  0.00289094  0.00278947  1
  Sb  Sb26  1  -0.00410822  0.74897505  0.24885101  1
  Sb  Sb27  1  0.24564974  0.25127218  0.49967507  1
  Sb  Sb28  1  0.24458275  0.00628460  0.75930326  1
  Sb  Sb29  1  -0.00311496  0.25067846  0.24107942  1
  Sb  Sb30  1  -0.00371800  0.00293371  0.49856686  1
  Sb  Sb31  1  -0.00319102  0.74653818  0.75191425  1
  Te  Te32  1  0.25059982  0.25160656  0.24837847  1
  Te  Te33  1  0.24541843  0.25311908  0.75128598  1
  Te  Te34  1  0.25483383  0.74921848  0.25218924  1
  Te  Te35  1  0.25106869  0.74269833  0.74623625  1
  Te  Te36  1  0.75021787  0.25041406  0.24809974  1
  Te  Te37  1  0.75116808  0.25180163  0.75407596  1
  Te  Te38  1  0.74781377  0.74961746  0.25299818  1
  Te  Te39  1  0.74898349  0.74914154  0.74283203  1
  Te  Te40  1  0.24794548  0.00599468  0.00253847  1
  Te  Te41  1  0.24921323  0.00091299  0.49042121  1
  Te  Te42  1  0.24772833  0.49812399  0.00159578  1
  Te  Te43  1  0.25000334  0.49876867  0.49759997  1
  Te  Te44  1  0.75055593  0.00266274  0.00207455  1
  Te  Te45  1  0.75136288  0.00307485  0.49702262  1
  Te  Te46  1  0.75242105  0.49998141  0.00118230  1
  Te  Te47  1  0.75025892  0.49747310  0.49865996  1
  Te  Te48  1  -0.00146719  0.25160142  -0.00206593  1
  Te  Te49  1  -0.00707873  0.24995523  0.51300902  1
  Te  Te50  1  0.00098224  0.75174626  -0.00053202  1
  Te  Te51  1  -0.00924463  0.75085412  0.50057047  1
  Te  Te52  1  0.49881534  0.25613033  -0.00024591  1
  Te  Te53  1  0.51042809  0.24963552  0.50091763  1
  Te  Te54  1  0.49903958  0.74177194  0.00580520  1
  Te  Te55  1  0.50679794  0.75023491  0.49269492  1
  Te  Te56  1  -0.00162168  -0.00051277  0.24416284  1
  Te  Te57  1  -0.00350919  0.00288932  0.75605629  1
  Te  Te58  1  -0.00000276  0.50026843  0.24448966  1
  Te  Te59  1  -0.00238148  0.49828957  0.75339215  1
  Te  Te60  1  0.50158554  -0.00621535  0.24833016  1
  Te  Te61  1  0.50718511  -0.00220425  0.75045187  1
  Te  Te62  1  0.50154863  0.50237384  0.24669351  1
  Te  Te63  1  0.50044518  0.50114699  0.75639144  1
