# generated using pymatgen
data_AgSbTe2
_symmetry_space_group_name_H-M   'P 1'
_cell_length_a   12.32859410
_cell_length_b   12.32510293
_cell_length_c   12.31324991
_cell_angle_alpha   90.00238703
_cell_angle_beta   90.00186472
_cell_angle_gamma   89.98587554
_symmetry_Int_Tables_number   1
_chemical_formula_structural   AgSbTe2
_chemical_formula_sum   'Ag16 Sb16 Te32'
_cell_volume   1871.01293148
_cell_formula_units_Z   16
loop_
 _symmetry_equiv_pos_site_id
 _symmetry_equiv_pos_as_xyz
  1  'x, y, z'
loop_
 _atom_site_type_symbol
 _atom_site_label
 _atom_site_symmetry_multiplicity
 _atom_site_fract_x
 _atom_site_fract_y
 _atom_site_fract_z
 _atom_site_occupancy
  Ag  Ag0  1  0.26707929  0.51278599  0.74392709  1
  Ag  Ag1  1  0.25704419  0.75755411  0.50710254  1
  Ag  Ag2  1  0.49149769  0.74376579  0.26545210  1
  Ag  Ag3  1  0.73973310  0.50572281  0.25683101  1
  Ag  Ag4  1  0.25473490  -0.01251510  0.73775810  1
  Ag  Ag5  1  0.25228711  -0.01053229  0.26865253  1
  Ag  Ag6  1  0.00738389  0.25572024  0.74466868  1
  Ag  Ag7  1  0.49984657  0.50456972  -0.02194183  1
  Ag  Ag8  1  0.73144489  0.50334929  0.74667741  1
  Ag  Ag9  1  0.48574506  -0.01610860  0.50947427  1
  Ag  Ag10  1  0.49447879  0.27037157  0.74506885  1
  Ag  Ag11  1  0.49570515  0.51475925  0.51427362  1
  Ag  Ag12  1  0.48513272  0.73349164  0.73369687  1
  Ag  Ag13  1  0.01732827  -0.01155039  0.50617383  1
  Ag  Ag14  1  0.01099206  0.75251550  0.26455717  1
  Ag  Ag15  1  0.01471317  0.74815013  0.73638325  1
  Sb  Sb16  1  0.74390746  0.74847053  0.50056182  1
  Sb  Sb17  1  0.00311511  0.50163960  -0.00473451  1
  Sb  Sb18  1  0.00423281  -0.00145903  -0.00513746  1
  Sb  Sb19  1  0.49863259  0.25182584  0.25571399  1
  Sb  Sb20  1  0.74808385  -0.00397711  0.74757914  1
  Sb  Sb21  1  0.49650973  -0.00274212  -0.00674266  1
  Sb  Sb22  1  0.00115675  0.24853273  0.25825787  1
  Sb  Sb23  1  0.25147559  0.25086854  -0.00397417  1
  Sb  Sb24  1  0.74939217  0.74693898  -0.00082138  1
  Sb  Sb25  1  0.74960812  0.25295984  0.50241709  1
  Sb  Sb26  1  0.25116302  0.24385653  0.50322891  1
  Sb  Sb27  1  0.25044419  0.74963320  -0.00767640  1
  Sb  Sb28  1  0.74802301  0.25555267  -0.00403470  1
  Sb  Sb29  1  0.74809133  -0.00614839  0.25622319  1
  Sb  Sb30  1  0.00548045  0.50911065  0.50440608  1
  Sb  Sb31  1  0.25467853  0.51020752  0.25669825  1
  Te  Te32  1  0.24667133  0.23402902  0.24941609  1
  Te  Te33  1  0.24991924  0.24894185  0.74690005  1
  Te  Te34  1  0.25055799  0.75368956  0.25337203  1
  Te  Te35  1  0.25092577  0.75222623  0.74785696  1
  Te  Te36  1  0.75194634  0.26381615  0.24888616  1
  Te  Te37  1  0.74857400  0.25676388  0.74942014  1
  Te  Te38  1  0.74862053  0.74387325  0.24995289  1
  Te  Te39  1  0.75193078  0.74536592  0.75032942  1
  Te  Te40  1  0.24909577  -0.00052682  -0.00187347  1
  Te  Te41  1  0.25313306  -0.00216808  0.50375439  1
  Te  Te42  1  0.25339013  0.50084800  -0.00875608  1
  Te  Te43  1  0.25279164  0.50748477  0.50418512  1
  Te  Te44  1  0.75101079  0.00176229  0.00193465  1
  Te  Te45  1  0.74584029  0.00123310  0.49979892  1
  Te  Te46  1  0.74491552  0.50136603  -0.00441886  1
  Te  Te47  1  0.74334917  0.50151008  0.50161906  1
  Te  Te48  1  0.00000611  0.25025135  -0.01462797  1
  Te  Te49  1  0.00009647  0.23833681  0.50594589  1
  Te  Te50  1  -0.00022257  0.74952742  0.00366629  1
  Te  Te51  1  0.00295227  0.75195928  0.50017817  1
  Te  Te52  1  0.49998844  0.25386930  -0.00731208  1
  Te  Te53  1  0.49980292  0.24909888  0.50265340  1
  Te  Te54  1  0.49929502  0.74795076  0.00324246  1
  Te  Te55  1  0.49897617  0.75234095  0.49994458  1
  Te  Te56  1  -0.00296439  -0.00153988  0.25119100  1
  Te  Te57  1  -0.00475818  -0.00971279  0.74920263  1
  Te  Te58  1  0.00233163  0.50018945  0.24949029  1
  Te  Te59  1  0.00194060  0.50544062  0.74895042  1
  Te  Te60  1  0.50172889  0.00237009  0.24847890  1
  Te  Te61  1  0.50179525  -0.00704011  0.74879768  1
  Te  Te62  1  0.49767475  0.49925088  0.25781076  1
  Te  Te63  1  0.49954271  0.50017213  0.74928957  1
