# generated using pymatgen
data_AgSbTe2
_symmetry_space_group_name_H-M   'P 1'
_cell_length_a   12.23791744
_cell_length_b   12.22000163
_cell_length_c   12.22543271
_cell_angle_alpha   89.99471146
_cell_angle_beta   89.99477068
_cell_angle_gamma   89.99946913
_symmetry_Int_Tables_number   1
_chemical_formula_structural   AgSbTe2
_chemical_formula_sum   'Ag16 Sb16 Te32'
_cell_volume   1828.28130529
_cell_formula_units_Z   16
loop_
 _symmetry_equiv_pos_site_id
 _symmetry_equiv_pos_as_xyz
  1  'x, y, z'
loop_
 _atom_site_type_symbol
 _atom_site_label
 _atom_site_symmetry_multiplicity
 _atom_site_fract_x
 _atom_site_fract_y
 _atom_site_fract_z
 _atom_site_occupancy
  Ag  Ag0  1  0.75127962  0.25266108  0.49780393  1
  Ag  Ag1  1  0.49682290  -0.00063998  0.00316259  1
  Ag  Ag2  1  0.75570621  0.74706726  0.49561867  1
  Ag  Ag3  1  0.24897921  0.24360985  0.00425368  1
  Ag  Ag4  1  0.00477119  0.24655789  0.25483324  1
  Ag  Ag5  1  0.49786231  0.24906681  0.74607767  1
  Ag  Ag6  1  0.24423196  0.74862422  0.49492366  1
  Ag  Ag7  1  0.00299817  -0.00263660  0.00547848  1
  Ag  Ag8  1  0.00060450  0.50425483  0.49777975  1
  Ag  Ag9  1  0.49937060  0.75281984  0.25395253  1
  Ag  Ag10  1  -0.00047225  0.75110239  0.74373487  1
  Ag  Ag11  1  0.24837127  0.25129883  0.49580727  1
  Ag  Ag12  1  0.00058755  0.75353793  0.25549502  1
  Ag  Ag13  1  0.75307177  0.75335393  0.00381421  1
  Ag  Ag14  1  0.24679502  0.00020654  0.24872228  1
  Ag  Ag15  1  0.49933463  0.50013327  0.49891439  1
  Sb  Sb16  1  0.24944845  0.50068522  0.25409855  1
  Sb  Sb17  1  0.49878814  0.50067189  0.00169874  1
  Sb  Sb18  1  0.00173823  -0.00549099  0.49474827  1
  Sb  Sb19  1  0.75143425  0.24779878  0.00201591  1
  Sb  Sb20  1  0.75321997  -0.00257851  0.24918740  1
  Sb  Sb21  1  0.75022310  0.50238764  0.25384229  1
  Sb  Sb22  1  0.24970211  0.50072149  0.74624033  1
  Sb  Sb23  1  0.49771412  -0.00062172  0.49661369  1
  Sb  Sb24  1  0.24821026  0.75574476  0.00610816  1
  Sb  Sb25  1  0.00115063  0.50235306  0.00243827  1
  Sb  Sb26  1  0.49560429  0.24683908  0.25288950  1
  Sb  Sb27  1  0.75056360  0.50051593  0.74575836  1
  Sb  Sb28  1  0.24926116  -0.00036296  0.75084686  1
  Sb  Sb29  1  0.75116021  -0.00079438  0.75019447  1
  Sb  Sb30  1  0.50028909  0.75138908  0.74703943  1
  Sb  Sb31  1  0.00122930  0.24825552  0.74467934  1
  Te  Te32  1  0.24762814  0.24569475  0.25307647  1
  Te  Te33  1  0.25331954  0.24906530  0.74630208  1
  Te  Te34  1  0.24835712  0.75407716  0.25270498  1
  Te  Te35  1  0.24575380  0.75101041  0.74187324  1
  Te  Te36  1  0.75682745  0.24839420  0.25568894  1
  Te  Te37  1  0.74527986  0.24956879  0.74419342  1
  Te  Te38  1  0.75148030  0.75106328  0.25337633  1
  Te  Te39  1  0.75358506  0.75026928  0.74714826  1
  Te  Te40  1  0.24964941  0.00335919  0.00386207  1
  Te  Te41  1  0.25048067  0.00135765  0.49463648  1
  Te  Te42  1  0.25078459  0.48688755  -0.00104153  1
  Te  Te43  1  0.24922535  0.49930236  0.49942463  1
  Te  Te44  1  0.74968745  -0.00503061  -0.00038745  1
  Te  Te45  1  0.74955542  -0.00029910  0.50047021  1
  Te  Te46  1  0.74898280  0.50917063  -0.00089089  1
  Te  Te47  1  0.75067982  0.50147615  0.49995698  1
  Te  Te48  1  -0.00028346  0.24965912  0.00131355  1
  Te  Te49  1  0.00176847  0.25098653  0.49979396  1
  Te  Te50  1  -0.00020162  0.74993037  0.00438461  1
  Te  Te51  1  -0.00035762  0.75136124  0.49640128  1
  Te  Te52  1  0.50015021  0.24888976  -0.00012296  1
  Te  Te53  1  0.49866359  0.25101868  0.49952135  1
  Te  Te54  1  0.50060390  0.75132540  0.00079350  1
  Te  Te55  1  0.50090099  0.74912662  0.49917560  1
  Te  Te56  1  0.00464864  -0.00069873  0.24578394  1
  Te  Te57  1  0.00060226  -0.00523211  0.76172011  1
  Te  Te58  1  0.00013997  0.50037603  0.25549069  1
  Te  Te59  1  0.00016702  0.50669081  0.74267605  1
  Te  Te60  1  0.49345343  -0.00490398  0.24488122  1
  Te  Te61  1  0.49908801  0.00461103  0.75950978  1
  Te  Te62  1  0.49988675  0.50899463  0.25640975  1
  Te  Te63  1  0.49944114  0.49396561  0.74310155  1
