# generated using pymatgen
data_AgSbTe2
_symmetry_space_group_name_H-M   'P 1'
_cell_length_a   12.30647209
_cell_length_b   12.32547774
_cell_length_c   12.30272010
_cell_angle_alpha   89.99436940
_cell_angle_beta   89.99848698
_cell_angle_gamma   89.99530528
_symmetry_Int_Tables_number   1
_chemical_formula_structural   AgSbTe2
_chemical_formula_sum   'Ag16 Sb16 Te32'
_cell_volume   1866.11529483
_cell_formula_units_Z   16
loop_
 _symmetry_equiv_pos_site_id
 _symmetry_equiv_pos_as_xyz
  1  'x, y, z'
loop_
 _atom_site_type_symbol
 _atom_site_label
 _atom_site_symmetry_multiplicity
 _atom_site_fract_x
 _atom_site_fract_y
 _atom_site_fract_z
 _atom_site_occupancy
  Ag  Ag0  1  0.24404413  0.49596359  0.76081685  1
  Ag  Ag1  1  -0.00691289  0.74574862  0.23871713  1
  Ag  Ag2  1  0.23666143  0.24653611  -0.00903746  1
  Ag  Ag3  1  -0.00228862  0.25137918  0.76511037  1
  Ag  Ag4  1  0.24448367  0.00680632  0.76022039  1
  Ag  Ag5  1  0.76132489  0.26068717  -0.00069852  1
  Ag  Ag6  1  0.50764199  0.49817764  -0.00182778  1
  Ag  Ag7  1  0.75694098  0.73781660  0.00298348  1
  Ag  Ag8  1  0.00444397  0.00752661  -0.00081222  1
  Ag  Ag9  1  0.75592849  0.25975026  0.50138615  1
  Ag  Ag10  1  0.24208608  0.75256131  -0.00310006  1
  Ag  Ag11  1  0.75118368  0.49447652  0.76250060  1
  Ag  Ag12  1  0.75502103  0.74085381  0.49926582  1
  Ag  Ag13  1  0.75284458  0.49904116  0.23482904  1
  Ag  Ag14  1  -0.00630152  0.25055529  0.23420270  1
  Ag  Ag15  1  0.49702279  0.00179799  -0.00210240  1
  Sb  Sb16  1  0.24152560  0.25184355  0.50525871  1
  Sb  Sb17  1  0.24185267  0.74817576  0.50138203  1
  Sb  Sb18  1  -0.00482527  0.49439522  -0.00059057  1
  Sb  Sb19  1  0.75259845  0.00453891  0.75578198  1
  Sb  Sb20  1  0.24565913  0.49790266  0.23441220  1
  Sb  Sb21  1  0.50165032  0.00071015  0.50670362  1
  Sb  Sb22  1  -0.00014570  0.00075278  0.50343443  1
  Sb  Sb23  1  0.50743224  0.25148756  0.24351945  1
  Sb  Sb24  1  0.50259562  0.74951677  0.75307222  1
  Sb  Sb25  1  0.50274452  0.25165334  0.75323131  1
  Sb  Sb26  1  -0.00222745  0.50070657  0.50062521  1
  Sb  Sb27  1  -0.00253979  0.74804283  0.75997258  1
  Sb  Sb28  1  0.24640262  0.00047112  0.23960360  1
  Sb  Sb29  1  0.50675615  0.74881246  0.24376556  1
  Sb  Sb30  1  0.50518812  0.49981984  0.50303848  1
  Sb  Sb31  1  0.75108815  0.00090828  0.24676698  1
  Te  Te32  1  0.23954693  0.25088152  0.25463220  1
  Te  Te33  1  0.24834908  0.25521569  0.74951419  1
  Te  Te34  1  0.24060396  0.75042794  0.24987631  1
  Te  Te35  1  0.24860416  0.74097029  0.75126466  1
  Te  Te36  1  0.75292178  0.24800574  0.24149425  1
  Te  Te37  1  0.75099163  0.25145633  0.75800703  1
  Te  Te38  1  0.75280602  0.75195842  0.24030928  1
  Te  Te39  1  0.75159229  0.74340648  0.75417014  1
  Te  Te40  1  0.24752454  0.00137658  -0.00106505  1
  Te  Te41  1  0.25346145  -0.00146088  0.51682902  1
  Te  Te42  1  0.25491657  0.50048527  -0.00065634  1
  Te  Te43  1  0.25528213  0.50148447  0.51743771  1
  Te  Te44  1  0.74996478  -0.00058502  -0.00188442  1
  Te  Te45  1  0.74813802  -0.00179329  0.50237780  1
  Te  Te46  1  0.75028671  0.49991814  -0.00162760  1
  Te  Te47  1  0.74976941  0.49953721  0.50544407  1
  Te  Te48  1  0.00050357  0.25018036  -0.00190818  1
  Te  Te49  1  -0.00480355  0.24939956  0.49771338  1
  Te  Te50  1  -0.00093843  0.75451179  0.00033451  1
  Te  Te51  1  -0.00591718  0.75087109  0.48727023  1
  Te  Te52  1  0.49965777  0.24903003  -0.00089957  1
  Te  Te53  1  0.51329106  0.24841944  0.49733221  1
  Te  Te54  1  0.50141823  0.75159588  -0.00123517  1
  Te  Te55  1  0.51182910  0.75164439  0.49822309  1
  Te  Te56  1  0.00024273  0.00560155  0.24479730  1
  Te  Te57  1  0.00183284  0.00470449  0.75339974  1
  Te  Te58  1  -0.00475269  0.49826695  0.25107561  1
  Te  Te59  1  -0.00185498  0.49539605  0.74967599  1
  Te  Te60  1  0.49783876  0.00000454  0.24042282  1
  Te  Te61  1  0.49168449  -0.00119298  0.75642676  1
  Te  Te62  1  0.50920146  0.49956383  0.24420597  1
  Te  Te63  1  0.50612729  0.50130215  0.75461018  1
