# generated using pymatgen
data_AgSbTe2
_symmetry_space_group_name_H-M   'P 1'
_cell_length_a   12.21703642
_cell_length_b   12.21700359
_cell_length_c   12.23137878
_cell_angle_alpha   90.00257726
_cell_angle_beta   90.00197723
_cell_angle_gamma   90.00191155
_symmetry_Int_Tables_number   1
_chemical_formula_structural   AgSbTe2
_chemical_formula_sum   'Ag16 Sb16 Te32'
_cell_volume   1825.60150392
_cell_formula_units_Z   16
loop_
 _symmetry_equiv_pos_site_id
 _symmetry_equiv_pos_as_xyz
  1  'x, y, z'
loop_
 _atom_site_type_symbol
 _atom_site_label
 _atom_site_symmetry_multiplicity
 _atom_site_fract_x
 _atom_site_fract_y
 _atom_site_fract_z
 _atom_site_occupancy
  Ag  Ag0  1  0.75106979  0.74341865  0.49990893  1
  Ag  Ag1  1  0.50825997  0.49260627  0.49884049  1
  Ag  Ag2  1  0.50096266  0.00780060  0.50012601  1
  Ag  Ag3  1  0.75106020  0.50094148  0.74184918  1
  Ag  Ag4  1  0.25048773  0.00518923  0.74883365  1
  Ag  Ag5  1  0.25127062  0.24643582  -0.00111130  1
  Ag  Ag6  1  0.75008092  0.49860460  0.25818124  1
  Ag  Ag7  1  -0.00250138  0.25203340  0.25491638  1
  Ag  Ag8  1  -0.00716290  0.74812927  0.25205767  1
  Ag  Ag9  1  0.00049466  0.24987438  0.74562347  1
  Ag  Ag10  1  0.50238324  0.25020021  0.25706696  1
  Ag  Ag11  1  0.74570005  0.25573076  0.49752841  1
  Ag  Ag12  1  0.49952617  0.00389573  -0.00064166  1
  Ag  Ag13  1  -0.00547693  0.74966293  0.74813304  1
  Ag  Ag14  1  0.25323367  0.24848730  0.50071801  1
  Ag  Ag15  1  0.75180554  0.74918420  0.00006040  1
  Sb  Sb16  1  0.24784432  0.49622471  0.74629584  1
  Sb  Sb17  1  0.50332883  0.49681972  0.00137278  1
  Sb  Sb18  1  0.50014813  0.24937565  0.74279069  1
  Sb  Sb19  1  0.25218183  0.00326231  0.25133688  1
  Sb  Sb20  1  0.50600002  0.75015032  0.74893983  1
  Sb  Sb21  1  0.24891667  0.75133155  0.50197514  1
  Sb  Sb22  1  0.00008118  0.00140408  -0.00145924  1
  Sb  Sb23  1  -0.00060519  0.00318578  0.50109179  1
  Sb  Sb24  1  -0.00237384  0.49947091  0.00031532  1
  Sb  Sb25  1  0.74883788  0.00184715  0.25166021  1
  Sb  Sb26  1  0.24898878  0.75295507  -0.00196279  1
  Sb  Sb27  1  -0.00860810  0.49712860  0.49988809  1
  Sb  Sb28  1  0.24966691  0.49644687  0.25346905  1
  Sb  Sb29  1  0.74882809  0.24968550  0.00087595  1
  Sb  Sb30  1  0.50643795  0.74851223  0.25173768  1
  Sb  Sb31  1  0.75005389  -0.00001537  0.74766751  1
  Te  Te32  1  0.24699816  0.25071531  0.25262974  1
  Te  Te33  1  0.24569217  0.24860410  0.74774281  1
  Te  Te34  1  0.23779602  0.74888312  0.24930113  1
  Te  Te35  1  0.23957211  0.75325203  0.75022623  1
  Te  Te36  1  0.75235448  0.25235909  0.25108935  1
  Te  Te37  1  0.75599779  0.25222231  0.74874404  1
  Te  Te38  1  0.75367434  0.74693505  0.25273973  1
  Te  Te39  1  0.75470615  0.74878593  0.74728359  1
  Te  Te40  1  0.25549462  0.00467728  -0.00424056  1
  Te  Te41  1  0.25675687  0.00322000  0.50409268  1
  Te  Te42  1  0.25278403  0.49123750  -0.00071614  1
  Te  Te43  1  0.26213167  0.49464000  0.50059410  1
  Te  Te44  1  0.74285996  -0.00626824  -0.00090572  1
  Te  Te45  1  0.74296449  0.00169289  0.50130497  1
  Te  Te46  1  0.74844720  0.50603194  -0.00089789  1
  Te  Te47  1  0.74770729  0.49872557  0.49995014  1
  Te  Te48  1  0.00296145  0.24907530  0.00111632  1
  Te  Te49  1  -0.00027717  0.24847983  0.49850527  1
  Te  Te50  1  -0.00388205  0.75059833  0.00016254  1
  Te  Te51  1  -0.00374586  0.75182636  0.49972035  1
  Te  Te52  1  0.49827921  0.24603914  0.00513803  1
  Te  Te53  1  0.50237069  0.24857344  0.49918864  1
  Te  Te54  1  0.50314918  0.75517088  0.00106722  1
  Te  Te55  1  0.50357044  0.75159084  0.49881777  1
  Te  Te56  1  0.00069691  0.00233409  0.24947777  1
  Te  Te57  1  0.00499912  0.00199708  0.75035290  1
  Te  Te58  1  -0.00625503  0.49743171  0.25007362  1
  Te  Te59  1  -0.00494393  0.49974422  0.74983198  1
  Te  Te60  1  0.49942088  0.00482775  0.25164841  1
  Te  Te61  1  0.49487378  -0.00046575  0.74943804  1
  Te  Te62  1  0.50517655  0.49601453  0.25322427  1
  Te  Te63  1  0.50674709  0.50106846  0.74521307  1
