# generated using pymatgen
data_AgSbTe2
_symmetry_space_group_name_H-M   'P 1'
_cell_length_a   12.22209320
_cell_length_b   12.22133109
_cell_length_c   12.23262923
_cell_angle_alpha   89.99493778
_cell_angle_beta   89.99713218
_cell_angle_gamma   89.99132432
_symmetry_Int_Tables_number   1
_chemical_formula_structural   AgSbTe2
_chemical_formula_sum   'Ag16 Sb16 Te32'
_cell_volume   1827.19082556
_cell_formula_units_Z   16
loop_
 _symmetry_equiv_pos_site_id
 _symmetry_equiv_pos_as_xyz
  1  'x, y, z'
loop_
 _atom_site_type_symbol
 _atom_site_label
 _atom_site_symmetry_multiplicity
 _atom_site_fract_x
 _atom_site_fract_y
 _atom_site_fract_z
 _atom_site_occupancy
  Ag  Ag0  1  0.74648893  0.49597450  0.75211624  1
  Ag  Ag1  1  0.25102835  0.00349481  0.24682137  1
  Ag  Ag2  1  0.75152832  0.24788874  0.00275430  1
  Ag  Ag3  1  0.75023124  0.24767829  0.49719670  1
  Ag  Ag4  1  0.74591900  0.75285035  0.50141865  1
  Ag  Ag5  1  -0.00863116  0.24522197  0.24693843  1
  Ag  Ag6  1  0.50499324  -0.00027898  0.50126620  1
  Ag  Ag7  1  0.50554634  0.49810069  -0.00499636  1
  Ag  Ag8  1  0.50250460  0.75169752  0.75012906  1
  Ag  Ag9  1  -0.00314796  0.00672236  0.00143678  1
  Ag  Ag10  1  0.74885713  0.49197180  0.24833256  1
  Ag  Ag11  1  0.50247741  0.00202112  -0.00141124  1
  Ag  Ag12  1  0.25329230  0.00222962  0.75301689  1
  Ag  Ag13  1  -0.00455662  0.24757009  0.75264853  1
  Ag  Ag14  1  0.74984473  0.00774712  0.24880676  1
  Ag  Ag15  1  0.25393749  0.49742085  0.75264221  1
  Sb  Sb16  1  -0.00590445  0.49355835  -0.00156308  1
  Sb  Sb17  1  -0.00387862  0.49718822  0.50073244  1
  Sb  Sb18  1  0.74693802  0.75132463  -0.00196061  1
  Sb  Sb19  1  -0.00201355  0.75191443  0.75030698  1
  Sb  Sb20  1  0.24816961  0.24685424  -0.00118549  1
  Sb  Sb21  1  0.74753214  0.00367798  0.75061780  1
  Sb  Sb22  1  0.50340905  0.75360286  0.25073250  1
  Sb  Sb23  1  0.50555982  0.49997162  0.50423145  1
  Sb  Sb24  1  0.25448919  0.75369626  0.50339810  1
  Sb  Sb25  1  0.25267915  0.75256611  -0.00174824  1
  Sb  Sb26  1  -0.00436347  0.75435344  0.24955136  1
  Sb  Sb27  1  0.25157432  0.49503805  0.24637283  1
  Sb  Sb28  1  -0.00463204  0.00330762  0.49907238  1
  Sb  Sb29  1  0.25163311  0.24708583  0.50181142  1
  Sb  Sb30  1  0.50884206  0.24696313  0.24895217  1
  Sb  Sb31  1  0.50399327  0.24911210  0.75150324  1
  Te  Te32  1  0.23965912  0.24586722  0.25109109  1
  Te  Te33  1  0.24229703  0.24937177  0.74873696  1
  Te  Te34  1  0.24853363  0.75686320  0.25142623  1
  Te  Te35  1  0.25351483  0.75046128  0.74857077  1
  Te  Te36  1  0.75208900  0.24895125  0.24892348  1
  Te  Te37  1  0.75411613  0.25271397  0.75119882  1
  Te  Te38  1  0.75097976  0.74956224  0.25623581  1
  Te  Te39  1  0.74681608  0.74436324  0.74630291  1
  Te  Te40  1  0.25472148  0.00099767  -0.00041932  1
  Te  Te41  1  0.25711753  -0.00001506  0.50094585  1
  Te  Te42  1  0.25699604  0.49962261  -0.00420468  1
  Te  Te43  1  0.25188701  0.50048258  0.50645122  1
  Te  Te44  1  0.74677116  0.00161246  0.00043582  1
  Te  Te45  1  0.74620857  0.00266921  0.49997241  1
  Te  Te46  1  0.74727305  0.49847339  -0.00016240  1
  Te  Te47  1  0.74744664  0.49679953  0.49898560  1
  Te  Te48  1  -0.00483893  0.24546124  -0.00118922  1
  Te  Te49  1  -0.00773524  0.24955050  0.50177362  1
  Te  Te50  1  0.00037061  0.76210527  -0.00060062  1
  Te  Te51  1  -0.01078882  0.74955974  0.50048141  1
  Te  Te52  1  0.50734326  0.24763435  0.00040914  1
  Te  Te53  1  0.50756396  0.24310638  0.49965515  1
  Te  Te54  1  0.50062501  0.75232068  -0.00711904  1
  Te  Te55  1  0.50521547  0.75534765  0.50558733  1
  Te  Te56  1  -0.00194008  0.00297750  0.24776747  1
  Te  Te57  1  0.00452349  0.00292455  0.75277375  1
  Te  Te58  1  -0.00212205  0.49447184  0.24869938  1
  Te  Te59  1  -0.00012115  0.49682299  0.75138248  1
  Te  Te60  1  0.50032477  -0.00123506  0.24659831  1
  Te  Te61  1  0.49790903  -0.00048423  0.75327469  1
  Te  Te62  1  0.50155234  0.50161160  0.24357040  1
  Te  Te63  1  0.50135032  0.50050276  0.75250284  1
