# generated using pymatgen
data_AgSbTe2
_symmetry_space_group_name_H-M   'P 1'
_cell_length_a   12.22293633
_cell_length_b   12.21966898
_cell_length_c   12.22072235
_cell_angle_alpha   89.99580333
_cell_angle_beta   90.00144471
_cell_angle_gamma   89.99564985
_symmetry_Int_Tables_number   1
_chemical_formula_structural   AgSbTe2
_chemical_formula_sum   'Ag16 Sb16 Te32'
_cell_volume   1825.28996150
_cell_formula_units_Z   16
loop_
 _symmetry_equiv_pos_site_id
 _symmetry_equiv_pos_as_xyz
  1  'x, y, z'
loop_
 _atom_site_type_symbol
 _atom_site_label
 _atom_site_symmetry_multiplicity
 _atom_site_fract_x
 _atom_site_fract_y
 _atom_site_fract_z
 _atom_site_occupancy
  Ag  Ag0  1  0.00416155  0.75698680  0.24948928  1
  Ag  Ag1  1  0.49496684  0.50313825  0.49703678  1
  Ag  Ag2  1  0.49886057  0.50128630  0.00256833  1
  Ag  Ag3  1  0.25267088  -0.00794954  0.25174115  1
  Ag  Ag4  1  0.49708377  -0.00413848  0.49122718  1
  Ag  Ag5  1  0.25566067  0.50150099  0.74936178  1
  Ag  Ag6  1  0.49951058  0.25112533  0.75294029  1
  Ag  Ag7  1  0.49584078  0.75474893  0.24953757  1
  Ag  Ag8  1  0.25347426  0.75143817  0.49295348  1
  Ag  Ag9  1  0.74522427  0.24373047  0.00166239  1
  Ag  Ag10  1  0.50483747  -0.00188047  0.00837055  1
  Ag  Ag11  1  0.74758862  -0.00388515  0.24420280  1
  Ag  Ag12  1  0.00244191  -0.00381469  0.49079671  1
  Ag  Ag13  1  0.74620580  0.75658079  0.00561599  1
  Ag  Ag14  1  -0.00400082  -0.00282771  0.00886899  1
  Ag  Ag15  1  0.25606598  0.50798528  0.25160394  1
  Sb  Sb16  1  0.25432581  0.75108519  0.00916392  1
  Sb  Sb17  1  0.74193870  0.50437571  0.24805252  1
  Sb  Sb18  1  0.49813858  0.74816640  0.75130120  1
  Sb  Sb19  1  0.25340488  -0.00265014  0.74833176  1
  Sb  Sb20  1  0.50029447  0.24365893  0.24634455  1
  Sb  Sb21  1  0.74386913  0.49877030  0.75177963  1
  Sb  Sb22  1  0.00709368  0.50505764  0.49534181  1
  Sb  Sb23  1  0.00146608  0.50292740  0.00392035  1
  Sb  Sb24  1  0.00252611  0.75137273  0.75171199  1
  Sb  Sb25  1  0.00071048  0.24913526  0.75249592  1
  Sb  Sb26  1  0.74618580  0.75326136  0.49439458  1
  Sb  Sb27  1  0.74716713  0.00054522  0.75765838  1
  Sb  Sb28  1  0.25517622  0.24887713  0.00011658  1
  Sb  Sb29  1  0.25296573  0.24802179  0.49956905  1
  Sb  Sb30  1  0.74603892  0.24655517  0.49781621  1
  Sb  Sb31  1  -0.00002545  0.24068434  0.24857555  1
  Te  Te32  1  0.24909826  0.25133195  0.24956337  1
  Te  Te33  1  0.25550766  0.25729931  0.75027203  1
  Te  Te34  1  0.25271230  0.75196350  0.25160972  1
  Te  Te35  1  0.24969109  0.74447287  0.73924675  1
  Te  Te36  1  0.75099677  0.24324552  0.24382385  1
  Te  Te37  1  0.74431075  0.25068068  0.75700251  1
  Te  Te38  1  0.74801841  0.75382411  0.24618602  1
  Te  Te39  1  0.75098869  0.74906628  0.76049603  1
  Te  Te40  1  0.25083232  -0.00025538  0.00317021  1
  Te  Te41  1  0.25302684  -0.00177224  0.49777695  1
  Te  Te42  1  0.25472107  0.50001162  0.00225202  1
  Te  Te43  1  0.25404164  0.50179511  0.49597105  1
  Te  Te44  1  0.74731310  -0.00127572  0.00174452  1
  Te  Te45  1  0.74801436  -0.00055685  0.49383605  1
  Te  Te46  1  0.74478121  0.49977853  0.00054372  1
  Te  Te47  1  0.74138053  0.49959725  0.50010080  1
  Te  Te48  1  -0.00820753  0.24386880  -0.00107107  1
  Te  Te49  1  -0.00217161  0.24070961  0.50103893  1
  Te  Te50  1  -0.00416049  0.75430877  0.00357717  1
  Te  Te51  1  0.00207547  0.75506594  0.49604891  1
  Te  Te52  1  0.50304069  0.24963688  -0.00272974  1
  Te  Te53  1  0.50156440  0.24986162  0.50623789  1
  Te  Te54  1  0.50121931  0.75116124  0.00207262  1
  Te  Te55  1  0.49883227  0.75163524  0.49788148  1
  Te  Te56  1  0.00178875  -0.00281236  0.24914892  1
  Te  Te57  1  0.00121419  0.00037816  0.74979497  1
  Te  Te58  1  0.00791574  0.50846250  0.25062452  1
  Te  Te59  1  0.00909472  0.49904098  0.74929892  1
  Te  Te60  1  0.49826325  -0.00029421  0.24954706  1
  Te  Te61  1  0.49845017  0.00404182  0.74996168  1
  Te  Te62  1  0.49745922  0.50306184  0.24940467  1
  Te  Te63  1  0.49631705  0.49879695  0.75101627  1
