# generated using pymatgen
data_AgSbTe2
_symmetry_space_group_name_H-M   'P 1'
_cell_length_a   12.21841014
_cell_length_b   12.21091442
_cell_length_c   12.22123720
_cell_angle_alpha   89.99858357
_cell_angle_beta   90.00326473
_cell_angle_gamma   89.98580616
_symmetry_Int_Tables_number   1
_chemical_formula_structural   AgSbTe2
_chemical_formula_sum   'Ag16 Sb16 Te32'
_cell_volume   1823.38360517
_cell_formula_units_Z   16
loop_
 _symmetry_equiv_pos_site_id
 _symmetry_equiv_pos_as_xyz
  1  'x, y, z'
loop_
 _atom_site_type_symbol
 _atom_site_label
 _atom_site_symmetry_multiplicity
 _atom_site_fract_x
 _atom_site_fract_y
 _atom_site_fract_z
 _atom_site_occupancy
  Ag  Ag0  1  0.00219517  -0.00069210  -0.00504830  1
  Ag  Ag1  1  0.25346078  0.75780341  0.50437865  1
  Ag  Ag2  1  0.50103661  0.50282545  0.50589317  1
  Ag  Ag3  1  0.00323582  0.00269851  0.50547347  1
  Ag  Ag4  1  0.74793692  0.75152303  -0.00690755  1
  Ag  Ag5  1  0.24637884  -0.00399072  0.74585529  1
  Ag  Ag6  1  0.75405458  -0.00041438  0.74746106  1
  Ag  Ag7  1  0.24640334  -0.00145713  0.25312258  1
  Ag  Ag8  1  -0.00308695  0.24221037  0.74728627  1
  Ag  Ag9  1  0.50155136  0.50558970  -0.00678623  1
  Ag  Ag10  1  0.74617968  0.50131487  0.74959643  1
  Ag  Ag11  1  -0.00003717  0.24387198  0.25275176  1
  Ag  Ag12  1  0.49984904  0.75071820  0.74940939  1
  Ag  Ag13  1  0.25192322  0.75452976  -0.00441906  1
  Ag  Ag14  1  0.49607762  -0.00281541  0.50528758  1
  Ag  Ag15  1  0.75273572  0.24671820  0.50465743  1
  Sb  Sb16  1  0.74930935  0.49883834  0.25108370  1
  Sb  Sb17  1  0.49913879  -0.00606710  -0.00631887  1
  Sb  Sb18  1  0.25335281  0.50418771  0.74909471  1
  Sb  Sb19  1  0.00183190  0.75541212  0.25107261  1
  Sb  Sb20  1  0.74627858  0.75329764  0.50717044  1
  Sb  Sb21  1  0.75291515  0.00132616  0.25217175  1
  Sb  Sb22  1  0.49893889  0.75232786  0.25109507  1
  Sb  Sb23  1  0.49967875  0.24662027  0.25282559  1
  Sb  Sb24  1  0.25006786  0.50017053  0.25114171  1
  Sb  Sb25  1  -0.00090078  0.49829609  0.50410729  1
  Sb  Sb26  1  0.24881713  0.24513172  -0.00192606  1
  Sb  Sb27  1  -0.00075212  0.50206732  -0.00389386  1
  Sb  Sb28  1  0.75170092  0.24835890  -0.00494078  1
  Sb  Sb29  1  0.00093809  0.75858447  0.74983006  1
  Sb  Sb30  1  0.24667255  0.24163013  0.50147005  1
  Sb  Sb31  1  0.50232025  0.24884119  0.74741188  1
  Te  Te32  1  0.24403049  0.24362307  0.24966705  1
  Te  Te33  1  0.24362431  0.24326410  0.75028370  1
  Te  Te34  1  0.24934636  0.75597300  0.24925624  1
  Te  Te35  1  0.25264497  0.75325679  0.75009841  1
  Te  Te36  1  0.75573117  0.24953462  0.25698669  1
  Te  Te37  1  0.75228157  0.24708498  0.74659964  1
  Te  Te38  1  0.75083202  0.75005086  0.23802149  1
  Te  Te39  1  0.74700244  0.75128149  0.75292718  1
  Te  Te40  1  0.24889926  -0.00412628  -0.00178587  1
  Te  Te41  1  0.24972290  -0.00150068  0.50300993  1
  Te  Te42  1  0.25408170  0.50882143  -0.00002846  1
  Te  Te43  1  0.25608427  0.50817899  0.50001340  1
  Te  Te44  1  0.75118096  -0.00283226  -0.00355029  1
  Te  Te45  1  0.75085722  -0.00015223  0.50290966  1
  Te  Te46  1  0.74744039  0.50330397  -0.00422025  1
  Te  Te47  1  0.74661474  0.49950061  0.50357648  1
  Te  Te48  1  -0.00063182  0.24459989  -0.00146350  1
  Te  Te49  1  -0.00226313  0.24710287  0.50249498  1
  Te  Te50  1  0.00174094  0.75431248  0.00038682  1
  Te  Te51  1  0.00537109  0.75473558  0.49904748  1
  Te  Te52  1  0.50037591  0.26087474  0.00069857  1
  Te  Te53  1  0.50486764  0.25006528  0.50004983  1
  Te  Te54  1  0.49915386  0.74782409  -0.00309804  1
  Te  Te55  1  0.49861859  0.75148403  0.50311165  1
  Te  Te56  1  0.00282300  0.00389128  0.25040720  1
  Te  Te57  1  -0.00103715  0.00062707  0.74923661  1
  Te  Te58  1  0.00057373  0.48933795  0.24976780  1
  Te  Te59  1  -0.00694540  0.49071260  0.75010993  1
  Te  Te60  1  0.49381125  0.00101785  0.25802010  1
  Te  Te61  1  0.50048656  -0.00160805  0.74708610  1
  Te  Te62  1  0.49975666  0.49896621  0.25260088  1
  Te  Te63  1  0.50272078  0.50133660  0.74837136  1
