# generated using pymatgen
data_AgSbTe2
_symmetry_space_group_name_H-M   'P 1'
_cell_length_a   12.29066941
_cell_length_b   12.30289297
_cell_length_c   12.27929211
_cell_angle_alpha   89.98612068
_cell_angle_beta   89.99333029
_cell_angle_gamma   89.99778470
_symmetry_Int_Tables_number   1
_chemical_formula_structural   AgSbTe2
_chemical_formula_sum   'Ag16 Sb16 Te32'
_cell_volume   1856.76139538
_cell_formula_units_Z   16
loop_
 _symmetry_equiv_pos_site_id
 _symmetry_equiv_pos_as_xyz
  1  'x, y, z'
loop_
 _atom_site_type_symbol
 _atom_site_label
 _atom_site_symmetry_multiplicity
 _atom_site_fract_x
 _atom_site_fract_y
 _atom_site_fract_z
 _atom_site_occupancy
  Ag  Ag0  1  0.24302453  0.00112132  0.75013348  1
  Ag  Ag1  1  0.50456572  0.49749823  0.48738647  1
  Ag  Ag2  1  0.75961930  0.49141533  0.24942543  1
  Ag  Ag3  1  -0.00929827  0.25043674  0.24943067  1
  Ag  Ag4  1  0.76092090  0.01106085  0.25399133  1
  Ag  Ag5  1  0.24226277  0.74533553  0.00614035  1
  Ag  Ag6  1  -0.00582165  0.00473374  0.48592337  1
  Ag  Ag7  1  0.75765844  0.25091051  0.48567583  1
  Ag  Ag8  1  0.50117927  0.49931165  0.01140271  1
  Ag  Ag9  1  -0.00191925  0.00217445  0.01423943  1
  Ag  Ag10  1  -0.00106608  0.49740865  0.01207162  1
  Ag  Ag11  1  0.23960627  0.49796747  0.24573220  1
  Ag  Ag12  1  0.24121397  0.25163548  0.49244258  1
  Ag  Ag13  1  0.75968908  0.25617681  0.01655716  1
  Ag  Ag14  1  -0.00295041  0.74881431  0.24800090  1
  Ag  Ag15  1  0.75556034  0.74721817  0.48874932  1
  Sb  Sb16  1  0.00012941  0.75004866  0.75063813  1
  Sb  Sb17  1  -0.00301982  0.49578730  0.49028217  1
  Sb  Sb18  1  0.24005485  0.00312189  0.25042974  1
  Sb  Sb19  1  0.49950376  0.74894930  0.75010958  1
  Sb  Sb20  1  0.50873365  0.25257045  0.24907191  1
  Sb  Sb21  1  0.50265006  0.00256771  0.49825004  1
  Sb  Sb22  1  0.75458864  0.00086667  0.74883057  1
  Sb  Sb23  1  0.50132387  0.00211842  0.00302115  1
  Sb  Sb24  1  0.24931580  0.49868713  0.75045005  1
  Sb  Sb25  1  0.75119084  0.49970935  0.74975106  1
  Sb  Sb26  1  0.50196527  0.74726340  0.24999253  1
  Sb  Sb27  1  0.75541483  0.74622764  0.00921103  1
  Sb  Sb28  1  0.24252589  0.25313754  0.00849182  1
  Sb  Sb29  1  0.00052712  0.25070530  0.74760056  1
  Sb  Sb30  1  0.49936711  0.25071205  0.74971381  1
  Sb  Sb31  1  0.24538830  0.74810027  0.49388481  1
  Te  Te32  1  0.24108010  0.25361368  0.25552610  1
  Te  Te33  1  0.24940855  0.24711213  0.73628967  1
  Te  Te34  1  0.24294305  0.74522648  0.24594492  1
  Te  Te35  1  0.24938790  0.75257141  0.75733177  1
  Te  Te36  1  0.75392586  0.25483103  0.24997192  1
  Te  Te37  1  0.74954940  0.24916293  0.74552408  1
  Te  Te38  1  0.75559319  0.74369360  0.25377975  1
  Te  Te39  1  0.74949708  0.75127271  0.73038604  1
  Te  Te40  1  0.24967709  0.00300871  0.00353231  1
  Te  Te41  1  0.25081488  -0.00001076  0.49594960  1
  Te  Te42  1  0.24970048  0.49621562  0.00131649  1
  Te  Te43  1  0.24990820  0.49961414  0.49974069  1
  Te  Te44  1  0.75132834  -0.00142832  -0.00191123  1
  Te  Te45  1  0.75097110  0.00808998  0.50075746  1
  Te  Te46  1  0.75087585  0.50155541  -0.00028801  1
  Te  Te47  1  0.75172945  0.49332790  0.50006862  1
  Te  Te48  1  -0.00290690  0.24665460  0.00299832  1
  Te  Te49  1  -0.00200664  0.24874871  0.49809931  1
  Te  Te50  1  0.00108884  0.75407776  0.00352380  1
  Te  Te51  1  -0.00178961  0.75356196  0.49650688  1
  Te  Te52  1  0.50934583  0.25594187  0.00157007  1
  Te  Te53  1  0.50235932  0.25438120  0.49890619  1
  Te  Te54  1  0.49348927  0.74324905  0.00008144  1
  Te  Te55  1  0.50471296  0.74288073  0.49960214  1
  Te  Te56  1  -0.00501585  0.00161746  0.24920831  1
  Te  Te57  1  0.00417248  0.00054541  0.75244542  1
  Te  Te58  1  -0.00195835  0.49878278  0.24790004  1
  Te  Te59  1  -0.00016070  0.50052952  0.77564721  1
  Te  Te60  1  0.52052383  -0.00152889  0.24921964  1
  Te  Te61  1  0.48651658  -0.00044417  0.75075501  1
  Te  Te62  1  0.50031300  0.49925359  0.24958659  1
  Te  Te63  1  0.50102090  0.50009946  0.75299764  1
