# generated using pymatgen
data_AgSbTe2
_symmetry_space_group_name_H-M   'P 1'
_cell_length_a   12.24011862
_cell_length_b   12.23301267
_cell_length_c   12.23030439
_cell_angle_alpha   89.99631806
_cell_angle_beta   90.00000000
_cell_angle_gamma   90.00000002
_symmetry_Int_Tables_number   1
_chemical_formula_structural   AgSbTe2
_chemical_formula_sum   'Ag16 Sb16 Te32'
_cell_volume   1831.28660005
_cell_formula_units_Z   16
loop_
 _symmetry_equiv_pos_site_id
 _symmetry_equiv_pos_as_xyz
  1  'x, y, z'
loop_
 _atom_site_type_symbol
 _atom_site_label
 _atom_site_symmetry_multiplicity
 _atom_site_fract_x
 _atom_site_fract_y
 _atom_site_fract_z
 _atom_site_occupancy
  Ag  Ag0  1  -0.00000001  0.49179730  -0.00077674  1
  Ag  Ag1  1  0.50000000  0.49671199  0.49928011  1
  Ag  Ag2  1  0.24284598  0.24826095  0.49609227  1
  Ag  Ag3  1  0.25047825  0.00546229  0.25440740  1
  Ag  Ag4  1  0.24176563  0.24704505  0.00333242  1
  Ag  Ag5  1  0.75715403  0.24826095  0.49609226  1
  Ag  Ag6  1  0.50000003  0.00428546  0.00513210  1
  Ag  Ag7  1  0.00000002  0.24933281  0.25315384  1
  Ag  Ag8  1  0.75382745  0.75181376  0.49920057  1
  Ag  Ag9  1  0.75823439  0.24704504  0.00333243  1
  Ag  Ag10  1  0.24617256  0.75181376  0.49920056  1
  Ag  Ag11  1  0.74952175  0.00546235  0.25440743  1
  Ag  Ag12  1  0.49999998  0.00275981  0.49482559  1
  Ag  Ag13  1  -0.00000005  0.25303400  0.74677068  1
  Ag  Ag14  1  -0.00000001  0.49421667  0.50193525  1
  Ag  Ag15  1  0.00000002  0.74749318  0.74281466  1
  Sb  Sb16  1  0.75483144  0.75416128  0.00134947  1
  Sb  Sb17  1  0.75073052  0.00191781  0.74526536  1
  Sb  Sb18  1  0.24686638  0.49376757  0.25352013  1
  Sb  Sb19  1  0.24516855  0.75416127  0.00134952  1
  Sb  Sb20  1  0.50000001  0.75120092  0.74486418  1
  Sb  Sb21  1  0.50000000  0.49498068  0.00102416  1
  Sb  Sb22  1  0.75313363  0.49376760  0.25352013  1
  Sb  Sb23  1  0.49999999  0.24560615  0.25337359  1
  Sb  Sb24  1  -0.00000002  0.74994029  0.25715131  1
  Sb  Sb25  1  0.50000001  0.24875270  0.74599228  1
  Sb  Sb26  1  -0.00000002  0.00896896  0.00198730  1
  Sb  Sb27  1  -0.00000000  0.00743628  0.49893653  1
  Sb  Sb28  1  0.75445064  0.49869738  0.74712682  1
  Sb  Sb29  1  0.24926946  0.00191780  0.74526537  1
  Sb  Sb30  1  0.50000002  0.75390154  0.25320955  1
  Sb  Sb31  1  0.24554930  0.49869739  0.74712683  1
  Te  Te32  1  0.24761927  0.24566615  0.25262772  1
  Te  Te33  1  0.24333481  0.24961607  0.74907080  1
  Te  Te34  1  0.24923562  0.75989002  0.25542168  1
  Te  Te35  1  0.24324513  0.75089063  0.74352954  1
  Te  Te36  1  0.75238072  0.24566607  0.25262773  1
  Te  Te37  1  0.75666523  0.24961605  0.74907081  1
  Te  Te38  1  0.75076439  0.75989002  0.25542169  1
  Te  Te39  1  0.75675483  0.75089062  0.74352956  1
  Te  Te40  1  0.25360236  0.00284998  0.00485555  1
  Te  Te41  1  0.25278412  0.00310060  0.49733208  1
  Te  Te42  1  0.24969138  0.49501730  0.00214502  1
  Te  Te43  1  0.24828162  0.49751201  0.49841329  1
  Te  Te44  1  0.74639763  0.00284998  0.00485556  1
  Te  Te45  1  0.74721589  0.00310061  0.49733206  1
  Te  Te46  1  0.75030862  0.49501731  0.00214504  1
  Te  Te47  1  0.75171838  0.49751200  0.49841329  1
  Te  Te48  1  -0.00000001  0.25230143  -0.00020749  1
  Te  Te49  1  -0.00000001  0.25040737  0.49983111  1
  Te  Te50  1  0.00000000  0.73907787  -0.00603673  1
  Te  Te51  1  0.00000001  0.74525375  0.50117532  1
  Te  Te52  1  0.49999999  0.24893420  -0.00305147  1
  Te  Te53  1  0.50000000  0.24925195  0.50223202  1
  Te  Te54  1  0.50000000  0.75312418  -0.00257149  1
  Te  Te55  1  0.49999998  0.75077541  0.50206308  1
  Te  Te56  1  -0.00000000  0.00514524  0.24878422  1
  Te  Te57  1  0.00000001  -0.00000273  0.75168568  1
  Te  Te58  1  0.00000002  0.49421981  0.25068718  1
  Te  Te59  1  0.00000005  0.49669932  0.74738005  1
  Te  Te60  1  0.50000000  0.00091740  0.25174933  1
  Te  Te61  1  0.50000001  -0.00023381  0.75051029  1
  Te  Te62  1  0.49999998  0.50174743  0.25782415  1
  Te  Te63  1  0.50000003  0.50062474  0.74088998  1
