# generated using pymatgen
data_AgSbTe2
_symmetry_space_group_name_H-M   'P 1'
_cell_length_a   12.21078870
_cell_length_b   12.20247340
_cell_length_c   12.21121158
_cell_angle_alpha   90.00189151
_cell_angle_beta   90.00366505
_cell_angle_gamma   89.99938515
_symmetry_Int_Tables_number   1
_chemical_formula_structural   AgSbTe2
_chemical_formula_sum   'Ag16 Sb16 Te32'
_cell_volume   1819.49279682
_cell_formula_units_Z   16
loop_
 _symmetry_equiv_pos_site_id
 _symmetry_equiv_pos_as_xyz
  1  'x, y, z'
loop_
 _atom_site_type_symbol
 _atom_site_label
 _atom_site_symmetry_multiplicity
 _atom_site_fract_x
 _atom_site_fract_y
 _atom_site_fract_z
 _atom_site_occupancy
  Ag  Ag0  1  0.49895069  0.24647622  0.24879108  1
  Ag  Ag1  1  0.00213685  0.50116545  0.49832031  1
  Ag  Ag2  1  0.49924997  -0.00245424  -0.00260086  1
  Ag  Ag3  1  0.75235349  -0.00071714  0.24806112  1
  Ag  Ag4  1  0.00040552  -0.00098003  0.50014781  1
  Ag  Ag5  1  0.24793074  0.50023812  0.25159338  1
  Ag  Ag6  1  0.00053273  -0.00084994  -0.00014849  1
  Ag  Ag7  1  0.74936075  0.75642258  -0.00013912  1
  Ag  Ag8  1  0.25010184  -0.00231179  0.75207680  1
  Ag  Ag9  1  0.49734869  0.24416216  0.75159483  1
  Ag  Ag10  1  0.00230086  0.24468400  0.74849114  1
  Ag  Ag11  1  0.75271464  0.75348385  0.50024936  1
  Ag  Ag12  1  0.24731727  0.75180953  0.50173035  1
  Ag  Ag13  1  0.00096204  0.24650170  0.25155116  1
  Ag  Ag14  1  0.49720474  0.75616483  0.75249941  1
  Ag  Ag15  1  0.25110482  0.75519156  -0.00217181  1
  Sb  Sb16  1  0.75190451  0.50060786  0.25225486  1
  Sb  Sb17  1  0.00372169  0.75668097  0.74783985  1
  Sb  Sb18  1  0.49722274  0.50205910  0.49828817  1
  Sb  Sb19  1  0.75283375  0.24484859  0.49921677  1
  Sb  Sb20  1  0.74996420  -0.00199120  0.75219766  1
  Sb  Sb21  1  0.49948492  0.75454674  0.24680293  1
  Sb  Sb22  1  0.49940841  -0.00184489  0.50252151  1
  Sb  Sb23  1  0.75158130  0.50185543  0.74838490  1
  Sb  Sb24  1  0.00242497  0.50128567  0.00179435  1
  Sb  Sb25  1  0.24802599  -0.00001945  0.24853505  1
  Sb  Sb26  1  0.74978730  0.24348138  0.00107510  1
  Sb  Sb27  1  0.24698127  0.24726288  0.50015089  1
  Sb  Sb28  1  0.49841185  0.50283117  0.00097760  1
  Sb  Sb29  1  0.24834915  0.50271089  0.74796303  1
  Sb  Sb30  1  0.00017455  0.75462432  0.25186495  1
  Sb  Sb31  1  0.25011647  0.24421074  -0.00045335  1
  Te  Te32  1  0.24988739  0.25300204  0.24979924  1
  Te  Te33  1  0.25179247  0.24587316  0.75009079  1
  Te  Te34  1  0.25096848  0.74696278  0.25098575  1
  Te  Te35  1  0.25286688  0.75284862  0.75012363  1
  Te  Te36  1  0.75015918  0.24580891  0.24984427  1
  Te  Te37  1  0.74784295  0.25022263  0.75012302  1
  Te  Te38  1  0.74909722  0.75404217  0.25025638  1
  Te  Te39  1  0.74369853  0.75060737  0.74977825  1
  Te  Te40  1  0.24948356  -0.00485458  -0.00191809  1
  Te  Te41  1  0.24516563  -0.00562141  0.50290065  1
  Te  Te42  1  0.24857546  0.51074755  0.00582353  1
  Te  Te43  1  0.24513806  0.50705077  0.49656368  1
  Te  Te44  1  0.75087088  -0.00519298  0.00312734  1
  Te  Te45  1  0.75522248  -0.00562107  0.49497883  1
  Te  Te46  1  0.75089703  0.51313467  0.00109890  1
  Te  Te47  1  0.75789504  0.51053549  0.49854281  1
  Te  Te48  1  -0.00013848  0.24502346  -0.00003833  1
  Te  Te49  1  -0.00005139  0.24768377  0.49986702  1
  Te  Te50  1  0.00016390  0.75437121  -0.00109015  1
  Te  Te51  1  0.00044112  0.75184753  0.50141692  1
  Te  Te52  1  0.50014401  0.24476447  -0.00213194  1
  Te  Te53  1  0.50075752  0.25023014  0.50171062  1
  Te  Te54  1  0.49891804  0.75361686  -0.00291929  1
  Te  Te55  1  0.49960167  0.75028120  0.50482571  1
  Te  Te56  1  -0.00104025  0.00424227  0.24947849  1
  Te  Te57  1  0.00211823  0.00382466  0.75039562  1
  Te  Te58  1  0.00287181  0.49185452  0.25295661  1
  Te  Te59  1  0.00138597  0.48871011  0.74505219  1
  Te  Te60  1  0.50195740  0.00539903  0.24649360  1
  Te  Te61  1  0.49801061  0.00113324  0.75232047  1
  Te  Te62  1  0.49563243  0.48968889  0.25026663  1
  Te  Te63  1  0.49929748  0.49564545  0.74981609  1
