# generated using pymatgen
data_AgSbTe2
_symmetry_space_group_name_H-M   'P 1'
_cell_length_a   12.28397388
_cell_length_b   12.26935930
_cell_length_c   12.26473692
_cell_angle_alpha   90.00110524
_cell_angle_beta   89.99244924
_cell_angle_gamma   90.00158280
_symmetry_Int_Tables_number   1
_chemical_formula_structural   AgSbTe2
_chemical_formula_sum   'Ag16 Sb16 Te32'
_cell_volume   1848.49807252
_cell_formula_units_Z   16
loop_
 _symmetry_equiv_pos_site_id
 _symmetry_equiv_pos_as_xyz
  1  'x, y, z'
loop_
 _atom_site_type_symbol
 _atom_site_label
 _atom_site_symmetry_multiplicity
 _atom_site_fract_x
 _atom_site_fract_y
 _atom_site_fract_z
 _atom_site_occupancy
  Ag  Ag0  1  0.75821520  0.00582831  0.24161834  1
  Ag  Ag1  1  0.49348689  0.00322165  -0.00905906  1
  Ag  Ag2  1  0.24784553  0.76449406  -0.00891173  1
  Ag  Ag3  1  0.24793051  0.23526571  -0.00970339  1
  Ag  Ag4  1  0.00381948  0.76335420  0.24298690  1
  Ag  Ag5  1  -0.00069113  0.23687606  0.24243336  1
  Ag  Ag6  1  0.75251117  0.24400664  0.50728312  1
  Ag  Ag7  1  0.25250229  0.00153176  0.76541407  1
  Ag  Ag8  1  0.74831838  0.00979021  0.75845212  1
  Ag  Ag9  1  0.49104341  0.76261796  0.75670308  1
  Ag  Ag10  1  0.24194954  0.00185665  0.23503698  1
  Ag  Ag11  1  0.49856279  0.23813489  0.75681732  1
  Ag  Ag12  1  0.24926996  0.49828226  0.75543133  1
  Ag  Ag13  1  0.75330917  0.23798859  -0.00654332  1
  Ag  Ag14  1  0.00966646  0.76075235  0.75743119  1
  Ag  Ag15  1  0.00114334  0.23923977  0.75793883  1
  Sb  Sb16  1  0.49346786  0.75884706  0.23962685  1
  Sb  Sb17  1  0.75303009  0.49313462  0.24720896  1
  Sb  Sb18  1  0.75253180  0.48915732  0.75176896  1
  Sb  Sb19  1  -0.00021379  0.49820742  0.50277764  1
  Sb  Sb20  1  0.50002778  0.49693706  0.50401688  1
  Sb  Sb21  1  0.25004056  0.75272825  0.51040542  1
  Sb  Sb22  1  0.49847590  0.49561114  -0.00301815  1
  Sb  Sb23  1  0.00142317  0.49775692  -0.00297246  1
  Sb  Sb24  1  0.49954874  0.24337974  0.24212135  1
  Sb  Sb25  1  0.50105721  0.00293668  0.51480275  1
  Sb  Sb26  1  0.24708210  0.24740141  0.51084804  1
  Sb  Sb27  1  0.24727088  0.49827073  0.24224949  1
  Sb  Sb28  1  -0.00164272  0.00173793  0.50121843  1
  Sb  Sb29  1  0.75028195  0.75810869  0.50230260  1
  Sb  Sb30  1  0.01125355  0.00420503  -0.00199752  1
  Sb  Sb31  1  0.75437519  0.76750825  -0.00195122  1
  Te  Te32  1  0.24678846  0.24826825  0.24548868  1
  Te  Te33  1  0.24616020  0.24198538  0.75165973  1
  Te  Te34  1  0.24514021  0.75144228  0.24393461  1
  Te  Te35  1  0.24531939  0.75837827  0.75314910  1
  Te  Te36  1  0.75271988  0.24428189  0.24423917  1
  Te  Te37  1  0.75447554  0.24768813  0.75557464  1
  Te  Te38  1  0.75896652  0.75886435  0.24992451  1
  Te  Te39  1  0.75454929  0.75601965  0.75074221  1
  Te  Te40  1  0.25150556  0.00237815  -0.00233799  1
  Te  Te41  1  0.25363170  0.00136562  0.49401067  1
  Te  Te42  1  0.25149009  0.49882011  -0.00793114  1
  Te  Te43  1  0.25069132  0.49898360  0.51288084  1
  Te  Te44  1  0.74042226  0.00531571  -0.00238752  1
  Te  Te45  1  0.74773153  0.00827551  0.49929320  1
  Te  Te46  1  0.74646510  0.48071438  -0.00014164  1
  Te  Te47  1  0.74941640  0.48428224  0.49926171  1
  Te  Te48  1  0.00239984  0.24966221  -0.00207037  1
  Te  Te49  1  -0.00600898  0.25016161  0.50033866  1
  Te  Te50  1  0.00391329  0.74653219  -0.00309443  1
  Te  Te51  1  -0.00059021  0.74766886  0.50022437  1
  Te  Te52  1  0.49590359  0.24514656  -0.00592001  1
  Te  Te53  1  0.50876095  0.24850454  0.51169014  1
  Te  Te54  1  0.49438173  0.75661841  -0.00775194  1
  Te  Te55  1  0.50126615  0.74864023  0.51508590  1
  Te  Te56  1  0.00030634  0.00177455  0.25128270  1
  Te  Te57  1  -0.00062025  0.00125229  0.75059576  1
  Te  Te58  1  0.00154976  0.50112521  0.25150875  1
  Te  Te59  1  0.00623139  0.50137642  0.75050369  1
  Te  Te60  1  0.49923089  -0.00097193  0.23788384  1
  Te  Te61  1  0.49977616  0.00219256  0.75558064  1
  Te  Te62  1  0.49853152  0.50363834  0.25190444  1
  Te  Te63  1  0.49260110  0.50044511  0.75213996  1
