# generated using pymatgen
data_AgSbTe2
_symmetry_space_group_name_H-M   'P 1'
_cell_length_a   12.22074926
_cell_length_b   12.21747405
_cell_length_c   12.21700425
_cell_angle_alpha   90.00407632
_cell_angle_beta   90.00263122
_cell_angle_gamma   89.99860830
_symmetry_Int_Tables_number   1
_chemical_formula_structural   AgSbTe2
_chemical_formula_sum   'Ag16 Sb16 Te32'
_cell_volume   1824.08042241
_cell_formula_units_Z   16
loop_
 _symmetry_equiv_pos_site_id
 _symmetry_equiv_pos_as_xyz
  1  'x, y, z'
loop_
 _atom_site_type_symbol
 _atom_site_label
 _atom_site_symmetry_multiplicity
 _atom_site_fract_x
 _atom_site_fract_y
 _atom_site_fract_z
 _atom_site_occupancy
  Ag  Ag0  1  0.50344578  0.75371074  0.75096813  1
  Ag  Ag1  1  0.75154633  0.50165044  0.24845899  1
  Ag  Ag2  1  0.75037106  0.24661898  0.00439978  1
  Ag  Ag3  1  -0.00206495  0.24430565  0.24787973  1
  Ag  Ag4  1  0.24309485  -0.00638629  0.24914587  1
  Ag  Ag5  1  0.24703680  0.75286542  0.49131315  1
  Ag  Ag6  1  0.24728807  0.75316803  0.00867360  1
  Ag  Ag7  1  0.75282075  0.75319987  0.49636487  1
  Ag  Ag8  1  0.50292763  0.24875655  0.24747588  1
  Ag  Ag9  1  0.24805556  0.50582304  0.24962921  1
  Ag  Ag10  1  0.74907610  -0.00254418  0.75288663  1
  Ag  Ag11  1  0.00292076  0.75600480  0.24938936  1
  Ag  Ag12  1  -0.00085501  -0.00470491  0.49129548  1
  Ag  Ag13  1  -0.00276075  -0.00347553  0.00801262  1
  Ag  Ag14  1  0.75287976  0.75451926  0.00292872  1
  Ag  Ag15  1  0.50386970  0.24669491  0.75206802  1
  Sb  Sb16  1  0.25168946  -0.00256112  0.75111945  1
  Sb  Sb17  1  0.49806625  0.75255106  0.24835115  1
  Sb  Sb18  1  -0.00359050  0.24449911  0.75306344  1
  Sb  Sb19  1  0.50009236  0.50028456  0.00311968  1
  Sb  Sb20  1  0.50007115  0.50185379  0.49649063  1
  Sb  Sb21  1  0.24856109  0.24640515  0.00415993  1
  Sb  Sb22  1  0.75780636  -0.00201794  0.24718690  1
  Sb  Sb23  1  0.50176501  -0.00212257  0.49832400  1
  Sb  Sb24  1  -0.00045681  0.50452544  0.00546861  1
  Sb  Sb25  1  -0.00029663  0.50604818  0.49385686  1
  Sb  Sb26  1  -0.00336108  0.75337722  0.75085603  1
  Sb  Sb27  1  0.24824227  0.24664732  0.49637172  1
  Sb  Sb28  1  0.75171355  0.24651011  0.49591380  1
  Sb  Sb29  1  0.74795557  0.50204736  0.75103909  1
  Sb  Sb30  1  0.50405255  -0.00028640  0.00114581  1
  Sb  Sb31  1  0.25201722  0.50409959  0.75042609  1
  Te  Te32  1  0.24852974  0.25111842  0.24906403  1
  Te  Te33  1  0.25890075  0.25152181  0.75041520  1
  Te  Te34  1  0.25392440  0.75066732  0.24942613  1
  Te  Te35  1  0.25581446  0.74890952  0.75044059  1
  Te  Te36  1  0.75073612  0.25079485  0.24816965  1
  Te  Te37  1  0.74574369  0.24921424  0.75314477  1
  Te  Te38  1  0.74705471  0.74948416  0.24821717  1
  Te  Te39  1  0.74698008  0.75065655  0.75247663  1
  Te  Te40  1  0.24340414  -0.00471024  0.00227029  1
  Te  Te41  1  0.24431309  -0.00480834  0.49754614  1
  Te  Te42  1  0.24915867  0.50799688  0.00694164  1
  Te  Te43  1  0.24945004  0.50809966  0.49328810  1
  Te  Te44  1  0.75343446  -0.00227120  -0.00200115  1
  Te  Te45  1  0.75428970  -0.00509115  0.50438184  1
  Te  Te46  1  0.75061186  0.50065630  0.00537398  1
  Te  Te47  1  0.75062576  0.50825784  0.49393814  1
  Te  Te48  1  -0.00353017  0.24420686  0.00455858  1
  Te  Te49  1  -0.00011770  0.24109245  0.49414636  1
  Te  Te50  1  -0.00201839  0.75363334  0.00208377  1
  Te  Te51  1  -0.00044535  0.75456766  0.49784834  1
  Te  Te52  1  0.50461351  0.24947043  0.00085232  1
  Te  Te53  1  0.50033309  0.24899760  0.50066495  1
  Te  Te54  1  0.50204899  0.75065385  -0.00430636  1
  Te  Te55  1  0.50103112  0.75138663  0.50526162  1
  Te  Te56  1  0.00049757  -0.00274194  0.24917087  1
  Te  Te57  1  -0.00496391  0.00115255  0.75079032  1
  Te  Te58  1  0.00020885  0.50063704  0.25054978  1
  Te  Te59  1  0.00090793  0.49721311  0.74798408  1
  Te  Te60  1  0.49048910  0.00712190  0.25039956  1
  Te  Te61  1  0.50418110  0.00025945  0.74963569  1
  Te  Te62  1  0.50023118  0.49199272  0.25033346  1
  Te  Te63  1  0.49958113  0.49779208  0.74915030  1
