# generated using pymatgen
data_AgSbTe2
_symmetry_space_group_name_H-M   'P 1'
_cell_length_a   12.22855400
_cell_length_b   12.22744251
_cell_length_c   12.22883776
_cell_angle_alpha   89.99909726
_cell_angle_beta   90.00579509
_cell_angle_gamma   90.00400368
_symmetry_Int_Tables_number   1
_chemical_formula_structural   AgSbTe2
_chemical_formula_sum   'Ag16 Sb16 Te32'
_cell_volume   1828.50400236
_cell_formula_units_Z   16
loop_
 _symmetry_equiv_pos_site_id
 _symmetry_equiv_pos_as_xyz
  1  'x, y, z'
loop_
 _atom_site_type_symbol
 _atom_site_label
 _atom_site_symmetry_multiplicity
 _atom_site_fract_x
 _atom_site_fract_y
 _atom_site_fract_z
 _atom_site_occupancy
  Ag  Ag0  1  0.75009108  0.00344764  0.75668887  1
  Ag  Ag1  1  0.50614301  0.74358865  0.24404199  1
  Ag  Ag2  1  -0.00548512  0.74568053  0.24313276  1
  Ag  Ag3  1  -0.00427563  0.01358502  -0.00033435  1
  Ag  Ag4  1  -0.00199339  0.25354777  0.23549677  1
  Ag  Ag5  1  0.50484473  0.74529834  0.75519694  1
  Ag  Ag6  1  0.50153951  0.49839472  0.50114703  1
  Ag  Ag7  1  0.76271330  0.25489620  -0.00199135  1
  Ag  Ag8  1  -0.00224204  0.25040583  0.76430844  1
  Ag  Ag9  1  0.50206401  0.25361279  0.75548454  1
  Ag  Ag10  1  0.75040011  0.50110398  0.24288677  1
  Ag  Ag11  1  0.25032167  0.25284234  0.50186194  1
  Ag  Ag12  1  0.23689507  0.25250169  -0.00125884  1
  Ag  Ag13  1  0.50757950  0.49885808  -0.00006746  1
  Ag  Ag14  1  0.74913412  0.74406603  0.00245005  1
  Ag  Ag15  1  -0.00733365  0.48664092  0.00353430  1
  Sb  Sb16  1  0.24890217  0.49845035  0.24832793  1
  Sb  Sb17  1  0.74895062  0.25278553  0.50244440  1
  Sb  Sb18  1  0.50372388  0.00088406  -0.00182295  1
  Sb  Sb19  1  0.50044437  0.00253260  0.50158570  1
  Sb  Sb20  1  0.50257236  0.25739380  0.24377113  1
  Sb  Sb21  1  0.25244654  0.49645396  0.75164497  1
  Sb  Sb22  1  0.25054128  0.74693615  0.00012728  1
  Sb  Sb23  1  0.74712010  0.49675892  0.75955964  1
  Sb  Sb24  1  -0.00709778  0.74977971  0.75965850  1
  Sb  Sb25  1  0.24919267  0.00205230  0.24686618  1
  Sb  Sb26  1  0.24911142  0.00365319  0.75313357  1
  Sb  Sb27  1  -0.00099096  0.00267759  0.50032893  1
  Sb  Sb28  1  0.75190068  -0.00096316  0.24341104  1
  Sb  Sb29  1  0.25256237  0.74574891  0.49966373  1
  Sb  Sb30  1  0.74878524  0.74764118  0.49795483  1
  Sb  Sb31  1  -0.00213969  0.49615816  0.49660846  1
  Te  Te32  1  0.24532837  0.24959657  0.24741043  1
  Te  Te33  1  0.25076819  0.24962617  0.75265353  1
  Te  Te34  1  0.24911441  0.75109500  0.25055244  1
  Te  Te35  1  0.26050889  0.75188960  0.74876628  1
  Te  Te36  1  0.75323328  0.25092436  0.24687166  1
  Te  Te37  1  0.74909544  0.24929105  0.75248883  1
  Te  Te38  1  0.75044710  0.74987396  0.24675074  1
  Te  Te39  1  0.74655431  0.75299258  0.75426667  1
  Te  Te40  1  0.24090810  0.00811660  -0.00019078  1
  Te  Te41  1  0.24984957  0.01106095  0.50017424  1
  Te  Te42  1  0.25047293  0.49510775  -0.00007739  1
  Te  Te43  1  0.25719848  0.49359111  0.49982418  1
  Te  Te44  1  0.75352271  0.00065251  -0.00314920  1
  Te  Te45  1  0.74994740  -0.00008352  0.51131744  1
  Te  Te46  1  0.74923320  0.50037491  0.00264336  1
  Te  Te47  1  0.74394272  0.50008754  0.48759214  1
  Te  Te48  1  -0.00201810  0.25270539  -0.00045883  1
  Te  Te49  1  0.00420013  0.25102937  0.50079146  1
  Te  Te50  1  -0.00010477  0.74715617  0.00232464  1
  Te  Te51  1  0.00207632  0.74978696  0.49051374  1
  Te  Te52  1  0.50182523  0.25171423  -0.00154166  1
  Te  Te53  1  0.49765082  0.25355128  0.50340265  1
  Te  Te54  1  0.50014192  0.74897278  -0.00013871  1
  Te  Te55  1  0.49843048  0.74462581  0.50105014  1
  Te  Te56  1  -0.00052799  0.00072867  0.24626289  1
  Te  Te57  1  -0.00416266  0.00215569  0.75307293  1
  Te  Te58  1  -0.00256992  0.49937408  0.24848363  1
  Te  Te59  1  -0.00105760  0.49635108  0.75305083  1
  Te  Te60  1  0.50062209  -0.01262102  0.25120759  1
  Te  Te61  1  0.50461713  0.00198317  0.74978551  1
  Te  Te62  1  0.50287236  0.50247564  0.24594421  1
  Te  Te63  1  0.50145793  0.49839983  0.75251268  1
