# generated using pymatgen
data_AgSbTe2
_symmetry_space_group_name_H-M   'P 1'
_cell_length_a   12.20873168
_cell_length_b   12.20411165
_cell_length_c   12.21387148
_cell_angle_alpha   89.99437069
_cell_angle_beta   90.00053749
_cell_angle_gamma   90.00316142
_symmetry_Int_Tables_number   1
_chemical_formula_structural   AgSbTe2
_chemical_formula_sum   'Ag16 Sb16 Te32'
_cell_volume   1819.82683141
_cell_formula_units_Z   16
loop_
 _symmetry_equiv_pos_site_id
 _symmetry_equiv_pos_as_xyz
  1  'x, y, z'
loop_
 _atom_site_type_symbol
 _atom_site_label
 _atom_site_symmetry_multiplicity
 _atom_site_fract_x
 _atom_site_fract_y
 _atom_site_fract_z
 _atom_site_occupancy
  Ag  Ag0  1  -0.00078413  0.50026132  0.00605457  1
  Ag  Ag1  1  0.50059497  -0.00769393  0.00100827  1
  Ag  Ag2  1  -0.00280783  0.49576174  0.49349613  1
  Ag  Ag3  1  0.50293803  0.50227898  0.49558873  1
  Ag  Ag4  1  0.50206643  -0.00261384  0.49872919  1
  Ag  Ag5  1  0.75280582  0.50030144  0.25228547  1
  Ag  Ag6  1  0.50272453  0.74972940  0.24655301  1
  Ag  Ag7  1  -0.00382259  0.25683051  0.25206856  1
  Ag  Ag8  1  0.25366846  -0.00175618  0.75115154  1
  Ag  Ag9  1  0.49923088  0.75290284  0.75316661  1
  Ag  Ag10  1  -0.00081442  0.25162222  0.74830205  1
  Ag  Ag11  1  0.75227027  0.25279287  0.49613063  1
  Ag  Ag12  1  0.74449593  0.74966764  0.00453761  1
  Ag  Ag13  1  0.25556963  0.74984636  0.00133446  1
  Ag  Ag14  1  0.24768747  0.50193463  0.24983114  1
  Ag  Ag15  1  0.74623321  -0.00125033  0.25004991  1
  Sb  Sb16  1  0.24917500  0.25142531  0.00120370  1
  Sb  Sb17  1  0.25400550  0.74912539  0.49811045  1
  Sb  Sb18  1  -0.00310033  0.74179871  0.24808305  1
  Sb  Sb19  1  0.50026471  0.24795028  0.74739271  1
  Sb  Sb20  1  0.74566052  0.74767724  0.49507406  1
  Sb  Sb21  1  0.75139931  0.25161323  0.00398906  1
  Sb  Sb22  1  0.50134394  0.50905209  0.00552349  1
  Sb  Sb23  1  0.25071259  0.50208645  0.75171283  1
  Sb  Sb24  1  0.75001645  0.50045224  0.74735348  1
  Sb  Sb25  1  0.50373128  0.25111522  0.25209533  1
  Sb  Sb26  1  0.25371425  -0.00194949  0.24888811  1
  Sb  Sb27  1  0.00086904  0.74920706  0.75201349  1
  Sb  Sb28  1  0.24681922  0.25098608  0.49927973  1
  Sb  Sb29  1  0.74682850  -0.00087626  0.74995895  1
  Sb  Sb30  1  -0.00265437  0.00403423  0.49811269  1
  Sb  Sb31  1  -0.00104700  -0.00085699  0.00189578  1
  Te  Te32  1  0.24243890  0.25586285  0.24945643  1
  Te  Te33  1  0.24396130  0.24439352  0.75052602  1
  Te  Te34  1  0.25474953  0.74641096  0.24504118  1
  Te  Te35  1  0.25409342  0.75365114  0.75542253  1
  Te  Te36  1  0.75325212  0.25181250  0.25331480  1
  Te  Te37  1  0.75635063  0.24916240  0.74368772  1
  Te  Te38  1  0.74716447  0.74975927  0.24616648  1
  Te  Te39  1  0.74416711  0.75103438  0.75859327  1
  Te  Te40  1  0.25320220  -0.00540513  -0.00174531  1
  Te  Te41  1  0.25661360  -0.00029248  0.50342076  1
  Te  Te42  1  0.24709069  0.50411239  0.00399158  1
  Te  Te43  1  0.25079942  0.50030174  0.49432082  1
  Te  Te44  1  0.74738549  -0.00396373  0.00497371  1
  Te  Te45  1  0.74569984  0.00225671  0.49505422  1
  Te  Te46  1  0.75250515  0.50292346  0.00536247  1
  Te  Te47  1  0.74921606  0.49835450  0.49635537  1
  Te  Te48  1  -0.00107965  0.25569064  0.00020988  1
  Te  Te49  1  -0.00341802  0.25362635  0.49861068  1
  Te  Te50  1  -0.00021475  0.74511260  -0.00112620  1
  Te  Te51  1  -0.00033431  0.74173600  0.50153288  1
  Te  Te52  1  0.50071756  0.23946460  -0.00158100  1
  Te  Te53  1  0.50558648  0.25071495  0.50078972  1
  Te  Te54  1  0.50041933  0.75098565  0.00133172  1
  Te  Te55  1  0.50082003  0.74995102  0.49931497  1
  Te  Te56  1  -0.00444153  0.00685300  0.25107702  1
  Te  Te57  1  0.00556677  0.00482140  0.74927556  1
  Te  Te58  1  -0.00174915  0.49948013  0.25056523  1
  Te  Te59  1  0.00082137  0.49603105  0.74946916  1
  Te  Te60  1  0.50171910  -0.00167835  0.25137662  1
  Te  Te61  1  0.49723935  -0.00270917  0.74880197  1
  Te  Te62  1  0.50121138  0.50168416  0.25292416  1
  Te  Te63  1  0.49865084  0.50440502  0.74251073  1
