# generated using pymatgen
data_AgSbTe2
_symmetry_space_group_name_H-M   'P 1'
_cell_length_a   12.22491636
_cell_length_b   12.21948386
_cell_length_c   12.21691476
_cell_angle_alpha   90.00182267
_cell_angle_beta   90.00017860
_cell_angle_gamma   90.00016327
_symmetry_Int_Tables_number   1
_chemical_formula_structural   AgSbTe2
_chemical_formula_sum   'Ag16 Sb16 Te32'
_cell_volume   1824.98921368
_cell_formula_units_Z   16
loop_
 _symmetry_equiv_pos_site_id
 _symmetry_equiv_pos_as_xyz
  1  'x, y, z'
loop_
 _atom_site_type_symbol
 _atom_site_label
 _atom_site_symmetry_multiplicity
 _atom_site_fract_x
 _atom_site_fract_y
 _atom_site_fract_z
 _atom_site_occupancy
  Ag  Ag0  1  0.24589019  0.00218326  0.24392638  1
  Ag  Ag1  1  0.49796606  0.49950386  0.50347251  1
  Ag  Ag2  1  0.25280991  0.75708255  -0.00264608  1
  Ag  Ag3  1  0.49928880  0.75275075  0.75758647  1
  Ag  Ag4  1  0.74709793  0.75538076  -0.00408874  1
  Ag  Ag5  1  0.00113461  0.00494073  -0.00455556  1
  Ag  Ag6  1  0.49843521  -0.00378755  -0.00466572  1
  Ag  Ag7  1  0.00068728  0.24247675  0.75620825  1
  Ag  Ag8  1  0.24574402  0.00070992  0.75621914  1
  Ag  Ag9  1  -0.00035214  0.49497531  -0.00187028  1
  Ag  Ag10  1  0.00377753  0.00453880  0.50392878  1
  Ag  Ag11  1  0.75354384  0.00067602  0.75787562  1
  Ag  Ag12  1  0.00224236  0.24495625  0.24342915  1
  Ag  Ag13  1  0.24727060  0.24567699  0.50134689  1
  Ag  Ag14  1  0.75579085  0.24487626  -0.00261952  1
  Ag  Ag15  1  0.50001123  0.50427535  -0.00318628  1
  Sb  Sb16  1  0.75384993  0.00245774  0.23996381  1
  Sb  Sb17  1  0.75148296  0.24678531  0.50271001  1
  Sb  Sb18  1  0.75072921  0.49829060  0.24620872  1
  Sb  Sb19  1  0.49878786  0.24758485  0.75378516  1
  Sb  Sb20  1  0.49670617  0.00032679  0.50420307  1
  Sb  Sb21  1  0.74986852  0.49964963  0.75414848  1
  Sb  Sb22  1  0.00231957  0.75509311  0.24500394  1
  Sb  Sb23  1  0.49699939  0.24789466  0.24643492  1
  Sb  Sb24  1  0.24215644  0.24088693  -0.00170427  1
  Sb  Sb25  1  0.74799301  0.75358086  0.50534278  1
  Sb  Sb26  1  0.49833921  0.75148024  0.24105561  1
  Sb  Sb27  1  0.25005377  0.49916527  0.75354383  1
  Sb  Sb28  1  0.00182025  0.49460379  0.50151729  1
  Sb  Sb29  1  0.00074919  0.75886749  0.75490707  1
  Sb  Sb30  1  0.25169580  0.75323518  0.50284455  1
  Sb  Sb31  1  0.24865763  0.49704238  0.24629524  1
  Te  Te32  1  0.24569543  0.24484512  0.25481501  1
  Te  Te33  1  0.24646347  0.24477098  0.74614467  1
  Te  Te34  1  0.24956861  0.75791548  0.24451501  1
  Te  Te35  1  0.25323777  0.75539057  0.75424677  1
  Te  Te36  1  0.75745480  0.24895550  0.24453248  1
  Te  Te37  1  0.75412241  0.24459999  0.75410968  1
  Te  Te38  1  0.75035775  0.75040445  0.24134655  1
  Te  Te39  1  0.74633006  0.75527401  0.75576861  1
  Te  Te40  1  0.24917377  0.00040304  -0.00234314  1
  Te  Te41  1  0.24776504  0.00197626  0.50174465  1
  Te  Te42  1  0.25156513  0.50711850  0.00006756  1
  Te  Te43  1  0.25370349  0.49685000  0.49941024  1
  Te  Te44  1  0.75077559  0.00056540  -0.00176204  1
  Te  Te45  1  0.75412458  -0.00042119  0.50725841  1
  Te  Te46  1  0.74960109  0.50001759  -0.00111147  1
  Te  Te47  1  0.74327552  0.50066449  0.50007042  1
  Te  Te48  1  0.00073750  0.24838217  -0.00188047  1
  Te  Te49  1  0.00195658  0.24841328  0.50160637  1
  Te  Te50  1  0.00022840  0.74964622  -0.00082838  1
  Te  Te51  1  -0.00053381  0.75401047  0.49917963  1
  Te  Te52  1  0.50630842  0.25110731  -0.00046625  1
  Te  Te53  1  0.49709114  0.25428673  0.49983463  1
  Te  Te54  1  0.49969703  0.75039081  -0.00258117  1
  Te  Te55  1  0.50050570  0.74521486  0.50714824  1
  Te  Te56  1  0.00287451  0.00397689  0.24831762  1
  Te  Te57  1  0.00135973  0.00119346  0.75338927  1
  Te  Te58  1  0.00040137  0.49195979  0.24534780  1
  Te  Te59  1  0.00013696  0.49198679  0.75488156  1
  Te  Te60  1  0.49357361  0.00041409  0.24606118  1
  Te  Te61  1  0.49918403  -0.00187870  0.75281610  1
  Te  Te62  1  0.49993778  0.49996636  0.24689674  1
  Te  Te63  1  0.49977933  0.50343843  0.75484248  1
