# generated using pymatgen
data_AgSbTe2
_symmetry_space_group_name_H-M   'P 1'
_cell_length_a   12.26854397
_cell_length_b   12.28502498
_cell_length_c   12.26767422
_cell_angle_alpha   89.99056890
_cell_angle_beta   89.99718295
_cell_angle_gamma   89.99547216
_symmetry_Int_Tables_number   1
_chemical_formula_structural   AgSbTe2
_chemical_formula_sum   'Ag16 Sb16 Te32'
_cell_volume   1848.97608684
_cell_formula_units_Z   16
loop_
 _symmetry_equiv_pos_site_id
 _symmetry_equiv_pos_as_xyz
  1  'x, y, z'
loop_
 _atom_site_type_symbol
 _atom_site_label
 _atom_site_symmetry_multiplicity
 _atom_site_fract_x
 _atom_site_fract_y
 _atom_site_fract_z
 _atom_site_occupancy
  Ag  Ag0  1  0.73451223  0.00192305  0.24429301  1
  Ag  Ag1  1  0.73930159  0.25845043  0.00647149  1
  Ag  Ag2  1  0.50687692  0.49455561  0.00947494  1
  Ag  Ag3  1  0.74742571  0.74628565  0.49140520  1
  Ag  Ag4  1  -0.00458025  0.25624805  0.75381275  1
  Ag  Ag5  1  0.25929095  0.74732450  0.00640814  1
  Ag  Ag6  1  0.50455784  0.00126476  0.48279423  1
  Ag  Ag7  1  0.26586267  0.00495291  0.24248843  1
  Ag  Ag8  1  0.50169326  0.00737699  0.01397622  1
  Ag  Ag9  1  -0.00699066  0.49873615  0.49869340  1
  Ag  Ag10  1  0.26173035  0.25249608  0.00765770  1
  Ag  Ag11  1  0.74192643  0.49948089  0.24078367  1
  Ag  Ag12  1  0.74166469  0.74202287  0.00698602  1
  Ag  Ag13  1  0.25882793  0.49593005  0.24024307  1
  Ag  Ag14  1  0.75072449  0.49778943  0.75894810  1
  Ag  Ag15  1  0.50167666  0.24418711  0.24081906  1
  Sb  Sb16  1  0.24879587  0.49645306  0.76249266  1
  Sb  Sb17  1  0.74795823  0.00306269  0.75550982  1
  Sb  Sb18  1  0.74818014  0.25119313  0.49357141  1
  Sb  Sb19  1  0.50322956  0.75842381  0.24583740  1
  Sb  Sb20  1  0.50333076  0.25266934  0.76055700  1
  Sb  Sb21  1  -0.00449941  0.00035916  0.49778086  1
  Sb  Sb22  1  0.50424440  0.50020027  0.48604651  1
  Sb  Sb23  1  -0.00161274  0.25198503  0.24700305  1
  Sb  Sb24  1  -0.00212732  0.74715214  0.25049751  1
  Sb  Sb25  1  0.25469264  0.74927851  0.49051141  1
  Sb  Sb26  1  -0.00260056  0.74406707  0.74909532  1
  Sb  Sb27  1  0.25151572  0.25014403  0.49011034  1
  Sb  Sb28  1  0.25290996  0.00284747  0.76033419  1
  Sb  Sb29  1  -0.00329899  0.00105777  0.00180256  1
  Sb  Sb30  1  -0.00719714  0.49897341  0.00072828  1
  Sb  Sb31  1  0.50106368  0.74654006  0.75295625  1
  Te  Te32  1  0.24916760  0.25118898  0.24487759  1
  Te  Te33  1  0.24663831  0.25134659  0.76245508  1
  Te  Te34  1  0.24782175  0.74761252  0.24220041  1
  Te  Te35  1  0.24789058  0.75022674  0.76496096  1
  Te  Te36  1  0.75038787  0.25053903  0.24539094  1
  Te  Te37  1  0.75036995  0.25381507  0.75794263  1
  Te  Te38  1  0.74932055  0.74729595  0.24478512  1
  Te  Te39  1  0.75093790  0.74304337  0.75633080  1
  Te  Te40  1  0.25371008  0.00074811  0.00495681  1
  Te  Te41  1  0.25530094  -0.00312527  0.48920687  1
  Te  Te42  1  0.25150332  0.49936615  0.00401972  1
  Te  Te43  1  0.25040709  0.50382664  0.49105561  1
  Te  Te44  1  0.74761965  -0.00268740  0.00300969  1
  Te  Te45  1  0.74712758  -0.00289368  0.49585448  1
  Te  Te46  1  0.75014026  0.50139969  0.00645656  1
  Te  Te47  1  0.74738644  0.50229135  0.49395046  1
  Te  Te48  1  -0.00151139  0.25092128  -0.00272941  1
  Te  Te49  1  0.00004149  0.25427722  0.50647107  1
  Te  Te50  1  -0.00293240  0.74988150  -0.00052799  1
  Te  Te51  1  -0.00926337  0.74566744  0.50079877  1
  Te  Te52  1  0.50210918  0.25001102  0.00502852  1
  Te  Te53  1  0.49996162  0.24423424  0.48940700  1
  Te  Te54  1  0.50372700  0.74831318  0.00116861  1
  Te  Te55  1  0.50667100  0.75514191  0.50345042  1
  Te  Te56  1  0.00008982  0.00272941  0.25136351  1
  Te  Te57  1  0.00032501  0.01243311  0.74716834  1
  Te  Te58  1  -0.00210187  0.49779850  0.25607359  1
  Te  Te59  1  -0.00491643  0.49551387  0.74486267  1
  Te  Te60  1  0.50260290  0.00160816  0.24499982  1
  Te  Te61  1  0.50057548  0.00305608  0.75004409  1
  Te  Te62  1  0.50211146  0.49341624  0.24612622  1
  Te  Te63  1  0.50769500  0.49757156  0.75875105  1
