# generated using pymatgen
data_AgSbTe2
_symmetry_space_group_name_H-M   'P 1'
_cell_length_a   12.23661305
_cell_length_b   12.21581557
_cell_length_c   12.22361883
_cell_angle_alpha   89.99876234
_cell_angle_beta   90.00149534
_cell_angle_gamma   90.00069020
_symmetry_Int_Tables_number   1
_chemical_formula_structural   AgSbTe2
_chemical_formula_sum   'Ag16 Sb16 Te32'
_cell_volume   1827.18908708
_cell_formula_units_Z   16
loop_
 _symmetry_equiv_pos_site_id
 _symmetry_equiv_pos_as_xyz
  1  'x, y, z'
loop_
 _atom_site_type_symbol
 _atom_site_label
 _atom_site_symmetry_multiplicity
 _atom_site_fract_x
 _atom_site_fract_y
 _atom_site_fract_z
 _atom_site_occupancy
  Ag  Ag0  1  0.00459294  0.49918331  -0.00186686  1
  Ag  Ag1  1  0.00124538  -0.00427991  0.50427895  1
  Ag  Ag2  1  0.49893418  0.50303397  0.49818169  1
  Ag  Ag3  1  0.25070828  -0.00219068  0.74751434  1
  Ag  Ag4  1  0.49848420  -0.00339273  0.50264706  1
  Ag  Ag5  1  0.74952273  0.74549533  0.50153859  1
  Ag  Ag6  1  0.74545208  0.49831950  0.25022337  1
  Ag  Ag7  1  0.25267961  0.25836123  -0.00020354  1
  Ag  Ag8  1  0.25476628  0.49703196  0.24726848  1
  Ag  Ag9  1  0.00096409  0.50468068  0.50218786  1
  Ag  Ag10  1  0.25071089  0.50226076  0.75268655  1
  Ag  Ag11  1  0.49754169  0.74518730  0.74526852  1
  Ag  Ag12  1  0.49557337  0.49612352  0.00316632  1
  Ag  Ag13  1  0.74694512  0.25720119  0.00285180  1
  Ag  Ag14  1  0.00252384  0.74533468  0.74501818  1
  Ag  Ag15  1  0.49946490  0.25804408  0.24763634  1
  Sb  Sb16  1  0.74788105  0.00125891  0.25262235  1
  Sb  Sb17  1  -0.00100528  0.74575257  0.25533844  1
  Sb  Sb18  1  0.00294715  -0.00116114  -0.00457890  1
  Sb  Sb19  1  0.49739261  0.00190391  -0.00266336  1
  Sb  Sb20  1  0.74924251  0.74315480  0.00019809  1
  Sb  Sb21  1  0.74956904  0.50208418  0.74936257  1
  Sb  Sb22  1  0.25056224  0.74709241  0.50392144  1
  Sb  Sb23  1  0.74744532  0.25483185  0.49701654  1
  Sb  Sb24  1  0.00052345  0.25416794  0.24875763  1
  Sb  Sb25  1  0.50122385  0.74167051  0.25513598  1
  Sb  Sb26  1  0.00265221  0.25458717  0.75046111  1
  Sb  Sb27  1  0.25270435  0.00353328  0.25209540  1
  Sb  Sb28  1  0.25092248  0.74048153  -0.00413226  1
  Sb  Sb29  1  0.49700530  0.25473683  0.75185576  1
  Sb  Sb30  1  0.25156089  0.25386268  0.49955606  1
  Sb  Sb31  1  0.74906002  -0.00211687  0.74811301  1
  Te  Te32  1  0.25439853  0.25503303  0.24462536  1
  Te  Te33  1  0.25021173  0.25172275  0.75560176  1
  Te  Te34  1  0.25021269  0.74238289  0.24771847  1
  Te  Te35  1  0.25047271  0.74842151  0.75041595  1
  Te  Te36  1  0.74562449  0.25548736  0.24611627  1
  Te  Te37  1  0.75030067  0.24881449  0.75976319  1
  Te  Te38  1  0.74950445  0.74386209  0.25566692  1
  Te  Te39  1  0.74948959  0.75059792  0.74478512  1
  Te  Te40  1  0.24902606  0.00896898  -0.00429462  1
  Te  Te41  1  0.25071069  0.00262043  0.50406695  1
  Te  Te42  1  0.25047138  0.49747350  -0.00184627  1
  Te  Te43  1  0.25000279  0.49796463  0.50198140  1
  Te  Te44  1  0.75128805  0.00824633  0.00121556  1
  Te  Te45  1  0.74962402  -0.00335725  0.49871565  1
  Te  Te46  1  0.74953005  0.49793175  0.00318650  1
  Te  Te47  1  0.75001944  0.50155815  0.49760431  1
  Te  Te48  1  0.00069268  0.25545718  0.00028661  1
  Te  Te49  1  -0.00155945  0.25127142  0.49987182  1
  Te  Te50  1  -0.00216917  0.74492727  -0.00757884  1
  Te  Te51  1  -0.00243751  0.74612748  0.50381505  1
  Te  Te52  1  0.49913685  0.25302221  0.00174452  1
  Te  Te53  1  0.50163460  0.25190177  0.49632654  1
  Te  Te54  1  0.50201166  0.74631105  -0.00719171  1
  Te  Te55  1  0.50225186  0.74744462  0.50303945  1
  Te  Te56  1  0.00116459  -0.00122235  0.25929146  1
  Te  Te57  1  0.00431381  -0.00489412  0.74502995  1
  Te  Te58  1  0.00141044  0.50037265  0.25149410  1
  Te  Te59  1  0.00278638  0.50265295  0.74769149  1
  Te  Te60  1  0.49849885  0.00544496  0.25590041  1
  Te  Te61  1  0.49600775  -0.00437859  0.74527312  1
  Te  Te62  1  0.49858598  0.49911791  0.25084926  1
  Te  Te63  1  0.49698657  0.50248030  0.74737674  1
