# generated using pymatgen
data_AgSbTe2
_symmetry_space_group_name_H-M   'P 1'
_cell_length_a   12.29888698
_cell_length_b   12.30770844
_cell_length_c   12.30295220
_cell_angle_alpha   89.99401994
_cell_angle_beta   89.98959093
_cell_angle_gamma   89.99413717
_symmetry_Int_Tables_number   1
_chemical_formula_structural   AgSbTe2
_chemical_formula_sum   'Ag16 Sb16 Te32'
_cell_volume   1862.31154325
_cell_formula_units_Z   16
loop_
 _symmetry_equiv_pos_site_id
 _symmetry_equiv_pos_as_xyz
  1  'x, y, z'
loop_
 _atom_site_type_symbol
 _atom_site_label
 _atom_site_symmetry_multiplicity
 _atom_site_fract_x
 _atom_site_fract_y
 _atom_site_fract_z
 _atom_site_occupancy
  Ag  Ag0  1  0.75663897  0.48635610  0.25859820  1
  Ag  Ag1  1  0.75608907  0.24373818  0.49342408  1
  Ag  Ag2  1  0.24520589  0.49510673  0.74100640  1
  Ag  Ag3  1  -0.01300979  0.00873304  0.49356715  1
  Ag  Ag4  1  0.75310666  0.49005580  0.74240422  1
  Ag  Ag5  1  0.75688719  0.01476526  0.26464655  1
  Ag  Ag6  1  0.76161704  0.25506488  0.01021010  1
  Ag  Ag7  1  0.50535866  0.49321234  0.50090171  1
  Ag  Ag8  1  0.51267888  0.00913733  0.49845247  1
  Ag  Ag9  1  -0.00295717  0.74767423  0.25574672  1
  Ag  Ag10  1  0.75252964  0.01651479  0.73371680  1
  Ag  Ag11  1  0.24550409  0.74399915  0.49904299  1
  Ag  Ag12  1  -0.00772822  0.25158347  0.25331921  1
  Ag  Ag13  1  0.24609934  0.25234687  0.49810870  1
  Ag  Ag14  1  0.23777307  0.25569355  0.00317018  1
  Ag  Ag15  1  -0.00567928  0.49072592  0.00466157  1
  Sb  Sb16  1  -0.00340738  0.00657730  0.00343928  1
  Sb  Sb17  1  0.50232044  0.74940908  0.25684689  1
  Sb  Sb18  1  0.75428836  0.74470204  0.00200830  1
  Sb  Sb19  1  0.24171599  0.74281571  0.00029407  1
  Sb  Sb20  1  0.24695718  0.49621533  0.25363301  1
  Sb  Sb21  1  0.24727762  0.00594665  0.74349584  1
  Sb  Sb22  1  0.50586273  0.25004778  0.25245411  1
  Sb  Sb23  1  0.50330120  0.25020446  0.74800840  1
  Sb  Sb24  1  0.75407268  0.75033092  0.49916506  1
  Sb  Sb25  1  -0.00156523  0.25106461  0.74627387  1
  Sb  Sb26  1  -0.00272511  0.49587704  0.49960569  1
  Sb  Sb27  1  0.50287243  0.49793433  0.00077943  1
  Sb  Sb28  1  0.24688366  0.00375069  0.25294405  1
  Sb  Sb29  1  0.50645680  0.00466726  0.00298347  1
  Sb  Sb30  1  0.50063706  0.74858511  0.74420203  1
  Sb  Sb31  1  -0.00000355  0.74726081  0.74390305  1
  Te  Te32  1  0.24071309  0.24946434  0.25278448  1
  Te  Te33  1  0.24925603  0.25502945  0.74505990  1
  Te  Te34  1  0.24408651  0.75130801  0.25238929  1
  Te  Te35  1  0.24973455  0.74062322  0.74751634  1
  Te  Te36  1  0.75241690  0.25171056  0.25621227  1
  Te  Te37  1  0.74904590  0.25205978  0.74243053  1
  Te  Te38  1  0.75449746  0.74817986  0.24918037  1
  Te  Te39  1  0.75051329  0.74145705  0.75175934  1
  Te  Te40  1  0.25247478  0.01080099  -0.00254391  1
  Te  Te41  1  0.25290909  0.01296121  0.50168686  1
  Te  Te42  1  0.25459869  0.49431650  -0.00110421  1
  Te  Te43  1  0.24436679  0.49101534  0.49988879  1
  Te  Te44  1  0.74916732  0.00898639  -0.00296710  1
  Te  Te45  1  0.75076828  -0.00292665  0.50096002  1
  Te  Te46  1  0.74749346  0.49475444  -0.00393664  1
  Te  Te47  1  0.75245856  0.50447807  0.50222737  1
  Te  Te48  1  -0.00214854  0.25257071  0.00317980  1
  Te  Te49  1  -0.00475230  0.24713175  0.49862382  1
  Te  Te50  1  -0.00007126  0.74246778  0.01043983  1
  Te  Te51  1  0.00622449  0.75577541  0.49576139  1
  Te  Te52  1  0.49489065  0.24861502  0.00176399  1
  Te  Te53  1  0.49865367  0.25177676  0.49944500  1
  Te  Te54  1  0.49732228  0.75285675  0.00132588  1
  Te  Te55  1  0.48635921  0.74586913  0.49880888  1
  Te  Te56  1  -0.00153021  0.00564038  0.25107285  1
  Te  Te57  1  -0.00476243  -0.00253310  0.74532586  1
  Te  Te58  1  -0.00198930  0.49434440  0.24851944  1
  Te  Te59  1  -0.00460657  0.50089750  0.75568841  1
  Te  Te60  1  0.50996432  0.00022625  0.25404976  1
  Te  Te61  1  0.50875896  0.00080538  0.74334237  1
  Te  Te62  1  0.51183567  0.49978605  0.25679467  1
  Te  Te63  1  0.50629174  0.49945450  0.74330075  1
