# generated using pymatgen
data_AgSbTe2
_symmetry_space_group_name_H-M   'P 1'
_cell_length_a   12.21150455
_cell_length_b   12.21089129
_cell_length_c   12.21005679
_cell_angle_alpha   90.00096783
_cell_angle_beta   89.99861459
_cell_angle_gamma   89.99561543
_symmetry_Int_Tables_number   1
_chemical_formula_structural   AgSbTe2
_chemical_formula_sum   'Ag16 Sb16 Te32'
_cell_volume   1820.68252200
_cell_formula_units_Z   16
loop_
 _symmetry_equiv_pos_site_id
 _symmetry_equiv_pos_as_xyz
  1  'x, y, z'
loop_
 _atom_site_type_symbol
 _atom_site_label
 _atom_site_symmetry_multiplicity
 _atom_site_fract_x
 _atom_site_fract_y
 _atom_site_fract_z
 _atom_site_occupancy
  Ag  Ag0  1  0.00570740  0.74803074  0.25198919  1
  Ag  Ag1  1  0.49598309  -0.00598548  0.49882416  1
  Ag  Ag2  1  0.25080966  0.50466750  0.25290538  1
  Ag  Ag3  1  0.25558680  0.75150987  0.49548174  1
  Ag  Ag4  1  0.74369615  0.74577984  0.49819473  1
  Ag  Ag5  1  0.50172367  0.50578831  0.49696884  1
  Ag  Ag6  1  -0.00097803  0.25092811  0.75024674  1
  Ag  Ag7  1  0.25126473  0.75043607  0.00568556  1
  Ag  Ag8  1  0.74855124  0.49911437  0.25363012  1
  Ag  Ag9  1  0.25112843  -0.00507695  0.25329784  1
  Ag  Ag10  1  -0.00041898  0.25290074  0.24974372  1
  Ag  Ag11  1  0.50016255  0.25282139  0.25181099  1
  Ag  Ag12  1  0.49806459  0.74948873  0.74296646  1
  Ag  Ag13  1  0.25196635  -0.00330473  0.74669208  1
  Ag  Ag14  1  0.74830753  0.50013031  0.74673442  1
  Ag  Ag15  1  0.75076903  0.25271725  0.00268647  1
  Sb  Sb16  1  0.00034546  0.49963223  0.00289923  1
  Sb  Sb17  1  -0.00120759  0.50144486  0.49675535  1
  Sb  Sb18  1  0.74755750  0.00045711  0.25348990  1
  Sb  Sb19  1  0.00159364  0.74902019  0.74856326  1
  Sb  Sb20  1  0.49283828  0.74672881  0.25928538  1
  Sb  Sb21  1  0.74823657  0.74751701  0.00323225  1
  Sb  Sb22  1  0.74800838  0.00020904  0.74610888  1
  Sb  Sb23  1  0.25157522  0.50261747  0.74570375  1
  Sb  Sb24  1  0.49950807  0.50102731  0.00478407  1
  Sb  Sb25  1  0.74818739  0.25562413  0.49730558  1
  Sb  Sb26  1  0.50042555  0.25023434  0.74886334  1
  Sb  Sb27  1  0.00534070  -0.00152660  0.49856744  1
  Sb  Sb28  1  0.49736395  -0.00162153  0.00333700  1
  Sb  Sb29  1  0.25161582  0.24846770  0.49706759  1
  Sb  Sb30  1  0.24935300  0.25040853  0.00388846  1
  Sb  Sb31  1  0.00165989  0.00018189  0.00124459  1
  Te  Te32  1  0.24759825  0.25079976  0.24812613  1
  Te  Te33  1  0.24593412  0.24673430  0.75202204  1
  Te  Te34  1  0.25100603  0.74974417  0.25183026  1
  Te  Te35  1  0.24954304  0.75110165  0.74768104  1
  Te  Te36  1  0.75254611  0.25216416  0.24946441  1
  Te  Te37  1  0.75288833  0.25303573  0.75192126  1
  Te  Te38  1  0.75441356  0.74670703  0.24959774  1
  Te  Te39  1  0.74983461  0.74663832  0.74959088  1
  Te  Te40  1  0.25096181  -0.00567926  0.00109828  1
  Te  Te41  1  0.25435735  -0.00302862  0.49867219  1
  Te  Te42  1  0.25106725  0.50634733  0.00652244  1
  Te  Te43  1  0.25612237  0.50497717  0.49597411  1
  Te  Te44  1  0.74914863  0.00704894  -0.00046736  1
  Te  Te45  1  0.74079672  -0.00971663  0.50047280  1
  Te  Te46  1  0.74903525  0.49607066  0.00113649  1
  Te  Te47  1  0.74564261  0.50420965  0.49801091  1
  Te  Te48  1  -0.00402331  0.24936355  0.00299765  1
  Te  Te49  1  -0.00030988  0.24919268  0.49754911  1
  Te  Te50  1  0.00511204  0.75066684  0.00605682  1
  Te  Te51  1  0.00063991  0.75079163  0.49531409  1
  Te  Te52  1  0.50466853  0.24982743  0.00573099  1
  Te  Te53  1  0.50028629  0.25076733  0.49539193  1
  Te  Te54  1  0.49615394  0.75035278  -0.01090390  1
  Te  Te55  1  0.49929019  0.74920205  0.50060705  1
  Te  Te56  1  0.00603215  0.00150830  0.25118818  1
  Te  Te57  1  0.00577123  0.00498758  0.74887269  1
  Te  Te58  1  0.00022509  0.49779781  0.25156401  1
  Te  Te59  1  -0.00481258  0.49503885  0.74846792  1
  Te  Te60  1  0.49582030  0.00500586  0.25432859  1
  Te  Te61  1  0.49583655  -0.00140113  0.74443338  1
  Te  Te62  1  0.50082266  0.49779052  0.25394701  1
  Te  Te63  1  0.50286481  0.50158500  0.74384635  1
