# generated using pymatgen
data_AgSbTe2
_symmetry_space_group_name_H-M   'P 1'
_cell_length_a   12.20437258
_cell_length_b   12.20214180
_cell_length_c   12.20489283
_cell_angle_alpha   90.00307140
_cell_angle_beta   89.99922431
_cell_angle_gamma   89.99826127
_symmetry_Int_Tables_number   1
_chemical_formula_structural   AgSbTe2
_chemical_formula_sum   'Ag16 Sb16 Te32'
_cell_volume   1817.54634816
_cell_formula_units_Z   16
loop_
 _symmetry_equiv_pos_site_id
 _symmetry_equiv_pos_as_xyz
  1  'x, y, z'
loop_
 _atom_site_type_symbol
 _atom_site_label
 _atom_site_symmetry_multiplicity
 _atom_site_fract_x
 _atom_site_fract_y
 _atom_site_fract_z
 _atom_site_occupancy
  Ag  Ag0  1  0.00273185  -0.00237226  0.49718605  1
  Ag  Ag1  1  0.25393933  0.49916798  0.25147173  1
  Ag  Ag2  1  0.49610530  0.50001572  0.49896530  1
  Ag  Ag3  1  0.00166317  0.00110519  0.00260772  1
  Ag  Ag4  1  0.49736177  0.75007723  0.74990070  1
  Ag  Ag5  1  0.49714307  0.25163020  0.24430086  1
  Ag  Ag6  1  0.74366559  0.24648798  0.00062916  1
  Ag  Ag7  1  0.25089704  0.74897614  0.49786841  1
  Ag  Ag8  1  0.25544021  0.49974606  0.74911542  1
  Ag  Ag9  1  0.49883004  0.24909705  0.75604655  1
  Ag  Ag10  1  0.49880884  0.00667892  -0.00118007  1
  Ag  Ag11  1  0.00393203  0.75336735  0.25046305  1
  Ag  Ag12  1  0.74664545  0.49800097  0.24930493  1
  Ag  Ag13  1  0.74659853  0.00162397  0.75347498  1
  Ag  Ag14  1  0.24882189  0.00060345  0.24770524  1
  Ag  Ag15  1  0.25614882  0.24700346  0.00262664  1
  Sb  Sb16  1  0.49755598  -0.00103369  0.50028444  1
  Sb  Sb17  1  0.25275619  0.25130523  0.49741937  1
  Sb  Sb18  1  0.25443289  0.00113313  0.75213627  1
  Sb  Sb19  1  0.00189812  0.24830880  0.75261964  1
  Sb  Sb20  1  0.00408596  0.50301976  0.49678516  1
  Sb  Sb21  1  0.49595175  0.74790671  0.25014339  1
  Sb  Sb22  1  0.00180098  0.50024242  0.00204546  1
  Sb  Sb23  1  0.00329226  0.24653722  0.24722270  1
  Sb  Sb24  1  0.74748708  0.24946677  0.49845716  1
  Sb  Sb25  1  0.75035877  0.00207693  0.24641987  1
  Sb  Sb26  1  0.74818492  0.75354722  0.00067419  1
  Sb  Sb27  1  0.25177479  0.75300350  0.00214757  1
  Sb  Sb28  1  0.74276371  0.49756499  0.75102087  1
  Sb  Sb29  1  0.00278021  0.75310073  0.74903259  1
  Sb  Sb30  1  0.49864361  0.49112685  0.00210618  1
  Sb  Sb31  1  0.74869985  0.75073405  0.49905282  1
  Te  Te32  1  0.25322170  0.25062124  0.24706337  1
  Te  Te33  1  0.25510719  0.25312803  0.75429943  1
  Te  Te34  1  0.24838416  0.74926991  0.25228060  1
  Te  Te35  1  0.25431824  0.74616821  0.74655043  1
  Te  Te36  1  0.74516370  0.25376694  0.24551735  1
  Te  Te37  1  0.74438590  0.24735922  0.75554118  1
  Te  Te38  1  0.75525691  0.74402383  0.24997336  1
  Te  Te39  1  0.74409768  0.75370267  0.74999500  1
  Te  Te40  1  0.25032255  0.00321249  0.00273130  1
  Te  Te41  1  0.24685098  -0.00371785  0.49631557  1
  Te  Te42  1  0.24851118  0.49470894  0.00173665  1
  Te  Te43  1  0.25255816  0.50240247  0.49773077  1
  Te  Te44  1  0.74921083  0.00400902  -0.00192265  1
  Te  Te45  1  0.75547250  -0.00004878  0.50511144  1
  Te  Te46  1  0.75118884  0.49266815  0.00486892  1
  Te  Te47  1  0.74537944  0.49984616  0.49472602  1
  Te  Te48  1  0.00072302  0.24254511  0.00017669  1
  Te  Te49  1  -0.00023814  0.24116067  0.50031010  1
  Te  Te50  1  -0.00002493  0.75810485  0.00482283  1
  Te  Te51  1  0.00567048  0.75443847  0.49674701  1
  Te  Te52  1  0.49876735  0.24815930  0.00024239  1
  Te  Te53  1  0.49966717  0.25409890  0.49996423  1
  Te  Te54  1  0.49962513  0.75970822  -0.00599027  1
  Te  Te55  1  0.49473151  0.74703314  0.50358532  1
  Te  Te56  1  0.00172864  -0.00258102  0.24849475  1
  Te  Te57  1  -0.00434971  -0.00157248  0.75168446  1
  Te  Te58  1  0.00237007  0.50487529  0.25129336  1
  Te  Te59  1  0.00731002  0.50096996  0.74911294  1
  Te  Te60  1  0.49782925  0.00232160  0.24825914  1
  Te  Te61  1  0.50140779  0.00196265  0.75154013  1
  Te  Te62  1  0.49660166  0.49901809  0.25211525  1
  Te  Te63  1  0.49755072  0.49938659  0.74706863  1
