# generated using pymatgen
data_AgSbTe2
_symmetry_space_group_name_H-M   'P 1'
_cell_length_a   12.24488842
_cell_length_b   12.26536723
_cell_length_c   12.24542592
_cell_angle_alpha   90.00201635
_cell_angle_beta   90.00244211
_cell_angle_gamma   90.00279163
_symmetry_Int_Tables_number   1
_chemical_formula_structural   AgSbTe2
_chemical_formula_sum   'Ag16 Sb16 Te32'
_cell_volume   1839.11667524
_cell_formula_units_Z   16
loop_
 _symmetry_equiv_pos_site_id
 _symmetry_equiv_pos_as_xyz
  1  'x, y, z'
loop_
 _atom_site_type_symbol
 _atom_site_label
 _atom_site_symmetry_multiplicity
 _atom_site_fract_x
 _atom_site_fract_y
 _atom_site_fract_z
 _atom_site_occupancy
  Ag  Ag0  1  0.74954151  0.25132214  0.00972710  1
  Ag  Ag1  1  0.25235979  0.50289607  0.24929354  1
  Ag  Ag2  1  0.74949441  0.74883107  0.01562834  1
  Ag  Ag3  1  0.75020827  -0.00187750  0.75349288  1
  Ag  Ag4  1  0.25089004  0.74498259  0.48276315  1
  Ag  Ag5  1  0.74753410  0.50863636  0.24652390  1
  Ag  Ag6  1  0.00019873  0.74978936  0.24930075  1
  Ag  Ag7  1  0.25054795  0.74557885  0.01740404  1
  Ag  Ag8  1  0.24994405  0.25423394  0.01536263  1
  Ag  Ag9  1  0.00551946  0.25022844  0.24772541  1
  Ag  Ag10  1  0.49964179  0.50107930  0.01048667  1
  Ag  Ag11  1  0.74941233  0.74816373  0.48455061  1
  Ag  Ag12  1  0.75312716  -0.00906636  0.24615896  1
  Ag  Ag13  1  0.49704611  0.50268581  0.48915829  1
  Ag  Ag14  1  0.25062289  0.25443231  0.48435270  1
  Ag  Ag15  1  0.24691149  -0.00280664  0.24867731  1
  Sb  Sb16  1  -0.00334903  0.24765018  0.75302248  1
  Sb  Sb17  1  -0.00320457  0.75196656  0.75180652  1
  Sb  Sb18  1  0.50265812  0.75065292  0.75086077  1
  Sb  Sb19  1  0.50294167  -0.00283041  0.00467936  1
  Sb  Sb20  1  0.00512020  0.50048273  0.49250739  1
  Sb  Sb21  1  0.48903694  0.25627335  0.24821099  1
  Sb  Sb22  1  0.49997417  -0.00418645  0.49537356  1
  Sb  Sb23  1  0.74827298  0.50151023  0.75454177  1
  Sb  Sb24  1  0.25130627  0.50031126  0.75182523  1
  Sb  Sb25  1  0.74855795  0.25358733  0.48338525  1
  Sb  Sb26  1  -0.00320243  -0.00076015  0.00612066  1
  Sb  Sb27  1  0.24912515  -0.00063959  0.75178880  1
  Sb  Sb28  1  0.00135410  0.50024781  0.00696160  1
  Sb  Sb29  1  0.50334444  0.24932613  0.75050491  1
  Sb  Sb30  1  0.49937600  0.74419228  0.24924501  1
  Sb  Sb31  1  -0.00039171  -0.00066554  0.49385613  1
  Te  Te32  1  0.24731010  0.25107001  0.24706576  1
  Te  Te33  1  0.24569285  0.24496442  0.75310863  1
  Te  Te34  1  0.25263608  0.74852167  0.24939642  1
  Te  Te35  1  0.24510151  0.75517214  0.75006322  1
  Te  Te36  1  0.75883814  0.24977955  0.24817149  1
  Te  Te37  1  0.75416144  0.24267264  0.76186459  1
  Te  Te38  1  0.74779370  0.74946616  0.24845486  1
  Te  Te39  1  0.75443588  0.75626767  0.75140380  1
  Te  Te40  1  0.25495191  -0.00018305  0.00487256  1
  Te  Te41  1  0.25355566  -0.00250495  0.49528157  1
  Te  Te42  1  0.25578715  0.50044413  0.00165266  1
  Te  Te43  1  0.25566126  0.50332113  0.49791847  1
  Te  Te44  1  0.74554460  -0.00145945  0.00842969  1
  Te  Te45  1  0.74647392  -0.00615945  0.49288837  1
  Te  Te46  1  0.74347202  0.50115634  0.00309029  1
  Te  Te47  1  0.74101523  0.50369906  0.49577752  1
  Te  Te48  1  0.00182361  0.25136950  0.00905665  1
  Te  Te49  1  0.01023202  0.25156245  0.48987733  1
  Te  Te50  1  0.00015360  0.74915137  0.00932733  1
  Te  Te51  1  0.00070524  0.74916961  0.49016202  1
  Te  Te52  1  0.49947775  0.26025438  -0.00062387  1
  Te  Te53  1  0.49094701  0.26185024  0.50301245  1
  Te  Te54  1  0.49999742  0.74126184  -0.00264486  1
  Te  Te55  1  0.49858660  0.74166550  0.50300311  1
  Te  Te56  1  0.00016601  -0.00158451  0.24992752  1
  Te  Te57  1  -0.01386803  0.00055613  0.74847249  1
  Te  Te58  1  -0.00009637  0.50163611  0.24961324  1
  Te  Te59  1  -0.00184754  0.49935499  0.74826343  1
  Te  Te60  1  0.50126925  0.00306439  0.25029996  1
  Te  Te61  1  0.51457656  0.00014715  0.74842501  1
  Te  Te62  1  0.50037235  0.49813700  0.24943264  1
  Te  Te63  1  0.50115275  0.49994770  0.74965897  1
