# generated using pymatgen
data_AgSbTe2
_symmetry_space_group_name_H-M   'P 1'
_cell_length_a   12.26819187
_cell_length_b   12.28683614
_cell_length_c   12.27837582
_cell_angle_alpha   90.00349991
_cell_angle_beta   89.99664082
_cell_angle_gamma   90.00348384
_symmetry_Int_Tables_number   1
_chemical_formula_structural   AgSbTe2
_chemical_formula_sum   'Ag16 Sb16 Te32'
_cell_volume   1850.80875716
_cell_formula_units_Z   16
loop_
 _symmetry_equiv_pos_site_id
 _symmetry_equiv_pos_as_xyz
  1  'x, y, z'
loop_
 _atom_site_type_symbol
 _atom_site_label
 _atom_site_symmetry_multiplicity
 _atom_site_fract_x
 _atom_site_fract_y
 _atom_site_fract_z
 _atom_site_occupancy
  Ag  Ag0  1  0.76451517  0.73947864  0.49595485  1
  Ag  Ag1  1  0.76025700  0.50589880  0.25018165  1
  Ag  Ag2  1  0.75558269  -0.00544218  0.74940355  1
  Ag  Ag3  1  0.76244990  0.26159282  0.00311857  1
  Ag  Ag4  1  0.23707754  0.25498330  0.00748786  1
  Ag  Ag5  1  0.23267123  0.74834049  0.48947393  1
  Ag  Ag6  1  0.23550208  0.74617501  0.00953972  1
  Ag  Ag7  1  -0.00856709  0.51374852  0.48794592  1
  Ag  Ag8  1  0.75440593  0.50450685  0.74971983  1
  Ag  Ag9  1  -0.00073204  0.25890371  0.24398053  1
  Ag  Ag10  1  -0.00996290  0.50398608  0.01030326  1
  Ag  Ag11  1  0.23952504  -0.00558285  0.24962295  1
  Ag  Ag12  1  -0.00268908  -0.01448584  0.49322010  1
  Ag  Ag13  1  0.76444111  0.73851957  0.00363454  1
  Ag  Ag14  1  -0.00099573  0.74290294  0.25581101  1
  Ag  Ag15  1  0.51045438  0.50524445  0.49779345  1
  Sb  Sb16  1  -0.00129263  -0.00705234  0.00625778  1
  Sb  Sb17  1  0.75760664  -0.00444119  0.25262935  1
  Sb  Sb18  1  0.24370162  0.50048092  0.75092310  1
  Sb  Sb19  1  0.50271962  0.74772631  0.74894518  1
  Sb  Sb20  1  -0.00254156  0.74967940  0.74542005  1
  Sb  Sb21  1  0.50356474  -0.00587978  0.49875612  1
  Sb  Sb22  1  0.24199694  -0.00145144  0.74877499  1
  Sb  Sb23  1  0.24233207  0.25171807  0.49009113  1
  Sb  Sb24  1  0.75490627  0.25995932  0.49370872  1
  Sb  Sb25  1  0.50108937  0.74718432  0.25135416  1
  Sb  Sb26  1  0.50114735  0.25284621  0.24987882  1
  Sb  Sb27  1  0.50123330  -0.00049616  0.00112646  1
  Sb  Sb28  1  -0.00190867  0.25044103  0.76035610  1
  Sb  Sb29  1  0.50893143  0.50040100  0.00300934  1
  Sb  Sb30  1  0.50235428  0.25270933  0.75025940  1
  Sb  Sb31  1  0.23890870  0.50531506  0.24902125  1
  Te  Te32  1  0.24448669  0.24811371  0.24457858  1
  Te  Te33  1  0.25054575  0.24858767  0.76784230  1
  Te  Te34  1  0.24594213  0.74901869  0.24874780  1
  Te  Te35  1  0.25179804  0.75148903  0.75495263  1
  Te  Te36  1  0.75538136  0.24892746  0.24454390  1
  Te  Te37  1  0.75141020  0.25316267  0.76122940  1
  Te  Te38  1  0.75346511  0.75115942  0.24910390  1
  Te  Te39  1  0.75227261  0.74679146  0.75322734  1
  Te  Te40  1  0.25006022  -0.00634668  -0.00178699  1
  Te  Te41  1  0.24889498  -0.00543089  0.50266015  1
  Te  Te42  1  0.24686137  0.50481915  -0.00169200  1
  Te  Te43  1  0.24191447  0.50580862  0.50145504  1
  Te  Te44  1  0.75104969  -0.00454283  -0.00105445  1
  Te  Te45  1  0.75120053  -0.00554835  0.49862764  1
  Te  Te46  1  0.75222612  0.50447682  0.00078846  1
  Te  Te47  1  0.75845164  0.50115807  0.49928468  1
  Te  Te48  1  -0.00185150  0.25091815  0.00624284  1
  Te  Te49  1  0.00137792  0.25319805  0.48726818  1
  Te  Te50  1  -0.00155815  0.75026759  0.00305510  1
  Te  Te51  1  -0.00156297  0.74626622  0.49905653  1
  Te  Te52  1  0.49817453  0.25107482  0.00110637  1
  Te  Te53  1  0.49732488  0.26116741  0.49879080  1
  Te  Te54  1  0.49659235  0.74853532  0.00166054  1
  Te  Te55  1  0.50103518  0.74413169  0.49834018  1
  Te  Te56  1  0.00371258  -0.00398757  0.25480053  1
  Te  Te57  1  -0.00827999  0.00216430  0.73388843  1
  Te  Te58  1  -0.00437384  0.50355221  0.24822769  1
  Te  Te59  1  -0.00635501  0.49971120  0.75112023  1
  Te  Te60  1  0.48245027  0.00187502  0.25122823  1
  Te  Te61  1  0.51697388  0.00210204  0.74865944  1
  Te  Te62  1  0.51819923  0.49993816  0.25595426  1
  Te  Te63  1  0.51349502  0.49953098  0.74038859  1
