# generated using pymatgen
data_AgSbTe2
_symmetry_space_group_name_H-M   'P 1'
_cell_length_a   12.22271895
_cell_length_b   12.21371044
_cell_length_c   12.21521036
_cell_angle_alpha   89.99003895
_cell_angle_beta   90.00275008
_cell_angle_gamma   89.99851627
_symmetry_Int_Tables_number   1
_chemical_formula_structural   AgSbTe2
_chemical_formula_sum   'Ag16 Sb16 Te32'
_cell_volume   1823.54459438
_cell_formula_units_Z   16
loop_
 _symmetry_equiv_pos_site_id
 _symmetry_equiv_pos_as_xyz
  1  'x, y, z'
loop_
 _atom_site_type_symbol
 _atom_site_label
 _atom_site_symmetry_multiplicity
 _atom_site_fract_x
 _atom_site_fract_y
 _atom_site_fract_z
 _atom_site_occupancy
  Ag  Ag0  1  0.75708985  0.74380346  0.49878145  1
  Ag  Ag1  1  -0.00281154  0.74186162  0.74210896  1
  Ag  Ag2  1  0.75486327  0.50179841  0.25684780  1
  Ag  Ag3  1  0.24400221  0.49606251  0.74812353  1
  Ag  Ag4  1  -0.00166701  0.25870003  0.74908396  1
  Ag  Ag5  1  0.74904766  0.25128661  -0.00305495  1
  Ag  Ag6  1  0.50455971  0.49957049  0.50254940  1
  Ag  Ag7  1  0.50155947  0.25448774  0.75325967  1
  Ag  Ag8  1  -0.00444214  -0.00432286  0.49998970  1
  Ag  Ag9  1  -0.00445977  0.74506333  0.25804428  1
  Ag  Ag10  1  -0.00526601  0.50441304  0.50398462  1
  Ag  Ag11  1  0.75305208  -0.00037834  0.25095553  1
  Ag  Ag12  1  0.50277199  0.00561878  -0.00083642  1
  Ag  Ag13  1  0.75625954  0.49732050  0.74413064  1
  Ag  Ag14  1  0.24569037  0.49937235  0.25233210  1
  Ag  Ag15  1  0.25071753  0.25263538  -0.00396950  1
  Sb  Sb16  1  0.75211900  0.00256983  0.74922473  1
  Sb  Sb17  1  -0.00232119  0.00285909  0.00163352  1
  Sb  Sb18  1  0.75081005  0.25852757  0.50399059  1
  Sb  Sb19  1  0.50148454  0.25164137  0.24684829  1
  Sb  Sb20  1  -0.00127820  0.49803113  -0.00577413  1
  Sb  Sb21  1  0.24094262  0.74569928  0.50025191  1
  Sb  Sb22  1  0.24910407  0.25477456  0.50409321  1
  Sb  Sb23  1  0.24654945  0.00080189  0.24862584  1
  Sb  Sb24  1  0.50243438  0.74456418  0.74724974  1
  Sb  Sb25  1  0.75136520  0.74822058  0.00080370  1
  Sb  Sb26  1  0.24864137  0.74668749  -0.00070934  1
  Sb  Sb27  1  0.24779316  0.00381399  0.75105546  1
  Sb  Sb28  1  -0.00193134  0.25663165  0.25227914  1
  Sb  Sb29  1  0.50635535  0.00093691  0.50066983  1
  Sb  Sb30  1  0.50399085  0.74732076  0.25180409  1
  Sb  Sb31  1  0.50132533  0.49547008  -0.00288815  1
  Te  Te32  1  0.24986733  0.25623084  0.24236920  1
  Te  Te33  1  0.24884663  0.25394773  0.75334919  1
  Te  Te34  1  0.24268318  0.74298043  0.24905212  1
  Te  Te35  1  0.24464704  0.74213301  0.75116310  1
  Te  Te36  1  0.75083341  0.25144359  0.24340954  1
  Te  Te37  1  0.75125357  0.25307537  0.75322403  1
  Te  Te38  1  0.75397594  0.74631893  0.25043155  1
  Te  Te39  1  0.75403092  0.74528041  0.74830452  1
  Te  Te40  1  0.25538679  0.00709964  0.00177254  1
  Te  Te41  1  0.24425811  -0.00001513  0.49811227  1
  Te  Te42  1  0.25239748  0.49500186  -0.00008482  1
  Te  Te43  1  0.24939735  0.49993026  0.49992129  1
  Te  Te44  1  0.74696840  0.00402749  0.00396764  1
  Te  Te45  1  0.75244239  -0.00544400  0.49550294  1
  Te  Te46  1  0.74776278  0.49563282  0.00078840  1
  Te  Te47  1  0.75267090  0.50015017  0.49948732  1
  Te  Te48  1  -0.00091844  0.24817705  -0.00751914  1
  Te  Te49  1  -0.00029723  0.25112774  0.50614485  1
  Te  Te50  1  0.00040524  0.75260083  -0.00107783  1
  Te  Te51  1  -0.00334390  0.74691822  0.50090547  1
  Te  Te52  1  0.50149709  0.24752394  -0.00390099  1
  Te  Te53  1  0.49985363  0.25422727  0.50780340  1
  Te  Te54  1  0.49939949  0.76097608  -0.00092584  1
  Te  Te55  1  0.50915382  0.74578454  0.50122622  1
  Te  Te56  1  -0.00395325  -0.00340393  0.25399087  1
  Te  Te57  1  0.00009102  -0.00112756  0.74453468  1
  Te  Te58  1  -0.00217922  0.50117705  0.25363290  1
  Te  Te59  1  -0.00107169  0.49956944  0.74947289  1
  Te  Te60  1  0.50501982  -0.00041823  0.24883168  1
  Te  Te61  1  0.49940697  0.00571311  0.75190314  1
  Te  Te62  1  0.50081314  0.50029321  0.25582962  1
  Te  Te63  1  0.50034944  0.49722436  0.74688804  1
