# generated using pymatgen
data_AgSbTe2
_symmetry_space_group_name_H-M   'P 1'
_cell_length_a   12.27814388
_cell_length_b   12.30371529
_cell_length_c   12.29875191
_cell_angle_alpha   89.99250325
_cell_angle_beta   89.99561984
_cell_angle_gamma   90.00022111
_symmetry_Int_Tables_number   1
_chemical_formula_structural   AgSbTe2
_chemical_formula_sum   'Ag16 Sb16 Te32'
_cell_volume   1857.93290771
_cell_formula_units_Z   16
loop_
 _symmetry_equiv_pos_site_id
 _symmetry_equiv_pos_as_xyz
  1  'x, y, z'
loop_
 _atom_site_type_symbol
 _atom_site_label
 _atom_site_symmetry_multiplicity
 _atom_site_fract_x
 _atom_site_fract_y
 _atom_site_fract_z
 _atom_site_occupancy
  Ag  Ag0  1  0.25944339  0.76208266  0.51067212  1
  Ag  Ag1  1  0.74411573  0.24782407  0.00412268  1
  Ag  Ag2  1  0.74183658  0.00334491  0.73685058  1
  Ag  Ag3  1  0.26072012  0.51227562  0.74499573  1
  Ag  Ag4  1  0.50149671  0.00049265  0.50181841  1
  Ag  Ag5  1  0.25646851  0.75343812  -0.01288861  1
  Ag  Ag6  1  0.74393660  0.48881532  0.25796074  1
  Ag  Ag7  1  0.74111671  0.23978375  0.49562468  1
  Ag  Ag8  1  0.74118146  0.01030549  0.26512420  1
  Ag  Ag9  1  0.49183572  0.75572048  0.74236919  1
  Ag  Ag10  1  0.50137959  0.75635829  0.25909732  1
  Ag  Ag11  1  0.26068645  -0.01018130  0.73931435  1
  Ag  Ag12  1  0.50996779  0.24266798  0.25946456  1
  Ag  Ag13  1  -0.00231316  0.00085623  0.50139961  1
  Ag  Ag14  1  0.25836883  0.23800069  0.50430720  1
  Ag  Ag15  1  0.74220176  0.49742579  0.74394387  1
  Sb  Sb16  1  0.50210603  0.24396401  0.74049476  1
  Sb  Sb17  1  0.74545372  0.75105078  -0.00230191  1
  Sb  Sb18  1  0.26102364  -0.00119075  0.26180690  1
  Sb  Sb19  1  -0.00914428  0.24671103  0.25360124  1
  Sb  Sb20  1  0.49945401  0.00002054  -0.00286268  1
  Sb  Sb21  1  -0.00215184  0.50194685  0.50001100  1
  Sb  Sb22  1  -0.00089895  -0.00096992  -0.00020950  1
  Sb  Sb23  1  0.25715562  0.50136297  0.25626050  1
  Sb  Sb24  1  -0.00281853  0.24952495  0.74800427  1
  Sb  Sb25  1  -0.00404606  0.75428026  0.25494480  1
  Sb  Sb26  1  0.50005177  0.49893569  -0.00292569  1
  Sb  Sb27  1  0.00646037  0.75159639  0.74731314  1
  Sb  Sb28  1  0.25699604  0.24761479  -0.00239926  1
  Sb  Sb29  1  -0.00088313  0.50064645  -0.00057621  1
  Sb  Sb30  1  0.74090964  0.75897026  0.50152505  1
  Sb  Sb31  1  0.50224105  0.50040694  0.50139587  1
  Te  Te32  1  0.25753580  0.25257227  0.24970438  1
  Te  Te33  1  0.25295701  0.24994906  0.74888426  1
  Te  Te34  1  0.25835623  0.74815251  0.25267772  1
  Te  Te35  1  0.25281653  0.75054911  0.74616267  1
  Te  Te36  1  0.74695633  0.24826162  0.25772528  1
  Te  Te37  1  0.74698757  0.24939731  0.74403454  1
  Te  Te38  1  0.74370654  0.75009723  0.24968906  1
  Te  Te39  1  0.74336638  0.74891718  0.75040344  1
  Te  Te40  1  0.24804391  0.00200797  -0.01505004  1
  Te  Te41  1  0.25665303  0.00418117  0.50196705  1
  Te  Te42  1  0.24988670  0.49760361  -0.01079207  1
  Te  Te43  1  0.24894074  0.49498773  0.50363462  1
  Te  Te44  1  0.75017769  0.00233793  -0.00624507  1
  Te  Te45  1  0.74379735  -0.00025373  0.50337573  1
  Te  Te46  1  0.75015750  0.49656035  -0.00855777  1
  Te  Te47  1  0.75128944  0.49186829  0.50609767  1
  Te  Te48  1  -0.01065477  0.25011377  0.00080291  1
  Te  Te49  1  0.00523295  0.24254969  0.50036342  1
  Te  Te50  1  0.01716024  0.75046553  0.00231380  1
  Te  Te51  1  0.01680369  0.75754730  0.49883415  1
  Te  Te52  1  0.50642992  0.25028203  0.01527043  1
  Te  Te53  1  0.50044704  0.24640868  0.49827363  1
  Te  Te54  1  0.49512663  0.74970158  0.00020255  1
  Te  Te55  1  0.49799820  0.75307515  0.50062782  1
  Te  Te56  1  -0.01462998  -0.00096854  0.25565844  1
  Te  Te57  1  -0.00708641  -0.00052335  0.74447173  1
  Te  Te58  1  -0.01729632  0.50168812  0.25019852  1
  Te  Te59  1  -0.00853162  0.50002963  0.74975375  1
  Te  Te60  1  0.50295402  -0.00331807  0.25236445  1
  Te  Te61  1  0.50198119  -0.00187281  0.74869780  1
  Te  Te62  1  0.50557711  0.50560710  0.25132152  1
  Te  Te63  1  0.50250746  0.50794257  0.74887472  1
