# generated using pymatgen
data_AgSbTe2
_symmetry_space_group_name_H-M   'P 1'
_cell_length_a   12.21508469
_cell_length_b   12.21251539
_cell_length_c   12.21123906
_cell_angle_alpha   90.00175788
_cell_angle_beta   89.99784452
_cell_angle_gamma   90.00074016
_symmetry_Int_Tables_number   1
_chemical_formula_structural   AgSbTe2
_chemical_formula_sum   'Ag16 Sb16 Te32'
_cell_volume   1821.63490470
_cell_formula_units_Z   16
loop_
 _symmetry_equiv_pos_site_id
 _symmetry_equiv_pos_as_xyz
  1  'x, y, z'
loop_
 _atom_site_type_symbol
 _atom_site_label
 _atom_site_symmetry_multiplicity
 _atom_site_fract_x
 _atom_site_fract_y
 _atom_site_fract_z
 _atom_site_occupancy
  Ag  Ag0  1  0.50418118  0.50355026  0.50053322  1
  Ag  Ag1  1  -0.00321828  0.75230425  0.24265711  1
  Ag  Ag2  1  0.75036231  0.75043158  0.00175714  1
  Ag  Ag3  1  0.50060613  -0.00711695  0.00018371  1
  Ag  Ag4  1  0.50369725  0.50765683  -0.00072655  1
  Ag  Ag5  1  -0.00042784  0.75093811  0.75811449  1
  Ag  Ag6  1  0.74996367  0.24991513  0.49560828  1
  Ag  Ag7  1  0.74856741  0.74963620  0.49793423  1
  Ag  Ag8  1  0.75116501  0.24889812  0.00480279  1
  Ag  Ag9  1  0.25107465  -0.00559140  0.75635794  1
  Ag  Ag10  1  -0.00341220  0.50646754  0.00140813  1
  Ag  Ag11  1  0.50038031  0.75059460  0.75625651  1
  Ag  Ag12  1  0.24839284  -0.00337113  0.24461698  1
  Ag  Ag13  1  0.24996632  0.75374526  -0.00099549  1
  Ag  Ag14  1  0.75207718  -0.00137375  0.24589556  1
  Ag  Ag15  1  -0.00511396  0.24702146  0.24671621  1
  Sb  Sb16  1  0.24834830  0.50563784  0.24689575  1
  Sb  Sb17  1  -0.00508262  0.50218585  0.49963114  1
  Sb  Sb18  1  0.50373877  -0.00405333  0.50087226  1
  Sb  Sb19  1  -0.00140337  -0.00911818  0.00279514  1
  Sb  Sb20  1  0.74874260  0.50431597  0.75322167  1
  Sb  Sb21  1  0.25285319  0.75105166  0.50002122  1
  Sb  Sb22  1  0.25008389  0.24929406  0.49634823  1
  Sb  Sb23  1  0.50066132  0.24903127  0.75184303  1
  Sb  Sb24  1  0.74899371  -0.00487644  0.75667667  1
  Sb  Sb25  1  0.75113817  0.50258374  0.24658658  1
  Sb  Sb26  1  -0.00316533  -0.00191259  0.49783831  1
  Sb  Sb27  1  0.50473737  0.75147575  0.24159064  1
  Sb  Sb28  1  0.50746398  0.24820632  0.24911782  1
  Sb  Sb29  1  0.25082339  0.50648873  0.75335189  1
  Sb  Sb30  1  -0.00164058  0.24849408  0.75504462  1
  Sb  Sb31  1  0.24753695  0.24434662  0.00299653  1
  Te  Te32  1  0.24019201  0.24043763  0.25067562  1
  Te  Te33  1  0.24850115  0.23854321  0.74897893  1
  Te  Te34  1  0.24296908  0.75548643  0.24748705  1
  Te  Te35  1  0.24991285  0.75468456  0.75199927  1
  Te  Te36  1  0.75386074  0.24527122  0.24814037  1
  Te  Te37  1  0.75182319  0.24642099  0.74948477  1
  Te  Te38  1  0.75338134  0.75341055  0.24865966  1
  Te  Te39  1  0.75048276  0.75271276  0.75095446  1
  Te  Te40  1  0.25456607  -0.00274105  0.00186187  1
  Te  Te41  1  0.25212015  0.00041307  0.49704666  1
  Te  Te42  1  0.25214984  0.50576107  0.00023284  1
  Te  Te43  1  0.26025541  0.49888975  0.49988662  1
  Te  Te44  1  0.74660917  -0.00121369  0.00312681  1
  Te  Te45  1  0.74803515  -0.00065672  0.49273503  1
  Te  Te46  1  0.74822324  0.50166586  0.00030998  1
  Te  Te47  1  0.74476127  0.50128452  0.49982673  1
  Te  Te48  1  -0.00429225  0.25751286  0.00220272  1
  Te  Te49  1  -0.00745454  0.25330426  0.49523317  1
  Te  Te50  1  -0.00169167  0.74917733  0.00020405  1
  Te  Te51  1  -0.00654829  0.74727664  0.49967185  1
  Te  Te52  1  0.50584048  0.25225440  -0.00110120  1
  Te  Te53  1  0.50738046  0.25639609  0.50054972  1
  Te  Te54  1  0.50138693  0.74880261  -0.00043440  1
  Te  Te55  1  0.50424963  0.74657122  0.50594427  1
  Te  Te56  1  -0.00103105  -0.00113174  0.24983144  1
  Te  Te57  1  0.00621297  -0.00616210  0.74899777  1
  Te  Te58  1  0.00127027  0.50164419  0.24489589  1
  Te  Te59  1  0.00192911  0.50668094  0.75598368  1
  Te  Te60  1  0.49945116  0.00003542  0.24506266  1
  Te  Te61  1  0.49626754  -0.00516101  0.75455333  1
  Te  Te62  1  0.49814828  0.49969481  0.24735868  1
  Te  Te63  1  0.49894582  0.50587642  0.75368793  1
