# generated using pymatgen
data_AgSbTe2
_symmetry_space_group_name_H-M   'P 1'
_cell_length_a   12.20999570
_cell_length_b   12.21141608
_cell_length_c   12.20720717
_cell_angle_alpha   89.99716391
_cell_angle_beta   90.00211512
_cell_angle_gamma   90.00019964
_symmetry_Int_Tables_number   1
_chemical_formula_structural   AgSbTe2
_chemical_formula_sum   'Ag16 Sb16 Te32'
_cell_volume   1820.11091835
_cell_formula_units_Z   16
loop_
 _symmetry_equiv_pos_site_id
 _symmetry_equiv_pos_as_xyz
  1  'x, y, z'
loop_
 _atom_site_type_symbol
 _atom_site_label
 _atom_site_symmetry_multiplicity
 _atom_site_fract_x
 _atom_site_fract_y
 _atom_site_fract_z
 _atom_site_occupancy
  Ag  Ag0  1  0.00061225  0.74565944  0.24845221  1
  Ag  Ag1  1  0.00059559  0.25374416  0.25267963  1
  Ag  Ag2  1  0.24367673  0.49687576  0.24874772  1
  Ag  Ag3  1  0.75263128  0.00246138  0.25435680  1
  Ag  Ag4  1  0.49896199  0.00099927  0.00417609  1
  Ag  Ag5  1  0.50227271  0.49565049  0.49706604  1
  Ag  Ag6  1  0.75329645  0.49963088  0.74704465  1
  Ag  Ag7  1  -0.00033121  0.74710155  0.75088316  1
  Ag  Ag8  1  0.24841656  0.25111988  0.49423272  1
  Ag  Ag9  1  0.00236286  0.50154828  0.00626122  1
  Ag  Ag10  1  0.24773673  0.25240009  0.00594857  1
  Ag  Ag11  1  0.24559320  0.74795714  0.00326899  1
  Ag  Ag12  1  0.75092613  0.25077836  0.49487337  1
  Ag  Ag13  1  0.50219745  0.00393923  0.49629311  1
  Ag  Ag14  1  0.75644377  0.49688109  0.25332620  1
  Ag  Ag15  1  -0.00195801  0.00314366  0.49500676  1
  Sb  Sb16  1  0.24668606  0.74766969  0.49598194  1
  Sb  Sb17  1  0.75194740  0.00064248  0.74533735  1
  Sb  Sb18  1  0.50116018  0.25121602  0.74820571  1
  Sb  Sb19  1  0.49836547  0.24959644  0.25241009  1
  Sb  Sb20  1  0.24685733  0.00389562  0.25106169  1
  Sb  Sb21  1  0.75262279  0.25041411  0.00708495  1
  Sb  Sb22  1  0.49720779  0.49869979  0.00238009  1
  Sb  Sb23  1  0.75199467  0.74795556  0.49844072  1
  Sb  Sb24  1  -0.00127990  0.25306531  0.74780113  1
  Sb  Sb25  1  0.00088616  -0.00054105  0.00491516  1
  Sb  Sb26  1  0.49856236  0.75075993  0.24901313  1
  Sb  Sb27  1  0.75502934  0.74965292  0.00154601  1
  Sb  Sb28  1  0.24598784  0.50084497  0.74963580  1
  Sb  Sb29  1  0.24814348  -0.00065821  0.74949921  1
  Sb  Sb30  1  0.50029159  0.74829024  0.75108410  1
  Sb  Sb31  1  -0.00232378  0.49581831  0.49196461  1
  Te  Te32  1  0.24569931  0.25277709  0.25116297  1
  Te  Te33  1  0.24852601  0.25075877  0.74927225  1
  Te  Te34  1  0.24428137  0.74479423  0.24596409  1
  Te  Te35  1  0.24260271  0.74888717  0.75716790  1
  Te  Te36  1  0.75527400  0.25142456  0.25341611  1
  Te  Te37  1  0.75148355  0.25632560  0.74204731  1
  Te  Te38  1  0.75686981  0.74886627  0.24925217  1
  Te  Te39  1  0.75702817  0.74340282  0.75075416  1
  Te  Te40  1  0.25385551  0.00175975  0.00092310  1
  Te  Te41  1  0.25225040  0.00526014  0.49875000  1
  Te  Te42  1  0.24962363  0.49808687  0.00237569  1
  Te  Te43  1  0.25358161  0.49629240  0.49737552  1
  Te  Te44  1  0.74422952  0.00125249  0.00462373  1
  Te  Te45  1  0.74849989  0.00338913  0.49740856  1
  Te  Te46  1  0.75135218  0.49856562  0.00327271  1
  Te  Te47  1  0.74839006  0.49749046  0.49590487  1
  Te  Te48  1  0.00435059  0.25171583  0.00321055  1
  Te  Te49  1  0.00120884  0.24716878  0.49739494  1
  Te  Te50  1  0.00400672  0.74854340  0.00288659  1
  Te  Te51  1  0.00222717  0.75638897  0.49821470  1
  Te  Te52  1  0.49267968  0.24522466  -0.00100852  1
  Te  Te53  1  0.49921374  0.24829260  0.49990069  1
  Te  Te54  1  0.49124990  0.75491243  -0.00054605  1
  Te  Te55  1  0.49805121  0.75326690  0.50059043  1
  Te  Te56  1  -0.00299948  0.00048072  0.25264615  1
  Te  Te57  1  -0.00207485  -0.00630370  0.74381991  1
  Te  Te58  1  -0.00070666  0.49982525  0.25022072  1
  Te  Te59  1  -0.00414040  0.50379257  0.75517160  1
  Te  Te60  1  0.50607788  -0.00162287  0.25324023  1
  Te  Te61  1  0.50205387  -0.00155884  0.74686235  1
  Te  Te62  1  0.50186558  0.50162519  0.25451739  1
  Te  Te63  1  0.50781524  0.50170194  0.74422826  1
