# generated using pymatgen
data_AgSbTe2
_symmetry_space_group_name_H-M   'P 1'
_cell_length_a   12.21285806
_cell_length_b   12.23699928
_cell_length_c   12.22829757
_cell_angle_alpha   90.00192187
_cell_angle_beta   89.99192858
_cell_angle_gamma   90.00247754
_symmetry_Int_Tables_number   1
_chemical_formula_structural   AgSbTe2
_chemical_formula_sum   'Ag16 Sb16 Te32'
_cell_volume   1827.50358630
_cell_formula_units_Z   16
loop_
 _symmetry_equiv_pos_site_id
 _symmetry_equiv_pos_as_xyz
  1  'x, y, z'
loop_
 _atom_site_type_symbol
 _atom_site_label
 _atom_site_symmetry_multiplicity
 _atom_site_fract_x
 _atom_site_fract_y
 _atom_site_fract_z
 _atom_site_occupancy
  Ag  Ag0  1  0.74982907  0.25004259  -0.00312804  1
  Ag  Ag1  1  -0.00169358  0.50062230  0.50508558  1
  Ag  Ag2  1  0.75004888  0.24988291  0.50326245  1
  Ag  Ag3  1  0.75411628  0.49981972  0.74750129  1
  Ag  Ag4  1  0.50207354  -0.00044293  0.50072860  1
  Ag  Ag5  1  0.25029310  0.24987474  -0.00666056  1
  Ag  Ag6  1  0.74982449  0.75003605  -0.00182942  1
  Ag  Ag7  1  0.24996723  0.75010606  0.50525492  1
  Ag  Ag8  1  -0.00228138  0.74694203  0.74706877  1
  Ag  Ag9  1  0.50499655  0.75167029  0.25301635  1
  Ag  Ag10  1  0.24976328  0.00193402  0.74465130  1
  Ag  Ag11  1  0.74647792  -0.00108718  0.25256505  1
  Ag  Ag12  1  0.24608404  0.49845799  0.74442752  1
  Ag  Ag13  1  0.74999527  0.50065795  0.25204192  1
  Ag  Ag14  1  0.25001345  0.24994390  0.50698472  1
  Ag  Ag15  1  0.75016539  0.00059149  0.74775325  1
  Sb  Sb16  1  -0.00298920  0.25163848  0.25183904  1
  Sb  Sb17  1  0.50040461  0.24827559  0.74810081  1
  Sb  Sb18  1  0.50290163  -0.00077664  -0.00051604  1
  Sb  Sb19  1  -0.00263197  0.50098416  -0.00558956  1
  Sb  Sb20  1  0.50141122  0.50034586  0.49968004  1
  Sb  Sb21  1  0.50377108  0.24883232  0.25260516  1
  Sb  Sb22  1  0.50219620  0.50065851  0.00024146  1
  Sb  Sb23  1  0.24964895  0.50008424  0.25379876  1
  Sb  Sb24  1  -0.00021445  0.25413884  0.74832821  1
  Sb  Sb25  1  -0.00387534  0.74793215  0.25312703  1
  Sb  Sb26  1  0.50189531  0.75198639  0.74713222  1
  Sb  Sb27  1  0.74984173  0.75030547  0.50108781  1
  Sb  Sb28  1  -0.00221920  -0.00053658  -0.00335237  1
  Sb  Sb29  1  0.25367722  -0.00032704  0.25444284  1
  Sb  Sb30  1  0.25072844  0.75007591  -0.00531719  1
  Sb  Sb31  1  -0.00112501  -0.00028511  0.50356784  1
  Te  Te32  1  0.25084991  0.25009906  0.24998189  1
  Te  Te33  1  0.24962076  0.24960542  0.74777218  1
  Te  Te34  1  0.25313615  0.75006149  0.25208560  1
  Te  Te35  1  0.24936361  0.74986740  0.74940640  1
  Te  Te36  1  0.74899050  0.25052457  0.24968347  1
  Te  Te37  1  0.75022458  0.24960114  0.74984886  1
  Te  Te38  1  0.74903152  0.74998790  0.24874775  1
  Te  Te39  1  0.75081146  0.74987267  0.75165645  1
  Te  Te40  1  0.25106712  0.00550847  -0.00491546  1
  Te  Te41  1  0.25038210  0.00279196  0.50196488  1
  Te  Te42  1  0.24896956  0.49443428  -0.00424820  1
  Te  Te43  1  0.25016385  0.49723544  0.50186237  1
  Te  Te44  1  0.74869497  0.00360097  -0.00360599  1
  Te  Te45  1  0.74910443  0.00139077  0.50326367  1
  Te  Te46  1  0.75110455  0.49640764  -0.00264677  1
  Te  Te47  1  0.74991209  0.49856352  0.50335291  1
  Te  Te48  1  -0.00110011  0.24978598  0.00124531  1
  Te  Te49  1  0.00012915  0.25672333  0.49992921  1
  Te  Te50  1  -0.00608369  0.75007843  -0.00625684  1
  Te  Te51  1  0.00617045  0.74447862  0.50411986  1
  Te  Te52  1  0.50124574  0.25017369  0.00182400  1
  Te  Te53  1  0.49996408  0.24335203  0.49894526  1
  Te  Te54  1  0.50622920  0.75042241  0.00835105  1
  Te  Te55  1  0.49453567  0.75536052  0.49628414  1
  Te  Te56  1  -0.01060612  -0.00144347  0.25023848  1
  Te  Te57  1  -0.00112468  -0.00918853  0.74892123  1
  Te  Te58  1  -0.00705636  0.50089889  0.25962763  1
  Te  Te59  1  -0.00142020  0.50436927  0.74522055  1
  Te  Te60  1  0.50526040  -0.00514211  0.25615864  1
  Te  Te61  1  0.50108524  -0.00083143  0.74310145  1
  Te  Te62  1  0.50754225  0.50768811  0.25009487  1
  Te  Te63  1  0.50070710  0.50133706  0.75008535  1
