# generated using pymatgen
data_AgSbTe2
_symmetry_space_group_name_H-M   'P 1'
_cell_length_a   12.21879175
_cell_length_b   12.21857665
_cell_length_c   12.21851238
_cell_angle_alpha   90.00228008
_cell_angle_beta   89.99883855
_cell_angle_gamma   90.01356072
_symmetry_Int_Tables_number   1
_chemical_formula_structural   AgSbTe2
_chemical_formula_sum   'Ag16 Sb16 Te32'
_cell_volume   1824.17794680
_cell_formula_units_Z   16
loop_
 _symmetry_equiv_pos_site_id
 _symmetry_equiv_pos_as_xyz
  1  'x, y, z'
loop_
 _atom_site_type_symbol
 _atom_site_label
 _atom_site_symmetry_multiplicity
 _atom_site_fract_x
 _atom_site_fract_y
 _atom_site_fract_z
 _atom_site_occupancy
  Ag  Ag0  1  0.00057855  0.75058981  0.26024288  1
  Ag  Ag1  1  0.74930068  0.49933264  0.24977913  1
  Ag  Ag2  1  0.00496478  0.25111761  0.74651054  1
  Ag  Ag3  1  0.24619671  0.00427752  0.74140347  1
  Ag  Ag4  1  0.49913107  0.25222471  0.24894661  1
  Ag  Ag5  1  0.49612460  0.25419500  0.75097610  1
  Ag  Ag6  1  0.24904125  0.49531529  0.74726387  1
  Ag  Ag7  1  0.75955453  0.74807002  0.50116812  1
  Ag  Ag8  1  0.24799772  0.24590243  0.50639880  1
  Ag  Ag9  1  0.00246135  0.74958411  0.74043098  1
  Ag  Ag10  1  0.00648083  -0.00483719  0.50249294  1
  Ag  Ag11  1  0.50312591  0.49426398  -0.00266043  1
  Ag  Ag12  1  0.75032228  0.49729190  0.75083816  1
  Ag  Ag13  1  0.24086783  0.75492950  0.50297836  1
  Ag  Ag14  1  0.24796796  0.00097866  0.25858583  1
  Ag  Ag15  1  0.74679766  0.25522086  -0.00229289  1
  Sb  Sb16  1  0.49175546  0.00234450  0.50064237  1
  Sb  Sb17  1  0.49911885  0.00513481  -0.00142150  1
  Sb  Sb18  1  0.49987789  0.49769934  0.50323381  1
  Sb  Sb19  1  0.75289794  0.00152733  0.74686124  1
  Sb  Sb20  1  0.00117434  0.24952147  0.25445617  1
  Sb  Sb21  1  0.00114852  0.00184645  -0.00313631  1
  Sb  Sb22  1  0.00014665  0.50633910  0.50287158  1
  Sb  Sb23  1  0.25253574  0.25149747  -0.00704871  1
  Sb  Sb24  1  0.49804010  0.74625202  0.74808961  1
  Sb  Sb25  1  0.75176355  0.74495846  -0.00124871  1
  Sb  Sb26  1  0.25073701  0.49905561  0.25253976  1
  Sb  Sb27  1  0.75164872  0.00008013  0.25351386  1
  Sb  Sb28  1  0.24837472  0.74854282  -0.00323870  1
  Sb  Sb29  1  -0.00234877  0.49775843  -0.00323624  1
  Sb  Sb30  1  0.75279198  0.25205459  0.50253042  1
  Sb  Sb31  1  0.49931669  0.74799474  0.25207129  1
  Te  Te32  1  0.25145970  0.24921274  0.25397163  1
  Te  Te33  1  0.24914027  0.25096981  0.74910456  1
  Te  Te34  1  0.24741562  0.75109947  0.25457997  1
  Te  Te35  1  0.24753871  0.74988732  0.74682102  1
  Te  Te36  1  0.74802983  0.25338889  0.25063211  1
  Te  Te37  1  0.74923165  0.25312756  0.74838203  1
  Te  Te38  1  0.75231957  0.74715206  0.25214124  1
  Te  Te39  1  0.75294947  0.74660868  0.74746493  1
  Te  Te40  1  0.25053420  -0.00033068  0.00116453  1
  Te  Te41  1  0.24737366  -0.00031877  0.50121926  1
  Te  Te42  1  0.25683941  0.50024495  -0.00650829  1
  Te  Te43  1  0.25008216  0.49924177  0.50554231  1
  Te  Te44  1  0.74906024  0.00847112  0.00040300  1
  Te  Te45  1  0.75862883  -0.00776442  0.49992378  1
  Te  Te46  1  0.74666814  0.49649907  -0.00218429  1
  Te  Te47  1  0.74975785  0.50453177  0.50063102  1
  Te  Te48  1  -0.00682666  0.24957293  -0.00701136  1
  Te  Te49  1  0.00393990  0.24366962  0.50446124  1
  Te  Te50  1  -0.00076851  0.75063605  -0.00075119  1
  Te  Te51  1  0.00177195  0.75163196  0.50157811  1
  Te  Te52  1  0.50274330  0.25369279  -0.00108112  1
  Te  Te53  1  0.49610923  0.24921848  0.50054997  1
  Te  Te54  1  0.50095699  0.74193206  0.00028859  1
  Te  Te55  1  0.49998425  0.75132695  0.49990267  1
  Te  Te56  1  0.00403394  -0.00300154  0.25323026  1
  Te  Te57  1  0.00369109  -0.00095244  0.74789097  1
  Te  Te58  1  -0.00444024  0.50447956  0.24752896  1
  Te  Te59  1  -0.00021258  0.49947485  0.75124964  1
  Te  Te60  1  0.49436443  0.00583839  0.24922666  1
  Te  Te61  1  0.49335740  0.00704094  0.75125392  1
  Te  Te62  1  0.50290849  0.49597080  0.24578140  1
  Te  Te63  1  0.50146461  0.49638313  0.75207003  1
