# generated using pymatgen
data_AgSbTe2
_symmetry_space_group_name_H-M   'P 1'
_cell_length_a   12.21649898
_cell_length_b   12.21912216
_cell_length_c   12.22034066
_cell_angle_alpha   90.00352754
_cell_angle_beta   90.00291293
_cell_angle_gamma   90.00186123
_symmetry_Int_Tables_number   1
_chemical_formula_structural   AgSbTe2
_chemical_formula_sum   'Ag16 Sb16 Te32'
_cell_volume   1824.19004301
_cell_formula_units_Z   16
loop_
 _symmetry_equiv_pos_site_id
 _symmetry_equiv_pos_as_xyz
  1  'x, y, z'
loop_
 _atom_site_type_symbol
 _atom_site_label
 _atom_site_symmetry_multiplicity
 _atom_site_fract_x
 _atom_site_fract_y
 _atom_site_fract_z
 _atom_site_occupancy
  Ag  Ag0  1  -0.00216280  0.25537789  0.74696666  1
  Ag  Ag1  1  0.50027998  -0.00019233  0.00070196  1
  Ag  Ag2  1  0.00076413  0.49616930  0.49478946  1
  Ag  Ag3  1  0.00270197  0.74196390  0.25138302  1
  Ag  Ag4  1  0.49723969  0.74609380  0.24579688  1
  Ag  Ag5  1  0.00274441  0.00355715  0.49843389  1
  Ag  Ag6  1  0.75293495  0.49448795  0.75631031  1
  Ag  Ag7  1  0.75645902  0.49875327  0.24460162  1
  Ag  Ag8  1  0.75113140  0.25742533  -0.00189453  1
  Ag  Ag9  1  0.24205471  0.25205465  0.49976285  1
  Ag  Ag10  1  0.50467519  0.49972463  0.00109146  1
  Ag  Ag11  1  -0.00539139  0.49749216  0.00508315  1
  Ag  Ag12  1  0.24566301  0.74798596  0.49505266  1
  Ag  Ag13  1  -0.00095910  0.25852340  0.25333464  1
  Ag  Ag14  1  0.50266281  0.25348532  0.75355185  1
  Ag  Ag15  1  0.25099975  0.74678901  0.00581472  1
  Sb  Sb16  1  -0.00010772  0.00114424  0.00084991  1
  Sb  Sb17  1  0.50119862  0.25513954  0.24734383  1
  Sb  Sb18  1  0.49906665  0.74660367  0.75394713  1
  Sb  Sb19  1  0.75475367  0.74702542  0.49696292  1
  Sb  Sb20  1  0.00043953  0.74406077  0.74895752  1
  Sb  Sb21  1  0.49861295  0.49965250  0.49873865  1
  Sb  Sb22  1  0.49693182  0.00060062  0.49927009  1
  Sb  Sb23  1  0.74983137  0.74146930  0.00285417  1
  Sb  Sb24  1  0.24831905  0.25266797  0.00115643  1
  Sb  Sb25  1  0.24705204  0.49813746  0.75032973  1
  Sb  Sb26  1  0.75077362  0.00611089  0.75268982  1
  Sb  Sb27  1  0.24895156  0.00174360  0.74999273  1
  Sb  Sb28  1  0.75106819  0.00236594  0.24759877  1
  Sb  Sb29  1  0.24888096  -0.00185184  0.24984497  1
  Sb  Sb30  1  0.24203388  0.50215657  0.24942883  1
  Sb  Sb31  1  0.75807284  0.25299927  0.50145529  1
  Te  Te32  1  0.24462354  0.24946513  0.25489915  1
  Te  Te33  1  0.24868716  0.25036450  0.74620933  1
  Te  Te34  1  0.24879342  0.74985061  0.25035400  1
  Te  Te35  1  0.25063553  0.75018174  0.74785531  1
  Te  Te36  1  0.75310525  0.25528362  0.24600466  1
  Te  Te37  1  0.75082674  0.25470386  0.75273476  1
  Te  Te38  1  0.75155756  0.74399659  0.25011920  1
  Te  Te39  1  0.74919761  0.74048324  0.74928782  1
  Te  Te40  1  0.25553528  -0.00695658  -0.00041922  1
  Te  Te41  1  0.24479785  -0.00079972  0.50055919  1
  Te  Te42  1  0.25062177  0.50487184  -0.00030055  1
  Te  Te43  1  0.24568484  0.50056854  0.50051822  1
  Te  Te44  1  0.74499256  0.00913517  -0.00056891  1
  Te  Te45  1  0.75749227  -0.00078583  0.50035691  1
  Te  Te46  1  0.75190204  0.49734879  0.00118331  1
  Te  Te47  1  0.75462569  0.49975110  0.49835674  1
  Te  Te48  1  0.00133467  0.25081630  0.00037924  1
  Te  Te49  1  0.00168163  0.25341620  0.49931410  1
  Te  Te50  1  0.00343831  0.74921734  0.00266058  1
  Te  Te51  1  0.00433963  0.74734223  0.49841145  1
  Te  Te52  1  0.49862228  0.25347259  -0.00096757  1
  Te  Te53  1  0.49233969  0.24830578  0.50367069  1
  Te  Te54  1  0.49759785  0.74712757  0.00223552  1
  Te  Te55  1  0.49149853  0.75166574  0.49526438  1
  Te  Te56  1  -0.00179924  -0.00111262  0.25354000  1
  Te  Te57  1  -0.00160573  0.00790166  0.74581704  1
  Te  Te58  1  -0.00225441  0.50021826  0.24881334  1
  Te  Te59  1  -0.00370011  0.49631263  0.75151367  1
  Te  Te60  1  0.50264246  -0.00598001  0.24499602  1
  Te  Te61  1  0.50187510  0.00577935  0.75517786  1
  Te  Te62  1  0.50757138  0.50256468  0.24747788  1
  Te  Te63  1  0.50566208  0.49577240  0.75234449  1
