# generated using pymatgen
data_AgSbTe2
_symmetry_space_group_name_H-M   'P 1'
_cell_length_a   12.21731396
_cell_length_b   12.23490637
_cell_length_c   12.22230566
_cell_angle_alpha   90.00579609
_cell_angle_beta   89.98136551
_cell_angle_gamma   89.99951481
_symmetry_Int_Tables_number   1
_chemical_formula_structural   AgSbTe2
_chemical_formula_sum   'Ag16 Sb16 Te32'
_cell_volume   1826.96194006
_cell_formula_units_Z   16
loop_
 _symmetry_equiv_pos_site_id
 _symmetry_equiv_pos_as_xyz
  1  'x, y, z'
loop_
 _atom_site_type_symbol
 _atom_site_label
 _atom_site_symmetry_multiplicity
 _atom_site_fract_x
 _atom_site_fract_y
 _atom_site_fract_z
 _atom_site_occupancy
  Ag  Ag0  1  -0.00282437  0.75050495  0.75313738  1
  Ag  Ag1  1  0.50696966  0.75232582  0.25019456  1
  Ag  Ag2  1  0.75690386  0.25290635  -0.00258740  1
  Ag  Ag3  1  0.75434850  0.24638405  0.50275787  1
  Ag  Ag4  1  0.24482459  0.24573826  0.50656448  1
  Ag  Ag5  1  -0.00195273  0.24914926  0.74927442  1
  Ag  Ag6  1  0.24056027  0.49686822  0.75029112  1
  Ag  Ag7  1  0.75227959  0.50020183  0.24518665  1
  Ag  Ag8  1  0.75149056  -0.00007095  0.25063370  1
  Ag  Ag9  1  -0.00772385  0.49937074  -0.00799043  1
  Ag  Ag10  1  0.75971566  0.49712964  0.75529230  1
  Ag  Ag11  1  -0.00212006  0.00466745  0.50754959  1
  Ag  Ag12  1  0.24143729  0.00336233  0.74638575  1
  Ag  Ag13  1  0.75503501  0.74787787  0.00038706  1
  Ag  Ag14  1  -0.00545070  0.00082394  -0.00735434  1
  Ag  Ag15  1  0.50327389  0.00158434  0.50030887  1
  Sb  Sb16  1  0.50883462  0.50113708  0.00006790  1
  Sb  Sb17  1  0.75213061  0.75325840  0.50018368  1
  Sb  Sb18  1  -0.00534024  0.75031848  0.24724863  1
  Sb  Sb19  1  0.24817011  0.00088850  0.25184287  1
  Sb  Sb20  1  -0.00209011  0.49540899  0.50877460  1
  Sb  Sb21  1  0.24778534  0.75316825  0.50240696  1
  Sb  Sb22  1  0.24126604  0.24955803  -0.00760686  1
  Sb  Sb23  1  0.50574206  -0.00158657  -0.00086943  1
  Sb  Sb24  1  -0.00437634  0.24982914  0.25121247  1
  Sb  Sb25  1  0.24686963  0.49912213  0.24928992  1
  Sb  Sb26  1  0.50532242  0.24807291  0.25198901  1
  Sb  Sb27  1  0.50221696  0.49969580  0.49992413  1
  Sb  Sb28  1  0.50290293  0.24887417  0.74841069  1
  Sb  Sb29  1  0.75861417  0.00293534  0.74950034  1
  Sb  Sb30  1  0.50381225  0.75211579  0.75013130  1
  Sb  Sb31  1  0.24461364  0.75020691  -0.00323167  1
  Te  Te32  1  0.25245370  0.25164833  0.25995197  1
  Te  Te33  1  0.24735686  0.24996196  0.74716624  1
  Te  Te34  1  0.25949953  0.74798375  0.24955347  1
  Te  Te35  1  0.24541072  0.74832581  0.75101191  1
  Te  Te36  1  0.75031202  0.24963436  0.25086951  1
  Te  Te37  1  0.75258263  0.25208663  0.74916233  1
  Te  Te38  1  0.74872346  0.75034251  0.24849231  1
  Te  Te39  1  0.75414132  0.74510061  0.75289374  1
  Te  Te40  1  0.24340899  0.00172995  -0.00299021  1
  Te  Te41  1  0.24664753  0.00316554  0.50137427  1
  Te  Te42  1  0.24259806  0.49842828  -0.00441297  1
  Te  Te43  1  0.24989827  0.49376285  0.50406133  1
  Te  Te44  1  0.75312624  0.00051598  0.00094816  1
  Te  Te45  1  0.75196799  0.00336275  0.49949099  1
  Te  Te46  1  0.75229538  0.49862867  -0.00096657  1
  Te  Te47  1  0.75043643  0.49390903  0.49954658  1
  Te  Te48  1  -0.00419495  0.24838140  -0.00338207  1
  Te  Te49  1  -0.00305246  0.24683902  0.50302701  1
  Te  Te50  1  -0.00463930  0.75155033  -0.00304355  1
  Te  Te51  1  -0.00000439  0.75793126  0.50595926  1
  Te  Te52  1  0.51030275  0.24938562  0.00041648  1
  Te  Te53  1  0.50353417  0.24389772  0.50054494  1
  Te  Te54  1  0.50855097  0.75086734  0.00355608  1
  Te  Te55  1  0.49993822  0.75679165  0.49685262  1
  Te  Te56  1  -0.00400098  -0.00089231  0.24897133  1
  Te  Te57  1  0.00007228  0.00149693  0.75036047  1
  Te  Te58  1  -0.00559143  0.50174235  0.24233537  1
  Te  Te59  1  -0.00134018  0.49902359  0.75060900  1
  Te  Te60  1  0.50366949  -0.00270092  0.25277157  1
  Te  Te61  1  0.48953874  -0.00164700  0.74531852  1
  Te  Te62  1  0.50553950  0.50571827  0.25042915  1
  Te  Te63  1  0.49757716  0.50120030  0.74981461  1
