# generated using pymatgen
data_AgSbTe2
_symmetry_space_group_name_H-M   'P 1'
_cell_length_a   12.22202543
_cell_length_b   12.22674973
_cell_length_c   12.23678743
_cell_angle_alpha   89.99450918
_cell_angle_beta   89.99924099
_cell_angle_gamma   89.98314038
_symmetry_Int_Tables_number   1
_chemical_formula_structural   AgSbTe2
_chemical_formula_sum   'Ag16 Sb16 Te32'
_cell_volume   1828.61214894
_cell_formula_units_Z   16
loop_
 _symmetry_equiv_pos_site_id
 _symmetry_equiv_pos_as_xyz
  1  'x, y, z'
loop_
 _atom_site_type_symbol
 _atom_site_label
 _atom_site_symmetry_multiplicity
 _atom_site_fract_x
 _atom_site_fract_y
 _atom_site_fract_z
 _atom_site_occupancy
  Ag  Ag0  1  0.50019262  0.50340143  0.51310782  1
  Ag  Ag1  1  0.49664286  0.73535694  0.75198799  1
  Ag  Ag2  1  0.74111078  0.49831809  0.24204760  1
  Ag  Ag3  1  0.50096146  0.74013115  0.24767876  1
  Ag  Ag4  1  0.25533924  0.74702340  0.50220019  1
  Ag  Ag5  1  0.74905509  0.00093360  0.24623379  1
  Ag  Ag6  1  0.73510366  0.49911945  0.75775720  1
  Ag  Ag7  1  -0.00315136  -0.00110732  0.00206170  1
  Ag  Ag8  1  0.50435869  0.50097169  -0.01186934  1
  Ag  Ag9  1  0.74569640  0.25673549  0.00258784  1
  Ag  Ag10  1  -0.00475580  0.50103842  -0.00061492  1
  Ag  Ag11  1  0.26512151  0.50415341  0.75342041  1
  Ag  Ag12  1  0.50574018  0.26048892  0.24581462  1
  Ag  Ag13  1  -0.00079794  -0.00274648  0.49741788  1
  Ag  Ag14  1  0.25468364  0.74495787  -0.00213268  1
  Ag  Ag15  1  0.50261799  0.26533069  0.75381444  1
  Sb  Sb16  1  0.50217554  -0.00077633  0.00189117  1
  Sb  Sb17  1  0.74687402  0.25091073  0.49788093  1
  Sb  Sb18  1  0.25352960  0.25326869  -0.00205597  1
  Sb  Sb19  1  -0.00133991  0.74872188  0.24813198  1
  Sb  Sb20  1  0.74569513  0.74881302  0.49965572  1
  Sb  Sb21  1  0.00216563  0.74760625  0.75157090  1
  Sb  Sb22  1  -0.00271964  0.25300723  0.75220790  1
  Sb  Sb23  1  0.49951672  -0.00304382  0.49802344  1
  Sb  Sb24  1  -0.00501498  0.25088233  0.24708811  1
  Sb  Sb25  1  0.26026205  0.50239240  0.24666356  1
  Sb  Sb26  1  0.00003599  0.50213500  0.49991783  1
  Sb  Sb27  1  0.24992311  -0.00191861  0.24853603  1
  Sb  Sb28  1  0.25112691  -0.00292640  0.75139367  1
  Sb  Sb29  1  0.74611458  0.74300129  0.00046979  1
  Sb  Sb30  1  0.74882900  0.00047711  0.75308350  1
  Sb  Sb31  1  0.25401141  0.25241644  0.50201077  1
  Te  Te32  1  0.26063371  0.24985938  0.25032664  1
  Te  Te33  1  0.25751861  0.25619763  0.75028369  1
  Te  Te34  1  0.25694154  0.74992119  0.24920550  1
  Te  Te35  1  0.25349771  0.74747946  0.75159109  1
  Te  Te36  1  0.74601925  0.25209602  0.24766193  1
  Te  Te37  1  0.74577081  0.25298811  0.75376844  1
  Te  Te38  1  0.74416325  0.74920871  0.25011044  1
  Te  Te39  1  0.74289758  0.74561614  0.74940374  1
  Te  Te40  1  0.24221757  -0.00507600  -0.00000591  1
  Te  Te41  1  0.24552501  -0.00528191  0.50000864  1
  Te  Te42  1  0.25064516  0.50235875  -0.00184305  1
  Te  Te43  1  0.25099924  0.50383141  0.50379786  1
  Te  Te44  1  0.75409189  0.00422167  0.00294636  1
  Te  Te45  1  0.75514805  -0.00051497  0.49601540  1
  Te  Te46  1  0.74807965  0.49992335  0.00016107  1
  Te  Te47  1  0.74808355  0.50034201  0.49980066  1
  Te  Te48  1  -0.00340362  0.25154006  0.00014953  1
  Te  Te49  1  0.00127609  0.24236740  0.49952987  1
  Te  Te50  1  0.00595935  0.74803159  0.00040287  1
  Te  Te51  1  0.00792650  0.75401038  0.49986538  1
  Te  Te52  1  0.50230718  0.24984172  0.00032463  1
  Te  Te53  1  0.49936640  0.25440308  0.50044844  1
  Te  Te54  1  0.49693761  0.74944602  0.00024198  1
  Te  Te55  1  0.49665698  0.74696041  0.50017631  1
  Te  Te56  1  -0.00528007  -0.00006862  0.24699842  1
  Te  Te57  1  -0.00088267  0.00047694  0.75251866  1
  Te  Te58  1  -0.00916850  0.49935478  0.24580994  1
  Te  Te59  1  -0.00221670  0.49934457  0.75360132  1
  Te  Te60  1  0.50551313  -0.00034751  0.25061892  1
  Te  Te61  1  0.50092464  0.00066071  0.74902403  1
  Te  Te62  1  0.50152548  0.50098814  0.24837032  1
  Te  Te63  1  0.50122145  0.50074542  0.75070423  1
