# generated using pymatgen
data_AgSbTe2
_symmetry_space_group_name_H-M   'P 1'
_cell_length_a   12.21276223
_cell_length_b   12.21496611
_cell_length_c   12.22362207
_cell_angle_alpha   89.99754372
_cell_angle_beta   90.00293200
_cell_angle_gamma   89.99284311
_symmetry_Int_Tables_number   1
_chemical_formula_structural   AgSbTe2
_chemical_formula_sum   'Ag16 Sb16 Te32'
_cell_volume   1823.50130265
_cell_formula_units_Z   16
loop_
 _symmetry_equiv_pos_site_id
 _symmetry_equiv_pos_as_xyz
  1  'x, y, z'
loop_
 _atom_site_type_symbol
 _atom_site_label
 _atom_site_symmetry_multiplicity
 _atom_site_fract_x
 _atom_site_fract_y
 _atom_site_fract_z
 _atom_site_occupancy
  Ag  Ag0  1  0.49676429  0.50803372  0.00296000  1
  Ag  Ag1  1  0.24769604  -0.00197412  0.75225808  1
  Ag  Ag2  1  0.00814955  0.00300572  0.49941758  1
  Ag  Ag3  1  0.49103040  -0.00892508  -0.00042382  1
  Ag  Ag4  1  0.49454602  0.50278629  0.49639326  1
  Ag  Ag5  1  0.24648261  0.24665310  0.49740269  1
  Ag  Ag6  1  0.00892218  -0.00051524  0.00060082  1
  Ag  Ag7  1  0.74337517  0.74983822  0.00082738  1
  Ag  Ag8  1  0.24683276  -0.00038297  0.24810571  1
  Ag  Ag9  1  0.25586534  0.75598251  0.00033149  1
  Ag  Ag10  1  0.25284743  0.50014431  0.25053973  1
  Ag  Ag11  1  0.25208225  0.75310144  0.49891826  1
  Ag  Ag12  1  0.00543172  0.24499165  0.74880957  1
  Ag  Ag13  1  0.49520084  0.75100764  0.75590828  1
  Ag  Ag14  1  0.00547048  0.24659892  0.25129167  1
  Ag  Ag15  1  0.74736788  0.50074968  0.24791631  1
  Sb  Sb16  1  0.74773156  0.50238398  0.75263092  1
  Sb  Sb17  1  0.75315953  0.25143796  0.49766570  1
  Sb  Sb18  1  0.49627816  0.74808556  0.24241831  1
  Sb  Sb19  1  0.00570455  0.75504834  0.75071228  1
  Sb  Sb20  1  0.74698974  0.74824515  0.49833640  1
  Sb  Sb21  1  0.49435926  0.24799339  0.74924446  1
  Sb  Sb22  1  0.75092977  0.25144309  0.00210311  1
  Sb  Sb23  1  0.00622665  0.49816592  0.49705403  1
  Sb  Sb24  1  0.48989210  -0.00397500  0.49975517  1
  Sb  Sb25  1  0.75229483  -0.00060572  0.24687059  1
  Sb  Sb26  1  0.00415918  0.75447249  0.24956583  1
  Sb  Sb27  1  0.75150350  -0.00170357  0.75161332  1
  Sb  Sb28  1  0.49396275  0.25202656  0.25058596  1
  Sb  Sb29  1  0.00386049  0.50153146  0.00303856  1
  Sb  Sb30  1  0.24874057  0.24343925  0.00314769  1
  Sb  Sb31  1  0.25211585  0.50179641  0.75088039  1
  Te  Te32  1  0.24590745  0.25008116  0.25326316  1
  Te  Te33  1  0.24617362  0.24549910  0.74436989  1
  Te  Te34  1  0.24911668  0.75015921  0.25045388  1
  Te  Te35  1  0.25279047  0.75292486  0.75105493  1
  Te  Te36  1  0.75871267  0.25583853  0.25046864  1
  Te  Te37  1  0.75905698  0.25026704  0.74979658  1
  Te  Te38  1  0.75196950  0.74381858  0.24514234  1
  Te  Te39  1  0.74290097  0.74965799  0.75582916  1
  Te  Te40  1  0.24981698  -0.00044683  0.00121564  1
  Te  Te41  1  0.24887508  -0.00151729  0.49811242  1
  Te  Te42  1  0.25326767  0.50506853  0.00350600  1
  Te  Te43  1  0.25298184  0.50206166  0.49706244  1
  Te  Te44  1  0.74913095  -0.00578645  0.00170895  1
  Te  Te45  1  0.75896195  -0.00159749  0.49882057  1
  Te  Te46  1  0.74627515  0.50463740  0.00416792  1
  Te  Te47  1  0.74228616  0.50224277  0.49366525  1
  Te  Te48  1  -0.00022183  0.24459071  0.00050626  1
  Te  Te49  1  0.00327907  0.24761530  0.49874962  1
  Te  Te50  1  0.00286768  0.75474012  -0.00172198  1
  Te  Te51  1  0.00554178  0.75458965  0.50227576  1
  Te  Te52  1  0.50069766  0.25168120  -0.00165812  1
  Te  Te53  1  0.49489356  0.25506191  0.50162888  1
  Te  Te54  1  0.49661237  0.75010497  -0.00100219  1
  Te  Te55  1  0.49575512  0.74726088  0.50618362  1
  Te  Te56  1  0.00297890  0.00339418  0.24848945  1
  Te  Te57  1  0.00366358  0.00234960  0.75141944  1
  Te  Te58  1  0.00293185  0.49339058  0.24935361  1
  Te  Te59  1  -0.00075655  0.49086512  0.75014099  1
  Te  Te60  1  0.49545027  0.00231161  0.24521831  1
  Te  Te61  1  0.49578291  -0.00286029  0.75367196  1
  Te  Te62  1  0.49644105  0.49865846  0.24874086  1
  Te  Te63  1  0.49988506  0.50245615  0.75248603  1
