# generated using pymatgen
data_AgSbTe2
_symmetry_space_group_name_H-M   'P 1'
_cell_length_a   12.30754909
_cell_length_b   12.30860248
_cell_length_c   12.27727227
_cell_angle_alpha   90.00828428
_cell_angle_beta   90.00603160
_cell_angle_gamma   90.00203795
_symmetry_Int_Tables_number   1
_chemical_formula_structural   AgSbTe2
_chemical_formula_sum   'Ag16 Sb16 Te32'
_cell_volume   1859.86834311
_cell_formula_units_Z   16
loop_
 _symmetry_equiv_pos_site_id
 _symmetry_equiv_pos_as_xyz
  1  'x, y, z'
loop_
 _atom_site_type_symbol
 _atom_site_label
 _atom_site_symmetry_multiplicity
 _atom_site_fract_x
 _atom_site_fract_y
 _atom_site_fract_z
 _atom_site_occupancy
  Ag  Ag0  1  0.00657683  -0.00556112  -0.00978313  1
  Ag  Ag1  1  0.76091777  0.75873749  -0.00961728  1
  Ag  Ag2  1  0.24762420  0.00300790  0.23271492  1
  Ag  Ag3  1  0.75778364  -0.00627699  0.76271605  1
  Ag  Ag4  1  0.50555572  0.75802663  0.75639186  1
  Ag  Ag5  1  -0.00582289  0.75134136  0.75972199  1
  Ag  Ag6  1  0.49884607  0.24388624  0.75673646  1
  Ag  Ag7  1  0.23838543  0.76483567  -0.00734824  1
  Ag  Ag8  1  -0.00217686  0.50645387  -0.01085017  1
  Ag  Ag9  1  0.75212798  -0.00006548  0.23471954  1
  Ag  Ag10  1  0.00015779  0.24870819  0.75824361  1
  Ag  Ag11  1  0.24463190  0.23481675  -0.00651999  1
  Ag  Ag12  1  0.24046111  0.00026441  0.76553996  1
  Ag  Ag13  1  0.76009404  0.50559657  0.75609851  1
  Ag  Ag14  1  -0.00274279  0.50044627  0.51878545  1
  Ag  Ag15  1  0.49696029  0.24328006  0.23708697  1
  Sb  Sb16  1  0.75166224  0.24961837  0.50216416  1
  Sb  Sb17  1  0.00081592  0.75171522  0.23884052  1
  Sb  Sb18  1  0.49447916  0.00264106  -0.00432352  1
  Sb  Sb19  1  0.75156025  0.49995393  0.23992040  1
  Sb  Sb20  1  0.24926130  0.49646402  0.24231457  1
  Sb  Sb21  1  0.50084681  -0.00008691  0.50293958  1
  Sb  Sb22  1  -0.00012168  -0.00064852  0.51133347  1
  Sb  Sb23  1  0.49963832  0.75677338  0.24004918  1
  Sb  Sb24  1  0.50316966  0.49864983  0.50714086  1
  Sb  Sb25  1  0.24820237  0.24865238  0.50665077  1
  Sb  Sb26  1  0.50629791  0.49867992  -0.00365433  1
  Sb  Sb27  1  0.24670460  0.75241294  0.51060906  1
  Sb  Sb28  1  0.24156358  0.49883828  0.75363273  1
  Sb  Sb29  1  0.75561919  0.23994188  -0.00315953  1
  Sb  Sb30  1  0.75256587  0.75023470  0.51093246  1
  Sb  Sb31  1  0.00273785  0.24707026  0.24154136  1
  Te  Te32  1  0.25041559  0.24629725  0.24487418  1
  Te  Te33  1  0.25170802  0.24911166  0.75276660  1
  Te  Te34  1  0.25307712  0.75771831  0.24087334  1
  Te  Te35  1  0.24918974  0.75206595  0.75354006  1
  Te  Te36  1  0.74543467  0.24428946  0.24879499  1
  Te  Te37  1  0.74818878  0.24388631  0.75271801  1
  Te  Te38  1  0.74708578  0.75636195  0.24053821  1
  Te  Te39  1  0.75219621  0.75614794  0.75370885  1
  Te  Te40  1  0.25035697  -0.00016067  -0.00442949  1
  Te  Te41  1  0.24824745  -0.00123582  0.49440129  1
  Te  Te42  1  0.24026281  0.50252138  0.00056053  1
  Te  Te43  1  0.23912408  0.50147795  0.49638599  1
  Te  Te44  1  0.75292488  -0.00062896  -0.00359590  1
  Te  Te45  1  0.75147634  -0.00071561  0.49529036  1
  Te  Te46  1  0.75499732  0.50656192  -0.00358080  1
  Te  Te47  1  0.75665372  0.50068332  0.50677436  1
  Te  Te48  1  0.00231167  0.24555934  -0.00470525  1
  Te  Te49  1  0.00011205  0.25374758  0.51412690  1
  Te  Te50  1  0.00144568  0.75468973  -0.00312804  1
  Te  Te51  1  0.00043013  0.74635953  0.51384370  1
  Te  Te52  1  0.49106863  0.25100745  -0.00581566  1
  Te  Te53  1  0.49952797  0.25067418  0.50997628  1
  Te  Te54  1  0.49802577  0.74769935  -0.00651700  1
  Te  Te55  1  0.49867947  0.74769503  0.51510690  1
  Te  Te56  1  -0.00104950  0.00010726  0.24504504  1
  Te  Te57  1  -0.00062837  0.00144237  0.75370205  1
  Te  Te58  1  -0.00215760  0.49961936  0.24544650  1
  Te  Te59  1  -0.00246756  0.49818616  0.75616433  1
  Te  Te60  1  0.50134427  0.00444188  0.25199070  1
  Te  Te61  1  0.50374426  0.00353409  0.75115185  1
  Te  Te62  1  0.50189952  0.48859842  0.25352047  1
  Te  Te63  1  0.51199056  0.49384740  0.74890239  1
