# generated using pymatgen
data_AgSbTe2
_symmetry_space_group_name_H-M   'P 1'
_cell_length_a   12.24681910
_cell_length_b   12.24498170
_cell_length_c   12.26157809
_cell_angle_alpha   90.00033982
_cell_angle_beta   89.99653674
_cell_angle_gamma   90.00636678
_symmetry_Int_Tables_number   1
_chemical_formula_structural   AgSbTe2
_chemical_formula_sum   'Ag16 Sb16 Te32'
_cell_volume   1838.77168693
_cell_formula_units_Z   16
loop_
 _symmetry_equiv_pos_site_id
 _symmetry_equiv_pos_as_xyz
  1  'x, y, z'
loop_
 _atom_site_type_symbol
 _atom_site_label
 _atom_site_symmetry_multiplicity
 _atom_site_fract_x
 _atom_site_fract_y
 _atom_site_fract_z
 _atom_site_occupancy
  Ag  Ag0  1  0.74596123  0.24172240  0.49971304  1
  Ag  Ag1  1  0.24708084  0.75788856  0.50015097  1
  Ag  Ag2  1  0.00008955  0.50275497  0.00303987  1
  Ag  Ag3  1  0.25081895  -0.00209386  0.25741984  1
  Ag  Ag4  1  0.75297680  0.75712330  0.50036839  1
  Ag  Ag5  1  0.24727968  0.75331007  -0.00022019  1
  Ag  Ag6  1  0.50244868  0.24080226  0.74416136  1
  Ag  Ag7  1  0.50308235  0.24302447  0.25635802  1
  Ag  Ag8  1  0.25687844  -0.00262920  0.74242467  1
  Ag  Ag9  1  0.00259699  0.75124009  0.25491064  1
  Ag  Ag10  1  0.74881047  0.00314813  0.25735107  1
  Ag  Ag11  1  0.74313508  0.00235659  0.74248051  1
  Ag  Ag12  1  -0.00008559  0.50413783  0.49684401  1
  Ag  Ag13  1  0.49732464  0.76016411  0.74557435  1
  Ag  Ag14  1  0.25330059  0.24243577  0.50013832  1
  Ag  Ag15  1  0.74886200  0.24657716  0.00041257  1
  Sb  Sb16  1  -0.00016550  -0.00653056  0.49805803  1
  Sb  Sb17  1  0.00020455  -0.00371872  0.00225413  1
  Sb  Sb18  1  0.50015253  0.50102177  0.00120168  1
  Sb  Sb19  1  0.00222953  0.75107228  0.74409408  1
  Sb  Sb20  1  0.25063826  0.50254459  0.74891329  1
  Sb  Sb21  1  0.75164204  0.49576442  0.25114135  1
  Sb  Sb22  1  -0.00094783  0.24621542  0.25295642  1
  Sb  Sb23  1  0.24822079  0.50258395  0.25099073  1
  Sb  Sb24  1  0.49877148  0.75986022  0.25473269  1
  Sb  Sb25  1  0.50053199  -0.00035654  -0.00258360  1
  Sb  Sb26  1  0.74949726  0.49644096  0.74870523  1
  Sb  Sb27  1  0.49985754  0.00454111  0.50381630  1
  Sb  Sb28  1  0.75346889  0.75206784  -0.00082108  1
  Sb  Sb29  1  0.24925277  0.24801215  -0.00065654  1
  Sb  Sb30  1  -0.00329927  0.24837576  0.74755182  1
  Sb  Sb31  1  0.49995091  0.49788644  0.49951887  1
  Te  Te32  1  0.25131098  0.23997508  0.25211769  1
  Te  Te33  1  0.25778234  0.24065680  0.74782875  1
  Te  Te34  1  0.25452299  0.75713194  0.25607145  1
  Te  Te35  1  0.25231375  0.75644901  0.74390705  1
  Te  Te36  1  0.74909088  0.24274713  0.25619323  1
  Te  Te37  1  0.74557596  0.24355326  0.74367070  1
  Te  Te38  1  0.74547627  0.75995803  0.25272597  1
  Te  Te39  1  0.74583898  0.75928095  0.74742125  1
  Te  Te40  1  0.24772712  -0.00590795  0.00021371  1
  Te  Te41  1  0.24759956  -0.00074231  0.50016413  1
  Te  Te42  1  0.24034221  0.50632319  0.00007855  1
  Te  Te43  1  0.24126625  0.50010941  0.49968980  1
  Te  Te44  1  0.75211559  0.00609950  0.00032167  1
  Te  Te45  1  0.75230380  0.00179510  0.50008917  1
  Te  Te46  1  0.75888856  0.49429185  0.00002853  1
  Te  Te47  1  0.75870465  0.50098902  0.49972366  1
  Te  Te48  1  -0.00454499  0.26069462  0.00159587  1
  Te  Te49  1  0.00013477  0.26174002  0.49764687  1
  Te  Te50  1  0.00244233  0.74412195  0.00587449  1
  Te  Te51  1  0.00102047  0.74552234  0.49710546  1
  Te  Te52  1  0.50536791  0.25371443  -0.00323429  1
  Te  Te53  1  0.50133397  0.25381618  0.50273859  1
  Te  Te54  1  0.49290166  0.74501923  -0.00754548  1
  Te  Te55  1  0.49889987  0.74297782  0.50469856  1
  Te  Te56  1  0.00065777  -0.00798659  0.24951081  1
  Te  Te57  1  0.00010684  -0.00051525  0.75146757  1
  Te  Te58  1  -0.00005761  0.51093497  0.25205941  1
  Te  Te59  1  0.00005848  0.50068132  0.74973328  1
  Te  Te60  1  0.50048596  0.00685716  0.24766031  1
  Te  Te61  1  0.49996990  0.00133463  0.75020774  1
  Te  Te62  1  0.49977616  0.48311213  0.24919802  1
  Te  Te63  1  0.50001996  0.49752128  0.75003662  1
