# generated using pymatgen
data_AgSbTe2
_symmetry_space_group_name_H-M   'P 1'
_cell_length_a   12.20609827
_cell_length_b   12.20814720
_cell_length_c   12.20814718
_cell_angle_alpha   90.00032300
_cell_angle_beta   90.00237569
_cell_angle_gamma   89.99762428
_symmetry_Int_Tables_number   1
_chemical_formula_structural   AgSbTe2
_chemical_formula_sum   'Ag16 Sb16 Te32'
_cell_volume   1819.18294183
_cell_formula_units_Z   16
loop_
 _symmetry_equiv_pos_site_id
 _symmetry_equiv_pos_as_xyz
  1  'x, y, z'
loop_
 _atom_site_type_symbol
 _atom_site_label
 _atom_site_symmetry_multiplicity
 _atom_site_fract_x
 _atom_site_fract_y
 _atom_site_fract_z
 _atom_site_occupancy
  Ag  Ag0  1  0.00644856  0.00194293  0.50173918  1
  Ag  Ag1  1  0.49355145  0.25173918  0.25194292  1
  Ag  Ag2  1  0.75223004  0.00073062  0.74877067  1
  Ag  Ag3  1  0.24999999  0.75241892  0.00241890  1
  Ag  Ag4  1  0.25225452  0.49517569  0.25153753  1
  Ag  Ag5  1  0.25000000  0.00420420  0.25420421  1
  Ag  Ag6  1  0.25113674  0.75536555  0.49794946  1
  Ag  Ag7  1  0.74776997  0.49877067  0.25073061  1
  Ag  Ag8  1  0.75000002  0.49967634  0.74967634  1
  Ag  Ag9  1  0.49301874  0.00059050  0.49899939  1
  Ag  Ag10  1  0.24886327  0.24794946  0.00536561  1
  Ag  Ag11  1  0.00698132  0.24899938  0.25059049  1
  Ag  Ag12  1  0.00186682  0.24619994  0.74869931  1
  Ag  Ag13  1  0.49813319  0.49869931  0.49619993  1
  Ag  Ag14  1  0.24774548  0.00153753  0.74517569  1
  Ag  Ag15  1  0.75000001  0.74932707  -0.00067290  1
  Sb  Sb16  1  0.00330068  0.75234429  0.25143677  1
  Sb  Sb17  1  0.49970368  0.75121014  0.74896771  1
  Sb  Sb18  1  0.00029633  0.49896770  0.00121011  1
  Sb  Sb19  1  0.75105712  0.25028772  -0.00027385  1
  Sb  Sb20  1  0.49659416  0.24871022  0.74690223  1
  Sb  Sb21  1  0.00048080  0.75552059  0.74857197  1
  Sb  Sb22  1  0.00347403  0.00171875  -0.00238205  1
  Sb  Sb23  1  0.75000000  0.00084692  0.25084692  1
  Sb  Sb24  1  0.49669932  0.00143679  0.00234430  1
  Sb  Sb25  1  0.74894289  0.74972615  0.50028771  1
  Sb  Sb26  1  0.25000000  0.49750597  0.74750596  1
  Sb  Sb27  1  0.25000000  0.24122789  0.49122778  1
  Sb  Sb28  1  0.75000003  0.25015069  0.50015069  1
  Sb  Sb29  1  0.00340585  0.49690224  0.49871024  1
  Sb  Sb30  1  0.49652597  0.74761796  0.25171875  1
  Sb  Sb31  1  0.49951920  0.49857196  0.00552060  1
  Te  Te32  1  0.24895765  0.24986992  0.24887631  1
  Te  Te33  1  0.24679478  0.24712475  0.75780894  1
  Te  Te34  1  0.24918300  0.75072658  0.24765628  1
  Te  Te35  1  0.24923695  0.75422837  0.75243461  1
  Te  Te36  1  0.75083560  0.25531426  0.24699719  1
  Te  Te37  1  0.75463203  0.24915006  0.75296117  1
  Te  Te38  1  0.75139696  0.74375887  0.24400372  1
  Te  Te39  1  0.75047704  0.74960983  0.75495311  1
  Te  Te40  1  0.25081697  -0.00234372  0.00072658  1
  Te  Te41  1  0.25104227  -0.00112375  0.49986993  1
  Te  Te42  1  0.25076305  0.50243460  0.00422840  1
  Te  Te43  1  0.25320522  0.50780895  0.49712474  1
  Te  Te44  1  0.74860303  -0.00599625  -0.00624114  1
  Te  Te45  1  0.74916440  -0.00300282  0.50531426  1
  Te  Te46  1  0.74952295  0.50495311  -0.00039016  1
  Te  Te47  1  0.74536794  0.50296118  0.49915005  1
  Te  Te48  1  0.00607465  0.24959716  0.00134281  1
  Te  Te49  1  -0.00030750  0.24463309  0.50013077  1
  Te  Te50  1  0.00279996  0.75013635  -0.00002755  1
  Te  Te51  1  0.00753652  0.75812728  0.49993566  1
  Te  Te52  1  0.49246346  0.24993567  0.00812727  1
  Te  Te53  1  0.50030748  0.25013076  0.49463312  1
  Te  Te54  1  0.49720003  0.74997245  0.00013634  1
  Te  Te55  1  0.49392537  0.75134282  0.49959716  1
  Te  Te56  1  0.00289867  0.00621316  0.25584076  1
  Te  Te57  1  0.00086135  0.00434715  0.74613150  1
  Te  Te58  1  0.00035255  0.49196156  0.25218023  1
  Te  Te59  1  -0.00692229  0.49074883  0.74715409  1
  Te  Te60  1  0.49710134  0.00584074  0.25621316  1
  Te  Te61  1  0.49964746  0.00218026  0.74196153  1
  Te  Te62  1  0.49913867  0.49613149  0.25434714  1
  Te  Te63  1  0.50692227  0.49715407  0.74074883  1
