# generated using pymatgen
data_AgSbTe2
_symmetry_space_group_name_H-M   'P 1'
_cell_length_a   12.22165092
_cell_length_b   12.22512017
_cell_length_c   12.23095566
_cell_angle_alpha   90.00082572
_cell_angle_beta   90.00420210
_cell_angle_gamma   90.00963680
_symmetry_Int_Tables_number   1
_chemical_formula_structural   AgSbTe2
_chemical_formula_sum   'Ag16 Sb16 Te32'
_cell_volume   1827.44113371
_cell_formula_units_Z   16
loop_
 _symmetry_equiv_pos_site_id
 _symmetry_equiv_pos_as_xyz
  1  'x, y, z'
loop_
 _atom_site_type_symbol
 _atom_site_label
 _atom_site_symmetry_multiplicity
 _atom_site_fract_x
 _atom_site_fract_y
 _atom_site_fract_z
 _atom_site_occupancy
  Ag  Ag0  1  0.76095521  0.00016439  0.74483606  1
  Ag  Ag1  1  0.75453534  0.75466057  0.50171247  1
  Ag  Ag2  1  0.00226527  0.24415273  0.74688906  1
  Ag  Ag3  1  0.75191023  0.75382094  -0.00176154  1
  Ag  Ag4  1  0.49441668  0.50103949  0.50134990  1
  Ag  Ag5  1  0.24754121  0.49847916  0.74438276  1
  Ag  Ag6  1  0.49653107  0.50000269  -0.00154034  1
  Ag  Ag7  1  0.75480978  0.24549628  0.50312213  1
  Ag  Ag8  1  -0.00241114  0.00116333  -0.00914933  1
  Ag  Ag9  1  -0.00560145  0.00055037  0.50850520  1
  Ag  Ag10  1  0.25003340  0.49957198  0.25636006  1
  Ag  Ag11  1  0.00484071  0.50076617  0.50386182  1
  Ag  Ag12  1  0.24744491  0.25155483  -0.00504330  1
  Ag  Ag13  1  0.23935026  0.00330330  0.74737140  1
  Ag  Ag14  1  0.24677237  0.74408770  0.50293194  1
  Ag  Ag15  1  0.75446464  -0.00149566  0.25533216  1
  Sb  Sb16  1  -0.00048157  0.75018217  0.25306076  1
  Sb  Sb17  1  0.24621472  0.00057494  0.25360856  1
  Sb  Sb18  1  0.75177467  0.24737871  -0.00245509  1
  Sb  Sb19  1  0.50471860  -0.00059630  0.50206387  1
  Sb  Sb20  1  0.49948890  0.25241507  0.25158204  1
  Sb  Sb21  1  0.75369420  0.50011487  0.74653282  1
  Sb  Sb22  1  0.00006166  0.75636049  0.74702218  1
  Sb  Sb23  1  0.00003399  0.24999645  0.25408634  1
  Sb  Sb24  1  0.24645346  0.25456593  0.50449469  1
  Sb  Sb25  1  0.00182945  0.49904259  -0.00449711  1
  Sb  Sb26  1  0.24826950  0.74874341  -0.00251520  1
  Sb  Sb27  1  0.75071143  0.50103894  0.25366821  1
  Sb  Sb28  1  0.50114633  -0.00031755  -0.00252695  1
  Sb  Sb29  1  0.49834095  0.25267867  0.74909089  1
  Sb  Sb30  1  0.50026703  0.74769408  0.74903247  1
  Sb  Sb31  1  0.50050862  0.74799943  0.25101730  1
  Te  Te32  1  0.25009737  0.25347911  0.24150763  1
  Te  Te33  1  0.24625662  0.24804102  0.75255001  1
  Te  Te34  1  0.25030312  0.74555721  0.25660593  1
  Te  Te35  1  0.25030218  0.74989740  0.74491016  1
  Te  Te36  1  0.74982818  0.24543399  0.25474206  1
  Te  Te37  1  0.75519034  0.24672946  0.74646853  1
  Te  Te38  1  0.74960610  0.75380104  0.25221434  1
  Te  Te39  1  0.74967949  0.75403585  0.74776481  1
  Te  Te40  1  0.24802796  -0.00032416  -0.00073601  1
  Te  Te41  1  0.24951540  -0.00059545  0.50053054  1
  Te  Te42  1  0.25013947  0.50166075  -0.00276133  1
  Te  Te43  1  0.24867105  0.49815521  0.50235314  1
  Te  Te44  1  0.75170943  -0.00111997  -0.00323866  1
  Te  Te45  1  0.74864474  -0.00307586  0.50336527  1
  Te  Te46  1  0.74760868  0.50337279  0.00027213  1
  Te  Te47  1  0.75157240  0.50355696  0.49996471  1
  Te  Te48  1  0.00296108  0.24710156  -0.00543278  1
  Te  Te49  1  -0.00309128  0.24806364  0.50341282  1
  Te  Te50  1  -0.00583005  0.75514478  0.00034400  1
  Te  Te51  1  -0.00148005  0.74973935  0.50035973  1
  Te  Te52  1  0.49527960  0.25662099  0.00002561  1
  Te  Te53  1  0.50777485  0.25688592  0.50016659  1
  Te  Te54  1  0.50569622  0.74343392  0.00034698  1
  Te  Te55  1  0.50041763  0.74361341  0.49989353  1
  Te  Te56  1  -0.00484320  0.00094054  0.25171036  1
  Te  Te57  1  0.00113286  0.00293887  0.74770532  1
  Te  Te58  1  0.00558598  0.49868850  0.25643454  1
  Te  Te59  1  0.00426791  0.49233610  0.74602808  1
  Te  Te60  1  0.50857492  0.00107997  0.24937053  1
  Te  Te61  1  0.49680300  0.00125438  0.75041122  1
  Te  Te62  1  0.49487676  0.49950916  0.25095604  1
  Te  Te63  1  0.49383078  0.49885337  0.74932792  1
