# generated using pymatgen
data_AgSbTe2
_symmetry_space_group_name_H-M   'P 1'
_cell_length_a   12.21975331
_cell_length_b   12.22573679
_cell_length_c   12.23442448
_cell_angle_alpha   89.99586391
_cell_angle_beta   89.99101069
_cell_angle_gamma   89.99798575
_symmetry_Int_Tables_number   1
_chemical_formula_structural   AgSbTe2
_chemical_formula_sum   'Ag16 Sb16 Te32'
_cell_volume   1827.76778241
_cell_formula_units_Z   16
loop_
 _symmetry_equiv_pos_site_id
 _symmetry_equiv_pos_as_xyz
  1  'x, y, z'
loop_
 _atom_site_type_symbol
 _atom_site_label
 _atom_site_symmetry_multiplicity
 _atom_site_fract_x
 _atom_site_fract_y
 _atom_site_fract_z
 _atom_site_occupancy
  Ag  Ag0  1  0.24216703  0.50199332  0.25054036  1
  Ag  Ag1  1  0.75449766  0.49820531  0.74586050  1
  Ag  Ag2  1  0.24227708  0.74144710  0.50066971  1
  Ag  Ag3  1  0.24785556  0.25784276  -0.00095845  1
  Ag  Ag4  1  0.75418528  0.25585764  0.50223107  1
  Ag  Ag5  1  0.24480710  0.74141259  -0.00076846  1
  Ag  Ag6  1  0.49762667  0.25556180  0.74958081  1
  Ag  Ag7  1  0.00576434  0.50315101  0.50083720  1
  Ag  Ag8  1  0.49541017  0.49877977  0.50401734  1
  Ag  Ag9  1  0.00520101  0.74153378  0.74628402  1
  Ag  Ag10  1  0.00814703  0.50217829  -0.00055335  1
  Ag  Ag11  1  0.00638500  0.74119254  0.25407250  1
  Ag  Ag12  1  0.00351225  0.25865876  0.25336795  1
  Ag  Ag13  1  0.24433768  0.50206242  0.74880384  1
  Ag  Ag14  1  0.00241279  -0.00167392  0.50005402  1
  Ag  Ag15  1  0.49527826  0.00166337  -0.00263417  1
  Sb  Sb16  1  0.49760872  0.00103231  0.50223673  1
  Sb  Sb17  1  0.49502531  0.74504364  0.74930842  1
  Sb  Sb18  1  0.75929543  0.49823639  0.25353744  1
  Sb  Sb19  1  0.00264967  -0.00138463  -0.00089591  1
  Sb  Sb20  1  0.49319510  0.74572145  0.25011519  1
  Sb  Sb21  1  0.49086881  0.49970494  -0.00348627  1
  Sb  Sb22  1  0.75218426  0.00144709  0.74752733  1
  Sb  Sb23  1  0.75417374  0.74626396  -0.00213489  1
  Sb  Sb24  1  0.75915346  0.74497171  0.50259918  1
  Sb  Sb25  1  0.49657926  0.25402662  0.25005831  1
  Sb  Sb26  1  0.75163802  0.25389933  -0.00130315  1
  Sb  Sb27  1  0.24718218  -0.00097483  0.25031689  1
  Sb  Sb28  1  0.00163171  0.25921686  0.74823163  1
  Sb  Sb29  1  0.24861058  -0.00053907  0.74965147  1
  Sb  Sb30  1  0.75313597  0.00110155  0.25191707  1
  Sb  Sb31  1  0.24649742  0.25922987  0.50020862  1
  Te  Te32  1  0.24529220  0.25468030  0.24625802  1
  Te  Te33  1  0.25279794  0.25443718  0.75368683  1
  Te  Te34  1  0.24567070  0.74618644  0.24919631  1
  Te  Te35  1  0.24715823  0.74644303  0.75074541  1
  Te  Te36  1  0.75639975  0.25065249  0.25470374  1
  Te  Te37  1  0.74720606  0.25499329  0.74691974  1
  Te  Te38  1  0.75965460  0.74966855  0.25002126  1
  Te  Te39  1  0.75575648  0.74339178  0.74984238  1
  Te  Te40  1  0.25267870  0.00069303  -0.00012584  1
  Te  Te41  1  0.24498778  -0.00863496  0.50014694  1
  Te  Te42  1  0.24775892  0.50072840  -0.00098171  1
  Te  Te43  1  0.24684747  0.50074693  0.50148450  1
  Te  Te44  1  0.74276517  -0.00006918  -0.00016312  1
  Te  Te45  1  0.75382528  0.00708978  0.50039385  1
  Te  Te46  1  0.75703764  0.49997729  -0.00619135  1
  Te  Te47  1  0.75089596  0.49716303  0.50308471  1
  Te  Te48  1  0.00377606  0.25065955  0.00224543  1
  Te  Te49  1  0.00022079  0.25229373  0.49883315  1
  Te  Te50  1  0.00384582  0.74914553  -0.00006695  1
  Te  Te51  1  0.00173110  0.74564801  0.50006681  1
  Te  Te52  1  0.49706405  0.24903567  -0.00116858  1
  Te  Te53  1  0.50172859  0.25140675  0.50174843  1
  Te  Te54  1  0.49371753  0.75265511  0.00005515  1
  Te  Te55  1  0.49364075  0.74807701  0.49987067  1
  Te  Te56  1  -0.00023586  0.00054144  0.25441081  1
  Te  Te57  1  -0.00045012  -0.00813988  0.74544909  1
  Te  Te58  1  0.00237015  0.49974931  0.25065445  1
  Te  Te59  1  0.00375014  0.50021897  0.74896830  1
  Te  Te60  1  0.50071232  -0.00023902  0.24432403  1
  Te  Te61  1  0.50077581  0.00692521  0.75300866  1
  Te  Te62  1  0.49309471  0.50027956  0.25714660  1
  Te  Te63  1  0.49823073  0.49673195  0.74613935  1
