# generated using pymatgen
data_AgSbTe2
_symmetry_space_group_name_H-M   'P 1'
_cell_length_a   12.21257735
_cell_length_b   12.22144447
_cell_length_c   12.21975722
_cell_angle_alpha   89.99919297
_cell_angle_beta   90.01012132
_cell_angle_gamma   89.99866129
_symmetry_Int_Tables_number   1
_chemical_formula_structural   AgSbTe2
_chemical_formula_sum   'Ag16 Sb16 Te32'
_cell_volume   1823.86393903
_cell_formula_units_Z   16
loop_
 _symmetry_equiv_pos_site_id
 _symmetry_equiv_pos_as_xyz
  1  'x, y, z'
loop_
 _atom_site_type_symbol
 _atom_site_label
 _atom_site_symmetry_multiplicity
 _atom_site_fract_x
 _atom_site_fract_y
 _atom_site_fract_z
 _atom_site_occupancy
  Ag  Ag0  1  -0.00258920  0.25164960  0.74714760  1
  Ag  Ag1  1  0.24163788  0.49772310  0.75368477  1
  Ag  Ag2  1  -0.00314617  0.49254066  0.50560060  1
  Ag  Ag3  1  0.75772764  0.25276134  0.50142028  1
  Ag  Ag4  1  0.24623150  0.74880004  -0.00200159  1
  Ag  Ag5  1  0.75894433  0.49543451  0.74835751  1
  Ag  Ag6  1  0.24530006  0.25053819  0.00124949  1
  Ag  Ag7  1  -0.00126739  0.00783489  0.50436667  1
  Ag  Ag8  1  0.00292357  0.00447555  -0.00334224  1
  Ag  Ag9  1  -0.00001573  0.24985990  0.25198429  1
  Ag  Ag10  1  0.49803511  0.49686545  -0.00000533  1
  Ag  Ag11  1  0.24490156  0.00488128  0.24674089  1
  Ag  Ag12  1  0.49981616  0.25194396  0.24749842  1
  Ag  Ag13  1  0.75868158  0.00455652  0.74931851  1
  Ag  Ag14  1  0.00044105  0.74819508  0.75153031  1
  Ag  Ag15  1  0.75350716  0.49360460  0.25030139  1
  Sb  Sb16  1  0.75478005  0.25114127  -0.00166404  1
  Sb  Sb17  1  0.24106932  0.25031479  0.49952969  1
  Sb  Sb18  1  0.75577915  0.00705341  0.25123847  1
  Sb  Sb19  1  0.75473402  0.74865104  -0.00236596  1
  Sb  Sb20  1  0.24004733  0.00232082  0.75321760  1
  Sb  Sb21  1  0.49822258  0.74780471  0.75324735  1
  Sb  Sb22  1  0.50102120  0.00491037  0.49920666  1
  Sb  Sb23  1  0.50248983  0.49589282  0.49920781  1
  Sb  Sb24  1  0.75391536  0.74721836  0.50151684  1
  Sb  Sb25  1  0.00195504  0.49590408  -0.00681896  1
  Sb  Sb26  1  0.49749605  0.00339930  0.00106141  1
  Sb  Sb27  1  0.50151207  0.25199468  0.75279248  1
  Sb  Sb28  1  0.49781597  0.74743128  0.24617071  1
  Sb  Sb29  1  0.00188350  0.74904497  0.24708610  1
  Sb  Sb30  1  0.24641232  0.49484760  0.24634758  1
  Sb  Sb31  1  0.24529933  0.74932015  0.50249462  1
  Te  Te32  1  0.24637757  0.24847589  0.24778613  1
  Te  Te33  1  0.24754959  0.25312006  0.75315515  1
  Te  Te34  1  0.24991173  0.75566843  0.24352811  1
  Te  Te35  1  0.24591166  0.74679059  0.75438376  1
  Te  Te36  1  0.75370502  0.25320448  0.25038732  1
  Te  Te37  1  0.75224107  0.25267605  0.74947207  1
  Te  Te38  1  0.74936833  0.74004199  0.24937753  1
  Te  Te39  1  0.75558163  0.74740427  0.75105980  1
  Te  Te40  1  0.24728922  0.00259472  0.00104116  1
  Te  Te41  1  0.24420107  -0.00003441  0.49544855  1
  Te  Te42  1  0.25139930  0.49811098  -0.00228526  1
  Te  Te43  1  0.24515566  0.50018649  0.50654220  1
  Te  Te44  1  0.75425854  -0.00071983  -0.00393415  1
  Te  Te45  1  0.75522194  0.00383202  0.50246665  1
  Te  Te46  1  0.74587683  0.50021589  -0.00128023  1
  Te  Te47  1  0.75317603  0.49719085  0.50270786  1
  Te  Te48  1  0.00377491  0.24708211  0.00037247  1
  Te  Te49  1  -0.00196824  0.25050753  0.50096440  1
  Te  Te50  1  0.00519106  0.75564987  -0.00432322  1
  Te  Te51  1  0.00054541  0.74992462  0.50655134  1
  Te  Te52  1  0.49377926  0.25374036  0.00436214  1
  Te  Te53  1  0.50893687  0.24969464  0.49247553  1
  Te  Te54  1  0.49128643  0.74424006  -0.00002624  1
  Te  Te55  1  0.49890421  0.75076527  0.49964112  1
  Te  Te56  1  0.00100310  0.00203122  0.24946815  1
  Te  Te57  1  -0.00116969  0.00278304  0.74942030  1
  Te  Te58  1  -0.00220917  0.49755875  0.25324149  1
  Te  Te59  1  -0.00167992  0.49729083  0.75152137  1
  Te  Te60  1  0.49604674  0.00599769  0.24931558  1
  Te  Te61  1  0.51112018  -0.00046855  0.74981812  1
  Te  Te62  1  0.50233149  0.49554742  0.24754864  1
  Te  Te63  1  0.50131990  0.49998238  0.75367221  1
