# generated using pymatgen
data_AgSbTe2
_symmetry_space_group_name_H-M   'P 1'
_cell_length_a   12.21136672
_cell_length_b   12.20977377
_cell_length_c   12.21030451
_cell_angle_alpha   90.00288449
_cell_angle_beta   89.99663611
_cell_angle_gamma   90.00267258
_symmetry_Int_Tables_number   1
_chemical_formula_structural   AgSbTe2
_chemical_formula_sum   'Ag16 Sb16 Te32'
_cell_volume   1820.53228170
_cell_formula_units_Z   16
loop_
 _symmetry_equiv_pos_site_id
 _symmetry_equiv_pos_as_xyz
  1  'x, y, z'
loop_
 _atom_site_type_symbol
 _atom_site_label
 _atom_site_symmetry_multiplicity
 _atom_site_fract_x
 _atom_site_fract_y
 _atom_site_fract_z
 _atom_site_occupancy
  Ag  Ag0  1  0.25306532  0.74764943  0.50353912  1
  Ag  Ag1  1  0.50117780  0.74708087  0.25415134  1
  Ag  Ag2  1  -0.00000396  0.50369571  0.50368591  1
  Ag  Ag3  1  0.50043422  -0.00278410  0.49869009  1
  Ag  Ag4  1  0.50032142  0.50329224  0.49748818  1
  Ag  Ag5  1  0.50092635  0.25324429  0.25007706  1
  Ag  Ag6  1  0.49971964  0.49933099  0.00192760  1
  Ag  Ag7  1  0.74867718  0.50285902  0.74639538  1
  Ag  Ag8  1  0.00021163  -0.00057593  -0.00354194  1
  Ag  Ag9  1  0.74278678  0.50094360  0.25275594  1
  Ag  Ag10  1  0.25237944  0.25063652  -0.00138548  1
  Ag  Ag11  1  0.25126170  0.50281852  0.74730156  1
  Ag  Ag12  1  0.00175012  0.74943739  0.74815688  1
  Ag  Ag13  1  0.74586766  -0.00104303  0.25132622  1
  Ag  Ag14  1  0.24927701  -0.00297950  0.74954320  1
  Ag  Ag15  1  0.75043740  -0.00294388  0.74901549  1
  Sb  Sb16  1  0.25352746  0.25210371  0.50141636  1
  Sb  Sb17  1  0.25895778  0.50063559  0.25306475  1
  Sb  Sb18  1  0.74564729  0.74764300  0.50032574  1
  Sb  Sb19  1  0.74715291  0.25182566  0.49886873  1
  Sb  Sb20  1  0.00021003  0.50080650  -0.00331350  1
  Sb  Sb21  1  0.49855510  0.25211082  0.75093792  1
  Sb  Sb22  1  -0.00037818  -0.00460573  0.50364251  1
  Sb  Sb23  1  0.25158959  0.74903736  -0.00414670  1
  Sb  Sb24  1  0.00107922  0.25011819  0.75111202  1
  Sb  Sb25  1  0.25430684  -0.00065130  0.25097191  1
  Sb  Sb26  1  0.49774790  0.74788893  0.74519048  1
  Sb  Sb27  1  -0.00010083  0.25089386  0.24842717  1
  Sb  Sb28  1  0.74817480  0.74987136  -0.00067724  1
  Sb  Sb29  1  -0.00099250  0.74878698  0.25262951  1
  Sb  Sb30  1  0.74646268  0.25056697  0.00151099  1
  Sb  Sb31  1  0.49980036  0.00052126  0.00047254  1
  Te  Te32  1  0.25556671  0.24926195  0.24374888  1
  Te  Te33  1  0.25109500  0.24977905  0.75447586  1
  Te  Te34  1  0.25431690  0.75082053  0.25727176  1
  Te  Te35  1  0.24886087  0.74973975  0.74636668  1
  Te  Te36  1  0.74429539  0.24990153  0.24908802  1
  Te  Te37  1  0.74963519  0.24956505  0.75105211  1
  Te  Te38  1  0.74614234  0.75012325  0.24969065  1
  Te  Te39  1  0.75459321  0.75028043  0.75007717  1
  Te  Te40  1  0.24865489  0.00195542  -0.00510516  1
  Te  Te41  1  0.25202069  -0.00192909  0.50457132  1
  Te  Te42  1  0.25197712  0.49805565  -0.00529581  1
  Te  Te43  1  0.25292077  0.50121941  0.50334391  1
  Te  Te44  1  0.75215078  0.00086641  -0.00278060  1
  Te  Te45  1  0.74699387  0.00054076  0.50170400  1
  Te  Te46  1  0.74697950  0.49908010  -0.00144031  1
  Te  Te47  1  0.74673064  0.50004681  0.50228945  1
  Te  Te48  1  0.00818905  0.24415531  0.00141674  1
  Te  Te49  1  0.00255480  0.26042315  0.49867097  1
  Te  Te50  1  0.00192330  0.75552689  -0.00544167  1
  Te  Te51  1  0.00803991  0.74501051  0.50371362  1
  Te  Te52  1  0.49561827  0.25455292  0.00513809  1
  Te  Te53  1  0.49799922  0.24987377  0.49300095  1
  Te  Te54  1  0.49839148  0.74310203  0.00868576  1
  Te  Te55  1  0.49545051  0.74903575  0.49702587  1
  Te  Te56  1  -0.00830348  -0.00084953  0.24732138  1
  Te  Te57  1  -0.00137672  -0.00253059  0.75013783  1
  Te  Te58  1  -0.00968418  0.50118093  0.25294200  1
  Te  Te59  1  -0.00154283  0.50270811  0.74889428  1
  Te  Te60  1  0.50394819  -0.00064823  0.25194199  1
  Te  Te61  1  0.50194787  -0.00030701  0.74747156  1
  Te  Te62  1  0.50219276  0.50036134  0.25245127  1
  Te  Te63  1  0.50168776  0.50088236  0.74801169  1
