# generated using pymatgen
data_AgSbTe2
_symmetry_space_group_name_H-M   'P 1'
_cell_length_a   12.21403788
_cell_length_b   12.22206884
_cell_length_c   12.21902087
_cell_angle_alpha   90.00160116
_cell_angle_beta   89.99868435
_cell_angle_gamma   89.98972175
_symmetry_Int_Tables_number   1
_chemical_formula_structural   AgSbTe2
_chemical_formula_sum   'Ag16 Sb16 Te32'
_cell_volume   1824.06532280
_cell_formula_units_Z   16
loop_
 _symmetry_equiv_pos_site_id
 _symmetry_equiv_pos_as_xyz
  1  'x, y, z'
loop_
 _atom_site_type_symbol
 _atom_site_label
 _atom_site_symmetry_multiplicity
 _atom_site_fract_x
 _atom_site_fract_y
 _atom_site_fract_z
 _atom_site_occupancy
  Ag  Ag0  1  0.49764740  -0.00223679  0.49971650  1
  Ag  Ag1  1  0.24037946  0.49889505  0.25126087  1
  Ag  Ag2  1  0.75467988  0.50357029  0.75113457  1
  Ag  Ag3  1  0.00271046  0.25522947  0.25069402  1
  Ag  Ag4  1  0.00363779  0.25456770  0.74893205  1
  Ag  Ag5  1  0.75949439  0.50660686  0.24852762  1
  Ag  Ag6  1  0.74993253  0.74941364  0.49635687  1
  Ag  Ag7  1  0.50112698  0.74971030  0.74778012  1
  Ag  Ag8  1  0.75263047  0.74611477  0.00391560  1
  Ag  Ag9  1  -0.00511993  0.74499383  0.24949967  1
  Ag  Ag10  1  0.75368088  -0.00589781  0.25226734  1
  Ag  Ag11  1  0.24748276  0.24839837  0.49952116  1
  Ag  Ag12  1  0.24945486  0.00164509  0.74524833  1
  Ag  Ag13  1  0.24468404  0.49803700  0.74851859  1
  Ag  Ag14  1  -0.00221399  0.50100458  0.00404439  1
  Ag  Ag15  1  0.24625921  0.00135830  0.25467050  1
  Sb  Sb16  1  0.50111303  -0.00353955  -0.00037427  1
  Sb  Sb17  1  0.50296822  0.50318280  -0.00051120  1
  Sb  Sb18  1  -0.00141659  -0.00239135  0.00261075  1
  Sb  Sb19  1  0.25017735  0.75176590  0.49853880  1
  Sb  Sb20  1  0.49642570  0.24932219  0.25318110  1
  Sb  Sb21  1  0.75277861  0.25007317  0.49841793  1
  Sb  Sb22  1  0.50006970  0.50318945  0.50109372  1
  Sb  Sb23  1  0.75463212  0.25411756  0.00097365  1
  Sb  Sb24  1  0.50615827  0.75133566  0.25240179  1
  Sb  Sb25  1  0.00273248  0.00017037  0.49810133  1
  Sb  Sb26  1  -0.00083621  0.74394907  0.75009315  1
  Sb  Sb27  1  0.75128630  -0.00345972  0.74722193  1
  Sb  Sb28  1  0.49640092  0.24993719  0.74623600  1
  Sb  Sb29  1  0.00100419  0.50030596  0.49433016  1
  Sb  Sb30  1  0.24714474  0.74779090  0.00123584  1
  Sb  Sb31  1  0.24637325  0.25122855  0.00048279  1
  Te  Te32  1  0.24617766  0.25003339  0.25231689  1
  Te  Te33  1  0.24699756  0.25187491  0.74767275  1
  Te  Te34  1  0.24687761  0.74942227  0.25081513  1
  Te  Te35  1  0.25103446  0.74850372  0.74980823  1
  Te  Te36  1  0.75610504  0.25085624  0.25166258  1
  Te  Te37  1  0.75541754  0.25544919  0.74899681  1
  Te  Te38  1  0.74984544  0.74838652  0.25123848  1
  Te  Te39  1  0.75035670  0.74787747  0.74825264  1
  Te  Te40  1  0.25028333  -0.00118171  0.00167124  1
  Te  Te41  1  0.25223403  0.00017411  0.49848793  1
  Te  Te42  1  0.24540490  0.50162907  0.00041598  1
  Te  Te43  1  0.25224014  0.49753112  0.50037142  1
  Te  Te44  1  0.74986692  -0.00706979  0.00657421  1
  Te  Te45  1  0.74547230  -0.00207755  0.49620217  1
  Te  Te46  1  0.75251324  0.50357536  0.00115631  1
  Te  Te47  1  0.74723410  0.50284252  0.49957328  1
  Te  Te48  1  -0.00088375  0.25759906  0.00110588  1
  Te  Te49  1  0.00547688  0.24948960  0.49969829  1
  Te  Te50  1  -0.00519963  0.74420512  0.00514311  1
  Te  Te51  1  -0.00765266  0.75061326  0.49330041  1
  Te  Te52  1  0.50152744  0.24951571  -0.00040664  1
  Te  Te53  1  0.49188349  0.24144963  0.50006626  1
  Te  Te54  1  0.50835457  0.75011420  -0.00869688  1
  Te  Te55  1  0.50465722  0.75460491  0.50480409  1
  Te  Te56  1  0.00170656  0.00090493  0.24812650  1
  Te  Te57  1  0.00559642  0.00566170  0.75212643  1
  Te  Te58  1  0.00040699  0.49948159  0.24946120  1
  Te  Te59  1  0.00132680  0.49934107  0.75324885  1
  Te  Te60  1  0.49744413  -0.00065255  0.25393619  1
  Te  Te61  1  0.49621448  -0.00217098  0.74704592  1
  Te  Te62  1  0.49834640  0.50010066  0.24986538  1
  Te  Te63  1  0.49925444  0.50352642  0.74983728  1
