# generated using pymatgen
data_AgSbTe2
_symmetry_space_group_name_H-M   'P 1'
_cell_length_a   12.23092524
_cell_length_b   12.22961387
_cell_length_c   12.21561035
_cell_angle_alpha   90.00037270
_cell_angle_beta   89.99963525
_cell_angle_gamma   89.99924125
_symmetry_Int_Tables_number   1
_chemical_formula_structural   AgSbTe2
_chemical_formula_sum   'Ag16 Sb16 Te32'
_cell_volume   1827.20480245
_cell_formula_units_Z   16
loop_
 _symmetry_equiv_pos_site_id
 _symmetry_equiv_pos_as_xyz
  1  'x, y, z'
loop_
 _atom_site_type_symbol
 _atom_site_label
 _atom_site_symmetry_multiplicity
 _atom_site_fract_x
 _atom_site_fract_y
 _atom_site_fract_z
 _atom_site_occupancy
  Ag  Ag0  1  0.50078333  0.50615807  -0.00625119  1
  Ag  Ag1  1  0.00002866  0.25486030  0.24396008  1
  Ag  Ag2  1  0.25334132  0.50077722  0.75748461  1
  Ag  Ag3  1  0.74895614  -0.00218435  0.75632816  1
  Ag  Ag4  1  -0.00073627  0.49891595  0.50210281  1
  Ag  Ag5  1  0.49802288  0.25519892  0.75595918  1
  Ag  Ag6  1  0.24825403  0.25509316  -0.00418062  1
  Ag  Ag7  1  0.74672920  0.50284025  0.75904328  1
  Ag  Ag8  1  0.25098766  -0.00058702  0.75683807  1
  Ag  Ag9  1  0.50028403  0.74434607  0.75906714  1
  Ag  Ag10  1  -0.00085188  0.49960147  -0.00145539  1
  Ag  Ag11  1  0.50149624  0.74531608  0.23909398  1
  Ag  Ag12  1  0.00117930  0.00042289  -0.00313947  1
  Ag  Ag13  1  0.74472277  0.74311211  -0.00352210  1
  Ag  Ag14  1  0.75160512  0.50211074  0.24074205  1
  Ag  Ag15  1  0.25485891  0.74454895  -0.00447849  1
  Sb  Sb16  1  0.24788323  0.25345299  0.50615225  1
  Sb  Sb17  1  0.74956654  0.74727085  0.50529919  1
  Sb  Sb18  1  0.50007028  -0.00092934  0.50463284  1
  Sb  Sb19  1  0.50045061  0.50048784  0.50748602  1
  Sb  Sb20  1  -0.00096117  0.74673124  0.75562021  1
  Sb  Sb21  1  0.75140057  -0.00321415  0.23902185  1
  Sb  Sb22  1  -0.00288698  0.74376317  0.24358141  1
  Sb  Sb23  1  0.24881053  -0.00194027  0.23953333  1
  Sb  Sb24  1  0.24786502  0.50102633  0.23888017  1
  Sb  Sb25  1  0.25061513  0.74700969  0.50692856  1
  Sb  Sb26  1  0.49998953  0.25743871  0.23910255  1
  Sb  Sb27  1  0.00003438  0.00214779  0.50353134  1
  Sb  Sb28  1  0.75175423  0.25305102  0.50258377  1
  Sb  Sb29  1  0.00318604  0.25344640  0.75729679  1
  Sb  Sb30  1  0.49916128  -0.00777890  -0.00425587  1
  Sb  Sb31  1  0.75240507  0.25858566  -0.00215490  1
  Te  Te32  1  0.24768054  0.24907403  0.24263054  1
  Te  Te33  1  0.25236351  0.25100138  0.75497176  1
  Te  Te34  1  0.25752131  0.75080687  0.24256352  1
  Te  Te35  1  0.25331203  0.74874807  0.75454298  1
  Te  Te36  1  0.75222871  0.25534767  0.25028379  1
  Te  Te37  1  0.74367259  0.25082458  0.75128521  1
  Te  Te38  1  0.74593910  0.74596775  0.24425663  1
  Te  Te39  1  0.74731437  0.74742047  0.75399742  1
  Te  Te40  1  0.24634585  -0.00133290  -0.00524063  1
  Te  Te41  1  0.24779050  -0.00026632  0.51268681  1
  Te  Te42  1  0.24944037  0.50194601  -0.00277007  1
  Te  Te43  1  0.24319200  0.50019002  0.51140919  1
  Te  Te44  1  0.75507487  -0.00642082  -0.00519754  1
  Te  Te45  1  0.75220262  -0.00090038  0.51267597  1
  Te  Te46  1  0.75058370  0.50111054  -0.00240162  1
  Te  Te47  1  0.75613711  0.50096170  0.50186480  1
  Te  Te48  1  0.00316825  0.25215515  0.00204744  1
  Te  Te49  1  0.00097626  0.25587023  0.48960342  1
  Te  Te50  1  0.00094638  0.74841792  0.00040507  1
  Te  Te51  1  0.00085102  0.74210751  0.49626510  1
  Te  Te52  1  0.49399097  0.25612564  -0.00339608  1
  Te  Te53  1  0.49940381  0.25012435  0.50903761  1
  Te  Te54  1  0.49993368  0.74844188  -0.00220963  1
  Te  Te55  1  0.49940032  0.74922956  0.49954347  1
  Te  Te56  1  -0.00124216  0.00719796  0.24563942  1
  Te  Te57  1  -0.00025966  0.00144835  0.75388967  1
  Te  Te58  1  -0.00272671  0.49777048  0.24470332  1
  Te  Te59  1  -0.00142922  0.49911204  0.75454457  1
  Te  Te60  1  0.50129405  -0.00683260  0.25263088  1
  Te  Te61  1  0.50029510  -0.00078076  0.75079819  1
  Te  Te62  1  0.50462179  0.50208784  0.24693025  1
  Te  Te63  1  0.50097118  0.50196596  0.75117695  1
