# generated using pymatgen
data_AgSbTe2
_symmetry_space_group_name_H-M   'P 1'
_cell_length_a   12.21008271
_cell_length_b   12.20915646
_cell_length_c   12.22336599
_cell_angle_alpha   89.99469550
_cell_angle_beta   90.00042570
_cell_angle_gamma   90.00120495
_symmetry_Int_Tables_number   1
_chemical_formula_structural   AgSbTe2
_chemical_formula_sum   'Ag16 Sb16 Te32'
_cell_volume   1822.19595564
_cell_formula_units_Z   16
loop_
 _symmetry_equiv_pos_site_id
 _symmetry_equiv_pos_as_xyz
  1  'x, y, z'
loop_
 _atom_site_type_symbol
 _atom_site_label
 _atom_site_symmetry_multiplicity
 _atom_site_fract_x
 _atom_site_fract_y
 _atom_site_fract_z
 _atom_site_occupancy
  Ag  Ag0  1  0.75090129  0.75091402  0.00390399  1
  Ag  Ag1  1  -0.00364258  0.50078904  0.49497855  1
  Ag  Ag2  1  0.49679443  0.00448536  0.49831916  1
  Ag  Ag3  1  0.50082471  0.00439299  0.00173188  1
  Ag  Ag4  1  -0.00407311  0.74820130  0.25007409  1
  Ag  Ag5  1  -0.00113050  -0.00072217  0.00315845  1
  Ag  Ag6  1  0.50063979  0.24539175  0.74995519  1
  Ag  Ag7  1  0.75092064  0.74644661  0.49612766  1
  Ag  Ag8  1  0.49803158  0.24624862  0.25025864  1
  Ag  Ag9  1  0.25450897  0.00381213  0.74939633  1
  Ag  Ag10  1  0.74589238  0.24883317  0.00196783  1
  Ag  Ag11  1  0.25417606  0.24659198  0.49556025  1
  Ag  Ag12  1  0.75198902  0.50214098  0.25132268  1
  Ag  Ag13  1  0.74947843  0.49907613  0.74935241  1
  Ag  Ag14  1  0.24837918  0.49635371  0.25282967  1
  Ag  Ag15  1  0.25332221  0.00340234  0.25080567  1
  Sb  Sb16  1  0.50382332  0.49561181  0.00159236  1
  Sb  Sb17  1  0.50276556  0.75429301  0.75043930  1
  Sb  Sb18  1  0.50213783  0.49697757  0.49800872  1
  Sb  Sb19  1  -0.00118298  0.24907103  0.75107235  1
  Sb  Sb20  1  0.74649829  0.00242779  0.75302969  1
  Sb  Sb21  1  0.74670914  0.25205608  0.49828040  1
  Sb  Sb22  1  -0.00318873  0.75105462  0.75045702  1
  Sb  Sb23  1  0.24979835  0.75390036  0.00327767  1
  Sb  Sb24  1  0.00130630  -0.00078255  0.49738674  1
  Sb  Sb25  1  -0.00463733  0.50120499  0.00412748  1
  Sb  Sb26  1  0.25003681  0.75199025  0.49625564  1
  Sb  Sb27  1  0.00128661  0.25113520  0.24950896  1
  Sb  Sb28  1  0.74763997  -0.00068088  0.24779899  1
  Sb  Sb29  1  0.25010521  0.49496965  0.74626644  1
  Sb  Sb30  1  0.25388820  0.24607243  0.00319551  1
  Sb  Sb31  1  0.50383627  0.75329430  0.24936426  1
  Te  Te32  1  0.25326698  0.24922271  0.25231092  1
  Te  Te33  1  0.25609793  0.24754599  0.74682327  1
  Te  Te34  1  0.24536151  0.74938974  0.25033654  1
  Te  Te35  1  0.24998201  0.75603125  0.75031411  1
  Te  Te36  1  0.74581197  0.25410332  0.24709719  1
  Te  Te37  1  0.74481584  0.25424619  0.75281657  1
  Te  Te38  1  0.75245269  0.74676343  0.24908235  1
  Te  Te39  1  0.74984560  0.74301247  0.75085539  1
  Te  Te40  1  0.25158397  0.00047587  0.00209458  1
  Te  Te41  1  0.25231044  0.00240956  0.49748341  1
  Te  Te42  1  0.24940578  0.50037483  0.00736871  1
  Te  Te43  1  0.24707493  0.49741622  0.49632365  1
  Te  Te44  1  0.74901740  0.00025754  -0.00060898  1
  Te  Te45  1  0.74729845  -0.00404943  0.50060585  1
  Te  Te46  1  0.75101226  0.50071113  0.00178561  1
  Te  Te47  1  0.75210058  0.50187714  0.49715588  1
  Te  Te48  1  -0.00843348  0.24324615  -0.00044457  1
  Te  Te49  1  0.00544927  0.25356221  0.50051656  1
  Te  Te50  1  -0.00640316  0.75453358  0.00512404  1
  Te  Te51  1  -0.00584103  0.74726930  0.49467377  1
  Te  Te52  1  0.50383391  0.24575411  0.00147102  1
  Te  Te53  1  0.49756357  0.24570216  0.49810936  1
  Te  Te54  1  0.50776501  0.75881981  0.00019981  1
  Te  Te55  1  0.50682447  0.75764198  0.49987811  1
  Te  Te56  1  0.00472434  -0.00305507  0.24682608  1
  Te  Te57  1  0.00724922  0.00017347  0.75515645  1
  Te  Te58  1  -0.00112564  0.50218517  0.25287042  1
  Te  Te59  1  -0.00369039  0.50010774  0.74376667  1
  Te  Te60  1  0.49702487  0.00331521  0.24932235  1
  Te  Te61  1  0.49676086  0.00402013  0.75068011  1
  Te  Te62  1  0.49926455  0.49515151  0.24994527  1
  Te  Te63  1  0.50375996  0.49283092  0.75025552  1
