# generated using pymatgen
data_AgSbTe2
_symmetry_space_group_name_H-M   'P 1'
_cell_length_a   12.21108592
_cell_length_b   12.20834769
_cell_length_c   12.20686616
_cell_angle_alpha   90.00785112
_cell_angle_beta   89.99946330
_cell_angle_gamma   89.99949135
_symmetry_Int_Tables_number   1
_chemical_formula_structural   AgSbTe2
_chemical_formula_sum   'Ag16 Sb16 Te32'
_cell_volume   1819.76519771
_cell_formula_units_Z   16
loop_
 _symmetry_equiv_pos_site_id
 _symmetry_equiv_pos_as_xyz
  1  'x, y, z'
loop_
 _atom_site_type_symbol
 _atom_site_label
 _atom_site_symmetry_multiplicity
 _atom_site_fract_x
 _atom_site_fract_y
 _atom_site_fract_z
 _atom_site_occupancy
  Ag  Ag0  1  0.75324156  0.74774778  0.00573422  1
  Ag  Ag1  1  -0.00391484  0.49991272  0.00644452  1
  Ag  Ag2  1  -0.00060500  0.24658892  0.74781493  1
  Ag  Ag3  1  0.75746307  0.50562640  0.24876926  1
  Ag  Ag4  1  -0.00389100  0.74482859  0.25232393  1
  Ag  Ag5  1  -0.00061369  0.50050255  0.49364900  1
  Ag  Ag6  1  0.24212553  0.50132761  0.25207112  1
  Ag  Ag7  1  0.24581696  0.00426372  0.74567634  1
  Ag  Ag8  1  0.24550914  0.24739134  0.50140793  1
  Ag  Ag9  1  0.75326568  0.25137614  -0.00199254  1
  Ag  Ag10  1  0.75367584  0.00299242  0.74887844  1
  Ag  Ag11  1  0.24598465  -0.00089142  0.25410349  1
  Ag  Ag12  1  0.75475743  0.74966985  0.49464065  1
  Ag  Ag13  1  0.00200148  0.00051204  0.50086193  1
  Ag  Ag14  1  0.50354366  0.74920440  0.25065685  1
  Ag  Ag15  1  0.50092377  0.24750209  0.74935844  1
  Sb  Sb16  1  0.50142498  -0.00017414  0.00042407  1
  Sb  Sb17  1  0.24645839  0.25127305  -0.00174822  1
  Sb  Sb18  1  -0.00187253  0.75392322  0.74789528  1
  Sb  Sb19  1  0.50085332  0.50043176  0.49776925  1
  Sb  Sb20  1  0.50469683  0.50022561  0.00241593  1
  Sb  Sb21  1  -0.00216755  0.00054994  0.00011637  1
  Sb  Sb22  1  0.24537411  0.49597219  0.74689898  1
  Sb  Sb23  1  0.75543448  -0.00645792  0.25228309  1
  Sb  Sb24  1  0.24571820  0.74852447  0.00337725  1
  Sb  Sb25  1  0.49784385  -0.00005757  0.49963635  1
  Sb  Sb26  1  0.00002413  0.25568185  0.25219011  1
  Sb  Sb27  1  0.50287985  0.75258785  0.74952217  1
  Sb  Sb28  1  0.75318414  0.49708401  0.75158094  1
  Sb  Sb29  1  0.75510055  0.25006043  0.50183458  1
  Sb  Sb30  1  0.50032930  0.24926067  0.25027103  1
  Sb  Sb31  1  0.24443171  0.75195506  0.49650716  1
  Te  Te32  1  0.25172373  0.24940117  0.25289080  1
  Te  Te33  1  0.24769550  0.24624025  0.74815537  1
  Te  Te34  1  0.24875180  0.74943373  0.25010039  1
  Te  Te35  1  0.25231453  0.75881925  0.75062263  1
  Te  Te36  1  0.74764922  0.25473053  0.24523271  1
  Te  Te37  1  0.75200199  0.24682278  0.75140615  1
  Te  Te38  1  0.75246645  0.75026945  0.24975649  1
  Te  Te39  1  0.74852990  0.75524972  0.75026556  1
  Te  Te40  1  0.24928695  0.00051705  0.00045187  1
  Te  Te41  1  0.24602092  0.00149145  0.49992616  1
  Te  Te42  1  0.24231441  0.49961417  0.00664551  1
  Te  Te43  1  0.24420209  0.49777416  0.49567206  1
  Te  Te44  1  0.75161245  0.00039276  -0.00428644  1
  Te  Te45  1  0.75535667  -0.00153769  0.50288661  1
  Te  Te46  1  0.75410536  0.50120666  0.00171509  1
  Te  Te47  1  0.75539198  0.50215641  0.49670360  1
  Te  Te48  1  -0.00451402  0.25390104  -0.00510417  1
  Te  Te49  1  0.00256538  0.24913618  0.50287795  1
  Te  Te50  1  -0.00514056  0.74517107  0.00358067  1
  Te  Te51  1  -0.00364478  0.74924785  0.49773158  1
  Te  Te52  1  0.50703708  0.25053293  -0.00555009  1
  Te  Te53  1  0.49318368  0.25036727  0.50504442  1
  Te  Te54  1  0.50868507  0.74921924  0.00527154  1
  Te  Te55  1  0.50897603  0.74949550  0.49508494  1
  Te  Te56  1  0.00372750  -0.00364330  0.25351603  1
  Te  Te57  1  0.00013412  0.00243855  0.74755497  1
  Te  Te58  1  -0.00041327  0.49956338  0.25144679  1
  Te  Te59  1  0.00120479  0.49555727  0.74842140  1
  Te  Te60  1  0.49196092  -0.00522838  0.25051556  1
  Te  Te61  1  0.49994839  0.00445940  0.74985254  1
  Te  Te62  1  0.49934380  0.50505350  0.25006150  1
  Te  Te63  1  0.49852390  0.49275101  0.75017700  1
