# generated using pymatgen
data_AgSbTe2
_symmetry_space_group_name_H-M   'P 1'
_cell_length_a   12.22326997
_cell_length_b   12.22956495
_cell_length_c   12.23126559
_cell_angle_alpha   90.00285253
_cell_angle_beta   90.00760440
_cell_angle_gamma   90.00366868
_symmetry_Int_Tables_number   1
_chemical_formula_structural   AgSbTe2
_chemical_formula_sum   'Ag16 Sb16 Te32'
_cell_volume   1828.39406768
_cell_formula_units_Z   16
loop_
 _symmetry_equiv_pos_site_id
 _symmetry_equiv_pos_as_xyz
  1  'x, y, z'
loop_
 _atom_site_type_symbol
 _atom_site_label
 _atom_site_symmetry_multiplicity
 _atom_site_fract_x
 _atom_site_fract_y
 _atom_site_fract_z
 _atom_site_occupancy
  Ag  Ag0  1  0.50432992  0.50085152  -0.00418080  1
  Ag  Ag1  1  0.25368554  0.50243003  0.25327463  1
  Ag  Ag2  1  0.74666637  0.50071937  0.24378137  1
  Ag  Ag3  1  0.25824826  -0.00264959  0.74887069  1
  Ag  Ag4  1  0.50335422  -0.00089511  -0.00565411  1
  Ag  Ag5  1  0.74481075  0.25580523  0.00058953  1
  Ag  Ag6  1  0.49669611  0.74771766  0.75021839  1
  Ag  Ag7  1  0.25757619  0.50237309  0.74647517  1
  Ag  Ag8  1  0.00479041  0.50220244  0.49965131  1
  Ag  Ag9  1  -0.00451399  0.50070122  0.00063920  1
  Ag  Ag10  1  0.49812216  -0.00300264  0.50694912  1
  Ag  Ag11  1  0.25561645  0.74366254  0.50416986  1
  Ag  Ag12  1  0.49485398  0.50347457  0.50520940  1
  Ag  Ag13  1  0.74502041  -0.00102244  0.24637072  1
  Ag  Ag14  1  0.74427871  0.74432684  0.00067439  1
  Ag  Ag15  1  0.49897751  0.25216292  0.75298910  1
  Sb  Sb16  1  0.00305790  0.74561162  0.75086270  1
  Sb  Sb17  1  0.50042350  0.74610141  0.24841315  1
  Sb  Sb18  1  0.25614596  -0.00316680  0.25191103  1
  Sb  Sb19  1  0.74560192  0.25251842  0.50075530  1
  Sb  Sb20  1  0.25635653  0.74634568  -0.00403227  1
  Sb  Sb21  1  0.74030353  0.50032982  0.75772671  1
  Sb  Sb22  1  0.73998951  -0.00082340  0.75281940  1
  Sb  Sb23  1  -0.00020598  0.25416662  0.75239556  1
  Sb  Sb24  1  0.00095808  -0.00316813  0.50084798  1
  Sb  Sb25  1  -0.00046565  0.74652348  0.24894700  1
  Sb  Sb26  1  -0.00219262  0.25371274  0.24817563  1
  Sb  Sb27  1  0.25362822  0.25754163  0.50237747  1
  Sb  Sb28  1  0.74389744  0.74671608  0.50075337  1
  Sb  Sb29  1  0.50218753  0.25379341  0.24595707  1
  Sb  Sb30  1  -0.00353355  -0.00114265  -0.00131891  1
  Sb  Sb31  1  0.25544022  0.25354524  -0.00305693  1
  Te  Te32  1  0.24948354  0.25772909  0.24918054  1
  Te  Te33  1  0.25596184  0.25058145  0.75088812  1
  Te  Te34  1  0.24969107  0.74415697  0.25693013  1
  Te  Te35  1  0.25419672  0.74800174  0.74792585  1
  Te  Te36  1  0.74952109  0.25190507  0.24443311  1
  Te  Te37  1  0.74404365  0.24915950  0.75582614  1
  Te  Te38  1  0.75023504  0.74826642  0.24548836  1
  Te  Te39  1  0.74345655  0.75116222  0.75464802  1
  Te  Te40  1  0.25357984  -0.00096413  -0.00032856  1
  Te  Te41  1  0.25341493  -0.00415013  0.49927611  1
  Te  Te42  1  0.25221236  0.50136679  0.00023780  1
  Te  Te43  1  0.25398069  0.50088639  0.50051240  1
  Te  Te44  1  0.74779556  -0.00118135  0.00242756  1
  Te  Te45  1  0.74730160  -0.00031238  0.49406169  1
  Te  Te46  1  0.74696532  0.50106148  0.00096593  1
  Te  Te47  1  0.74836908  0.50109402  0.49167247  1
  Te  Te48  1  -0.00876372  0.25577323  -0.00093696  1
  Te  Te49  1  -0.00177856  0.25838381  0.50079112  1
  Te  Te50  1  -0.00839698  0.74454146  -0.00102106  1
  Te  Te51  1  0.00580930  0.74430388  0.50140195  1
  Te  Te52  1  0.50334969  0.25091313  -0.00360170  1
  Te  Te53  1  0.50099851  0.24977729  0.50768397  1
  Te  Te54  1  0.50221055  0.74901569  -0.00303981  1
  Te  Te55  1  0.49817468  0.74834551  0.50444930  1
  Te  Te56  1  -0.00670187  0.00119165  0.25019117  1
  Te  Te57  1  0.01261458  0.00149575  0.74918260  1
  Te  Te58  1  -0.00066253  0.49993529  0.24870577  1
  Te  Te59  1  0.00971285  0.49934239  0.74995112  1
  Te  Te60  1  0.50232851  0.00116688  0.24881040  1
  Te  Te61  1  0.49758205  -0.00070724  0.75016851  1
  Te  Te62  1  0.50064807  0.49925620  0.24926839  1
  Te  Te63  1  0.49856047  0.50103914  0.75028730  1
