# generated using pymatgen
data_AgSbTe2
_symmetry_space_group_name_H-M   'P 1'
_cell_length_a   12.29417835
_cell_length_b   12.32130788
_cell_length_c   12.30787307
_cell_angle_alpha   89.99972577
_cell_angle_beta   89.98754452
_cell_angle_gamma   89.99550177
_symmetry_Int_Tables_number   1
_chemical_formula_structural   AgSbTe2
_chemical_formula_sum   'Ag16 Sb16 Te32'
_cell_volume   1864.40095132
_cell_formula_units_Z   16
loop_
 _symmetry_equiv_pos_site_id
 _symmetry_equiv_pos_as_xyz
  1  'x, y, z'
loop_
 _atom_site_type_symbol
 _atom_site_label
 _atom_site_symmetry_multiplicity
 _atom_site_fract_x
 _atom_site_fract_y
 _atom_site_fract_z
 _atom_site_occupancy
  Ag  Ag0  1  0.75343217  0.24369597  -0.01224345  1
  Ag  Ag1  1  -0.00333541  0.24704501  0.25670089  1
  Ag  Ag2  1  0.76683168  0.00831568  0.75423443  1
  Ag  Ag3  1  -0.01272507  0.23213177  0.74551237  1
  Ag  Ag4  1  0.50228513  0.76658988  0.75458420  1
  Ag  Ag5  1  -0.00130751  0.49008684  0.50123410  1
  Ag  Ag6  1  0.00184998  0.75411491  0.25238548  1
  Ag  Ag7  1  0.24117874  0.49739321  0.24883840  1
  Ag  Ag8  1  -0.00300777  0.01019922  0.51938243  1
  Ag  Ag9  1  -0.00172198  0.76902352  0.74801810  1
  Ag  Ag10  1  0.75875619  0.24635363  0.51311983  1
  Ag  Ag11  1  0.51154915  0.23528533  0.75872246  1
  Ag  Ag12  1  0.23086103  0.00240961  0.75176571  1
  Ag  Ag13  1  0.50232574  0.49134625  -0.00672519  1
  Ag  Ag14  1  -0.00391658  0.00790348  -0.01603294  1
  Ag  Ag15  1  0.50612171  0.00543394  -0.01071777  1
  Sb  Sb16  1  0.24865182  0.49859393  0.74956212  1
  Sb  Sb17  1  0.24330750  0.00068228  0.24881667  1
  Sb  Sb18  1  0.75352745  0.00253375  0.24735586  1
  Sb  Sb19  1  0.50364932  0.24987254  0.24433635  1
  Sb  Sb20  1  0.75098705  0.49377250  0.75012005  1
  Sb  Sb21  1  0.50135164  0.49411744  0.50232539  1
  Sb  Sb22  1  0.24648127  0.24803119  -0.00169537  1
  Sb  Sb23  1  0.75196705  0.75469175  -0.00397492  1
  Sb  Sb24  1  -0.00356064  0.49664214  -0.00241325  1
  Sb  Sb25  1  0.49815403  0.75055872  0.24559217  1
  Sb  Sb26  1  0.50386708  0.00447840  0.51262742  1
  Sb  Sb27  1  0.75492595  0.75461690  0.50453766  1
  Sb  Sb28  1  0.24800551  0.75102218  -0.00156658  1
  Sb  Sb29  1  0.24217366  0.24874571  0.50242759  1
  Sb  Sb30  1  0.24692801  0.75087007  0.50230056  1
  Sb  Sb31  1  0.75371006  0.49690112  0.25024549  1
  Te  Te32  1  0.24453953  0.25167340  0.25117171  1
  Te  Te33  1  0.25265734  0.24763510  0.74935655  1
  Te  Te34  1  0.24380597  0.74757754  0.25013591  1
  Te  Te35  1  0.24723237  0.75395561  0.75042174  1
  Te  Te36  1  0.75352349  0.24929512  0.24894922  1
  Te  Te37  1  0.75105136  0.24865298  0.75330306  1
  Te  Te38  1  0.75879246  0.74961603  0.25045454  1
  Te  Te39  1  0.75303874  0.75996962  0.75115225  1
  Te  Te40  1  0.24538863  -0.00097424  -0.00376937  1
  Te  Te41  1  0.24477338  0.00069139  0.50387089  1
  Te  Te42  1  0.25587017  0.50037342  0.00180463  1
  Te  Te43  1  0.24490675  0.49989279  0.49644337  1
  Te  Te44  1  0.75359995  0.00245725  -0.00021077  1
  Te  Te45  1  0.75176353  0.00305047  0.50097101  1
  Te  Te46  1  0.74427636  0.48938188  -0.00074228  1
  Te  Te47  1  0.75559853  0.49249263  0.50020745  1
  Te  Te48  1  -0.00050649  0.24951695  -0.00506662  1
  Te  Te49  1  -0.00045492  0.24933808  0.50262412  1
  Te  Te50  1  -0.00114795  0.75058124  -0.00427623  1
  Te  Te51  1  -0.00016022  0.74977410  0.50349585  1
  Te  Te52  1  0.50084009  0.24634222  0.00077877  1
  Te  Te53  1  0.51105166  0.24926290  0.50227301  1
  Te  Te54  1  0.50061272  0.75462368  -0.00328077  1
  Te  Te55  1  0.50133252  0.74942975  0.50633526  1
  Te  Te56  1  -0.00015216  0.00096103  0.24703315  1
  Te  Te57  1  0.00049618  0.00042193  0.75152313  1
  Te  Te58  1  0.00103918  0.49814069  0.24733668  1
  Te  Te59  1  -0.00072384  0.50225667  0.74845341  1
  Te  Te60  1  0.49774523  -0.00475065  0.23784432  1
  Te  Te61  1  0.50138811  0.00168702  0.75105775  1
  Te  Te62  1  0.49413097  0.50344326  0.24829898  1
  Te  Te63  1  0.50038641  0.49977130  0.75267300  1
