# generated using pymatgen
data_AgSbTe2
_symmetry_space_group_name_H-M   'P 1'
_cell_length_a   12.22616386
_cell_length_b   12.22513542
_cell_length_c   12.22616387
_cell_angle_alpha   90.00474962
_cell_angle_beta   90.00275455
_cell_angle_gamma   89.99525040
_symmetry_Int_Tables_number   1
_chemical_formula_structural   AgSbTe2
_chemical_formula_sum   'Ag16 Sb16 Te32'
_cell_volume   1827.40201526
_cell_formula_units_Z   16
loop_
 _symmetry_equiv_pos_site_id
 _symmetry_equiv_pos_as_xyz
  1  'x, y, z'
loop_
 _atom_site_type_symbol
 _atom_site_label
 _atom_site_symmetry_multiplicity
 _atom_site_fract_x
 _atom_site_fract_y
 _atom_site_fract_z
 _atom_site_occupancy
  Ag  Ag0  1  0.25489134  0.00247368  0.24946110  1
  Ag  Ag1  1  0.49631317  0.75257223  0.25200297  1
  Ag  Ag2  1  0.25128046  0.25000001  0.50128046  1
  Ag  Ag3  1  0.49413133  -0.00250817  -0.00108465  1
  Ag  Ag4  1  -0.00053889  0.49752631  0.50489132  1
  Ag  Ag5  1  0.49425008  0.24733538  0.25496767  1
  Ag  Ag6  1  0.00496765  0.25266462  0.74425008  1
  Ag  Ag7  1  0.50078583  0.50009162  0.50395411  1
  Ag  Ag8  1  0.49772682  0.75000000  0.74772684  1
  Ag  Ag9  1  0.25440742  0.75548611  -0.00335559  1
  Ag  Ag10  1  0.74664441  0.74451379  0.50440740  1
  Ag  Ag11  1  0.00200298  0.74742778  0.74631319  1
  Ag  Ag12  1  0.74891535  0.50250815  0.74413124  1
  Ag  Ag13  1  0.25395410  -0.00009163  0.75078582  1
  Ag  Ag14  1  0.49462711  0.25000001  0.74462711  1
  Ag  Ag15  1  0.00592859  0.24999998  0.25592859  1
  Sb  Sb16  1  0.74819774  0.50145471  0.25561370  1
  Sb  Sb17  1  0.49911687  0.50106939  -0.00370219  1
  Sb  Sb18  1  0.25212591  0.24547465  -0.00095522  1
  Sb  Sb19  1  0.25114594  0.49889180  0.74753303  1
  Sb  Sb20  1  0.00489645  0.75000003  0.25489643  1
  Sb  Sb21  1  0.00116049  0.50033581  -0.00494321  1
  Sb  Sb22  1  0.74904479  0.25452540  0.50212593  1
  Sb  Sb23  1  0.74888215  0.25000002  -0.00111788  1
  Sb  Sb24  1  0.74629781  -0.00106943  0.74911686  1
  Sb  Sb25  1  0.74505680  -0.00033582  0.25116053  1
  Sb  Sb26  1  0.49753306  0.00110821  0.50114594  1
  Sb  Sb27  1  0.74704977  0.74999993  -0.00295020  1
  Sb  Sb28  1  0.25292205  0.75000002  0.50292204  1
  Sb  Sb29  1  0.00561366  -0.00145473  -0.00180224  1
  Sb  Sb30  1  0.25091612  0.49633942  0.25259107  1
  Sb  Sb31  1  0.00259107  0.00366061  0.50091612  1
  Te  Te32  1  0.25264411  0.24688632  0.24938109  1
  Te  Te33  1  0.25127154  0.24751440  0.74985772  1
  Te  Te34  1  0.25342214  0.75540129  0.24980389  1
  Te  Te35  1  0.25197918  0.75327628  0.74831525  1
  Te  Te36  1  0.74847449  0.24952361  0.24974865  1
  Te  Te37  1  0.74983174  0.25222610  0.74931836  1
  Te  Te38  1  0.74434609  0.75032607  0.25343091  1
  Te  Te39  1  0.74866793  0.74903767  0.74797265  1
  Te  Te40  1  0.25437089  -0.00387372  -0.00140717  1
  Te  Te41  1  0.24955520  0.00795815  0.50064287  1
  Te  Te42  1  0.25005267  0.51281390  0.00175248  1
  Te  Te43  1  0.25064287  0.49204183  0.49955524  1
  Te  Te44  1  0.73878495  -0.00003746  0.00053975  1
  Te  Te45  1  0.75175250  -0.01281398  0.50005264  1
  Te  Te46  1  0.75053974  0.50003750  -0.01121501  1
  Te  Te47  1  0.74859282  0.50387380  0.50437088  1
  Te  Te48  1  -0.00025136  0.25047639  -0.00152552  1
  Te  Te49  1  -0.00061895  0.25311365  0.50264411  1
  Te  Te50  1  0.00343092  0.74967399  -0.00565388  1
  Te  Te51  1  -0.00019610  0.74459872  0.50342212  1
  Te  Te52  1  0.49931837  0.24777389  -0.00016827  1
  Te  Te53  1  0.49985774  0.25248561  0.50127153  1
  Te  Te54  1  0.49797264  0.75096239  -0.00133206  1
  Te  Te55  1  0.49831526  0.74672371  0.50197919  1
  Te  Te56  1  0.00570955  0.00543382  0.24892738  1
  Te  Te57  1  0.00460281  0.00110711  0.75134255  1
  Te  Te58  1  -0.00107261  0.49456617  0.25570956  1
  Te  Te59  1  -0.00081498  0.49887194  0.74679365  1
  Te  Te60  1  0.49679364  0.00112806  0.24918501  1
  Te  Te61  1  0.49712804  0.00038573  0.75071524  1
  Te  Te62  1  0.50134255  0.49889288  0.25460280  1
  Te  Te63  1  0.50071521  0.49961428  0.74712805  1
