# generated using pymatgen
data_AgSbTe2
_symmetry_space_group_name_H-M   'P 1'
_cell_length_a   12.21401688
_cell_length_b   12.23130293
_cell_length_c   12.22357771
_cell_angle_alpha   89.99647923
_cell_angle_beta   89.99664722
_cell_angle_gamma   90.00068317
_symmetry_Int_Tables_number   1
_chemical_formula_structural   AgSbTe2
_chemical_formula_sum   'Ag16 Sb16 Te32'
_cell_volume   1826.12110077
_cell_formula_units_Z   16
loop_
 _symmetry_equiv_pos_site_id
 _symmetry_equiv_pos_as_xyz
  1  'x, y, z'
loop_
 _atom_site_type_symbol
 _atom_site_label
 _atom_site_symmetry_multiplicity
 _atom_site_fract_x
 _atom_site_fract_y
 _atom_site_fract_z
 _atom_site_occupancy
  Ag  Ag0  1  0.50556933  0.75123612  0.24402513  1
  Ag  Ag1  1  -0.00816184  0.24693822  0.74724492  1
  Ag  Ag2  1  0.25178922  -0.00014356  0.24929454  1
  Ag  Ag3  1  -0.00494070  0.75121510  0.25009173  1
  Ag  Ag4  1  0.75170454  0.49359007  0.75407198  1
  Ag  Ag5  1  0.74668769  0.25230239  -0.00243484  1
  Ag  Ag6  1  0.74644411  0.74800103  0.00402692  1
  Ag  Ag7  1  0.50586205  0.24882261  0.24535955  1
  Ag  Ag8  1  0.50528326  0.00065409  0.00358274  1
  Ag  Ag9  1  0.74769646  0.49970098  0.24529712  1
  Ag  Ag10  1  0.24798897  0.00317078  0.75076867  1
  Ag  Ag11  1  -0.00340612  0.00260974  0.50174974  1
  Ag  Ag12  1  0.75262810  0.00670415  0.75250541  1
  Ag  Ag13  1  0.50924024  0.49926099  0.00393408  1
  Ag  Ag14  1  -0.00730177  0.49672077  0.49943911  1
  Ag  Ag15  1  0.75397332  0.25091072  0.50313723  1
  Sb  Sb16  1  0.24831079  0.75176526  0.49838625  1
  Sb  Sb17  1  0.24806432  0.49643433  0.75087911  1
  Sb  Sb18  1  0.25365805  0.24740640  0.00050048  1
  Sb  Sb19  1  0.50301995  0.00233739  0.49783427  1
  Sb  Sb20  1  0.24621037  0.24744536  0.49957901  1
  Sb  Sb21  1  0.50883644  0.24868617  0.75415929  1
  Sb  Sb22  1  -0.00962847  0.49932104  0.00088670  1
  Sb  Sb23  1  0.50739871  0.49696813  0.49759250  1
  Sb  Sb24  1  0.75213916  0.74945420  0.49635622  1
  Sb  Sb25  1  0.25089071  0.49925142  0.24956303  1
  Sb  Sb26  1  0.50401703  0.75131295  0.75517830  1
  Sb  Sb27  1  -0.00565906  0.24957397  0.25154630  1
  Sb  Sb28  1  0.74903343  -0.00024063  0.24775229  1
  Sb  Sb29  1  -0.00386839  0.75164932  0.75058729  1
  Sb  Sb30  1  0.25282333  0.75234324  0.00243497  1
  Sb  Sb31  1  -0.00525700  0.00076780  -0.00137312  1
  Te  Te32  1  0.25673034  0.24453098  0.24956499  1
  Te  Te33  1  0.24207066  0.24403126  0.74976821  1
  Te  Te34  1  0.24913719  0.75510920  0.24967977  1
  Te  Te35  1  0.25058132  0.75907462  0.75006209  1
  Te  Te36  1  0.74787144  0.25181733  0.24859016  1
  Te  Te37  1  0.75086771  0.24999695  0.75058382  1
  Te  Te38  1  0.74963182  0.74874768  0.24664335  1
  Te  Te39  1  0.74967783  0.74967186  0.75576390  1
  Te  Te40  1  0.25668633  0.00021689  0.00040663  1
  Te  Te41  1  0.24483132  0.00079086  0.50064649  1
  Te  Te42  1  0.26201772  0.49992974  -0.00150184  1
  Te  Te43  1  0.23930853  0.49999303  0.50222446  1
  Te  Te44  1  0.74630090  0.00094287  -0.00263795  1
  Te  Te45  1  0.75429594  0.00262915  0.50521462  1
  Te  Te46  1  0.74751702  0.49880324  0.00133627  1
  Te  Te47  1  0.75365475  0.49805331  0.50003370  1
  Te  Te48  1  -0.00757787  0.25058876  -0.00448658  1
  Te  Te49  1  -0.00461388  0.24798589  0.50158589  1
  Te  Te50  1  -0.00633879  0.74950017  0.00743079  1
  Te  Te51  1  -0.00062333  0.75226808  0.49414159  1
  Te  Te52  1  0.50466086  0.24792419  0.00307025  1
  Te  Te53  1  0.50785415  0.25028459  0.49279404  1
  Te  Te54  1  0.50407070  0.75199982  0.00388701  1
  Te  Te55  1  0.49971693  0.74939765  0.48881747  1
  Te  Te56  1  0.00260627  -0.00149058  0.25204928  1
  Te  Te57  1  -0.00262960  0.00082913  0.74886164  1
  Te  Te58  1  -0.00110586  0.50145416  0.25235584  1
  Te  Te59  1  -0.00325565  0.49850309  0.74693776  1
  Te  Te60  1  0.49889862  -0.00049645  0.24850070  1
  Te  Te61  1  0.50078653  0.00037091  0.75224264  1
  Te  Te62  1  0.50154469  0.50019411  0.24843495  1
  Te  Te63  1  0.50377917  0.50017698  0.75304115  1
