# generated using pymatgen
data_AgSbTe2
_symmetry_space_group_name_H-M   'P 1'
_cell_length_a   12.23326619
_cell_length_b   12.22963817
_cell_length_c   12.21383771
_cell_angle_alpha   90.00567448
_cell_angle_beta   90.00181870
_cell_angle_gamma   89.99956017
_symmetry_Int_Tables_number   1
_chemical_formula_structural   AgSbTe2
_chemical_formula_sum   'Ag16 Sb16 Te32'
_cell_volume   1827.29294278
_cell_formula_units_Z   16
loop_
 _symmetry_equiv_pos_site_id
 _symmetry_equiv_pos_as_xyz
  1  'x, y, z'
loop_
 _atom_site_type_symbol
 _atom_site_label
 _atom_site_symmetry_multiplicity
 _atom_site_fract_x
 _atom_site_fract_y
 _atom_site_fract_z
 _atom_site_occupancy
  Ag  Ag0  1  0.49560014  0.25365363  0.75442113  1
  Ag  Ag1  1  0.00341796  0.49836790  0.00823554  1
  Ag  Ag2  1  0.75270404  0.00235909  0.25002229  1
  Ag  Ag3  1  -0.00145008  0.00294365  0.49460309  1
  Ag  Ag4  1  -0.00523503  0.74478917  0.24692790  1
  Ag  Ag5  1  0.74949921  0.49879144  0.24534252  1
  Ag  Ag6  1  0.25049899  0.49543423  0.24103851  1
  Ag  Ag7  1  0.25270045  0.25743201  0.00160225  1
  Ag  Ag8  1  -0.00442739  0.25485720  0.24864967  1
  Ag  Ag9  1  0.75070753  0.24990734  0.49129411  1
  Ag  Ag10  1  0.24991852  0.00613506  0.75223733  1
  Ag  Ag11  1  0.25194826  0.49405098  0.75920092  1
  Ag  Ag12  1  0.50541575  0.74232784  0.24524801  1
  Ag  Ag13  1  0.74981863  0.74574523  0.00887442  1
  Ag  Ag14  1  0.50322958  0.25743912  0.24606612  1
  Ag  Ag15  1  0.49615096  0.49624113  0.00738886  1
  Sb  Sb16  1  0.75067846  0.00387664  0.74974928  1
  Sb  Sb17  1  0.00330500  0.25201887  0.75188876  1
  Sb  Sb18  1  0.25023555  0.74223485  0.00301823  1
  Sb  Sb19  1  -0.00069599  0.49815136  0.49051175  1
  Sb  Sb20  1  0.24968728  0.25022888  0.49850236  1
  Sb  Sb21  1  0.50112462  0.00325900  0.49822440  1
  Sb  Sb22  1  0.49957015  0.00345670  0.00163384  1
  Sb  Sb23  1  0.74815692  0.25292751  0.00817490  1
  Sb  Sb24  1  0.00017390  0.00130081  0.00387869  1
  Sb  Sb25  1  0.49947143  0.74627361  0.75459518  1
  Sb  Sb26  1  0.24853788  0.75021104  0.49699727  1
  Sb  Sb27  1  0.75220582  0.74994930  0.49046394  1
  Sb  Sb28  1  0.50051521  0.49793932  0.49145956  1
  Sb  Sb29  1  -0.00003412  0.74785355  0.75293844  1
  Sb  Sb30  1  0.74848480  0.49633124  0.75423029  1
  Sb  Sb31  1  0.24876704  0.00406627  0.24810615  1
  Te  Te32  1  0.25143033  0.25191996  0.24813453  1
  Te  Te33  1  0.25282474  0.25293569  0.75095015  1
  Te  Te34  1  0.24965299  0.74634508  0.24945096  1
  Te  Te35  1  0.25105650  0.74871285  0.74999403  1
  Te  Te36  1  0.74981046  0.25063524  0.24966796  1
  Te  Te37  1  0.74386103  0.24930526  0.74329992  1
  Te  Te38  1  0.75066067  0.74817660  0.24841854  1
  Te  Te39  1  0.74879117  0.75025257  0.75703417  1
  Te  Te40  1  0.24916680  0.00868489  -0.00491255  1
  Te  Te41  1  0.24412245  -0.00012029  0.50505503  1
  Te  Te42  1  0.25050583  0.49743997  0.00266076  1
  Te  Te43  1  0.24930270  0.50031780  0.50211173  1
  Te  Te44  1  0.75040136  -0.00599606  0.00523140  1
  Te  Te45  1  0.75403074  0.00311168  0.49655954  1
  Te  Te46  1  0.75026086  0.50148738  0.00382265  1
  Te  Te47  1  0.75098671  0.49523940  0.49544220  1
  Te  Te48  1  0.00235420  0.25386434  0.00366931  1
  Te  Te49  1  -0.00408806  0.24743648  0.49567237  1
  Te  Te50  1  -0.00300185  0.74615491  0.00467474  1
  Te  Te51  1  -0.00078593  0.75501711  0.49401566  1
  Te  Te52  1  0.49874195  0.25305133  0.00258193  1
  Te  Te53  1  0.50464934  0.24971306  0.49736409  1
  Te  Te54  1  0.50299295  0.74504921  0.00582119  1
  Te  Te55  1  0.50034901  0.75057292  0.49169093  1
  Te  Te56  1  -0.00162088  0.00164431  0.25191319  1
  Te  Te57  1  0.00388287  -0.00047934  0.74507141  1
  Te  Te58  1  0.00060021  0.49835616  0.24840834  1
  Te  Te59  1  0.00469677  0.50078260  0.75719605  1
  Te  Te60  1  0.50270821  0.00186698  0.24996371  1
  Te  Te61  1  0.49473182  0.00396637  0.74996543  1
  Te  Te62  1  0.49942324  0.49735168  0.24790296  1
  Te  Te63  1  0.49681934  0.49664994  0.75564197  1
