# generated using pymatgen
data_AgSbTe2
_symmetry_space_group_name_H-M   'P 1'
_cell_length_a   12.21212060
_cell_length_b   12.20825338
_cell_length_c   12.21070679
_cell_angle_alpha   89.99679116
_cell_angle_beta   90.00516969
_cell_angle_gamma   90.00303415
_symmetry_Int_Tables_number   1
_chemical_formula_structural   AgSbTe2
_chemical_formula_sum   'Ag16 Sb16 Te32'
_cell_volume   1820.47793143
_cell_formula_units_Z   16
loop_
 _symmetry_equiv_pos_site_id
 _symmetry_equiv_pos_as_xyz
  1  'x, y, z'
loop_
 _atom_site_type_symbol
 _atom_site_label
 _atom_site_symmetry_multiplicity
 _atom_site_fract_x
 _atom_site_fract_y
 _atom_site_fract_z
 _atom_site_occupancy
  Ag  Ag0  1  0.75132067  0.50126900  0.24399039  1
  Ag  Ag1  1  -0.00221093  -0.00027309  -0.00390055  1
  Ag  Ag2  1  -0.00158057  0.74956569  0.75068585  1
  Ag  Ag3  1  0.75361138  0.74394818  -0.00393517  1
  Ag  Ag4  1  -0.00351333  0.25052244  0.75324248  1
  Ag  Ag5  1  0.24707734  0.75038338  0.50469155  1
  Ag  Ag6  1  -0.00259854  0.75006250  0.24908082  1
  Ag  Ag7  1  0.50163506  -0.00207421  0.50368481  1
  Ag  Ag8  1  0.75407845  0.25656776  -0.00471299  1
  Ag  Ag9  1  0.50135990  0.74659055  0.75023604  1
  Ag  Ag10  1  0.24880519  0.50203225  0.75269462  1
  Ag  Ag11  1  0.75104492  0.50049712  0.75588411  1
  Ag  Ag12  1  -0.00137075  -0.00232350  0.50373439  1
  Ag  Ag13  1  0.50573594  0.50083519  -0.00442908  1
  Ag  Ag14  1  0.75291497  0.25023251  0.50423898  1
  Ag  Ag15  1  0.24587765  0.25282244  -0.00477845  1
  Sb  Sb16  1  -0.00822726  0.49984903  -0.00389906  1
  Sb  Sb17  1  0.24768597  0.50238410  0.24622725  1
  Sb  Sb18  1  0.50456102  0.25369829  0.75065233  1
  Sb  Sb19  1  0.50211572  0.25169696  0.24996835  1
  Sb  Sb20  1  0.50221479  0.50219852  0.50511464  1
  Sb  Sb21  1  0.75319922  0.00035734  0.75000994  1
  Sb  Sb22  1  0.24712896  -0.00216533  0.75003856  1
  Sb  Sb23  1  0.50147329  -0.00150700  -0.00441955  1
  Sb  Sb24  1  0.75326175  0.75033246  0.50512030  1
  Sb  Sb25  1  0.24808201  -0.00189344  0.24968399  1
  Sb  Sb26  1  -0.00311397  0.25060404  0.24701174  1
  Sb  Sb27  1  0.75203244  -0.00276007  0.24983225  1
  Sb  Sb28  1  -0.00114019  0.50263808  0.50358055  1
  Sb  Sb29  1  0.24627314  0.24975028  0.50614353  1
  Sb  Sb30  1  0.50294810  0.74753224  0.24985892  1
  Sb  Sb31  1  0.24517000  0.74618739  -0.00574865  1
  Te  Te32  1  0.24943344  0.25261523  0.24180516  1
  Te  Te33  1  0.24503384  0.25681332  0.75328342  1
  Te  Te34  1  0.24373548  0.74802554  0.25678442  1
  Te  Te35  1  0.24753686  0.74494888  0.74793155  1
  Te  Te36  1  0.75171799  0.25709647  0.24852305  1
  Te  Te37  1  0.75285685  0.25434196  0.75194820  1
  Te  Te38  1  0.75422407  0.74501252  0.24584327  1
  Te  Te39  1  0.75254652  0.74550579  0.75145643  1
  Te  Te40  1  0.24612808  0.00642790  0.00031116  1
  Te  Te41  1  0.24769694  -0.00285762  0.49967848  1
  Te  Te42  1  0.25661635  0.49728525  -0.00374595  1
  Te  Te43  1  0.25173444  0.50342868  0.50491194  1
  Te  Te44  1  0.75351185  0.00095925  0.00099056  1
  Te  Te45  1  0.75211826  0.00489824  0.49913107  1
  Te  Te46  1  0.74972896  0.49951838  -0.00279495  1
  Te  Te47  1  0.74831461  0.49442802  0.50174492  1
  Te  Te48  1  -0.00341686  0.24639445  -0.00216969  1
  Te  Te49  1  -0.00210388  0.24347375  0.50296559  1
  Te  Te50  1  -0.00131312  0.75400716  -0.00354546  1
  Te  Te51  1  0.00017831  0.75429612  0.50384978  1
  Te  Te52  1  0.50311983  0.25073265  -0.00094617  1
  Te  Te53  1  0.50362967  0.24392548  0.50073545  1
  Te  Te54  1  0.50306298  0.74979953  -0.00305361  1
  Te  Te55  1  0.49816158  0.75341644  0.50296167  1
  Te  Te56  1  -0.00064573  -0.00647276  0.25092991  1
  Te  Te57  1  0.00035458  -0.00112370  0.74977676  1
  Te  Te58  1  -0.00500912  0.50671519  0.25148713  1
  Te  Te59  1  -0.00099741  0.50097550  0.74969654  1
  Te  Te60  1  0.49979639  -0.00098482  0.25863219  1
  Te  Te61  1  0.49887702  -0.00817506  0.74539055  1
  Te  Te62  1  0.50604647  0.50117135  0.24234666  1
  Te  Te63  1  0.50147241  0.50383979  0.75355704  1
