# generated using pymatgen
data_AgSbTe2
_symmetry_space_group_name_H-M   'P 1'
_cell_length_a   12.21987307
_cell_length_b   12.21991879
_cell_length_c   12.21750455
_cell_angle_alpha   90.00894327
_cell_angle_beta   89.99727331
_cell_angle_gamma   90.00470095
_symmetry_Int_Tables_number   1
_chemical_formula_structural   AgSbTe2
_chemical_formula_sum   'Ag16 Sb16 Te32'
_cell_volume   1824.38930071
_cell_formula_units_Z   16
loop_
 _symmetry_equiv_pos_site_id
 _symmetry_equiv_pos_as_xyz
  1  'x, y, z'
loop_
 _atom_site_type_symbol
 _atom_site_label
 _atom_site_symmetry_multiplicity
 _atom_site_fract_x
 _atom_site_fract_y
 _atom_site_fract_z
 _atom_site_occupancy
  Ag  Ag0  1  0.25393718  0.24866623  0.00642193  1
  Ag  Ag1  1  0.49256864  0.49842217  0.49264162  1
  Ag  Ag2  1  0.49566346  -0.00271693  0.00088493  1
  Ag  Ag3  1  0.74775365  0.25310246  0.49598172  1
  Ag  Ag4  1  0.00778082  0.49620636  0.49547641  1
  Ag  Ag5  1  0.25659265  0.49475299  0.25467775  1
  Ag  Ag6  1  0.25496087  0.74400320  0.49780732  1
  Ag  Ag7  1  0.00764901  0.25269142  0.25230013  1
  Ag  Ag8  1  0.25264284  -0.00008846  0.75317700  1
  Ag  Ag9  1  0.25194827  0.25722518  0.49174913  1
  Ag  Ag10  1  0.74251299  0.75010215  0.00127496  1
  Ag  Ag11  1  0.49225414  0.25647137  0.25053897  1
  Ag  Ag12  1  0.49590055  0.74378219  0.24622112  1
  Ag  Ag13  1  0.00545953  0.00157424  0.00114070  1
  Ag  Ag14  1  0.49581007  0.50289538  0.00708795  1
  Ag  Ag15  1  0.49679197  0.74992884  0.75318130  1
  Sb  Sb16  1  0.00518382  0.00360228  0.49805811  1
  Sb  Sb17  1  0.00528053  0.49854807  0.00520863  1
  Sb  Sb18  1  0.74624091  0.25026289  0.00355178  1
  Sb  Sb19  1  0.00561968  0.74744507  0.24964103  1
  Sb  Sb20  1  0.74712352  0.50104738  0.74978947  1
  Sb  Sb21  1  0.25149493  0.00744755  0.24597440  1
  Sb  Sb22  1  0.00427155  0.75203578  0.75078262  1
  Sb  Sb23  1  0.25298644  0.50114216  0.74458460  1
  Sb  Sb24  1  0.74841879  0.00033538  0.24877853  1
  Sb  Sb25  1  0.49695068  0.24992842  0.74932604  1
  Sb  Sb26  1  0.74090794  0.49954374  0.25035955  1
  Sb  Sb27  1  0.00318461  0.24890662  0.74808793  1
  Sb  Sb28  1  0.74652043  -0.00179223  0.75259567  1
  Sb  Sb29  1  0.25769039  0.75126607  0.00245375  1
  Sb  Sb30  1  0.49608178  0.00127574  0.49861351  1
  Sb  Sb31  1  0.74460709  0.74704393  0.49891623  1
  Te  Te32  1  0.25257467  0.25067290  0.25041875  1
  Te  Te33  1  0.25056464  0.24465308  0.75188800  1
  Te  Te34  1  0.25434348  0.74467576  0.25386036  1
  Te  Te35  1  0.25473506  0.75395582  0.74576268  1
  Te  Te36  1  0.74921360  0.24970633  0.25498512  1
  Te  Te37  1  0.75042396  0.24970003  0.74138149  1
  Te  Te38  1  0.74316451  0.75042005  0.24604853  1
  Te  Te39  1  0.74261894  0.75054337  0.75365094  1
  Te  Te40  1  0.25213918  0.00144892  -0.00274454  1
  Te  Te41  1  0.24919463  -0.00010285  0.50592563  1
  Te  Te42  1  0.25292584  0.49637150  0.00310503  1
  Te  Te43  1  0.25328144  0.49809446  0.49976074  1
  Te  Te44  1  0.74762974  -0.00221577  -0.00091048  1
  Te  Te45  1  0.75166622  0.00664774  0.50103157  1
  Te  Te46  1  0.74496791  0.50351245  -0.00047482  1
  Te  Te47  1  0.74843539  0.49577872  0.50028232  1
  Te  Te48  1  0.00043994  0.24844187  0.00418936  1
  Te  Te49  1  0.00447156  0.25199911  0.49633979  1
  Te  Te50  1  -0.00640421  0.75288739  0.00094345  1
  Te  Te51  1  0.00197876  0.74606143  0.49885649  1
  Te  Te52  1  0.49980239  0.25080970  0.00147550  1
  Te  Te53  1  0.49579323  0.25137610  0.49848159  1
  Te  Te54  1  0.49953894  0.74910145  0.00233185  1
  Te  Te55  1  0.49934335  0.74906732  0.49811708  1
  Te  Te56  1  0.00042684  0.00475010  0.24401879  1
  Te  Te57  1  0.00581779  -0.00106879  0.75731461  1
  Te  Te58  1  0.00788456  0.49637454  0.25384396  1
  Te  Te59  1  -0.00013896  0.50116603  0.74185262  1
  Te  Te60  1  0.49911663  0.00026726  0.24440832  1
  Te  Te61  1  0.49615797  -0.00464328  0.75539133  1
  Te  Te62  1  0.49642977  0.49854920  0.25058206  1
  Te  Te63  1  0.49867249  0.50594041  0.75059710  1
