# generated using pymatgen
data_AgSbTe2
_symmetry_space_group_name_H-M   'P 1'
_cell_length_a   12.23002990
_cell_length_b   12.23231384
_cell_length_c   12.21862164
_cell_angle_alpha   89.99564204
_cell_angle_beta   90.00375744
_cell_angle_gamma   89.99857141
_symmetry_Int_Tables_number   1
_chemical_formula_structural   AgSbTe2
_chemical_formula_sum   'Ag16 Sb16 Te32'
_cell_volume   1827.92489829
_cell_formula_units_Z   16
loop_
 _symmetry_equiv_pos_site_id
 _symmetry_equiv_pos_as_xyz
  1  'x, y, z'
loop_
 _atom_site_type_symbol
 _atom_site_label
 _atom_site_symmetry_multiplicity
 _atom_site_fract_x
 _atom_site_fract_y
 _atom_site_fract_z
 _atom_site_occupancy
  Ag  Ag0  1  0.25171509  0.25625962  0.00807476  1
  Ag  Ag1  1  0.25279172  0.74340497  0.00495659  1
  Ag  Ag2  1  0.00179494  0.49543777  0.49891266  1
  Ag  Ag3  1  0.00574667  0.50123743  0.00152442  1
  Ag  Ag4  1  0.49702146  0.74436758  0.24288257  1
  Ag  Ag5  1  0.74828754  0.74490601  0.00301471  1
  Ag  Ag6  1  0.75288967  0.25490010  0.49632570  1
  Ag  Ag7  1  0.49341987  0.25483913  0.24584892  1
  Ag  Ag8  1  0.24770795  0.25408701  0.49210508  1
  Ag  Ag9  1  0.25374471  0.49548168  0.24312944  1
  Ag  Ag10  1  0.49405296  0.50241510  0.00808674  1
  Ag  Ag11  1  0.00117212  0.74394247  0.75503445  1
  Ag  Ag12  1  0.74689184  0.49862634  0.24674678  1
  Ag  Ag13  1  0.25446525  0.00508547  0.24543985  1
  Ag  Ag14  1  0.00202929  0.25592888  0.74951244  1
  Ag  Ag15  1  0.49582889  -0.00154805  0.00577321  1
  Sb  Sb16  1  0.49748971  0.49791475  0.49010667  1
  Sb  Sb17  1  0.00342557  0.00003829  0.00066534  1
  Sb  Sb18  1  0.00740278  0.25497087  0.24997991  1
  Sb  Sb19  1  0.24743802  0.74465636  0.49482418  1
  Sb  Sb20  1  0.49842430  0.25156617  0.75346289  1
  Sb  Sb21  1  0.74567525  0.00138184  0.24730379  1
  Sb  Sb22  1  0.24631510  0.49956362  0.75829532  1
  Sb  Sb23  1  0.00232681  0.00462780  0.49961112  1
  Sb  Sb24  1  0.74971605  0.25538634  0.00405254  1
  Sb  Sb25  1  0.24973082  0.00090528  0.75432153  1
  Sb  Sb26  1  0.75266243  0.74425024  0.49635831  1
  Sb  Sb27  1  0.49867258  0.74820555  0.75934894  1
  Sb  Sb28  1  0.75344444  0.49972272  0.75345218  1
  Sb  Sb29  1  0.49706813  0.00220011  0.49367628  1
  Sb  Sb30  1  0.75087517  0.00064027  0.75223213  1
  Sb  Sb31  1  0.00247777  0.74471249  0.24408707  1
  Te  Te32  1  0.25110143  0.25372772  0.24736440  1
  Te  Te33  1  0.24657900  0.24951062  0.74957256  1
  Te  Te34  1  0.25232393  0.74664833  0.24720534  1
  Te  Te35  1  0.24604521  0.75103479  0.75470734  1
  Te  Te36  1  0.74458685  0.25221232  0.25213083  1
  Te  Te37  1  0.75478288  0.24966220  0.74358073  1
  Te  Te38  1  0.74640422  0.74776260  0.24631901  1
  Te  Te39  1  0.75425868  0.75066098  0.75468396  1
  Te  Te40  1  0.25230431  0.00117796  0.00374486  1
  Te  Te41  1  0.25043263  0.00640777  0.49317976  1
  Te  Te42  1  0.24776773  0.49922415  0.00247463  1
  Te  Te43  1  0.24728925  0.49632062  0.49352729  1
  Te  Te44  1  0.74459204  -0.00734956  0.00135428  1
  Te  Te45  1  0.74959717  0.00865541  0.49976210  1
  Te  Te46  1  0.75275966  0.50255469  0.00465789  1
  Te  Te47  1  0.75324488  0.49616535  0.49396609  1
  Te  Te48  1  0.00135254  0.25237498  -0.00316327  1
  Te  Te49  1  0.00252471  0.25378014  0.50155982  1
  Te  Te50  1  0.00137779  0.74821169  -0.00245866  1
  Te  Te51  1  -0.00025840  0.74388229  0.50861539  1
  Te  Te52  1  0.49899645  0.25243235  0.00173433  1
  Te  Te53  1  0.49723860  0.25033621  0.49802983  1
  Te  Te54  1  0.49711352  0.74646071  0.00224863  1
  Te  Te55  1  0.50054908  0.75037220  0.49413967  1
  Te  Te56  1  0.00834059  -0.00202900  0.25059980  1
  Te  Te57  1  0.00013003  0.00072161  0.74949154  1
  Te  Te58  1  -0.00051810  0.50027593  0.24759797  1
  Te  Te59  1  -0.00004609  0.49855181  0.75126811  1
  Te  Te60  1  0.49613760  0.00154699  0.24581713  1
  Te  Te61  1  0.49994692  -0.00061178  0.75952951  1
  Te  Te62  1  0.49870867  0.49867967  0.24710993  1
  Te  Te63  1  0.50163128  0.50052399  0.76050266  1
