# generated using pymatgen
data_AgSbTe2
_symmetry_space_group_name_H-M   'P 1'
_cell_length_a   12.22884859
_cell_length_b   12.22470548
_cell_length_c   12.22024159
_cell_angle_alpha   90.00257638
_cell_angle_beta   90.00423327
_cell_angle_gamma   90.00364556
_symmetry_Int_Tables_number   1
_chemical_formula_structural   AgSbTe2
_chemical_formula_sum   'Ag16 Sb16 Te32'
_cell_volume   1826.85366920
_cell_formula_units_Z   16
loop_
 _symmetry_equiv_pos_site_id
 _symmetry_equiv_pos_as_xyz
  1  'x, y, z'
loop_
 _atom_site_type_symbol
 _atom_site_label
 _atom_site_symmetry_multiplicity
 _atom_site_fract_x
 _atom_site_fract_y
 _atom_site_fract_z
 _atom_site_occupancy
  Ag  Ag0  1  0.25646500  0.50272572  0.74674400  1
  Ag  Ag1  1  0.25042718  0.00266836  0.25643847  1
  Ag  Ag2  1  0.49559274  0.00175357  -0.00925618  1
  Ag  Ag3  1  0.25227498  0.75392061  -0.00788536  1
  Ag  Ag4  1  0.74276266  0.49538703  0.74756043  1
  Ag  Ag5  1  0.00792831  0.75263511  0.74895638  1
  Ag  Ag6  1  0.49888100  0.24819375  0.74344632  1
  Ag  Ag7  1  0.00751286  0.00457021  0.50329262  1
  Ag  Ag8  1  0.74683574  0.24897551  -0.00571372  1
  Ag  Ag9  1  0.25449010  0.24347358  0.50470291  1
  Ag  Ag10  1  0.49287629  0.75244487  0.74948187  1
  Ag  Ag11  1  0.49775878  0.49303803  0.50832783  1
  Ag  Ag12  1  0.00214462  0.24622985  0.25426407  1
  Ag  Ag13  1  0.49273267  0.00645125  0.50853815  1
  Ag  Ag14  1  0.25660391  -0.00210881  0.74546682  1
  Ag  Ag15  1  0.74482558  0.24938439  0.50480180  1
  Sb  Sb16  1  0.49911452  0.49744424  -0.01008386  1
  Sb  Sb17  1  0.74865744  0.49464640  0.25295692  1
  Sb  Sb18  1  0.74202031  0.00566809  0.74883307  1
  Sb  Sb19  1  0.75001063  0.00318329  0.25196196  1
  Sb  Sb20  1  0.49637537  0.75364471  0.25044019  1
  Sb  Sb21  1  0.00544733  0.75491375  0.25231380  1
  Sb  Sb22  1  0.00045338  0.49884927  -0.00392393  1
  Sb  Sb23  1  0.00234684  0.49628622  0.50410837  1
  Sb  Sb24  1  0.74740448  0.75150312  -0.00704833  1
  Sb  Sb25  1  0.25319553  0.24681740  -0.00480550  1
  Sb  Sb26  1  0.00315883  0.00091266  -0.00375395  1
  Sb  Sb27  1  0.25089419  0.49778094  0.25303503  1
  Sb  Sb28  1  0.25104079  0.75822647  0.50884975  1
  Sb  Sb29  1  0.00066743  0.24639753  0.74682988  1
  Sb  Sb30  1  0.49769200  0.24758561  0.25669032  1
  Sb  Sb31  1  0.74770736  0.75013856  0.50478890  1
  Te  Te32  1  0.24705008  0.24621376  0.25245410  1
  Te  Te33  1  0.25080253  0.24887859  0.74854347  1
  Te  Te34  1  0.24941632  0.75483553  0.23946534  1
  Te  Te35  1  0.25251826  0.75074453  0.75071351  1
  Te  Te36  1  0.75468849  0.25022027  0.25215437  1
  Te  Te37  1  0.74995896  0.25298998  0.74780020  1
  Te  Te38  1  0.75196391  0.74844540  0.24798408  1
  Te  Te39  1  0.74830218  0.74161434  0.75041995  1
  Te  Te40  1  0.25334256  -0.00013004  -0.00391958  1
  Te  Te41  1  0.25186566  0.00118470  0.50296765  1
  Te  Te42  1  0.25098055  0.50406406  -0.00468134  1
  Te  Te43  1  0.25248192  0.49373774  0.50354982  1
  Te  Te44  1  0.74367387  0.00512704  0.00036869  1
  Te  Te45  1  0.74849692  0.00524274  0.49986760  1
  Te  Te46  1  0.74944545  0.49399626  -0.00431022  1
  Te  Te47  1  0.74734916  0.49517763  0.50373270  1
  Te  Te48  1  -0.00567435  0.24862601  0.00463110  1
  Te  Te49  1  0.00069096  0.24627375  0.49979971  1
  Te  Te50  1  0.00291633  0.75063976  -0.00518714  1
  Te  Te51  1  -0.00077903  0.75701700  0.50459063  1
  Te  Te52  1  0.50279073  0.24696710  -0.00352204  1
  Te  Te53  1  0.49907674  0.24725994  0.50146255  1
  Te  Te54  1  0.49732301  0.75434817  -0.00431595  1
  Te  Te55  1  0.50076959  0.75249438  0.50515434  1
  Te  Te56  1  0.00472334  0.00294043  0.25445059  1
  Te  Te57  1  0.00484419  -0.00361556  0.74643655  1
  Te  Te58  1  0.00057580  0.49408888  0.25079721  1
  Te  Te59  1  0.00297815  0.50615373  0.74866755  1
  Te  Te60  1  0.49452066  -0.00049944  0.25192235  1
  Te  Te61  1  0.49965548  0.00173836  0.74824933  1
  Te  Te62  1  0.49915528  0.50126774  0.26203325  1
  Te  Te63  1  0.49779745  0.49821596  0.74736058  1
