# generated using pymatgen
data_AgSbTe2
_symmetry_space_group_name_H-M   'P 1'
_cell_length_a   12.23081339
_cell_length_b   12.22089161
_cell_length_c   12.22606430
_cell_angle_alpha   90.00173186
_cell_angle_beta   89.99659739
_cell_angle_gamma   90.00678075
_symmetry_Int_Tables_number   1
_chemical_formula_structural   AgSbTe2
_chemical_formula_sum   'Ag16 Sb16 Te32'
_cell_volume   1827.44747730
_cell_formula_units_Z   16
loop_
 _symmetry_equiv_pos_site_id
 _symmetry_equiv_pos_as_xyz
  1  'x, y, z'
loop_
 _atom_site_type_symbol
 _atom_site_label
 _atom_site_symmetry_multiplicity
 _atom_site_fract_x
 _atom_site_fract_y
 _atom_site_fract_z
 _atom_site_occupancy
  Ag  Ag0  1  0.25297502  -0.00318697  0.24871620  1
  Ag  Ag1  1  0.50457648  0.75233207  0.75616979  1
  Ag  Ag2  1  0.74666846  -0.00377873  0.24227282  1
  Ag  Ag3  1  0.74439305  0.75620054  -0.00598707  1
  Ag  Ag4  1  0.50712109  -0.00961549  0.00096195  1
  Ag  Ag5  1  -0.00042141  0.24390899  0.24559886  1
  Ag  Ag6  1  0.50286166  0.51051926  -0.00451690  1
  Ag  Ag7  1  -0.00462580  0.75320791  0.75319123  1
  Ag  Ag8  1  0.74983132  -0.00728842  0.75758986  1
  Ag  Ag9  1  0.50120387  0.75736033  0.24435189  1
  Ag  Ag10  1  0.74849612  0.50850959  0.75487160  1
  Ag  Ag11  1  0.25100888  0.50545962  0.75150652  1
  Ag  Ag12  1  0.50009647  -0.00632173  0.49922350  1
  Ag  Ag13  1  -0.00179351  0.24662217  0.75299501  1
  Ag  Ag14  1  -0.00591256  -0.00248055  -0.00205192  1
  Ag  Ag15  1  0.25373945  0.75292742  0.50302237  1
  Sb  Sb16  1  0.25195199  0.50276179  0.24815215  1
  Sb  Sb17  1  0.50178131  0.24811490  0.75146358  1
  Sb  Sb18  1  0.50040530  0.24070838  0.24770504  1
  Sb  Sb19  1  0.00072154  0.50266399  0.50277431  1
  Sb  Sb20  1  0.24844450  0.24837148  -0.00137852  1
  Sb  Sb21  1  0.25025867  -0.00463285  0.75103537  1
  Sb  Sb22  1  0.75141998  0.24163368  -0.00060244  1
  Sb  Sb23  1  -0.00048413  0.75615776  0.24554642  1
  Sb  Sb24  1  0.24936811  0.24702052  0.50160547  1
  Sb  Sb25  1  -0.00052563  -0.00221795  0.50145569  1
  Sb  Sb26  1  0.74709749  0.75284358  0.50649710  1
  Sb  Sb27  1  0.74766087  0.50363510  0.24380890  1
  Sb  Sb28  1  -0.00320542  0.50391071  -0.00420605  1
  Sb  Sb29  1  0.25677258  0.75114202  -0.00258890  1
  Sb  Sb30  1  0.49841929  0.50722156  0.50479006  1
  Sb  Sb31  1  0.75051627  0.24763305  0.50095667  1
  Te  Te32  1  0.24523129  0.24579532  0.25122509  1
  Te  Te33  1  0.24309125  0.25755621  0.74855295  1
  Te  Te34  1  0.25128669  0.75282659  0.25400342  1
  Te  Te35  1  0.25144847  0.74816959  0.74810755  1
  Te  Te36  1  0.75498086  0.24551522  0.25066810  1
  Te  Te37  1  0.75528902  0.24825766  0.74958174  1
  Te  Te38  1  0.74810146  0.75324972  0.24663925  1
  Te  Te39  1  0.74837152  0.75264726  0.75070480  1
  Te  Te40  1  0.24938386  -0.00074040  0.00464323  1
  Te  Te41  1  0.25436157  -0.00364760  0.49643815  1
  Te  Te42  1  0.25601352  0.50010935  -0.00463515  1
  Te  Te43  1  0.25091950  0.50568277  0.50496393  1
  Te  Te44  1  0.74932626  -0.00276385  -0.00141624  1
  Te  Te45  1  0.74474572  -0.00130103  0.50022488  1
  Te  Te46  1  0.74614393  0.50714950  -0.00453786  1
  Te  Te47  1  0.74915337  0.49973880  0.50912280  1
  Te  Te48  1  0.00006262  0.24416735  -0.00183293  1
  Te  Te49  1  0.00038350  0.25028943  0.50272575  1
  Te  Te50  1  -0.00552281  0.75448781  -0.00421491  1
  Te  Te51  1  0.00698786  0.74989854  0.50700222  1
  Te  Te52  1  0.49965057  0.24978753  0.00036019  1
  Te  Te53  1  0.49983866  0.24013437  0.49907253  1
  Te  Te54  1  0.50104646  0.75263495  -0.00215987  1
  Te  Te55  1  0.49743998  0.75402686  0.50102064  1
  Te  Te56  1  -0.00134173  0.00100606  0.24872594  1
  Te  Te57  1  0.00010447  -0.00158182  0.75168770  1
  Te  Te58  1  -0.00005688  0.49115126  0.24904095  1
  Te  Te59  1  -0.00119183  0.50136470  0.75227187  1
  Te  Te60  1  0.50180952  -0.00207723  0.24593601  1
  Te  Te61  1  0.50027721  -0.00058361  0.75359539  1
  Te  Te62  1  0.50034830  0.50557996  0.24523030  1
  Te  Te63  1  0.50149448  0.50012502  0.75232105  1
