# generated using pymatgen
data_AgSbTe2
_symmetry_space_group_name_H-M   'P 1'
_cell_length_a   12.29223700
_cell_length_b   12.33795853
_cell_length_c   12.31524473
_cell_angle_alpha   90.00412922
_cell_angle_beta   89.96436119
_cell_angle_gamma   89.99891460
_symmetry_Int_Tables_number   1
_chemical_formula_structural   AgSbTe2
_chemical_formula_sum   'Ag16 Sb16 Te32'
_cell_volume   1867.74332503
_cell_formula_units_Z   16
loop_
 _symmetry_equiv_pos_site_id
 _symmetry_equiv_pos_as_xyz
  1  'x, y, z'
loop_
 _atom_site_type_symbol
 _atom_site_label
 _atom_site_symmetry_multiplicity
 _atom_site_fract_x
 _atom_site_fract_y
 _atom_site_fract_z
 _atom_site_occupancy
  Ag  Ag0  1  0.50779246  0.49360451  0.50818097  1
  Ag  Ag1  1  0.74653555  0.01989783  0.26249415  1
  Ag  Ag2  1  0.74370129  0.74822627  0.49854720  1
  Ag  Ag3  1  0.74638643  0.25138686  0.02024145  1
  Ag  Ag4  1  0.74446056  0.48127201  0.26250914  1
  Ag  Ag5  1  0.51023127  0.73774626  0.74269045  1
  Ag  Ag6  1  0.74097652  0.25116002  0.48429482  1
  Ag  Ag7  1  -0.01281070  0.74870576  0.25171885  1
  Ag  Ag8  1  0.74196674  0.01109768  0.73493372  1
  Ag  Ag9  1  0.50875976  0.25949378  0.73772614  1
  Ag  Ag10  1  0.26922141  0.50136631  0.74754245  1
  Ag  Ag11  1  0.73912452  0.49062745  0.73488893  1
  Ag  Ag12  1  -0.02057800  0.25108803  0.25273583  1
  Ag  Ag13  1  0.50801629  0.00901305  0.50295549  1
  Ag  Ag14  1  0.51413940  0.25327937  0.26387679  1
  Ag  Ag15  1  0.25443824  0.74600357  -0.00296752  1
  Sb  Sb16  1  0.25527003  0.74894406  0.49877379  1
  Sb  Sb17  1  0.25850059  0.25127307  0.49982795  1
  Sb  Sb18  1  0.26247162  0.00125250  0.74816946  1
  Sb  Sb19  1  -0.01080641  0.50013864  0.49837451  1
  Sb  Sb20  1  0.50371107  0.00100135  -0.00140269  1
  Sb  Sb21  1  0.25211169  0.25117857  -0.00146335  1
  Sb  Sb22  1  -0.01256410  0.00026783  0.49801387  1
  Sb  Sb23  1  -0.00603506  0.74885598  0.74777395  1
  Sb  Sb24  1  0.25473773  -0.00053025  0.25193836  1
  Sb  Sb25  1  0.74969343  0.74893976  -0.00063768  1
  Sb  Sb26  1  0.50789908  0.74899044  0.25506948  1
  Sb  Sb27  1  -0.01453818  0.25156281  0.74596461  1
  Sb  Sb28  1  -0.00203608  0.49966329  0.00071612  1
  Sb  Sb29  1  0.50184492  0.49973538  -0.00532097  1
  Sb  Sb30  1  -0.00370177  0.00041337  0.00170001  1
  Sb  Sb31  1  0.25696999  0.49973480  0.25416171  1
  Te  Te32  1  0.25024590  0.25015636  0.24930373  1
  Te  Te33  1  0.25563234  0.25093026  0.75037284  1
  Te  Te34  1  0.24261345  0.74955713  0.24944815  1
  Te  Te35  1  0.24803720  0.75013217  0.74959835  1
  Te  Te36  1  0.74685622  0.25038153  0.24851273  1
  Te  Te37  1  0.75024553  0.25249300  0.74451805  1
  Te  Te38  1  0.75072508  0.74865758  0.24892116  1
  Te  Te39  1  0.74869979  0.74560699  0.75102979  1
  Te  Te40  1  0.24881717  -0.00970150  0.00053619  1
  Te  Te41  1  0.26677766  0.00071133  0.50061055  1
  Te  Te42  1  0.24991583  0.50597177  -0.00607387  1
  Te  Te43  1  0.26374351  0.49883738  0.50562545  1
  Te  Te44  1  0.74965671  0.00411023  0.00314300  1
  Te  Te45  1  0.74697093  -0.00119174  0.49932909  1
  Te  Te46  1  0.74935880  0.49605253  0.00324368  1
  Te  Te47  1  0.74796819  0.50170871  0.49932638  1
  Te  Te48  1  -0.00272413  0.24989165  0.00554876  1
  Te  Te49  1  -0.00539755  0.24957713  0.49715155  1
  Te  Te50  1  0.00086530  0.74982499  0.00366399  1
  Te  Te51  1  -0.00736282  0.75023042  0.49641394  1
  Te  Te52  1  0.50144375  0.25131402  0.00237537  1
  Te  Te53  1  0.50160235  0.25150179  0.50088321  1
  Te  Te54  1  0.49737063  0.74890488  -0.00833670  1
  Te  Te55  1  0.50406739  0.74699536  0.50293875  1
  Te  Te56  1  -0.00369289  0.00149589  0.25106100  1
  Te  Te57  1  -0.01101854  0.00095361  0.74878913  1
  Te  Te58  1  -0.00238177  0.49879748  0.25162505  1
  Te  Te59  1  -0.00090886  0.49955105  0.74879386  1
  Te  Te60  1  0.50341455  -0.00146820  0.25208875  1
  Te  Te61  1  0.50524687  0.00358560  0.75066274  1
  Te  Te62  1  0.50359786  0.49961386  0.25446994  1
  Te  Te63  1  0.50372323  0.49942639  0.75039741  1
