# generated using pymatgen
data_AgSbTe2
_symmetry_space_group_name_H-M   'P 1'
_cell_length_a   12.21398566
_cell_length_b   12.21837809
_cell_length_c   12.21299975
_cell_angle_alpha   89.99987008
_cell_angle_beta   89.99539856
_cell_angle_gamma   90.00222291
_symmetry_Int_Tables_number   1
_chemical_formula_structural   AgSbTe2
_chemical_formula_sum   'Ag16 Sb16 Te32'
_cell_volume   1822.60816768
_cell_formula_units_Z   16
loop_
 _symmetry_equiv_pos_site_id
 _symmetry_equiv_pos_as_xyz
  1  'x, y, z'
loop_
 _atom_site_type_symbol
 _atom_site_label
 _atom_site_symmetry_multiplicity
 _atom_site_fract_x
 _atom_site_fract_y
 _atom_site_fract_z
 _atom_site_occupancy
  Ag  Ag0  1  0.24276496  0.74702361  0.49327831  1
  Ag  Ag1  1  0.75020556  -0.00307037  0.25318767  1
  Ag  Ag2  1  0.49633140  0.75216994  0.25010392  1
  Ag  Ag3  1  0.75437957  0.24723883  0.49636200  1
  Ag  Ag4  1  0.00280780  0.50666893  0.49659896  1
  Ag  Ag5  1  0.24979414  -0.00553082  0.24938706  1
  Ag  Ag6  1  0.24780304  0.50516987  0.25016577  1
  Ag  Ag7  1  0.49459634  0.50111507  0.00333462  1
  Ag  Ag8  1  0.24796863  0.50328986  0.74993507  1
  Ag  Ag9  1  0.25064805  0.25217918  0.00444470  1
  Ag  Ag10  1  0.00087439  0.74868542  0.74137011  1
  Ag  Ag11  1  0.00191220  0.24993663  0.25297495  1
  Ag  Ag12  1  0.00439372  0.74956884  0.25819458  1
  Ag  Ag13  1  0.75080429  -0.00301677  0.74669655  1
  Ag  Ag14  1  0.75712828  0.75231200  0.49653758  1
  Ag  Ag15  1  0.49859828  -0.00159424  0.00503868  1
  Sb  Sb16  1  0.00005915  0.25104319  0.74608234  1
  Sb  Sb17  1  0.74969258  0.75180552  0.00382925  1
  Sb  Sb18  1  0.50213994  -0.00218108  0.49489632  1
  Sb  Sb19  1  0.49903382  0.75011364  0.74961188  1
  Sb  Sb20  1  -0.00198445  -0.00828399  0.49715772  1
  Sb  Sb21  1  0.49646513  0.50290101  0.49707152  1
  Sb  Sb22  1  0.75160612  0.50285936  0.74729266  1
  Sb  Sb23  1  0.00289360  0.00007548  0.00366352  1
  Sb  Sb24  1  0.75199515  0.50259677  0.25221566  1
  Sb  Sb25  1  0.75096866  0.24745872  0.00275136  1
  Sb  Sb26  1  0.49832504  0.24815109  0.24815265  1
  Sb  Sb27  1  0.24961674  -0.00435778  0.75103091  1
  Sb  Sb28  1  0.49984961  0.24991229  0.75130623  1
  Sb  Sb29  1  0.00517595  0.49972933  0.00307976  1
  Sb  Sb30  1  0.24438410  0.25172949  0.49522825  1
  Sb  Sb31  1  0.25105408  0.74801095  0.00855072  1
  Te  Te32  1  0.24684401  0.24984403  0.24956158  1
  Te  Te33  1  0.24808777  0.25366259  0.75314249  1
  Te  Te34  1  0.24804892  0.75035749  0.25154730  1
  Te  Te35  1  0.24714474  0.74821002  0.74335327  1
  Te  Te36  1  0.75446187  0.24583158  0.25328818  1
  Te  Te37  1  0.75195551  0.24446374  0.74522034  1
  Te  Te38  1  0.75161936  0.75303098  0.25338872  1
  Te  Te39  1  0.75293139  0.75359372  0.74455026  1
  Te  Te40  1  0.25452916  0.00436584  0.00328694  1
  Te  Te41  1  0.25191067  -0.00310893  0.49552993  1
  Te  Te42  1  0.25299923  0.49747177  0.00200638  1
  Te  Te43  1  0.24713334  0.50175436  0.49785002  1
  Te  Te44  1  0.74379993  0.00152957  0.00229941  1
  Te  Te45  1  0.74903291  -0.00206904  0.49752717  1
  Te  Te46  1  0.73988278  0.49835705  -0.00133060  1
  Te  Te47  1  0.75394710  0.50237402  0.50058015  1
  Te  Te48  1  0.00482235  0.25128818  0.00690345  1
  Te  Te49  1  -0.00334703  0.25706395  0.49521143  1
  Te  Te50  1  -0.00076626  0.74852407  0.00074307  1
  Te  Te51  1  0.00020924  0.74831978  0.49725550  1
  Te  Te52  1  0.49544548  0.25067692  0.00070956  1
  Te  Te53  1  0.51024408  0.25121732  0.49987703  1
  Te  Te54  1  0.50051497  0.75050718  0.00587700  1
  Te  Te55  1  0.50081113  0.74859592  0.49387311  1
  Te  Te56  1  0.00040403  -0.00179219  0.24891752  1
  Te  Te57  1  -0.00453896  -0.00532062  0.75251757  1
  Te  Te58  1  0.00253223  0.50247157  0.25178226  1
  Te  Te59  1  0.00372502  0.50387034  0.74762771  1
  Te  Te60  1  0.49982326  -0.00252365  0.24638994  1
  Te  Te61  1  0.50410890  -0.00105771  0.75848767  1
  Te  Te62  1  0.49564492  0.50371146  0.24667259  1
  Te  Te63  1  0.49375208  0.50106870  0.75582178  1
