# generated using pymatgen
data_AgSbTe2
_symmetry_space_group_name_H-M   'P 1'
_cell_length_a   12.21811640
_cell_length_b   12.21973673
_cell_length_c   12.23037372
_cell_angle_alpha   90.00611975
_cell_angle_beta   89.99081506
_cell_angle_gamma   90.00608769
_symmetry_Int_Tables_number   1
_chemical_formula_structural   AgSbTe2
_chemical_formula_sum   'Ag16 Sb16 Te32'
_cell_volume   1826.02123983
_cell_formula_units_Z   16
loop_
 _symmetry_equiv_pos_site_id
 _symmetry_equiv_pos_as_xyz
  1  'x, y, z'
loop_
 _atom_site_type_symbol
 _atom_site_label
 _atom_site_symmetry_multiplicity
 _atom_site_fract_x
 _atom_site_fract_y
 _atom_site_fract_z
 _atom_site_occupancy
  Ag  Ag0  1  0.00224355  0.00116288  0.00145045  1
  Ag  Ag1  1  0.24655623  0.00659059  0.74815824  1
  Ag  Ag2  1  0.01030898  0.24391063  0.75379050  1
  Ag  Ag3  1  0.00285911  0.75551388  0.24648531  1
  Ag  Ag4  1  0.24979092  0.49366496  0.24834675  1
  Ag  Ag5  1  0.24908674  0.24838479  0.00132821  1
  Ag  Ag6  1  0.49376903  0.00432288  0.49937008  1
  Ag  Ag7  1  0.25176215  0.24608651  0.49933829  1
  Ag  Ag8  1  0.00916485  0.24504548  0.24638609  1
  Ag  Ag9  1  0.24832656  0.75437812  0.49911185  1
  Ag  Ag10  1  0.48935509  0.24686822  0.75083252  1
  Ag  Ag11  1  0.49638785  0.49525410  0.00200336  1
  Ag  Ag12  1  0.75438584  0.75306078  0.00215494  1
  Ag  Ag13  1  0.00443397  0.75579924  0.75343379  1
  Ag  Ag14  1  0.49027251  0.24841145  0.24902332  1
  Ag  Ag15  1  0.75394505  0.00043080  0.24753679  1
  Sb  Sb16  1  0.00510348  0.00108641  0.49943799  1
  Sb  Sb17  1  0.75109329  0.24761689  0.00164438  1
  Sb  Sb18  1  0.24781754  0.00594464  0.25158567  1
  Sb  Sb19  1  0.49731085  0.00404974  0.00017307  1
  Sb  Sb20  1  0.75283628  -0.00053060  0.75225499  1
  Sb  Sb21  1  0.75243298  0.75514195  0.49869019  1
  Sb  Sb22  1  0.25073794  0.49383761  0.75253644  1
  Sb  Sb23  1  0.49440465  0.49564965  0.49826966  1
  Sb  Sb24  1  0.74858133  0.24653951  0.49831734  1
  Sb  Sb25  1  0.74951653  0.50031205  0.24691025  1
  Sb  Sb26  1  0.49641064  0.75192739  0.24964393  1
  Sb  Sb27  1  0.49493034  0.75262763  0.75065743  1
  Sb  Sb28  1  0.74935389  0.50015518  0.75367445  1
  Sb  Sb29  1  0.24648579  0.75231814  0.00070522  1
  Sb  Sb30  1  0.00368445  0.49910777  0.49892361  1
  Sb  Sb31  1  0.00293045  0.49840357  0.00185039  1
  Te  Te32  1  0.24896747  0.24868533  0.24960427  1
  Te  Te33  1  0.24851932  0.24987518  0.74977441  1
  Te  Te34  1  0.24626926  0.74702513  0.25190164  1
  Te  Te35  1  0.24567476  0.75255497  0.74819403  1
  Te  Te36  1  0.75269077  0.24679102  0.25007421  1
  Te  Te37  1  0.75285420  0.24972912  0.74953780  1
  Te  Te38  1  0.75490511  0.75232673  0.24775971  1
  Te  Te39  1  0.75800627  0.75045730  0.75315754  1
  Te  Te40  1  0.24528492  0.00422254  -0.00610930  1
  Te  Te41  1  0.25381834  0.00205793  0.50350268  1
  Te  Te42  1  0.25446889  0.49522042  0.00510997  1
  Te  Te43  1  0.25099923  0.49900761  0.49272791  1
  Te  Te44  1  0.75488936  -0.00422578  0.00439657  1
  Te  Te45  1  0.73994050  -0.00044262  0.49274394  1
  Te  Te46  1  0.74233591  0.50743858  0.00030717  1
  Te  Te47  1  0.74813552  0.50123084  0.50042432  1
  Te  Te48  1  0.00161357  0.24826254  0.00051306  1
  Te  Te49  1  0.00525154  0.24964763  0.49968761  1
  Te  Te50  1  -0.00051955  0.75118321  0.00108231  1
  Te  Te51  1  0.00482878  0.74996743  0.49961053  1
  Te  Te52  1  0.49890911  0.25053037  0.00083747  1
  Te  Te53  1  0.49655882  0.24695777  0.49962668  1
  Te  Te54  1  0.50391789  0.74647927  -0.00055115  1
  Te  Te55  1  0.49364042  0.75461271  0.50095558  1
  Te  Te56  1  -0.00186604  0.00089846  0.24892387  1
  Te  Te57  1  0.00225641  0.00219388  0.75090003  1
  Te  Te58  1  0.00362574  0.49826961  0.24944754  1
  Te  Te59  1  -0.00012011  0.49873005  0.75000448  1
  Te  Te60  1  0.50331890  0.00376346  0.25099561  1
  Te  Te61  1  0.49741714  0.00486068  0.74886906  1
  Te  Te62  1  0.49724634  0.49547110  0.24705080  1
  Te  Te63  1  0.49988231  0.49314464  0.75491414  1
