# generated using pymatgen
data_AgSbTe2
_symmetry_space_group_name_H-M   'P 1'
_cell_length_a   12.22387068
_cell_length_b   12.21693332
_cell_length_c   12.21728723
_cell_angle_alpha   89.99823885
_cell_angle_beta   89.99965659
_cell_angle_gamma   90.00354805
_symmetry_Int_Tables_number   1
_chemical_formula_structural   AgSbTe2
_chemical_formula_sum   'Ag16 Sb16 Te32'
_cell_volume   1824.50783716
_cell_formula_units_Z   16
loop_
 _symmetry_equiv_pos_site_id
 _symmetry_equiv_pos_as_xyz
  1  'x, y, z'
loop_
 _atom_site_type_symbol
 _atom_site_label
 _atom_site_symmetry_multiplicity
 _atom_site_fract_x
 _atom_site_fract_y
 _atom_site_fract_z
 _atom_site_occupancy
  Ag  Ag0  1  0.74924385  -0.00781112  0.75327277  1
  Ag  Ag1  1  -0.00451736  0.75148178  0.75052179  1
  Ag  Ag2  1  0.50413863  0.75005792  0.75449130  1
  Ag  Ag3  1  0.50024604  0.50980065  -0.00087813  1
  Ag  Ag4  1  0.49696152  0.50671415  0.50044597  1
  Ag  Ag5  1  0.25183930  0.74716528  0.50206905  1
  Ag  Ag6  1  0.50669446  -0.00930911  -0.00201151  1
  Ag  Ag7  1  -0.00229527  -0.00579448  0.50197795  1
  Ag  Ag8  1  0.74943842  -0.00371131  0.24615884  1
  Ag  Ag9  1  0.74421534  0.75338356  -0.00599357  1
  Ag  Ag10  1  0.74879240  0.75281964  0.50590652  1
  Ag  Ag11  1  0.25107256  0.25230049  0.49927217  1
  Ag  Ag12  1  -0.00072489  0.50623186  -0.00038170  1
  Ag  Ag13  1  0.25176892  0.50337034  0.25028934  1
  Ag  Ag14  1  0.25503742  0.74658575  -0.00239245  1
  Ag  Ag15  1  0.74828479  0.24713899  -0.00081559  1
  Sb  Sb16  1  0.25086395  0.50447974  0.75003327  1
  Sb  Sb17  1  0.25030702  -0.00475890  0.75020066  1
  Sb  Sb18  1  0.50182212  -0.00875208  0.50225650  1
  Sb  Sb19  1  0.74859187  0.50311746  0.24643480  1
  Sb  Sb20  1  0.50035166  0.25040960  0.25015299  1
  Sb  Sb21  1  0.74915748  0.24783769  0.50084601  1
  Sb  Sb22  1  0.50045448  0.74989672  0.24367902  1
  Sb  Sb23  1  0.25038006  -0.00235892  0.24973708  1
  Sb  Sb24  1  0.74938399  0.50935496  0.75276207  1
  Sb  Sb25  1  0.25100677  0.25415369  0.00138975  1
  Sb  Sb26  1  0.50237359  0.24974670  0.75030977  1
  Sb  Sb27  1  -0.00263887  0.24900118  0.75069028  1
  Sb  Sb28  1  -0.00735639  -0.00692057  -0.00229619  1
  Sb  Sb29  1  -0.00057446  0.75017509  0.24868970  1
  Sb  Sb30  1  -0.00064416  0.24985851  0.24954154  1
  Sb  Sb31  1  0.00271856  0.50610863  0.50035222  1
  Te  Te32  1  0.24984784  0.25491670  0.25529622  1
  Te  Te33  1  0.24977444  0.24751035  0.74173666  1
  Te  Te34  1  0.24943127  0.74607244  0.25068107  1
  Te  Te35  1  0.25082099  0.75135492  0.75036936  1
  Te  Te36  1  0.75020699  0.24285420  0.24464844  1
  Te  Te37  1  0.75013437  0.23942787  0.75457724  1
  Te  Te38  1  0.75036145  0.75475586  0.25076657  1
  Te  Te39  1  0.74906595  0.75212676  0.75049795  1
  Te  Te40  1  0.25508588  -0.00267742  0.00255620  1
  Te  Te41  1  0.24800191  -0.00430557  0.49808619  1
  Te  Te42  1  0.25329138  0.50091456  0.00247361  1
  Te  Te43  1  0.25099887  0.50533407  0.49744974  1
  Te  Te44  1  0.75001426  -0.00394220  -0.00043292  1
  Te  Te45  1  0.75060251  -0.00160818  0.50037962  1
  Te  Te46  1  0.74720155  0.50246842  0.00244261  1
  Te  Te47  1  0.74656658  0.50260920  0.49716620  1
  Te  Te48  1  -0.00293581  0.25681999  -0.00163241  1
  Te  Te49  1  0.00314764  0.24650783  0.50157264  1
  Te  Te50  1  0.00084995  0.74801432  -0.00427930  1
  Te  Te51  1  -0.00017854  0.75102993  0.50468546  1
  Te  Te52  1  0.50353894  0.25242982  -0.00155912  1
  Te  Te53  1  0.49587185  0.25783082  0.50184691  1
  Te  Te54  1  0.50025591  0.74819361  -0.00228420  1
  Te  Te55  1  0.49927635  0.74806469  0.50496680  1
  Te  Te56  1  -0.00492997  0.00029789  0.25622416  1
  Te  Te57  1  -0.00435834  -0.00598093  0.74653521  1
  Te  Te58  1  0.00542705  0.49965255  0.24388307  1
  Te  Te59  1  -0.00074142  0.50692734  0.75610853  1
  Te  Te60  1  0.50551605  0.00039163  0.24385526  1
  Te  Te61  1  0.50455072  -0.00588753  0.75390244  1
  Te  Te62  1  0.49594140  0.49981636  0.24930650  1
  Te  Te63  1  0.50096820  0.50630583  0.75146108  1
