# generated using pymatgen
data_AgSbTe2
_symmetry_space_group_name_H-M   'P 1'
_cell_length_a   12.22809810
_cell_length_b   12.21560430
_cell_length_c   12.22439883
_cell_angle_alpha   89.99834603
_cell_angle_beta   89.99355308
_cell_angle_gamma   89.98643460
_symmetry_Int_Tables_number   1
_chemical_formula_structural   AgSbTe2
_chemical_formula_sum   'Ag16 Sb16 Te32'
_cell_volume   1826.00249192
_cell_formula_units_Z   16
loop_
 _symmetry_equiv_pos_site_id
 _symmetry_equiv_pos_as_xyz
  1  'x, y, z'
loop_
 _atom_site_type_symbol
 _atom_site_label
 _atom_site_symmetry_multiplicity
 _atom_site_fract_x
 _atom_site_fract_y
 _atom_site_fract_z
 _atom_site_occupancy
  Ag  Ag0  1  0.00094992  0.75874258  0.75188505  1
  Ag  Ag1  1  0.50649577  -0.00329900  0.00126746  1
  Ag  Ag2  1  0.74946788  0.76007619  0.00154560  1
  Ag  Ag3  1  0.25007261  0.75389930  0.50131963  1
  Ag  Ag4  1  -0.00243487  -0.00077043  0.50380319  1
  Ag  Ag5  1  -0.01124877  0.24646985  0.24929850  1
  Ag  Ag6  1  0.25016097  0.75706898  -0.00162142  1
  Ag  Ag7  1  0.75000971  0.24696970  0.49118061  1
  Ag  Ag8  1  0.50335480  0.75039584  0.24716552  1
  Ag  Ag9  1  0.51040317  0.25021280  0.24948371  1
  Ag  Ag10  1  0.75492779  -0.00163007  0.75634370  1
  Ag  Ag11  1  0.75008423  0.24182396  0.00714130  1
  Ag  Ag12  1  0.74652584  0.49482626  0.25034175  1
  Ag  Ag13  1  0.50274719  0.50063204  0.49397297  1
  Ag  Ag14  1  0.24392467  -0.00567332  0.75231703  1
  Ag  Ag15  1  -0.00662114  -0.00300635  -0.00452694  1
  Sb  Sb16  1  0.50304695  0.50197375  0.00438130  1
  Sb  Sb17  1  0.24939795  0.50541413  0.74879666  1
  Sb  Sb18  1  0.25334765  0.50260796  0.25103753  1
  Sb  Sb19  1  -0.00444612  0.75286304  0.24777917  1
  Sb  Sb20  1  -0.00157179  0.50009764  0.49731903  1
  Sb  Sb21  1  0.24981266  0.24650321  0.49850731  1
  Sb  Sb22  1  0.50222411  -0.00013142  0.49784790  1
  Sb  Sb23  1  -0.00348229  0.24106112  0.75135862  1
  Sb  Sb24  1  0.49949408  0.75305966  0.75276097  1
  Sb  Sb25  1  0.50265237  0.24705361  0.75156730  1
  Sb  Sb26  1  0.74994101  0.75461519  0.49792891  1
  Sb  Sb27  1  0.74992528  0.00579995  0.24290217  1
  Sb  Sb28  1  0.24980281  -0.00203099  0.24823249  1
  Sb  Sb29  1  0.75065740  0.50159739  0.74955465  1
  Sb  Sb30  1  -0.00168339  0.50143926  0.00195442  1
  Sb  Sb31  1  0.24981618  0.24247329  0.00170502  1
  Te  Te32  1  0.25177128  0.25116627  0.24989853  1
  Te  Te33  1  0.24975599  0.24236086  0.75031782  1
  Te  Te34  1  0.25402619  0.74893409  0.24977335  1
  Te  Te35  1  0.24811455  0.75449505  0.75092421  1
  Te  Te36  1  0.74856993  0.25033903  0.24965924  1
  Te  Te37  1  0.75048674  0.24654912  0.75196522  1
  Te  Te38  1  0.74659858  0.74423166  0.24657865  1
  Te  Te39  1  0.75312801  0.75340583  0.75394376  1
  Te  Te40  1  0.24913458  -0.00416833  -0.00314581  1
  Te  Te41  1  0.24761447  -0.00468120  0.50470329  1
  Te  Te42  1  0.25054202  0.51073557  -0.00145261  1
  Te  Te43  1  0.25451969  0.50635207  0.50130166  1
  Te  Te44  1  0.75079156  -0.00066428  -0.00124015  1
  Te  Te45  1  0.75295008  0.00281537  0.50715357  1
  Te  Te46  1  0.74909372  0.49807433  0.00267132  1
  Te  Te47  1  0.74688556  0.49579112  0.49799044  1
  Te  Te48  1  -0.00187184  0.24607859  0.00278087  1
  Te  Te49  1  -0.00180215  0.24711401  0.49707405  1
  Te  Te50  1  -0.00115431  0.75347956  0.00130904  1
  Te  Te51  1  0.00203681  0.75355160  0.49933392  1
  Te  Te52  1  0.50177258  0.24792249  0.00469836  1
  Te  Te53  1  0.50182392  0.25037422  0.49456266  1
  Te  Te54  1  0.50180842  0.75181614  0.00325770  1
  Te  Te55  1  0.49824334  0.74993404  0.49514631  1
  Te  Te56  1  0.00042868  0.00461640  0.25097981  1
  Te  Te57  1  -0.00184497  -0.00288525  0.75137631  1
  Te  Te58  1  -0.00696043  0.49185274  0.25025973  1
  Te  Te59  1  0.00050100  0.51137470  0.74967328  1
  Te  Te60  1  0.49960370  -0.00113244  0.24526117  1
  Te  Te61  1  0.50245848  0.00041860  0.75613494  1
  Te  Te62  1  0.50322313  0.49958014  0.25353209  1
  Te  Te63  1  0.49999613  0.49903278  0.73902615  1
