# generated using pymatgen
data_AgSbTe2
_symmetry_space_group_name_H-M   'P 1'
_cell_length_a   12.22215769
_cell_length_b   12.21437480
_cell_length_c   12.21714786
_cell_angle_alpha   90.00547824
_cell_angle_beta   89.99893141
_cell_angle_gamma   90.00376431
_symmetry_Int_Tables_number   1
_chemical_formula_structural   AgSbTe2
_chemical_formula_sum   'Ag16 Sb16 Te32'
_cell_volume   1823.84930516
_cell_formula_units_Z   16
loop_
 _symmetry_equiv_pos_site_id
 _symmetry_equiv_pos_as_xyz
  1  'x, y, z'
loop_
 _atom_site_type_symbol
 _atom_site_label
 _atom_site_symmetry_multiplicity
 _atom_site_fract_x
 _atom_site_fract_y
 _atom_site_fract_z
 _atom_site_occupancy
  Ag  Ag0  1  0.49910277  0.74336909  0.75283336  1
  Ag  Ag1  1  0.00093234  -0.00016449  0.00624266  1
  Ag  Ag2  1  0.49710967  0.24592180  0.24946574  1
  Ag  Ag3  1  0.00232518  0.00172656  0.49408239  1
  Ag  Ag4  1  0.49903119  0.50304910  -0.00359992  1
  Ag  Ag5  1  0.25059394  0.00367219  0.24925047  1
  Ag  Ag6  1  0.25344210  0.50173091  0.75098337  1
  Ag  Ag7  1  0.49791394  0.50000001  0.50296017  1
  Ag  Ag8  1  0.49909623  0.75363269  0.24662912  1
  Ag  Ag9  1  0.00288045  0.24368181  0.24974736  1
  Ag  Ag10  1  0.74903185  0.00099774  0.24806809  1
  Ag  Ag11  1  0.00071607  0.74730933  0.75260959  1
  Ag  Ag12  1  0.00114800  0.50133232  -0.00244910  1
  Ag  Ag13  1  0.74647865  0.50296806  0.75193538  1
  Ag  Ag14  1  0.49904926  -0.00207760  0.00701620  1
  Ag  Ag15  1  0.25051629  0.24986292  0.49571489  1
  Sb  Sb16  1  0.74888925  0.24970443  0.49722303  1
  Sb  Sb17  1  0.00256765  0.25135618  0.75130888  1
  Sb  Sb18  1  0.25270831  0.49680763  0.24957779  1
  Sb  Sb19  1  0.49742125  0.25678474  0.75079604  1
  Sb  Sb20  1  0.74753916  0.74989322  -0.00022117  1
  Sb  Sb21  1  0.74945042  0.24988481  0.00183773  1
  Sb  Sb22  1  0.25124329  -0.00101861  0.75040582  1
  Sb  Sb23  1  0.74900199  0.75015713  0.50021474  1
  Sb  Sb24  1  0.25102783  0.74995488  0.49973303  1
  Sb  Sb25  1  0.74714882  0.50013402  0.24830985  1
  Sb  Sb26  1  0.49790983  0.00050433  0.49276663  1
  Sb  Sb27  1  0.74910328  -0.00288024  0.75158796  1
  Sb  Sb28  1  0.25230081  0.74934177  0.00022532  1
  Sb  Sb29  1  0.25037278  0.24986629  0.00447201  1
  Sb  Sb30  1  0.00090397  0.75590153  0.24740888  1
  Sb  Sb31  1  0.00152635  0.49880344  0.50172758  1
  Te  Te32  1  0.25011721  0.24712968  0.25398498  1
  Te  Te33  1  0.25017958  0.25533754  0.74065571  1
  Te  Te34  1  0.25619389  0.75735230  0.25169122  1
  Te  Te35  1  0.25108416  0.74548138  0.74873466  1
  Te  Te36  1  0.75005874  0.24504933  0.25085032  1
  Te  Te37  1  0.74980759  0.25848952  0.74832304  1
  Te  Te38  1  0.74325021  0.75596092  0.25109918  1
  Te  Te39  1  0.74913626  0.74523183  0.74890115  1
  Te  Te40  1  0.24946245  0.00113432  0.00287970  1
  Te  Te41  1  0.24613608  0.00511952  0.49816796  1
  Te  Te42  1  0.25010918  0.49897910  -0.00406243  1
  Te  Te43  1  0.25370102  0.49569074  0.50207473  1
  Te  Te44  1  0.75071449  0.00060667  0.00371727  1
  Te  Te45  1  0.75679503  0.00068421  0.49596037  1
  Te  Te46  1  0.74973808  0.49934878  -0.00363071  1
  Te  Te47  1  0.74445129  0.49970225  0.50450662  1
  Te  Te48  1  0.00041037  0.24856081  0.00478294  1
  Te  Te49  1  0.00390766  0.24733421  0.49525327  1
  Te  Te50  1  0.00034049  0.74919058  -0.00373864  1
  Te  Te51  1  0.00058895  0.75383865  0.50445796  1
  Te  Te52  1  0.49959951  0.24955908  0.00526540  1
  Te  Te53  1  0.49628310  0.25221414  0.49559571  1
  Te  Te54  1  0.49979607  0.74878119  -0.00029724  1
  Te  Te55  1  0.49963095  0.74603800  0.50169871  1
  Te  Te56  1  0.00116020  -0.00156421  0.24657005  1
  Te  Te57  1  -0.00103934  -0.00360709  0.75381936  1
  Te  Te58  1  -0.00080770  0.49848874  0.24539166  1
  Te  Te59  1  0.00127909  0.50246918  0.75242069  1
  Te  Te60  1  0.49910599  0.00077433  0.24926178  1
  Te  Te61  1  0.50130251  -0.00626710  0.75635975  1
  Te  Te62  1  0.50049729  0.49992760  0.24705854  1
  Te  Te63  1  0.49852669  0.50075580  0.75338236  1
