# generated using pymatgen
data_AgSbTe2
_symmetry_space_group_name_H-M   'P 1'
_cell_length_a   12.20620580
_cell_length_b   12.22494693
_cell_length_c   12.21373101
_cell_angle_alpha   89.99868923
_cell_angle_beta   89.99112653
_cell_angle_gamma   90.00093194
_symmetry_Int_Tables_number   1
_chemical_formula_structural   AgSbTe2
_chemical_formula_sum   'Ag16 Sb16 Te32'
_cell_volume   1822.53558351
_cell_formula_units_Z   16
loop_
 _symmetry_equiv_pos_site_id
 _symmetry_equiv_pos_as_xyz
  1  'x, y, z'
loop_
 _atom_site_type_symbol
 _atom_site_label
 _atom_site_symmetry_multiplicity
 _atom_site_fract_x
 _atom_site_fract_y
 _atom_site_fract_z
 _atom_site_occupancy
  Ag  Ag0  1  0.00356270  0.49799748  0.50651393  1
  Ag  Ag1  1  0.00400599  0.25367115  0.75229504  1
  Ag  Ag2  1  0.49732952  0.50295224  0.50102046  1
  Ag  Ag3  1  0.50078751  0.75139960  0.25519410  1
  Ag  Ag4  1  0.49967148  -0.00299829  0.49904419  1
  Ag  Ag5  1  -0.00088683  0.24968046  0.24715182  1
  Ag  Ag6  1  0.24451654  -0.00039685  0.74942962  1
  Ag  Ag7  1  0.00059024  0.00373800  -0.00321744  1
  Ag  Ag8  1  0.24172393  0.50008703  0.74680571  1
  Ag  Ag9  1  0.24529539  0.25272173  0.50400988  1
  Ag  Ag10  1  0.00481456  0.74649732  0.75153884  1
  Ag  Ag11  1  0.75173997  -0.00005387  0.25080011  1
  Ag  Ag12  1  0.24445774  0.74995153  -0.00446845  1
  Ag  Ag13  1  0.74877161  0.75031538  0.49910526  1
  Ag  Ag14  1  0.00232693  0.49655686  -0.00631274  1
  Ag  Ag15  1  0.75935901  0.24868390  0.00080033  1
  Sb  Sb16  1  0.75483268  0.75056165  0.00074264  1
  Sb  Sb17  1  0.49702998  0.50149876  -0.00215172  1
  Sb  Sb18  1  0.50081288  0.24899244  0.25293698  1
  Sb  Sb19  1  0.24837458  0.49994864  0.25346582  1
  Sb  Sb20  1  0.75923232  0.49971662  0.74904638  1
  Sb  Sb21  1  0.75155011  0.49990895  0.25109338  1
  Sb  Sb22  1  0.75437801  0.00028401  0.74925991  1
  Sb  Sb23  1  0.24808044  0.00011923  0.25117468  1
  Sb  Sb24  1  0.25013147  0.74801961  0.50314886  1
  Sb  Sb25  1  0.75481574  0.24973540  0.49971250  1
  Sb  Sb26  1  0.49569395  0.25043141  0.74797000  1
  Sb  Sb27  1  0.00092327  0.00131121  0.50250668  1
  Sb  Sb28  1  -0.00033602  0.75046214  0.24943245  1
  Sb  Sb29  1  0.49889766  -0.00162630  0.00044182  1
  Sb  Sb30  1  0.24133917  0.25019407  -0.00351190  1
  Sb  Sb31  1  0.49685948  0.74961076  0.74653970  1
  Te  Te32  1  0.24394017  0.24927497  0.25610193  1
  Te  Te33  1  0.24578495  0.24996288  0.74689163  1
  Te  Te34  1  0.25454331  0.75085355  0.24322972  1
  Te  Te35  1  0.24602733  0.75042551  0.75309040  1
  Te  Te36  1  0.75484007  0.24453517  0.24768816  1
  Te  Te37  1  0.75795056  0.24921106  0.75474068  1
  Te  Te38  1  0.74716798  0.75543079  0.25355566  1
  Te  Te39  1  0.75626891  0.75057567  0.74470045  1
  Te  Te40  1  0.24686908  -0.00171964  -0.00502942  1
  Te  Te41  1  0.25303978  0.00234996  0.50365282  1
  Te  Te42  1  0.24569684  0.50185749  -0.00514829  1
  Te  Te43  1  0.24748750  0.49813979  0.50303099  1
  Te  Te44  1  0.75301140  0.00218321  0.00308483  1
  Te  Te45  1  0.74612142  -0.00283839  0.49722877  1
  Te  Te46  1  0.75554550  0.49618760  -0.00017687  1
  Te  Te47  1  0.74963909  0.50395629  0.50014627  1
  Te  Te48  1  -0.00053487  0.25006556  -0.00078733  1
  Te  Te49  1  0.00231348  0.25239762  0.50146593  1
  Te  Te50  1  0.00200258  0.74956070  -0.00165617  1
  Te  Te51  1  -0.00216182  0.74656376  0.50209884  1
  Te  Te52  1  0.50980371  0.25155936  0.00079862  1
  Te  Te53  1  0.49642884  0.25106570  0.49920192  1
  Te  Te54  1  0.49642145  0.74875851  0.00537241  1
  Te  Te55  1  0.50131521  0.74956593  0.49727305  1
  Te  Te56  1  -0.00372723  0.00328671  0.24650530  1
  Te  Te57  1  0.00404014  -0.00008170  0.75286616  1
  Te  Te58  1  -0.00014336  0.49513485  0.25062785  1
  Te  Te59  1  0.00279418  0.49972371  0.74918700  1
  Te  Te60  1  0.50383104  -0.00269820  0.25340642  1
  Te  Te61  1  0.49272459  -0.00039596  0.74459901  1
  Te  Te62  1  0.49997337  0.50465702  0.25681864  1
  Te  Te63  1  0.49030280  0.50047827  0.74391576  1
