# generated using pymatgen
data_AgSbTe2
_symmetry_space_group_name_H-M   'P 1'
_cell_length_a   12.20527533
_cell_length_b   12.21273836
_cell_length_c   12.21559782
_cell_angle_alpha   89.99738290
_cell_angle_beta   90.00126480
_cell_angle_gamma   90.00491952
_symmetry_Int_Tables_number   1
_chemical_formula_structural   AgSbTe2
_chemical_formula_sum   'Ag16 Sb16 Te32'
_cell_volume   1820.85497582
_cell_formula_units_Z   16
loop_
 _symmetry_equiv_pos_site_id
 _symmetry_equiv_pos_as_xyz
  1  'x, y, z'
loop_
 _atom_site_type_symbol
 _atom_site_label
 _atom_site_symmetry_multiplicity
 _atom_site_fract_x
 _atom_site_fract_y
 _atom_site_fract_z
 _atom_site_occupancy
  Ag  Ag0  1  0.50372115  0.25118517  0.74881946  1
  Ag  Ag1  1  0.74769898  0.74336183  0.49651424  1
  Ag  Ag2  1  -0.01002181  0.50310027  0.49954487  1
  Ag  Ag3  1  0.50430774  -0.00276531  0.50037783  1
  Ag  Ag4  1  0.25154147  -0.00280367  0.75013154  1
  Ag  Ag5  1  0.75192459  0.50436551  0.25072558  1
  Ag  Ag6  1  -0.00832434  0.50352380  0.00036400  1
  Ag  Ag7  1  -0.00686728  0.25432794  0.24877945  1
  Ag  Ag8  1  -0.00425764  0.74598469  0.75237808  1
  Ag  Ag9  1  0.75156287  0.50341132  0.74908359  1
  Ag  Ag10  1  0.74865845  -0.00420446  0.25106996  1
  Ag  Ag11  1  0.75162551  0.25608536  0.00192740  1
  Ag  Ag12  1  0.75231151  0.74322814  0.00292556  1
  Ag  Ag13  1  0.50985973  0.50351864  0.50006305  1
  Ag  Ag14  1  0.50803887  0.74854909  0.25272251  1
  Ag  Ag15  1  0.24836540  0.74868774  -0.00152839  1
  Sb  Sb16  1  0.25159985  0.75008082  0.50151672  1
  Sb  Sb17  1  0.50178732  -0.00148190  -0.00038343  1
  Sb  Sb18  1  -0.00410428  0.25424661  0.75100121  1
  Sb  Sb19  1  0.51028285  0.50176031  0.00009012  1
  Sb  Sb20  1  0.24846569  0.50250272  0.24863637  1
  Sb  Sb21  1  0.74974721  0.25853090  0.49862202  1
  Sb  Sb22  1  -0.00526032  -0.00318167  0.49925994  1
  Sb  Sb23  1  0.50695539  0.25123979  0.25080426  1
  Sb  Sb24  1  0.24793808  0.25199707  -0.00174695  1
  Sb  Sb25  1  0.25178461  -0.00353360  0.24989477  1
  Sb  Sb26  1  -0.00205775  -0.00432447  0.00016381  1
  Sb  Sb27  1  0.25040355  0.24985098  0.50127977  1
  Sb  Sb28  1  0.74850465  -0.00205811  0.74816529  1
  Sb  Sb29  1  0.24930858  0.50242354  0.75150004  1
  Sb  Sb30  1  0.50407405  0.74880832  0.74758531  1
  Sb  Sb31  1  -0.00973479  0.74534355  0.24806461  1
  Te  Te32  1  0.24215705  0.24887124  0.24798306  1
  Te  Te33  1  0.25572085  0.24378159  0.75195086  1
  Te  Te34  1  0.25843942  0.75158079  0.24331501  1
  Te  Te35  1  0.24687963  0.75354152  0.75447015  1
  Te  Te36  1  0.75229528  0.25140379  0.24556817  1
  Te  Te37  1  0.74715455  0.25236584  0.75588142  1
  Te  Te38  1  0.74920242  0.74794804  0.24960330  1
  Te  Te39  1  0.75225443  0.74741298  0.75114809  1
  Te  Te40  1  0.24997292  -0.00638938  -0.00470475  1
  Te  Te41  1  0.25658706  -0.00079360  0.50451672  1
  Te  Te42  1  0.24086805  0.50600444  -0.00045341  1
  Te  Te43  1  0.25007138  0.50074368  0.50025062  1
  Te  Te44  1  0.74989841  -0.00149310  0.00462476  1
  Te  Te45  1  0.74608020  -0.00619697  0.49671518  1
  Te  Te46  1  0.75150174  0.50262079  0.00034185  1
  Te  Te47  1  0.75013706  0.50127622  0.49988980  1
  Te  Te48  1  -0.00404244  0.25571477  0.00200454  1
  Te  Te49  1  0.00022448  0.25645011  0.49669071  1
  Te  Te50  1  -0.00402573  0.74613114  -0.00153915  1
  Te  Te51  1  -0.00360254  0.74530571  0.50262725  1
  Te  Te52  1  0.50472920  0.25049257  -0.00437380  1
  Te  Te53  1  0.50027818  0.25083190  0.50335330  1
  Te  Te54  1  0.50235691  0.74886789  0.00364697  1
  Te  Te55  1  0.50264473  0.74796898  0.49798836  1
  Te  Te56  1  -0.00576822  0.00627925  0.25189778  1
  Te  Te57  1  0.00430544  -0.00406503  0.74785103  1
  Te  Te58  1  -0.00359460  0.49864913  0.25090946  1
  Te  Te59  1  -0.00295086  0.50228475  0.74909913  1
  Te  Te60  1  0.50410816  -0.00155930  0.25563260  1
  Te  Te61  1  0.49807209  0.00242496  0.74458181  1
  Te  Te62  1  0.50457356  0.50218560  0.25527842  1
  Te  Te63  1  0.50363130  0.49759878  0.74489818  1
