# generated using pymatgen
data_AgSbTe2
_symmetry_space_group_name_H-M   'P 1'
_cell_length_a   12.31156571
_cell_length_b   12.27696887
_cell_length_c   12.29998121
_cell_angle_alpha   89.99018306
_cell_angle_beta   90.00094892
_cell_angle_gamma   89.99622770
_symmetry_Int_Tables_number   1
_chemical_formula_structural   AgSbTe2
_chemical_formula_sum   'Ag16 Sb16 Te32'
_cell_volume   1859.12624779
_cell_formula_units_Z   16
loop_
 _symmetry_equiv_pos_site_id
 _symmetry_equiv_pos_as_xyz
  1  'x, y, z'
loop_
 _atom_site_type_symbol
 _atom_site_label
 _atom_site_symmetry_multiplicity
 _atom_site_fract_x
 _atom_site_fract_y
 _atom_site_fract_z
 _atom_site_occupancy
  Ag  Ag0  1  -0.00563408  0.49297111  0.00121134  1
  Ag  Ag1  1  0.73486585  0.00800382  0.24736402  1
  Ag  Ag2  1  0.50521939  0.48935456  0.00730406  1
  Ag  Ag3  1  0.25701728  0.49412777  0.24942798  1
  Ag  Ag4  1  0.50741796  0.01245065  0.01704889  1
  Ag  Ag5  1  -0.01170558  0.49745268  0.49868090  1
  Ag  Ag6  1  0.50494603  0.24520326  0.24978142  1
  Ag  Ag7  1  0.74425760  0.25425107  0.00703235  1
  Ag  Ag8  1  0.50977972  0.49262766  0.49413593  1
  Ag  Ag9  1  0.74818196  0.49720279  0.74447987  1
  Ag  Ag10  1  -0.00770005  0.00915007  0.00759690  1
  Ag  Ag11  1  0.74619254  0.73715968  0.49680106  1
  Ag  Ag12  1  0.25292130  0.49874452  0.75093896  1
  Ag  Ag13  1  0.74217422  0.25714258  0.49363802  1
  Ag  Ag14  1  0.26496382  0.00587225  0.24750466  1
  Ag  Ag15  1  0.50934327  0.00972060  0.48332605  1
  Sb  Sb16  1  0.74903875  0.00220246  0.75178361  1
  Sb  Sb17  1  0.25403520  0.74665496  0.49858987  1
  Sb  Sb18  1  -0.00706935  0.25355537  0.24816695  1
  Sb  Sb19  1  -0.00627601  0.00359877  0.49232294  1
  Sb  Sb20  1  0.25661892  0.25208387  0.00393253  1
  Sb  Sb21  1  0.25856896  0.25275283  0.49547833  1
  Sb  Sb22  1  0.74062980  0.49428646  0.25081455  1
  Sb  Sb23  1  0.25019743  0.74831395  0.00050058  1
  Sb  Sb24  1  0.75001380  0.74732715  0.00488692  1
  Sb  Sb25  1  0.50168881  0.75204127  0.25029756  1
  Sb  Sb26  1  -0.00346395  0.74760455  0.74919314  1
  Sb  Sb27  1  0.50238649  0.25203738  0.75102773  1
  Sb  Sb28  1  -0.00233236  0.74466924  0.25097182  1
  Sb  Sb29  1  -0.00242459  0.25237989  0.75212617  1
  Sb  Sb30  1  0.25325334  0.00284068  0.75141128  1
  Sb  Sb31  1  0.50331680  0.74678776  0.74954280  1
  Te  Te32  1  0.26347544  0.24889860  0.24974309  1
  Te  Te33  1  0.24872014  0.25963272  0.74862764  1
  Te  Te34  1  0.24840440  0.75202605  0.25021581  1
  Te  Te35  1  0.24952658  0.73659973  0.74986272  1
  Te  Te36  1  0.74425974  0.24525792  0.24641493  1
  Te  Te37  1  0.75031481  0.25608798  0.75214925  1
  Te  Te38  1  0.75125960  0.76961670  0.25612517  1
  Te  Te39  1  0.74965132  0.73870457  0.73944008  1
  Te  Te40  1  0.25419536  0.00100221  0.00100759  1
  Te  Te41  1  0.24954258  -0.00010563  0.50004685  1
  Te  Te42  1  0.25186421  0.49816169  0.00475275  1
  Te  Te43  1  0.25313333  0.49970076  0.49458726  1
  Te  Te44  1  0.74585976  -0.00383328  -0.00540666  1
  Te  Te45  1  0.75058653  0.00940317  0.50648554  1
  Te  Te46  1  0.74777503  0.50177556  0.00754183  1
  Te  Te47  1  0.74731352  0.49553573  0.49262012  1
  Te  Te48  1  -0.01244371  0.25424710  0.00033486  1
  Te  Te49  1  -0.01276103  0.25497628  0.49943585  1
  Te  Te50  1  -0.00024235  0.74502934  0.00049268  1
  Te  Te51  1  -0.00912360  0.74274678  0.49943145  1
  Te  Te52  1  0.50462811  0.25225515  0.00171633  1
  Te  Te53  1  0.50296141  0.25093809  0.49753923  1
  Te  Te54  1  0.49983082  0.74820045  -0.00051156  1
  Te  Te55  1  0.50481048  0.74779074  0.50020131  1
  Te  Te56  1  0.00619121  0.00185017  0.24569098  1
  Te  Te57  1  0.00511125  -0.00035248  0.76376064  1
  Te  Te58  1  0.01106731  0.49706550  0.24575676  1
  Te  Te59  1  -0.00271951  0.49894948  0.75387338  1
  Te  Te60  1  0.49916519  -0.00107475  0.25058043  1
  Te  Te61  1  0.49532237  0.00009857  0.75110274  1
  Te  Te62  1  0.49934961  0.50019280  0.24839571  1
  Te  Te63  1  0.50254684  0.49805058  0.75066602  1
