# generated using pymatgen
data_AgSbTe2
_symmetry_space_group_name_H-M   'P 1'
_cell_length_a   12.21699170
_cell_length_b   12.22966996
_cell_length_c   12.23335544
_cell_angle_alpha   89.99792260
_cell_angle_beta   90.00360265
_cell_angle_gamma   90.00527376
_symmetry_Int_Tables_number   1
_chemical_formula_structural   AgSbTe2
_chemical_formula_sum   'Ag16 Sb16 Te32'
_cell_volume   1827.78288741
_cell_formula_units_Z   16
loop_
 _symmetry_equiv_pos_site_id
 _symmetry_equiv_pos_as_xyz
  1  'x, y, z'
loop_
 _atom_site_type_symbol
 _atom_site_label
 _atom_site_symmetry_multiplicity
 _atom_site_fract_x
 _atom_site_fract_y
 _atom_site_fract_z
 _atom_site_occupancy
  Ag  Ag0  1  0.50677873  0.49796437  -0.00133312  1
  Ag  Ag1  1  0.75220266  0.75580037  0.49977779  1
  Ag  Ag2  1  0.50503273  0.24535336  0.75528012  1
  Ag  Ag3  1  -0.00431369  -0.00388720  0.50260215  1
  Ag  Ag4  1  -0.00876801  0.75560104  0.74896523  1
  Ag  Ag5  1  0.74628336  0.75574298  0.00039450  1
  Ag  Ag6  1  0.74179072  0.24450473  -0.00238176  1
  Ag  Ag7  1  -0.01129665  0.75540007  0.25123835  1
  Ag  Ag8  1  0.74855247  -0.00416766  0.75453366  1
  Ag  Ag9  1  0.74730412  0.50338010  0.75439905  1
  Ag  Ag10  1  0.50467868  0.24568361  0.24400583  1
  Ag  Ag11  1  0.50839639  0.00283117  -0.00023680  1
  Ag  Ag12  1  0.25266387  0.24452447  0.50225339  1
  Ag  Ag13  1  0.51040858  0.75538897  0.24605585  1
  Ag  Ag14  1  0.25177442  0.00068272  0.74884835  1
  Ag  Ag15  1  0.74598772  -0.00706520  0.24546659  1
  Sb  Sb16  1  0.74869805  0.24516224  0.50091911  1
  Sb  Sb17  1  0.25303749  0.49961688  0.24983349  1
  Sb  Sb18  1  0.50334808  0.50076309  0.50228667  1
  Sb  Sb19  1  0.24883783  0.75413487  0.50210506  1
  Sb  Sb20  1  -0.00901791  -0.00237296  -0.00194521  1
  Sb  Sb21  1  0.25387015  0.75298950  -0.00134251  1
  Sb  Sb22  1  0.25236609  0.49945759  0.75041853  1
  Sb  Sb23  1  -0.00381180  0.50390190  0.50171523  1
  Sb  Sb24  1  -0.00666356  0.50328362  -0.00294246  1
  Sb  Sb25  1  0.25315579  0.00033184  0.25013168  1
  Sb  Sb26  1  -0.00516548  0.24478824  0.25092194  1
  Sb  Sb27  1  -0.00369242  0.24523338  0.74948293  1
  Sb  Sb28  1  0.25954019  0.24658743  -0.00112830  1
  Sb  Sb29  1  0.50908891  0.75446201  0.75404813  1
  Sb  Sb30  1  0.50342881  -0.00025994  0.50043940  1
  Sb  Sb31  1  0.74720490  0.50666493  0.24592605  1
  Te  Te32  1  0.25517709  0.24960305  0.25330509  1
  Te  Te33  1  0.25231166  0.24679713  0.74788929  1
  Te  Te34  1  0.25022639  0.75014532  0.25045734  1
  Te  Te35  1  0.24226056  0.75485339  0.74899050  1
  Te  Te36  1  0.74603450  0.24643680  0.24945569  1
  Te  Te37  1  0.74755611  0.24676909  0.75082793  1
  Te  Te38  1  0.74871668  0.75115488  0.24890111  1
  Te  Te39  1  0.74946816  0.75439982  0.75103008  1
  Te  Te40  1  0.25890560  0.00034839  -0.00683767  1
  Te  Te41  1  0.24538593  0.00322776  0.50498340  1
  Te  Te42  1  0.26008839  0.49967159  -0.00069096  1
  Te  Te43  1  0.24933907  0.49061204  0.50076164  1
  Te  Te44  1  0.74752787  -0.00161881  -0.00019173  1
  Te  Te45  1  0.75340134  -0.00379440  0.50060054  1
  Te  Te46  1  0.74545622  0.50077850  -0.00389931  1
  Te  Te47  1  0.75046262  0.50693648  0.50895179  1
  Te  Te48  1  -0.00884954  0.25110388  0.00171591  1
  Te  Te49  1  0.00409689  0.24440528  0.49868518  1
  Te  Te50  1  -0.00519154  0.74955752  0.00070634  1
  Te  Te51  1  -0.00210023  0.75357968  0.49985836  1
  Te  Te52  1  0.50325998  0.24666839  -0.00033226  1
  Te  Te53  1  0.49761070  0.25058730  0.49992093  1
  Te  Te54  1  0.50373430  0.75219561  0.00239987  1
  Te  Te55  1  0.50359481  0.74892088  0.49211576  1
  Te  Te56  1  -0.00274970  -0.00449220  0.25227469  1
  Te  Te57  1  -0.00336009  -0.00279949  0.74885494  1
  Te  Te58  1  0.00069010  0.50920137  0.24911380  1
  Te  Te59  1  -0.00510125  0.50675892  0.75102576  1
  Te  Te60  1  0.50262321  -0.00037769  0.24921381  1
  Te  Te61  1  0.50336031  0.00111904  0.75063088  1
  Te  Te62  1  0.50048595  0.49844861  0.24517230  1
  Te  Te63  1  0.50387669  0.49631937  0.75337006  1
