# generated using pymatgen
data_AgSbTe2
_symmetry_space_group_name_H-M   'P 1'
_cell_length_a   12.26156970
_cell_length_b   12.29943569
_cell_length_c   12.29532368
_cell_angle_alpha   90.00619981
_cell_angle_beta   89.99792087
_cell_angle_gamma   90.01642147
_symmetry_Int_Tables_number   1
_chemical_formula_structural   AgSbTe2
_chemical_formula_sum   'Ag16 Sb16 Te32'
_cell_volume   1854.26244585
_cell_formula_units_Z   16
loop_
 _symmetry_equiv_pos_site_id
 _symmetry_equiv_pos_as_xyz
  1  'x, y, z'
loop_
 _atom_site_type_symbol
 _atom_site_label
 _atom_site_symmetry_multiplicity
 _atom_site_fract_x
 _atom_site_fract_y
 _atom_site_fract_z
 _atom_site_occupancy
  Ag  Ag0  1  0.75659449  0.74907244  0.50842184  1
  Ag  Ag1  1  -0.01268785  0.74998770  0.74425728  1
  Ag  Ag2  1  0.75516761  -0.00921376  0.74808516  1
  Ag  Ag3  1  0.24115969  0.25043652  0.50077808  1
  Ag  Ag4  1  0.75654847  -0.00159460  0.25122135  1
  Ag  Ag5  1  -0.00807110  0.25045491  0.25246076  1
  Ag  Ag6  1  -0.00838223  0.00015951  0.50161187  1
  Ag  Ag7  1  -0.00906529  0.25051617  0.74754549  1
  Ag  Ag8  1  0.51023625  0.50215259  0.50366244  1
  Ag  Ag9  1  0.51219309  -0.00029962  -0.00388293  1
  Ag  Ag10  1  0.51784791  0.74996058  0.74610170  1
  Ag  Ag11  1  0.75662493  0.50186350  0.25104139  1
  Ag  Ag12  1  0.75534163  0.50960299  0.74721161  1
  Ag  Ag13  1  -0.00916573  0.49716192  -0.00144775  1
  Ag  Ag14  1  0.75613816  0.24996681  -0.00131259  1
  Ag  Ag15  1  -0.01015735  0.74992541  0.25512871  1
  Sb  Sb16  1  0.51495504  0.74993271  0.25342640  1
  Sb  Sb17  1  0.50835032  0.00050073  0.50121529  1
  Sb  Sb18  1  0.75075606  0.75151611  -0.00492907  1
  Sb  Sb19  1  -0.00526884  0.50203052  0.50041973  1
  Sb  Sb20  1  0.51055026  0.49984164  -0.00210487  1
  Sb  Sb21  1  0.24564381  0.74967719  0.50011528  1
  Sb  Sb22  1  0.24691807  0.75058266  -0.00046280  1
  Sb  Sb23  1  0.75389404  0.24959539  0.50042667  1
  Sb  Sb24  1  0.23929748  0.49815642  0.25326523  1
  Sb  Sb25  1  0.24346252  0.49913829  0.74845513  1
  Sb  Sb26  1  -0.00521907  0.00147040  -0.00064280  1
  Sb  Sb27  1  0.24348634  0.00079954  0.74942486  1
  Sb  Sb28  1  0.24007519  0.00181367  0.25084666  1
  Sb  Sb29  1  0.51178891  0.25020772  0.74867668  1
  Sb  Sb30  1  0.24299937  0.24928010  -0.00042512  1
  Sb  Sb31  1  0.51200951  0.24995994  0.25147986  1
  Te  Te32  1  0.23534281  0.24992289  0.25202705  1
  Te  Te33  1  0.23409751  0.24986475  0.74773997  1
  Te  Te34  1  0.23104499  0.75009986  0.24942652  1
  Te  Te35  1  0.24405782  0.75011402  0.75086421  1
  Te  Te36  1  0.75425479  0.24972081  0.25223461  1
  Te  Te37  1  0.75540347  0.24963175  0.74851621  1
  Te  Te38  1  0.75550908  0.74989246  0.25275882  1
  Te  Te39  1  0.75318048  0.75004548  0.74862469  1
  Te  Te40  1  0.26945300  0.00005178  0.00064502  1
  Te  Te41  1  0.23943566  0.00340657  0.49921958  1
  Te  Te42  1  0.23818381  0.49983619  0.00093816  1
  Te  Te43  1  0.26487118  0.49738029  0.49957915  1
  Te  Te44  1  0.74851603  0.00255481  -0.00088711  1
  Te  Te45  1  0.75668133  -0.00128880  0.50147493  1
  Te  Te46  1  0.75633984  0.49569580  -0.00009359  1
  Te  Te47  1  0.74692558  0.50106536  0.50223590  1
  Te  Te48  1  -0.00560560  0.25081318  -0.00117475  1
  Te  Te49  1  -0.00070153  0.25032319  0.50112632  1
  Te  Te50  1  -0.00052620  0.74637720  -0.00324043  1
  Te  Te51  1  -0.00419256  0.74969686  0.50406058  1
  Te  Te52  1  0.50475580  0.24912265  0.00057445  1
  Te  Te53  1  0.49129467  0.25098860  0.49972177  1
  Te  Te54  1  0.49859087  0.75124609  -0.00794232  1
  Te  Te55  1  0.50168587  0.74949163  0.50380858  1
  Te  Te56  1  -0.00562001  0.00015709  0.24617892  1
  Te  Te57  1  -0.00473735  -0.00260981  0.75229838  1
  Te  Te58  1  -0.00581711  0.49940823  0.25353572  1
  Te  Te59  1  -0.00469024  0.50202076  0.74750273  1
  Te  Te60  1  0.51163347  -0.00068493  0.25017055  1
  Te  Te61  1  0.50811510  -0.00002132  0.74786527  1
  Te  Te62  1  0.51099698  0.50071112  0.24993525  1
  Te  Te63  1  0.50749876  0.50030932  0.75020335  1
