# generated using pymatgen
data_AgSbTe2
_symmetry_space_group_name_H-M   'P 1'
_cell_length_a   12.22488944
_cell_length_b   12.21995439
_cell_length_c   12.22206763
_cell_angle_alpha   89.99121797
_cell_angle_beta   89.99549432
_cell_angle_gamma   89.99761545
_symmetry_Int_Tables_number   1
_chemical_formula_structural   AgSbTe2
_chemical_formula_sum   'Ag16 Sb16 Te32'
_cell_volume   1825.82521680
_cell_formula_units_Z   16
loop_
 _symmetry_equiv_pos_site_id
 _symmetry_equiv_pos_as_xyz
  1  'x, y, z'
loop_
 _atom_site_type_symbol
 _atom_site_label
 _atom_site_symmetry_multiplicity
 _atom_site_fract_x
 _atom_site_fract_y
 _atom_site_fract_z
 _atom_site_occupancy
  Ag  Ag0  1  -0.00404997  0.25718288  0.25000113  1
  Ag  Ag1  1  0.74549012  0.74628991  0.00080612  1
  Ag  Ag2  1  0.74711191  -0.00402490  0.75241903  1
  Ag  Ag3  1  0.50400303  0.74618552  0.75766121  1
  Ag  Ag4  1  0.25277723  0.50133214  0.74979220  1
  Ag  Ag5  1  0.50611838  0.74114906  0.24236712  1
  Ag  Ag6  1  0.50449067  -0.00741317  -0.00033747  1
  Ag  Ag7  1  -0.00552645  0.74236024  0.24449082  1
  Ag  Ag8  1  0.74577039  0.50070125  0.24738957  1
  Ag  Ag9  1  0.50145125  0.49753069  0.49520918  1
  Ag  Ag10  1  0.50377822  0.25899952  0.25217757  1
  Ag  Ag11  1  -0.00410137  0.74598413  0.75553215  1
  Ag  Ag12  1  0.25374115  0.25516838  0.49840134  1
  Ag  Ag13  1  0.74674051  0.25373945  0.49564031  1
  Ag  Ag14  1  -0.00335628  0.50555822  0.00432383  1
  Ag  Ag15  1  0.50399820  0.50631998  0.00499653  1
  Sb  Sb16  1  -0.00261963  0.00081358  0.50046423  1
  Sb  Sb17  1  0.50241813  0.00178255  0.50059911  1
  Sb  Sb18  1  0.74814350  0.25396030  0.00386579  1
  Sb  Sb19  1  0.25119764  0.25417274  0.00121902  1
  Sb  Sb20  1  0.25154438  0.00088318  0.25003008  1
  Sb  Sb21  1  -0.00212496  0.25476983  0.75131357  1
  Sb  Sb22  1  0.74840758  0.50358861  0.75261408  1
  Sb  Sb23  1  0.74777887  -0.00092964  0.24810341  1
  Sb  Sb24  1  0.25206397  -0.00156586  0.75023687  1
  Sb  Sb25  1  -0.00169313  0.49884786  0.49578625  1
  Sb  Sb26  1  0.25559691  0.74700943  -0.00039073  1
  Sb  Sb27  1  0.25454069  0.49871645  0.25097044  1
  Sb  Sb28  1  0.74800179  0.74669963  0.49889321  1
  Sb  Sb29  1  0.25244488  0.74538563  0.50081122  1
  Sb  Sb30  1  0.50115667  0.25436952  0.74839929  1
  Sb  Sb31  1  -0.00475527  -0.00609626  -0.00079996  1
  Te  Te32  1  0.25035677  0.24976778  0.25471805  1
  Te  Te33  1  0.24864070  0.25408711  0.74419441  1
  Te  Te34  1  0.24756393  0.75058455  0.25159605  1
  Te  Te35  1  0.24991262  0.74666182  0.74867124  1
  Te  Te36  1  0.74892529  0.25121174  0.25156707  1
  Te  Te37  1  0.75155966  0.24482375  0.74467695  1
  Te  Te38  1  0.74921340  0.74848734  0.24959386  1
  Te  Te39  1  0.74897210  0.75059346  0.74980910  1
  Te  Te40  1  0.26084776  0.00266743  -0.00071162  1
  Te  Te41  1  0.24969185  0.01122746  0.50057088  1
  Te  Te42  1  0.25006538  0.49895453  -0.00722820  1
  Te  Te43  1  0.25554899  0.49558522  0.50539451  1
  Te  Te44  1  0.74487275  -0.00543675  -0.00405707  1
  Te  Te45  1  0.74950611  0.00763183  0.50665375  1
  Te  Te46  1  0.74888092  0.50357279  0.00309833  1
  Te  Te47  1  0.74528328  0.49579553  0.49494488  1
  Te  Te48  1  -0.00017694  0.25447859  0.00603063  1
  Te  Te49  1  -0.00175772  0.25054470  0.49446844  1
  Te  Te50  1  -0.00339868  0.74789073  0.00195991  1
  Te  Te51  1  0.00059276  0.74983027  0.49795570  1
  Te  Te52  1  0.50138553  0.25424589  0.00501213  1
  Te  Te53  1  0.50183497  0.25245941  0.49736492  1
  Te  Te54  1  0.50146636  0.74615373  0.00118776  1
  Te  Te55  1  0.49965012  0.74602790  0.49869940  1
  Te  Te56  1  0.00042051  -0.00152308  0.24872757  1
  Te  Te57  1  -0.00287725  -0.00778287  0.75156550  1
  Te  Te58  1  -0.00050522  0.50170283  0.24810924  1
  Te  Te59  1  0.00040335  0.50421276  0.75359405  1
  Te  Te60  1  0.50049780  -0.00189565  0.24594467  1
  Te  Te61  1  0.50227066  -0.00544721  0.75268774  1
  Te  Te62  1  0.49946007  0.50085603  0.24848218  1
  Te  Te63  1  0.50035316  0.50255959  0.75173148  1
