# generated using pymatgen
data_AgSbTe2
_symmetry_space_group_name_H-M   'P 1'
_cell_length_a   12.23525267
_cell_length_b   12.21231258
_cell_length_c   12.23518710
_cell_angle_alpha   89.99650142
_cell_angle_beta   90.00385290
_cell_angle_gamma   90.00597958
_symmetry_Int_Tables_number   1
_chemical_formula_structural   AgSbTe2
_chemical_formula_sum   'Ag16 Sb16 Te32'
_cell_volume   1828.19057258
_cell_formula_units_Z   16
loop_
 _symmetry_equiv_pos_site_id
 _symmetry_equiv_pos_as_xyz
  1  'x, y, z'
loop_
 _atom_site_type_symbol
 _atom_site_label
 _atom_site_symmetry_multiplicity
 _atom_site_fract_x
 _atom_site_fract_y
 _atom_site_fract_z
 _atom_site_occupancy
  Ag  Ag0  1  0.49706070  -0.00810705  0.49986565  1
  Ag  Ag1  1  0.00312623  -0.00777152  0.49995658  1
  Ag  Ag2  1  0.49913116  0.51053812  -0.00012192  1
  Ag  Ag3  1  0.74885475  0.25095456  -0.00001074  1
  Ag  Ag4  1  0.25213367  -0.00918094  0.74911851  1
  Ag  Ag5  1  0.74689898  -0.00420692  0.24774491  1
  Ag  Ag6  1  0.49414494  0.75300457  0.75723426  1
  Ag  Ag7  1  0.25053404  0.75409149  0.50038452  1
  Ag  Ag8  1  0.25031320  0.50987385  0.24523911  1
  Ag  Ag9  1  0.00051377  0.50756826  -0.00023491  1
  Ag  Ag10  1  0.49431253  0.75263215  0.24270755  1
  Ag  Ag11  1  0.49928072  -0.01121255  0.00048032  1
  Ag  Ag12  1  0.74938231  0.50439842  0.75620609  1
  Ag  Ag13  1  0.00564567  0.75066537  0.75275765  1
  Ag  Ag14  1  0.25483946  0.74873118  0.00080595  1
  Ag  Ag15  1  0.00629804  0.75055842  0.24725767  1
  Sb  Sb16  1  0.50052377  0.24615175  0.24775643  1
  Sb  Sb17  1  0.74941883  0.75202463  0.49969583  1
  Sb  Sb18  1  0.74410368  0.74908544  -0.00023251  1
  Sb  Sb19  1  -0.00114155  0.24986973  0.75259568  1
  Sb  Sb20  1  0.74990712  0.24751086  0.50005474  1
  Sb  Sb21  1  0.25214559  -0.00880045  0.25073553  1
  Sb  Sb22  1  0.25032265  0.50971888  0.75462879  1
  Sb  Sb23  1  0.00281557  0.50814706  0.50023326  1
  Sb  Sb24  1  -0.00073774  0.24774852  0.24738056  1
  Sb  Sb25  1  0.49714583  0.50910192  0.49999412  1
  Sb  Sb26  1  0.25011096  0.24561682  0.49952762  1
  Sb  Sb27  1  0.00065590  -0.00912759  -0.00002142  1
  Sb  Sb28  1  0.50084831  0.24826144  0.75204124  1
  Sb  Sb29  1  0.74805454  -0.00313069  0.75228848  1
  Sb  Sb30  1  0.25050905  0.25019550  -0.00013851  1
  Sb  Sb31  1  0.74951063  0.50306752  0.24490133  1
  Te  Te32  1  0.24943912  0.26403409  0.25019441  1
  Te  Te33  1  0.24942083  0.23785342  0.74899585  1
  Te  Te34  1  0.25040552  0.74915579  0.24735556  1
  Te  Te35  1  0.25074080  0.75237487  0.75140921  1
  Te  Te36  1  0.75034256  0.24380609  0.24446785  1
  Te  Te37  1  0.75054087  0.25730352  0.75630970  1
  Te  Te38  1  0.74992343  0.75520036  0.25069517  1
  Te  Te39  1  0.75070677  0.74561492  0.74916117  1
  Te  Te40  1  0.25340264  -0.00193744  -0.00190316  1
  Te  Te41  1  0.25117379  -0.00438695  0.50048443  1
  Te  Te42  1  0.25164646  0.50204575  0.00126433  1
  Te  Te43  1  0.25029340  0.50504113  0.49486682  1
  Te  Te44  1  0.74675265  0.00402095  0.00264716  1
  Te  Te45  1  0.74864275  0.00144234  0.49668611  1
  Te  Te46  1  0.74849455  0.49805559  -0.00169847  1
  Te  Te47  1  0.74986094  0.49713418  0.50785979  1
  Te  Te48  1  -0.00406290  0.25950152  0.00004202  1
  Te  Te49  1  0.00027746  0.23886513  0.50005944  1
  Te  Te50  1  0.00450921  0.74688170  -0.00002685  1
  Te  Te51  1  0.00302647  0.75363682  0.49992599  1
  Te  Te52  1  0.50302260  0.25113913  0.00009516  1
  Te  Te53  1  0.49970202  0.23829656  0.49992950  1
  Te  Te54  1  0.49806266  0.75035226  -0.00007573  1
  Te  Te55  1  0.49704297  0.75390331  0.50001664  1
  Te  Te56  1  -0.00172409  -0.00463898  0.25136780  1
  Te  Te57  1  -0.00014246  -0.00559032  0.74879476  1
  Te  Te58  1  -0.00037301  0.50579672  0.24832114  1
  Te  Te59  1  -0.00045982  0.50515187  0.75199719  1
  Te  Te60  1  0.50091126  -0.00373798  0.24778984  1
  Te  Te61  1  0.50075674  -0.00420286  0.75175886  1
  Te  Te62  1  0.50015851  0.50527883  0.24775141  1
  Te  Te63  1  0.50084204  0.50462894  0.75262451  1
