# generated using pymatgen
data_AgSbTe2
_symmetry_space_group_name_H-M   'P 1'
_cell_length_a   12.21231480
_cell_length_b   12.20894619
_cell_length_c   12.20282396
_cell_angle_alpha   90.01273705
_cell_angle_beta   90.00405932
_cell_angle_gamma   89.99667178
_symmetry_Int_Tables_number   1
_chemical_formula_structural   AgSbTe2
_chemical_formula_sum   'Ag16 Sb16 Te32'
_cell_volume   1819.43482834
_cell_formula_units_Z   16
loop_
 _symmetry_equiv_pos_site_id
 _symmetry_equiv_pos_as_xyz
  1  'x, y, z'
loop_
 _atom_site_type_symbol
 _atom_site_label
 _atom_site_symmetry_multiplicity
 _atom_site_fract_x
 _atom_site_fract_y
 _atom_site_fract_z
 _atom_site_occupancy
  Ag  Ag0  1  -0.00060890  -0.00177132  0.00119731  1
  Ag  Ag1  1  -0.00318554  0.49578466  0.50321497  1
  Ag  Ag2  1  0.74668183  0.25262708  0.49941638  1
  Ag  Ag3  1  0.74422227  -0.00020377  0.25065075  1
  Ag  Ag4  1  -0.00217154  0.50163445  -0.00280874  1
  Ag  Ag5  1  0.25029898  0.75141041  0.00186982  1
  Ag  Ag6  1  -0.00170605  0.25362453  0.74713556  1
  Ag  Ag7  1  0.50183863  0.74916839  0.74971835  1
  Ag  Ag8  1  0.50081226  0.00336238  0.49306926  1
  Ag  Ag9  1  0.50269026  0.49643541  0.49997720  1
  Ag  Ag10  1  0.25578727  -0.00009316  0.25033341  1
  Ag  Ag11  1  0.50070431  0.75515900  0.25065293  1
  Ag  Ag12  1  0.74965538  0.75006990  0.00076660  1
  Ag  Ag13  1  0.50064170  0.24487699  0.25711857  1
  Ag  Ag14  1  0.25320077  0.25003843  0.49811716  1
  Ag  Ag15  1  0.75214904  0.49973139  0.74713879  1
  Sb  Sb16  1  0.50063139  -0.00342801  0.00849029  1
  Sb  Sb17  1  0.25429101  0.75133425  0.49761619  1
  Sb  Sb18  1  -0.00238695  0.74681542  0.75344380  1
  Sb  Sb19  1  0.25207483  0.50018052  0.25051453  1
  Sb  Sb20  1  0.24829612  0.24826423  0.00235156  1
  Sb  Sb21  1  0.25143373  -0.00066463  0.75040415  1
  Sb  Sb22  1  0.74837571  -0.00038812  0.75012851  1
  Sb  Sb23  1  -0.00067926  0.75134091  0.24731665  1
  Sb  Sb24  1  0.74630435  0.74797256  0.49919752  1
  Sb  Sb25  1  0.50245877  0.50380105  -0.00200902  1
  Sb  Sb26  1  -0.00040777  0.00395189  0.49961348  1
  Sb  Sb27  1  0.74769099  0.50024046  0.25220240  1
  Sb  Sb28  1  0.24823919  0.50023282  0.74931041  1
  Sb  Sb29  1  -0.00068514  0.24905759  0.25308639  1
  Sb  Sb30  1  0.75126869  0.24972734  0.00090675  1
  Sb  Sb31  1  0.50170873  0.25132012  0.74129928  1
  Te  Te32  1  0.25462643  0.24487074  0.25411340  1
  Te  Te33  1  0.24558552  0.24955679  0.74419284  1
  Te  Te34  1  0.25569448  0.75535838  0.24586764  1
  Te  Te35  1  0.25716432  0.75047259  0.75698205  1
  Te  Te36  1  0.74553862  0.24556090  0.25416448  1
  Te  Te37  1  0.75280433  0.25466774  0.74567765  1
  Te  Te38  1  0.74458647  0.75471433  0.24543392  1
  Te  Te39  1  0.74575973  0.74612942  0.75473086  1
  Te  Te40  1  0.24556644  -0.00345434  0.00507092  1
  Te  Te41  1  0.25165853  0.00331356  0.49429386  1
  Te  Te42  1  0.24273339  0.50541246  0.00039413  1
  Te  Te43  1  0.25055071  0.49489834  0.49934959  1
  Te  Te44  1  0.75415003  -0.00341386  0.00373583  1
  Te  Te45  1  0.74798812  0.00311697  0.49549842  1
  Te  Te46  1  0.75445720  0.50350444  -0.00309323  1
  Te  Te47  1  0.74977017  0.49762883  0.50215107  1
  Te  Te48  1  0.00081498  0.25153001  -0.00410630  1
  Te  Te49  1  -0.00085984  0.25300925  0.50273044  1
  Te  Te50  1  -0.00055075  0.74924053  -0.00057008  1
  Te  Te51  1  0.00066882  0.74180376  0.50055157  1
  Te  Te52  1  0.49877372  0.25084025  0.00753775  1
  Te  Te53  1  0.50084428  0.25058325  0.49924916  1
  Te  Te54  1  0.50058804  0.74915412  0.00079301  1
  Te  Te55  1  0.49954584  0.74950159  0.49855543  1
  Te  Te56  1  -0.00060866  0.00029369  0.24615203  1
  Te  Te57  1  -0.00040866  0.00473956  0.75483357  1
  Te  Te58  1  -0.00010054  0.49967079  0.24982909  1
  Te  Te59  1  -0.00340382  0.49752727  0.74925914  1
  Te  Te60  1  0.50068181  -0.00118311  0.25175520  1
  Te  Te61  1  0.50068982  -0.00477740  0.74185517  1
  Te  Te62  1  0.50049389  0.50099241  0.25597033  1
  Te  Te63  1  0.50457153  0.50312357  0.74559986  1
