# generated using pymatgen
data_AgSbTe2
_symmetry_space_group_name_H-M   'P 1'
_cell_length_a   12.22713155
_cell_length_b   12.23328346
_cell_length_c   12.24175670
_cell_angle_alpha   90.00039634
_cell_angle_beta   89.99679163
_cell_angle_gamma   90.00672856
_symmetry_Int_Tables_number   1
_chemical_formula_structural   AgSbTe2
_chemical_formula_sum   'Ag16 Sb16 Te32'
_cell_volume   1831.09705254
_cell_formula_units_Z   16
loop_
 _symmetry_equiv_pos_site_id
 _symmetry_equiv_pos_as_xyz
  1  'x, y, z'
loop_
 _atom_site_type_symbol
 _atom_site_label
 _atom_site_symmetry_multiplicity
 _atom_site_fract_x
 _atom_site_fract_y
 _atom_site_fract_z
 _atom_site_occupancy
  Ag  Ag0  1  0.25329892  -0.00279061  0.24888194  1
  Ag  Ag1  1  0.25273256  0.76120794  -0.00430625  1
  Ag  Ag2  1  0.49215311  0.75750392  0.74768107  1
  Ag  Ag3  1  0.49378081  0.50197259  0.50528363  1
  Ag  Ag4  1  0.25478399  0.75747387  0.50464718  1
  Ag  Ag5  1  0.74780163  0.24142165  -0.00389142  1
  Ag  Ag6  1  0.49220708  -0.00196030  0.50721262  1
  Ag  Ag7  1  0.49399402  0.00014992  -0.00628267  1
  Ag  Ag8  1  0.25347225  0.49797944  0.74684624  1
  Ag  Ag9  1  0.74238103  0.00217226  0.75368087  1
  Ag  Ag10  1  0.00563660  0.75537822  0.25000974  1
  Ag  Ag11  1  0.74678403  -0.00002960  0.24680223  1
  Ag  Ag12  1  0.00762035  0.24620815  0.75120757  1
  Ag  Ag13  1  0.25131677  0.23961710  -0.00877107  1
  Ag  Ag14  1  0.25235701  0.24290053  0.50915281  1
  Ag  Ag15  1  0.25711399  0.00110865  0.75095504  1
  Sb  Sb16  1  0.74571221  0.75462781  0.50074722  1
  Sb  Sb17  1  0.00260267  0.24678035  0.24961795  1
  Sb  Sb18  1  0.00260227  0.49946742  -0.00199069  1
  Sb  Sb19  1  0.74571485  0.49729569  0.75006236  1
  Sb  Sb20  1  0.49612583  0.75558921  0.25178956  1
  Sb  Sb21  1  0.74685958  0.75969732  -0.00093269  1
  Sb  Sb22  1  0.49586472  0.50089455  -0.00530476  1
  Sb  Sb23  1  0.25070864  0.50157461  0.25168273  1
  Sb  Sb24  1  0.00586148  0.50031255  0.50298140  1
  Sb  Sb25  1  0.49831994  0.24530202  0.24968986  1
  Sb  Sb26  1  0.00830502  0.00005556  -0.00096491  1
  Sb  Sb27  1  0.74895921  0.50008265  0.24951779  1
  Sb  Sb28  1  0.74761394  0.24465327  0.50291477  1
  Sb  Sb29  1  0.01048416  -0.00022851  0.50066958  1
  Sb  Sb30  1  0.49241124  0.24145769  0.75018910  1
  Sb  Sb31  1  0.00782892  0.75302188  0.74996103  1
  Te  Te32  1  0.24798633  0.24580700  0.24812417  1
  Te  Te33  1  0.25005488  0.24704962  0.75056593  1
  Te  Te34  1  0.24854823  0.75265370  0.24935427  1
  Te  Te35  1  0.25038427  0.75353830  0.74995916  1
  Te  Te36  1  0.75283511  0.24367361  0.24567295  1
  Te  Te37  1  0.75604235  0.24630928  0.75294054  1
  Te  Te38  1  0.75623205  0.75566992  0.24910758  1
  Te  Te39  1  0.74771392  0.75420858  0.75097285  1
  Te  Te40  1  0.25252906  0.00042558  -0.00033333  1
  Te  Te41  1  0.25283907  -0.00008385  0.50030706  1
  Te  Te42  1  0.25219423  0.49726964  -0.00354844  1
  Te  Te43  1  0.25381510  0.49934690  0.50254015  1
  Te  Te44  1  0.74389675  0.00242054  -0.00104284  1
  Te  Te45  1  0.73983594  0.00088241  0.49998415  1
  Te  Te46  1  0.74863164  0.48931580  0.00087360  1
  Te  Te47  1  0.74066768  0.49880174  0.49946110  1
  Te  Te48  1  0.00388431  0.25059005  -0.00244467  1
  Te  Te49  1  0.00614755  0.25118486  0.50339160  1
  Te  Te50  1  0.00632589  0.74884525  0.00206676  1
  Te  Te51  1  0.00674048  0.74840882  0.49832025  1
  Te  Te52  1  0.49728932  0.24663365  0.00022642  1
  Te  Te53  1  0.49517060  0.24660703  0.49967918  1
  Te  Te54  1  0.49578892  0.75247803  -0.00313040  1
  Te  Te55  1  0.49636618  0.75504070  0.50196440  1
  Te  Te56  1  0.00061001  -0.00406316  0.25101605  1
  Te  Te57  1  -0.00158977  0.00382363  0.74920226  1
  Te  Te58  1  -0.00188221  0.50869322  0.25065478  1
  Te  Te59  1  0.00531147  0.49526509  0.74945611  1
  Te  Te60  1  0.49774595  -0.00035541  0.24866431  1
  Te  Te61  1  0.49746126  -0.00159107  0.75071757  1
  Te  Te62  1  0.50140793  0.50119510  0.25923311  1
  Te  Te63  1  0.49560666  0.50905768  0.74630353  1
