# generated using pymatgen
data_AgSbTe2
_symmetry_space_group_name_H-M   'P 1'
_cell_length_a   12.22588037
_cell_length_b   12.22634122
_cell_length_c   12.22878079
_cell_angle_alpha   90.00164474
_cell_angle_beta   89.99880935
_cell_angle_gamma   89.99601833
_symmetry_Int_Tables_number   1
_chemical_formula_structural   AgSbTe2
_chemical_formula_sum   'Ag16 Sb16 Te32'
_cell_volume   1827.93106198
_cell_formula_units_Z   16
loop_
 _symmetry_equiv_pos_site_id
 _symmetry_equiv_pos_as_xyz
  1  'x, y, z'
loop_
 _atom_site_type_symbol
 _atom_site_label
 _atom_site_symmetry_multiplicity
 _atom_site_fract_x
 _atom_site_fract_y
 _atom_site_fract_z
 _atom_site_occupancy
  Ag  Ag0  1  0.00258971  0.74738565  0.25241981  1
  Ag  Ag1  1  0.74923867  0.50733921  0.25278306  1
  Ag  Ag2  1  0.49467128  -0.01479672  0.49884886  1
  Ag  Ag3  1  0.25051000  0.50585486  0.25416043  1
  Ag  Ag4  1  0.24783142  0.25084700  0.00127276  1
  Ag  Ag5  1  0.49591476  0.51423584  0.49708739  1
  Ag  Ag6  1  0.73505438  0.74784010  0.49402824  1
  Ag  Ag7  1  0.74793223  0.74798864  0.00739643  1
  Ag  Ag8  1  0.25217946  -0.00225612  0.74606822  1
  Ag  Ag9  1  0.25198884  0.50217882  0.74625460  1
  Ag  Ag10  1  0.00624116  0.25087281  0.75044256  1
  Ag  Ag11  1  0.26352434  0.74941798  0.49514552  1
  Ag  Ag12  1  0.49736999  0.74720542  0.26410876  1
  Ag  Ag13  1  0.00535166  0.25229743  0.25001715  1
  Ag  Ag14  1  0.25085704  -0.00583338  0.25402762  1
  Ag  Ag15  1  0.49531994  0.74943971  0.73526896  1
  Sb  Sb16  1  0.00657014  -0.00309636  0.49869458  1
  Sb  Sb17  1  0.75267767  0.25277969  0.00369772  1
  Sb  Sb18  1  0.49385056  0.25209291  0.25151124  1
  Sb  Sb19  1  0.00277445  -0.00057337  0.00119946  1
  Sb  Sb20  1  0.74692346  -0.00243661  0.74642494  1
  Sb  Sb21  1  0.24988051  0.25118795  0.49919432  1
  Sb  Sb22  1  0.25134633  0.74874814  0.00515573  1
  Sb  Sb23  1  0.49690718  -0.00399272  0.00188409  1
  Sb  Sb24  1  0.00510355  0.50290311  0.49725207  1
  Sb  Sb25  1  0.00610312  0.74940369  0.74830028  1
  Sb  Sb26  1  0.74985036  0.25317432  0.49721264  1
  Sb  Sb27  1  0.49298250  0.25097374  0.74831680  1
  Sb  Sb28  1  0.74756040  0.50338290  0.74596770  1
  Sb  Sb29  1  0.74873714  -0.00880518  0.25286847  1
  Sb  Sb30  1  0.49853724  0.50406240  0.00385870  1
  Sb  Sb31  1  0.00151313  0.50075546  0.00270084  1
  Te  Te32  1  0.24691833  0.25160762  0.24908986  1
  Te  Te33  1  0.24711291  0.25067950  0.75050497  1
  Te  Te34  1  0.25057587  0.74851740  0.24804239  1
  Te  Te35  1  0.25047630  0.74932815  0.75112553  1
  Te  Te36  1  0.75873417  0.25717280  0.24801668  1
  Te  Te37  1  0.76018297  0.24991181  0.75221818  1
  Te  Te38  1  0.74948418  0.74876170  0.25241266  1
  Te  Te39  1  0.74712289  0.74929819  0.74762933  1
  Te  Te40  1  0.25059965  0.00458923  0.00013789  1
  Te  Te41  1  0.25320082  -0.00270930  0.49901795  1
  Te  Te42  1  0.25080902  0.49623548  0.00034086  1
  Te  Te43  1  0.25334946  0.50234894  0.49804599  1
  Te  Te44  1  0.74897414  -0.00666356  -0.00064441  1
  Te  Te45  1  0.74062854  -0.00622659  0.50017290  1
  Te  Te46  1  0.74909622  0.50480334  0.00648832  1
  Te  Te47  1  0.74341121  0.50370545  0.49591839  1
  Te  Te48  1  0.00415198  0.24937098  0.00190609  1
  Te  Te49  1  -0.00237301  0.24896861  0.49788761  1
  Te  Te50  1  -0.00672099  0.75036717  0.00640802  1
  Te  Te51  1  0.00067320  0.75050816  0.49505976  1
  Te  Te52  1  0.49382700  0.24884673  -0.00060043  1
  Te  Te53  1  0.50253004  0.24955845  0.50022850  1
  Te  Te54  1  0.50439249  0.75006477  0.00012133  1
  Te  Te55  1  0.49716663  0.74922088  0.49928939  1
  Te  Te56  1  0.00621214  0.00015644  0.25048394  1
  Te  Te57  1  0.00783954  0.00402231  0.74959669  1
  Te  Te58  1  0.00345178  0.50141284  0.25100521  1
  Te  Te59  1  0.00669895  0.49600723  0.74908703  1
  Te  Te60  1  0.49544782  -0.00200525  0.25327843  1
  Te  Te61  1  0.49522809  -0.00262708  0.74625417  1
  Te  Te62  1  0.49686895  0.50182069  0.25262516  1
  Te  Te63  1  0.49603606  0.50236959  0.74528166  1
