# generated using pymatgen
data_AgSbTe2
_symmetry_space_group_name_H-M   'P 1'
_cell_length_a   12.22002229
_cell_length_b   12.21688117
_cell_length_c   12.22137900
_cell_angle_alpha   89.99656516
_cell_angle_beta   89.99853552
_cell_angle_gamma   89.99655767
_symmetry_Int_Tables_number   1
_chemical_formula_structural   AgSbTe2
_chemical_formula_sum   'Ag16 Sb16 Te32'
_cell_volume   1824.53651101
_cell_formula_units_Z   16
loop_
 _symmetry_equiv_pos_site_id
 _symmetry_equiv_pos_as_xyz
  1  'x, y, z'
loop_
 _atom_site_type_symbol
 _atom_site_label
 _atom_site_symmetry_multiplicity
 _atom_site_fract_x
 _atom_site_fract_y
 _atom_site_fract_z
 _atom_site_occupancy
  Ag  Ag0  1  0.75534474  0.74736661  0.49615936  1
  Ag  Ag1  1  0.24275143  0.24993465  0.50088426  1
  Ag  Ag2  1  0.49967834  0.49680769  0.49891504  1
  Ag  Ag3  1  0.24610189  0.50105735  0.25517226  1
  Ag  Ag4  1  0.24505996  0.00320507  0.74660337  1
  Ag  Ag5  1  0.75390205  0.49695266  0.25541120  1
  Ag  Ag6  1  0.00115466  0.24529298  0.74287764  1
  Ag  Ag7  1  0.00229645  0.00282601  -0.00018757  1
  Ag  Ag8  1  -0.00141406  0.25061423  0.25673878  1
  Ag  Ag9  1  0.00300869  0.74891790  0.25532183  1
  Ag  Ag10  1  0.75503525  0.25031746  0.00106286  1
  Ag  Ag11  1  0.24507973  0.75121607  0.00265696  1
  Ag  Ag12  1  0.49917408  0.24998207  0.74525642  1
  Ag  Ag13  1  0.24405456  0.74950934  0.49622944  1
  Ag  Ag14  1  0.75715470  0.25266826  0.49853637  1
  Ag  Ag15  1  0.00302415  0.00494112  0.50026061  1
  Sb  Sb16  1  0.00042770  0.49418034  0.49625409  1
  Sb  Sb17  1  0.00249027  0.75452873  0.74346709  1
  Sb  Sb18  1  0.24459572  -0.00081264  0.25319472  1
  Sb  Sb19  1  0.50130485  0.25318605  0.25421997  1
  Sb  Sb20  1  0.49652699  0.74696622  0.25242283  1
  Sb  Sb21  1  0.75553408  0.00386954  0.74834111  1
  Sb  Sb22  1  0.49760391  0.74990562  0.74647911  1
  Sb  Sb23  1  0.75648404  0.74971856  0.00531367  1
  Sb  Sb24  1  0.24974121  0.49680466  0.74373792  1
  Sb  Sb25  1  0.74990532  0.49662387  0.74326046  1
  Sb  Sb26  1  0.00034397  0.49706105  0.00390021  1
  Sb  Sb27  1  0.75532464  0.00388687  0.25197185  1
  Sb  Sb28  1  0.49719460  0.00309297  -0.00343906  1
  Sb  Sb29  1  0.49705565  0.00327694  0.50289114  1
  Sb  Sb30  1  0.24458519  0.24909628  0.00020274  1
  Sb  Sb31  1  0.49898357  0.49725895  -0.00052072  1
  Te  Te32  1  0.24681371  0.25353382  0.25241852  1
  Te  Te33  1  0.24733192  0.24878242  0.74822384  1
  Te  Te34  1  0.24668611  0.74766679  0.25453431  1
  Te  Te35  1  0.24961958  0.75300320  0.74739686  1
  Te  Te36  1  0.75213107  0.25315507  0.25355547  1
  Te  Te37  1  0.75194725  0.25020040  0.74702027  1
  Te  Te38  1  0.75447956  0.74498923  0.25369109  1
  Te  Te39  1  0.74966204  0.74912641  0.74312808  1
  Te  Te40  1  0.24587375  -0.00322399  -0.00351807  1
  Te  Te41  1  0.24693167  0.00075940  0.50224244  1
  Te  Te42  1  0.25157670  0.50602317  0.00769344  1
  Te  Te43  1  0.25233294  0.50027519  0.49677436  1
  Te  Te44  1  0.75598770  0.00349529  -0.00066990  1
  Te  Te45  1  0.75448849  0.00082675  0.50068293  1
  Te  Te46  1  0.74869887  0.49658044  0.00840139  1
  Te  Te47  1  0.74742198  0.49815914  0.49586580  1
  Te  Te48  1  -0.00287781  0.24576862  0.00230157  1
  Te  Te49  1  0.00009322  0.24882422  0.49760309  1
  Te  Te50  1  0.00217423  0.75573478  0.00298233  1
  Te  Te51  1  0.00176163  0.75402561  0.49846371  1
  Te  Te52  1  0.50746274  0.24955187  -0.00678865  1
  Te  Te53  1  0.50027545  0.25157677  0.50299633  1
  Te  Te54  1  0.49371752  0.75057418  -0.00078850  1
  Te  Te55  1  0.49973068  0.74642126  0.50115519  1
  Te  Te56  1  0.00060743  0.00101321  0.25151854  1
  Te  Te57  1  0.00402003  0.00435011  0.74799172  1
  Te  Te58  1  0.00085107  0.49996561  0.24982693  1
  Te  Te59  1  0.00034533  0.48943392  0.75271918  1
  Te  Te60  1  0.50014608  0.00005802  0.24930315  1
  Te  Te61  1  0.49110679  0.00672366  0.75006073  1
  Te  Te62  1  0.49928706  0.49928776  0.25604189  1
  Te  Te63  1  0.49980690  0.49308417  0.74357596  1
