# generated using pymatgen
data_AgSbTe2
_symmetry_space_group_name_H-M   'P 1'
_cell_length_a   12.22110394
_cell_length_b   12.21224763
_cell_length_c   12.21830619
_cell_angle_alpha   90.00008790
_cell_angle_beta   90.00065099
_cell_angle_gamma   89.99816518
_symmetry_Int_Tables_number   1
_chemical_formula_structural   AgSbTe2
_chemical_formula_sum   'Ag16 Sb16 Te32'
_cell_volume   1823.54734722
_cell_formula_units_Z   16
loop_
 _symmetry_equiv_pos_site_id
 _symmetry_equiv_pos_as_xyz
  1  'x, y, z'
loop_
 _atom_site_type_symbol
 _atom_site_label
 _atom_site_symmetry_multiplicity
 _atom_site_fract_x
 _atom_site_fract_y
 _atom_site_fract_z
 _atom_site_occupancy
  Ag  Ag0  1  0.49756821  0.75503906  0.24216578  1
  Ag  Ag1  1  0.24916374  -0.00716613  0.75748354  1
  Ag  Ag2  1  0.00192463  0.50054936  0.50439235  1
  Ag  Ag3  1  0.00069571  0.00104727  0.00141571  1
  Ag  Ag4  1  0.00015012  0.25097518  0.75392258  1
  Ag  Ag5  1  0.75114297  -0.00128037  0.24155068  1
  Ag  Ag6  1  0.25005902  0.75047246  0.50451786  1
  Ag  Ag7  1  0.24929860  -0.00437624  0.24202629  1
  Ag  Ag8  1  0.75452920  0.24418373  -0.00046878  1
  Ag  Ag9  1  0.49877279  -0.00712228  0.00133533  1
  Ag  Ag10  1  -0.00080279  0.24542773  0.24495737  1
  Ag  Ag11  1  0.49436443  0.75190163  0.75686303  1
  Ag  Ag12  1  0.24704402  0.50632286  0.75087095  1
  Ag  Ag13  1  0.75324019  0.50193712  0.75280320  1
  Ag  Ag14  1  0.25430880  0.75727032  -0.00460199  1
  Ag  Ag15  1  0.74608978  0.75572294  -0.00116917  1
  Sb  Sb16  1  0.75365809  0.25036446  0.50172601  1
  Sb  Sb17  1  0.00166493  0.75526725  0.24681938  1
  Sb  Sb18  1  0.50127940  0.24373775  0.24429677  1
  Sb  Sb19  1  0.00230331  -0.00084790  0.50017407  1
  Sb  Sb20  1  0.00695120  0.74913116  0.75208938  1
  Sb  Sb21  1  0.24497243  0.24051657  -0.00104485  1
  Sb  Sb22  1  0.24673225  0.50448818  0.24805902  1
  Sb  Sb23  1  0.75080581  0.74925507  0.50203451  1
  Sb  Sb24  1  0.75182693  -0.00260496  0.75942865  1
  Sb  Sb25  1  0.49745781  0.50380167  0.50284659  1
  Sb  Sb26  1  0.00087445  0.49759117  -0.00407864  1
  Sb  Sb27  1  0.50057195  0.24773421  0.75494126  1
  Sb  Sb28  1  0.49988086  0.50908585  -0.00147148  1
  Sb  Sb29  1  0.49831915  -0.00301458  0.49971901  1
  Sb  Sb30  1  0.75306628  0.50112569  0.24719738  1
  Sb  Sb31  1  0.24708059  0.25031629  0.50086685  1
  Te  Te32  1  0.24584472  0.24497846  0.24970918  1
  Te  Te33  1  0.24683064  0.25109482  0.75069529  1
  Te  Te34  1  0.25192828  0.75281269  0.24771622  1
  Te  Te35  1  0.24989949  0.75110614  0.75247203  1
  Te  Te36  1  0.75261048  0.24809092  0.24585710  1
  Te  Te37  1  0.75257625  0.25244865  0.75295759  1
  Te  Te38  1  0.74698926  0.75215157  0.24700964  1
  Te  Te39  1  0.74519455  0.74818838  0.75269247  1
  Te  Te40  1  0.24887194  -0.00138528  -0.00009087  1
  Te  Te41  1  0.24911789  -0.00578100  0.50065673  1
  Te  Te42  1  0.24954623  0.50767435  -0.00476434  1
  Te  Te43  1  0.24655849  0.50479754  0.50414983  1
  Te  Te44  1  0.75187287  -0.00252468  0.00133953  1
  Te  Te45  1  0.75015217  -0.00125193  0.48834463  1
  Te  Te46  1  0.75000953  0.50207987  -0.00462253  1
  Te  Te47  1  0.75553353  0.50125103  0.50683594  1
  Te  Te48  1  -0.00343557  0.24716121  -0.00066239  1
  Te  Te49  1  -0.00012875  0.25457842  0.50220451  1
  Te  Te50  1  -0.00124994  0.75562932  0.00072861  1
  Te  Te51  1  0.00525843  0.74482469  0.49902572  1
  Te  Te52  1  0.50885610  0.24084282  0.00009036  1
  Te  Te53  1  0.50039854  0.25061683  0.49965100  1
  Te  Te54  1  0.49952484  0.75328606  -0.00123500  1
  Te  Te55  1  0.49446532  0.75009543  0.50201303  1
  Te  Te56  1  0.00120535  0.00355984  0.24842518  1
  Te  Te57  1  0.00271838  0.00488922  0.75206769  1
  Te  Te58  1  0.00004814  0.49094641  0.25530087  1
  Te  Te59  1  0.00115692  0.49707472  0.74882053  1
  Te  Te60  1  0.49805924  -0.00388203  0.24656442  1
  Te  Te61  1  0.49614430  -0.00381029  0.75374694  1
  Te  Te62  1  0.49987907  0.50793838  0.25056466  1
  Te  Te63  1  0.49856844  0.50366491  0.75006680  1
