# generated using pymatgen
data_AgSbTe2
_symmetry_space_group_name_H-M   'P 1'
_cell_length_a   12.21495821
_cell_length_b   12.22063055
_cell_length_c   12.21362519
_cell_angle_alpha   90.00076995
_cell_angle_beta   90.00412192
_cell_angle_gamma   89.99997748
_symmetry_Int_Tables_number   1
_chemical_formula_structural   AgSbTe2
_chemical_formula_sum   'Ag16 Sb16 Te32'
_cell_volume   1823.18268444
_cell_formula_units_Z   16
loop_
 _symmetry_equiv_pos_site_id
 _symmetry_equiv_pos_as_xyz
  1  'x, y, z'
loop_
 _atom_site_type_symbol
 _atom_site_label
 _atom_site_symmetry_multiplicity
 _atom_site_fract_x
 _atom_site_fract_y
 _atom_site_fract_z
 _atom_site_occupancy
  Ag  Ag0  1  0.75359413  0.50280596  0.75136641  1
  Ag  Ag1  1  0.24721029  0.49791966  0.75479387  1
  Ag  Ag2  1  0.49786070  0.25194136  0.24155321  1
  Ag  Ag3  1  -0.00219355  0.74347930  0.74891350  1
  Ag  Ag4  1  0.00217563  0.25726894  0.74985445  1
  Ag  Ag5  1  0.00173258  0.25212704  0.24940864  1
  Ag  Ag6  1  -0.00184560  0.00012103  0.50256750  1
  Ag  Ag7  1  0.49920728  0.00023261  0.00008710  1
  Ag  Ag8  1  0.74550996  0.74687311  -0.00309313  1
  Ag  Ag9  1  0.49766020  0.49950709  -0.00292843  1
  Ag  Ag10  1  0.75317347  0.74715867  0.50418633  1
  Ag  Ag11  1  0.50069665  0.74841042  0.24202722  1
  Ag  Ag12  1  -0.00182382  0.50030177  0.50725685  1
  Ag  Ag13  1  0.25502600  0.74622595  -0.00275366  1
  Ag  Ag14  1  0.49766178  0.25449883  0.75885958  1
  Ag  Ag15  1  0.25544623  0.25346331  -0.00336607  1
  Sb  Sb16  1  0.25023137  0.00134584  0.24781902  1
  Sb  Sb17  1  0.24996655  0.00153978  0.75279442  1
  Sb  Sb18  1  0.74982197  -0.00053099  0.24913656  1
  Sb  Sb19  1  0.50263082  -0.00175476  0.50046742  1
  Sb  Sb20  1  0.74376914  0.25382609  -0.00271855  1
  Sb  Sb21  1  0.75016714  0.50134194  0.24711276  1
  Sb  Sb22  1  0.25003496  0.49860083  0.24400772  1
  Sb  Sb23  1  -0.00079753  0.00181854  -0.00126910  1
  Sb  Sb24  1  0.50213291  0.50131704  0.50292180  1
  Sb  Sb25  1  0.75274320  0.25333734  0.50219627  1
  Sb  Sb26  1  0.75027985  -0.00391462  0.75093905  1
  Sb  Sb27  1  0.24809662  0.25295571  0.50423810  1
  Sb  Sb28  1  0.00212884  0.49942288  -0.00828983  1
  Sb  Sb29  1  -0.00005042  0.74793410  0.25079248  1
  Sb  Sb30  1  0.24835511  0.74652824  0.50339114  1
  Sb  Sb31  1  0.50145794  0.74541896  0.75858741  1
  Te  Te32  1  0.25183092  0.25125092  0.24325317  1
  Te  Te33  1  0.24878240  0.25341836  0.75356350  1
  Te  Te34  1  0.25447026  0.74879138  0.24292213  1
  Te  Te35  1  0.24717244  0.74573919  0.75441392  1
  Te  Te36  1  0.74952488  0.25073500  0.24964482  1
  Te  Te37  1  0.75211563  0.25625636  0.75067750  1
  Te  Te38  1  0.74698502  0.74909099  0.24763644  1
  Te  Te39  1  0.75161748  0.74656381  0.75076139  1
  Te  Te40  1  0.25572707  -0.00010144  -0.00056460  1
  Te  Te41  1  0.24135790  -0.00131162  0.50047287  1
  Te  Te42  1  0.25250714  0.49927037  -0.00474184  1
  Te  Te43  1  0.24452029  0.50097753  0.50988574  1
  Te  Te44  1  0.74370112  -0.00928689  -0.00054677  1
  Te  Te45  1  0.75553949  -0.00893617  0.50050869  1
  Te  Te46  1  0.74529549  0.50498324  -0.00472037  1
  Te  Te47  1  0.75327666  0.50536417  0.50601352  1
  Te  Te48  1  0.00338348  0.24844731  -0.00065705  1
  Te  Te49  1  -0.00044831  0.25114335  0.50191443  1
  Te  Te50  1  0.00050073  0.75099384  -0.00152362  1
  Te  Te51  1  -0.00188487  0.74813145  0.50078818  1
  Te  Te52  1  0.50030778  0.25156379  0.00067558  1
  Te  Te53  1  0.50031732  0.24826977  0.49664001  1
  Te  Te54  1  0.49891929  0.74863985  0.00033921  1
  Te  Te55  1  0.50372415  0.75183931  0.49256709  1
  Te  Te56  1  0.00012522  0.00672558  0.25491539  1
  Te  Te57  1  -0.00035100  0.00120839  0.74686166  1
  Te  Te58  1  -0.00003427  0.49413968  0.25839029  1
  Te  Te59  1  -0.00091805  0.49910085  0.75006751  1
  Te  Te60  1  0.49996475  0.00230343  0.24686199  1
  Te  Te61  1  0.50044047  0.00900244  0.75312406  1
  Te  Te62  1  0.49983673  0.49767583  0.24749509  1
  Te  Te63  1  0.49963200  0.49648795  0.75150001  1
