# generated using pymatgen
data_AgSbTe2
_symmetry_space_group_name_H-M   'P 1'
_cell_length_a   12.27975260
_cell_length_b   12.28567353
_cell_length_c   12.29698710
_cell_angle_alpha   90.00006212
_cell_angle_beta   89.99079269
_cell_angle_gamma   89.98208964
_symmetry_Int_Tables_number   1
_chemical_formula_structural   AgSbTe2
_chemical_formula_sum   'Ag16 Sb16 Te32'
_cell_volume   1855.18523104
_cell_formula_units_Z   16
loop_
 _symmetry_equiv_pos_site_id
 _symmetry_equiv_pos_as_xyz
  1  'x, y, z'
loop_
 _atom_site_type_symbol
 _atom_site_label
 _atom_site_symmetry_multiplicity
 _atom_site_fract_x
 _atom_site_fract_y
 _atom_site_fract_z
 _atom_site_occupancy
  Ag  Ag0  1  0.26231202  0.74934611  -0.00117664  1
  Ag  Ag1  1  0.25715039  -0.00623738  0.25728147  1
  Ag  Ag2  1  0.73701783  0.74297765  -0.00019600  1
  Ag  Ag3  1  0.00480872  0.50478848  -0.00118685  1
  Ag  Ag4  1  0.74178757  0.50706684  0.75333736  1
  Ag  Ag5  1  0.26101146  0.75649348  0.49962997  1
  Ag  Ag6  1  0.25397681  0.24260496  0.49985835  1
  Ag  Ag7  1  0.48938427  -0.01076226  0.00309381  1
  Ag  Ag8  1  0.49490685  0.75157434  0.24922846  1
  Ag  Ag9  1  0.25350940  0.25379817  -0.00041657  1
  Ag  Ag10  1  0.48930588  -0.01339147  0.49562320  1
  Ag  Ag11  1  0.74344570  0.50825559  0.24436338  1
  Ag  Ag12  1  0.25693151  0.50663579  0.75168414  1
  Ag  Ag13  1  0.49460440  0.74548244  0.74975384  1
  Ag  Ag14  1  0.01893412  -0.00351208  0.49679867  1
  Ag  Ag15  1  0.49150790  0.51306221  0.50319883  1
  Sb  Sb16  1  0.00391476  0.25177083  0.75009241  1
  Sb  Sb17  1  0.74482953  0.25063498  0.50076036  1
  Sb  Sb18  1  0.49725482  0.25627129  0.75008845  1
  Sb  Sb19  1  0.74186299  0.25539656  -0.00058084  1
  Sb  Sb20  1  0.49801303  0.50845424  -0.00362143  1
  Sb  Sb21  1  0.00569086  0.50087081  0.49900269  1
  Sb  Sb22  1  0.25283111  -0.00736253  0.74677006  1
  Sb  Sb23  1  0.01063705  -0.00177089  0.00318028  1
  Sb  Sb24  1  0.00321095  0.25130828  0.25003109  1
  Sb  Sb25  1  0.00528044  0.74830455  0.75001030  1
  Sb  Sb26  1  0.73985360  0.74818711  0.50110156  1
  Sb  Sb27  1  0.00490646  0.74965570  0.25024813  1
  Sb  Sb28  1  0.74378310  -0.01080321  0.75172969  1
  Sb  Sb29  1  0.49830851  0.25094911  0.24985831  1
  Sb  Sb30  1  0.74195344  -0.00857372  0.24732440  1
  Sb  Sb31  1  0.25581791  0.50560476  0.24967293  1
  Te  Te32  1  0.25224938  0.24224095  0.25017776  1
  Te  Te33  1  0.25209158  0.26371155  0.75102305  1
  Te  Te34  1  0.25411085  0.75307132  0.24867779  1
  Te  Te35  1  0.25297402  0.74537830  0.75279266  1
  Te  Te36  1  0.74929464  0.26381661  0.24923680  1
  Te  Te37  1  0.74916577  0.26710803  0.75076449  1
  Te  Te38  1  0.74234344  0.74597105  0.24719110  1
  Te  Te39  1  0.74344986  0.74556048  0.75257104  1
  Te  Te40  1  0.25064075  -0.00631213  -0.00362492  1
  Te  Te41  1  0.25462205  -0.00234730  0.50296301  1
  Te  Te42  1  0.25262629  0.50352844  0.00366505  1
  Te  Te43  1  0.25158686  0.50317849  0.49538117  1
  Te  Te44  1  0.74846873  -0.00392051  0.00114369  1
  Te  Te45  1  0.74347834  0.00149870  0.49985466  1
  Te  Te46  1  0.74613571  0.50211123  -0.00227139  1
  Te  Te47  1  0.74993648  0.50029238  0.50462590  1
  Te  Te48  1  0.01112220  0.25233135  -0.00031119  1
  Te  Te49  1  0.01088905  0.24640885  0.50017073  1
  Te  Te50  1  0.00269284  0.74671014  -0.00003382  1
  Te  Te51  1  0.01332733  0.75367502  0.49990817  1
  Te  Te52  1  0.49283039  0.23188805  -0.00075552  1
  Te  Te53  1  0.49522369  0.24783509  0.50060517  1
  Te  Te54  1  0.49646052  0.75183465  0.00069127  1
  Te  Te55  1  0.49709454  0.74865407  0.49980820  1
  Te  Te56  1  0.00640009  0.00054022  0.25528660  1
  Te  Te57  1  -0.00320694  -0.00011137  0.73955043  1
  Te  Te58  1  -0.00868729  0.50183650  0.24660429  1
  Te  Te59  1  0.00166996  0.50067910  0.75270915  1
  Te  Te60  1  0.49670014  -0.00395435  0.25277988  1
  Te  Te61  1  0.49999456  -0.00986237  0.74821799  1
  Te  Te62  1  0.50028947  0.50429470  0.25601601  1
  Te  Te63  1  0.49528130  0.50527200  0.74803697  1
