# generated using pymatgen
data_AgSbTe2
_symmetry_space_group_name_H-M   'P 1'
_cell_length_a   12.25832043
_cell_length_b   12.26400752
_cell_length_c   12.27203075
_cell_angle_alpha   90.00730401
_cell_angle_beta   90.00194530
_cell_angle_gamma   89.99934929
_symmetry_Int_Tables_number   1
_chemical_formula_structural   AgSbTe2
_chemical_formula_sum   'Ag16 Sb16 Te32'
_cell_volume   1844.92964178
_cell_formula_units_Z   16
loop_
 _symmetry_equiv_pos_site_id
 _symmetry_equiv_pos_as_xyz
  1  'x, y, z'
loop_
 _atom_site_type_symbol
 _atom_site_label
 _atom_site_symmetry_multiplicity
 _atom_site_fract_x
 _atom_site_fract_y
 _atom_site_fract_z
 _atom_site_occupancy
  Ag  Ag0  1  0.74688632  0.50117448  0.24558031  1
  Ag  Ag1  1  0.74933850  0.74752915  0.00176470  1
  Ag  Ag2  1  0.74786309  0.75473857  0.49781149  1
  Ag  Ag3  1  -0.01752970  0.49849426  -0.00257668  1
  Ag  Ag4  1  0.51563425  0.00463468  0.49667383  1
  Ag  Ag5  1  0.74628478  0.49372680  0.75408824  1
  Ag  Ag6  1  -0.01574961  0.00361195  0.49741075  1
  Ag  Ag7  1  0.74892623  -0.00111897  0.25332836  1
  Ag  Ag8  1  -0.01214206  0.24968711  0.74991023  1
  Ag  Ag9  1  -0.01378832  0.00213416  0.00255755  1
  Ag  Ag10  1  0.51716606  0.49801921  -0.00298633  1
  Ag  Ag11  1  0.51206389  0.25241037  0.74707995  1
  Ag  Ag12  1  0.74602237  0.24550692  0.50504069  1
  Ag  Ag13  1  0.51388423  0.00225407  0.00338952  1
  Ag  Ag14  1  0.25149592  0.00057587  0.25011375  1
  Ag  Ag15  1  0.51166060  0.49514731  0.50297993  1
  Sb  Sb16  1  -0.00745899  0.75007921  0.74984241  1
  Sb  Sb17  1  0.25189499  0.75281769  0.00158128  1
  Sb  Sb18  1  -0.00691151  0.24766224  0.25031981  1
  Sb  Sb19  1  -0.00492441  0.75213290  0.24992943  1
  Sb  Sb20  1  -0.01821738  0.49379610  0.50399233  1
  Sb  Sb21  1  0.25066958  0.24785740  0.00036311  1
  Sb  Sb22  1  0.50472495  0.75267921  0.24980273  1
  Sb  Sb23  1  0.25253353  0.75297870  0.49775659  1
  Sb  Sb24  1  0.74972829  0.25239954  -0.00916738  1
  Sb  Sb25  1  0.25339558  0.49775770  0.74933381  1
  Sb  Sb26  1  0.50679226  0.24792628  0.25367183  1
  Sb  Sb27  1  0.25132732  0.00120110  0.75002645  1
  Sb  Sb28  1  0.74974869  0.00996058  0.74651290  1
  Sb  Sb29  1  0.25432923  0.24907827  0.49989820  1
  Sb  Sb30  1  0.25208992  0.49866809  0.24993117  1
  Sb  Sb31  1  0.50684784  0.74689980  0.75005719  1
  Te  Te32  1  0.24864213  0.23799889  0.25138541  1
  Te  Te33  1  0.24864002  0.25123282  0.74934821  1
  Te  Te34  1  0.24828818  0.76286087  0.25102041  1
  Te  Te35  1  0.24807029  0.74871623  0.74939215  1
  Te  Te36  1  0.74994203  0.24941677  0.26716748  1
  Te  Te37  1  0.74879639  0.25774933  0.74297393  1
  Te  Te38  1  0.74968646  0.74977463  0.25012422  1
  Te  Te39  1  0.74938891  0.73165321  0.75098376  1
  Te  Te40  1  0.25055502  -0.00366689  0.00797206  1
  Te  Te41  1  0.25253614  -0.00269400  0.49234127  1
  Te  Te42  1  0.25272602  0.50395255  0.00549385  1
  Te  Te43  1  0.26776184  0.50281283  0.49438690  1
  Te  Te44  1  0.74915924  0.00277126  -0.00212762  1
  Te  Te45  1  0.74746490  -0.00144709  0.50457398  1
  Te  Te46  1  0.74736801  0.49525988  0.00314196  1
  Te  Te47  1  0.74759888  0.50181439  0.49671705  1
  Te  Te48  1  -0.00052806  0.24617144  -0.00840635  1
  Te  Te49  1  -0.00414104  0.24518373  0.50720775  1
  Te  Te50  1  -0.00986049  0.75296158  -0.00184131  1
  Te  Te51  1  -0.01008720  0.76066940  0.50283005  1
  Te  Te52  1  0.50062016  0.24879327  -0.00990992  1
  Te  Te53  1  0.50273804  0.24729524  0.50473854  1
  Te  Te54  1  0.50947690  0.75111508  -0.00216496  1
  Te  Te55  1  0.50981721  0.75324285  0.50217000  1
  Te  Te56  1  -0.00937955  0.00276275  0.24693473  1
  Te  Te57  1  0.00138792  0.00785694  0.75370941  1
  Te  Te58  1  -0.00356138  0.49663787  0.24073316  1
  Te  Te59  1  -0.00149776  0.49326622  0.75420538  1
  Te  Te60  1  0.50931989  0.00288408  0.24892495  1
  Te  Te61  1  0.49815891  0.00832821  0.75103423  1
  Te  Te62  1  0.50479889  0.49682682  0.24670474  1
  Te  Te63  1  0.50152670  0.49537807  0.75221643  1
