# generated using pymatgen
data_AgSbTe2
_symmetry_space_group_name_H-M   'P 1'
_cell_length_a   12.29622045
_cell_length_b   12.28482244
_cell_length_c   12.27642090
_cell_angle_alpha   89.98948004
_cell_angle_beta   89.99502344
_cell_angle_gamma   90.00345243
_symmetry_Int_Tables_number   1
_chemical_formula_structural   AgSbTe2
_chemical_formula_sum   'Ag16 Sb16 Te32'
_cell_volume   1854.43785732
_cell_formula_units_Z   16
loop_
 _symmetry_equiv_pos_site_id
 _symmetry_equiv_pos_as_xyz
  1  'x, y, z'
loop_
 _atom_site_type_symbol
 _atom_site_label
 _atom_site_symmetry_multiplicity
 _atom_site_fract_x
 _atom_site_fract_y
 _atom_site_fract_z
 _atom_site_occupancy
  Ag  Ag0  1  0.75187194  0.75356490  0.00451809  1
  Ag  Ag1  1  0.49110498  0.48934999  0.49660275  1
  Ag  Ag2  1  0.23079925  0.25742446  0.49533908  1
  Ag  Ag3  1  0.23861802  0.49297017  0.26223363  1
  Ag  Ag4  1  0.00115258  0.02023846  0.49434908  1
  Ag  Ag5  1  0.00004823  0.25092070  0.72906506  1
  Ag  Ag6  1  0.77055700  0.24903962  0.49793351  1
  Ag  Ag7  1  0.00325793  0.25511734  0.26697574  1
  Ag  Ag8  1  0.76273249  0.49712805  0.26017878  1
  Ag  Ag9  1  -0.00098134  0.74429355  0.25557176  1
  Ag  Ag10  1  0.49929857  0.00884111  0.49768903  1
  Ag  Ag11  1  0.24386677  0.00657799  0.26068638  1
  Ag  Ag12  1  0.50315787  -0.00170665  0.00316741  1
  Ag  Ag13  1  0.75190028  0.00398506  0.74212737  1
  Ag  Ag14  1  0.24427398  0.49263965  0.73105112  1
  Ag  Ag15  1  0.00935538  0.48031747  0.49062215  1
  Sb  Sb16  1  0.75149919  0.25073212  0.00328704  1
  Sb  Sb17  1  0.50180639  0.75055878  0.74893246  1
  Sb  Sb18  1  0.24817809  0.24856071  0.00425006  1
  Sb  Sb19  1  0.24901273  0.00585562  0.73905432  1
  Sb  Sb20  1  0.75155466  0.74999396  0.49798200  1
  Sb  Sb21  1  0.75416777  0.00408994  0.25483220  1
  Sb  Sb22  1  -0.00036864  0.49941856  0.00902362  1
  Sb  Sb23  1  0.49580549  0.24946019  0.25450174  1
  Sb  Sb24  1  0.24934985  0.74392024  0.49910976  1
  Sb  Sb25  1  0.50301131  0.75023584  0.25103461  1
  Sb  Sb26  1  -0.00073653  0.00077901  0.00335090  1
  Sb  Sb27  1  0.50016001  0.49946552  0.00337082  1
  Sb  Sb28  1  0.49933083  0.25066401  0.74533357  1
  Sb  Sb29  1  -0.00139326  0.74907215  0.74327352  1
  Sb  Sb30  1  0.24740681  0.75161012  0.00350304  1
  Sb  Sb31  1  0.75448706  0.49648560  0.74115759  1
  Te  Te32  1  0.24880061  0.25098183  0.25291708  1
  Te  Te33  1  0.24475380  0.25389631  0.74603363  1
  Te  Te34  1  0.24223241  0.74851767  0.25053528  1
  Te  Te35  1  0.24860053  0.73636801  0.75253300  1
  Te  Te36  1  0.75565824  0.25273581  0.25329103  1
  Te  Te37  1  0.75488170  0.24773180  0.74705076  1
  Te  Te38  1  0.75374558  0.74727592  0.24872482  1
  Te  Te39  1  0.75052835  0.75568842  0.75689556  1
  Te  Te40  1  0.25629680  0.00031469  0.00655739  1
  Te  Te41  1  0.25111691  0.00162966  0.49764522  1
  Te  Te42  1  0.25338049  0.50007007  0.00721096  1
  Te  Te43  1  0.25014456  0.49953532  0.49603952  1
  Te  Te44  1  0.74785748  0.00114741  0.00013110  1
  Te  Te45  1  0.74839662  0.00114150  0.49998286  1
  Te  Te46  1  0.74735433  0.50047603  0.00675859  1
  Te  Te47  1  0.74896046  0.49970995  0.49675030  1
  Te  Te48  1  0.00022170  0.25035812  -0.00161384  1
  Te  Te49  1  -0.00101305  0.24915173  0.49997826  1
  Te  Te50  1  -0.00466431  0.74974566  0.00907350  1
  Te  Te51  1  0.00041382  0.75186560  0.49445788  1
  Te  Te52  1  0.49985363  0.24010851  -0.00091735  1
  Te  Te53  1  0.50042123  0.24887056  0.49861339  1
  Te  Te54  1  0.50633020  0.75754065  -0.00006469  1
  Te  Te55  1  0.49970962  0.75467076  0.49947682  1
  Te  Te56  1  0.00125671  0.00426993  0.25296432  1
  Te  Te57  1  0.00005684  -0.00133355  0.74634709  1
  Te  Te58  1  0.00078850  0.49641114  0.25149745  1
  Te  Te59  1  0.00006922  0.50003908  0.74411837  1
  Te  Te60  1  0.49608548  0.00040907  0.26005578  1
  Te  Te61  1  0.50040192  -0.00069943  0.73959314  1
  Te  Te62  1  0.49653368  0.49995094  0.25485497  1
  Te  Te63  1  0.49654020  0.49981659  0.74239961  1
