# generated using pymatgen
data_AgSbTe2
_symmetry_space_group_name_H-M   'P 1'
_cell_length_a   12.22222499
_cell_length_b   12.22856784
_cell_length_c   12.24456990
_cell_angle_alpha   90.00181253
_cell_angle_beta   89.99399751
_cell_angle_gamma   89.99083602
_symmetry_Int_Tables_number   1
_chemical_formula_structural   AgSbTe2
_chemical_formula_sum   'Ag16 Sb16 Te32'
_cell_volume   1830.07714692
_cell_formula_units_Z   16
loop_
 _symmetry_equiv_pos_site_id
 _symmetry_equiv_pos_as_xyz
  1  'x, y, z'
loop_
 _atom_site_type_symbol
 _atom_site_label
 _atom_site_symmetry_multiplicity
 _atom_site_fract_x
 _atom_site_fract_y
 _atom_site_fract_z
 _atom_site_occupancy
  Ag  Ag0  1  0.24200191  0.50079349  0.75113330  1
  Ag  Ag1  1  0.50424869  0.25278980  0.24440641  1
  Ag  Ag2  1  0.75215989  -0.00337309  0.75253994  1
  Ag  Ag3  1  0.75722509  0.50436747  0.75473545  1
  Ag  Ag4  1  0.74716614  0.25499914  -0.00325779  1
  Ag  Ag5  1  0.75751080  0.74626913  0.50424957  1
  Ag  Ag6  1  0.75437823  0.74302805  -0.00436782  1
  Ag  Ag7  1  0.75664399  0.50274596  0.24499876  1
  Ag  Ag8  1  0.50677905  0.00380446  -0.00195703  1
  Ag  Ag9  1  -0.00523675  0.74241890  0.25320959  1
  Ag  Ag10  1  -0.00735824  0.74298532  0.74667863  1
  Ag  Ag11  1  -0.00548288  -0.00887205  0.50229241  1
  Ag  Ag12  1  -0.00742357  0.50374227  -0.00128256  1
  Ag  Ag13  1  -0.00513586  0.50761670  0.50128675  1
  Ag  Ag14  1  0.50616330  0.25179375  0.75606397  1
  Ag  Ag15  1  0.24256920  0.50035200  0.24901241  1
  Sb  Sb16  1  0.25257232  0.25405844  -0.00070250  1
  Sb  Sb17  1  0.50419111  0.74826053  0.24711846  1
  Sb  Sb18  1  0.75143000  -0.00115114  0.24876075  1
  Sb  Sb19  1  0.24571887  0.74588215  -0.00094052  1
  Sb  Sb20  1  0.50465963  0.50049495  0.50023168  1
  Sb  Sb21  1  0.24769266  -0.00015008  0.24939509  1
  Sb  Sb22  1  -0.00572490  -0.00332606  -0.00181619  1
  Sb  Sb23  1  0.24087488  0.74684671  0.50052119  1
  Sb  Sb24  1  0.75108439  0.25314651  0.50197500  1
  Sb  Sb25  1  0.50906698  0.49812902  -0.00037905  1
  Sb  Sb26  1  0.50563707  0.00008023  0.50117862  1
  Sb  Sb27  1  0.24812250  -0.00040921  0.75023798  1
  Sb  Sb28  1  0.24923579  0.25317451  0.50043151  1
  Sb  Sb29  1  -0.00446389  0.25713912  0.75112877  1
  Sb  Sb30  1  -0.00250349  0.25844186  0.24857358  1
  Sb  Sb31  1  0.50778402  0.74832920  0.75241025  1
  Te  Te32  1  0.25535537  0.25589366  0.25018362  1
  Te  Te33  1  0.25803284  0.25560324  0.75027429  1
  Te  Te34  1  0.24653606  0.74343434  0.24992365  1
  Te  Te35  1  0.24384620  0.74370632  0.75008037  1
  Te  Te36  1  0.74676457  0.25298634  0.24704669  1
  Te  Te37  1  0.74768848  0.25111389  0.75193987  1
  Te  Te38  1  0.75211553  0.74767414  0.24822142  1
  Te  Te39  1  0.75136214  0.74749182  0.75207924  1
  Te  Te40  1  0.25870505  0.00040594  0.00001403  1
  Te  Te41  1  0.24097832  -0.00067327  0.50012469  1
  Te  Te42  1  0.24249155  0.50042871  -0.00045942  1
  Te  Te43  1  0.24360016  0.50078650  0.50039296  1
  Te  Te44  1  0.74824907  0.00188569  -0.00299808  1
  Te  Te45  1  0.75459158  -0.00304579  0.50418184  1
  Te  Te46  1  0.75125612  0.50087655  -0.00076895  1
  Te  Te47  1  0.75328115  0.50252180  0.50064755  1
  Te  Te48  1  -0.00719959  0.25309413  0.00052340  1
  Te  Te49  1  -0.00005776  0.24958894  0.49969354  1
  Te  Te50  1  -0.00390749  0.74788418  -0.00034280  1
  Te  Te51  1  -0.00359459  0.74680253  0.50083975  1
  Te  Te52  1  0.50436740  0.24868148  -0.00086939  1
  Te  Te53  1  0.49960584  0.24929411  0.49910231  1
  Te  Te54  1  0.50822263  0.75621636  0.00039528  1
  Te  Te55  1  0.51099131  0.75120390  0.49946181  1
  Te  Te56  1  0.00184568  -0.00672803  0.25320227  1
  Te  Te57  1  -0.00313940  -0.00374564  0.74879893  1
  Te  Te58  1  -0.00272994  0.50071269  0.25003344  1
  Te  Te59  1  -0.00281653  0.49989972  0.75017028  1
  Te  Te60  1  0.49828682  0.00521267  0.24832696  1
  Te  Te61  1  0.50233038  0.00278761  0.75169023  1
  Te  Te62  1  0.50064709  0.49656162  0.25017723  1
  Te  Te63  1  0.50070701  0.49703580  0.75004638  1
