# generated using pymatgen
data_AgSbTe2
_symmetry_space_group_name_H-M   'P 1'
_cell_length_a   12.22439459
_cell_length_b   12.24732588
_cell_length_c   12.24974617
_cell_angle_alpha   89.99279571
_cell_angle_beta   89.99876030
_cell_angle_gamma   89.99265860
_symmetry_Int_Tables_number   1
_chemical_formula_structural   AgSbTe2
_chemical_formula_sum   'Ag16 Sb16 Te32'
_cell_volume   1833.98473376
_cell_formula_units_Z   16
loop_
 _symmetry_equiv_pos_site_id
 _symmetry_equiv_pos_as_xyz
  1  'x, y, z'
loop_
 _atom_site_type_symbol
 _atom_site_label
 _atom_site_symmetry_multiplicity
 _atom_site_fract_x
 _atom_site_fract_y
 _atom_site_fract_z
 _atom_site_occupancy
  Ag  Ag0  1  0.24701142  -0.00490546  0.74341170  1
  Ag  Ag1  1  0.00712588  0.50391810  0.49512587  1
  Ag  Ag2  1  0.24472055  0.50481086  0.74933500  1
  Ag  Ag3  1  0.24571142  0.24942435  0.49321272  1
  Ag  Ag4  1  0.00759201  0.74426372  0.24939588  1
  Ag  Ag5  1  0.24374321  0.49628603  0.25058203  1
  Ag  Ag6  1  0.01052439  -0.00381455  0.49970866  1
  Ag  Ag7  1  0.00698079  0.74770945  0.75042564  1
  Ag  Ag8  1  0.01086575  0.25668050  0.25226504  1
  Ag  Ag9  1  0.24218631  0.74362445  -0.00141110  1
  Ag  Ag10  1  0.76086267  0.74788594  0.00090516  1
  Ag  Ag11  1  0.00697547  0.50619898  0.00423905  1
  Ag  Ag12  1  0.48735871  0.25073270  0.25208458  1
  Ag  Ag13  1  0.48801159  0.00063576  0.49941783  1
  Ag  Ag14  1  0.24229427  0.75109250  0.50191256  1
  Ag  Ag15  1  0.24549851  0.25569546  0.00774340  1
  Sb  Sb16  1  0.00532103  0.25189934  0.74800122  1
  Sb  Sb17  1  0.75861169  0.50406461  0.75167815  1
  Sb  Sb18  1  0.75499959  -0.00395699  0.74894423  1
  Sb  Sb19  1  0.75678079  0.25280933  0.00367199  1
  Sb  Sb20  1  0.48939429  0.74927459  0.25170938  1
  Sb  Sb21  1  0.49135049  0.24848696  0.74702349  1
  Sb  Sb22  1  0.24811485  0.00486880  0.25853486  1
  Sb  Sb23  1  0.48912798  0.49946225  0.00119920  1
  Sb  Sb24  1  0.75428377  0.25019344  0.49772426  1
  Sb  Sb25  1  0.75933080  0.50186010  0.24926202  1
  Sb  Sb26  1  0.75237475  -0.00207144  0.25020477  1
  Sb  Sb27  1  0.49276564  0.00081605  0.00130550  1
  Sb  Sb28  1  0.75975130  0.75050108  0.49863701  1
  Sb  Sb29  1  0.00533828  -0.00571315  0.00102704  1
  Sb  Sb30  1  0.48952117  0.75113318  0.74939630  1
  Sb  Sb31  1  0.48764301  0.49902214  0.49793197  1
  Te  Te32  1  0.24657345  0.24972880  0.25075342  1
  Te  Te33  1  0.24941680  0.25115675  0.74971820  1
  Te  Te34  1  0.24718655  0.74711347  0.25002235  1
  Te  Te35  1  0.24710609  0.74849247  0.74868203  1
  Te  Te36  1  0.75087785  0.25036470  0.24940687  1
  Te  Te37  1  0.74702426  0.24999012  0.75180968  1
  Te  Te38  1  0.75691305  0.74919231  0.24529350  1
  Te  Te39  1  0.75918139  0.74954643  0.75482077  1
  Te  Te40  1  0.25008841  0.00040511  -0.01012812  1
  Te  Te41  1  0.24719190  -0.00023150  0.50113443  1
  Te  Te42  1  0.24720680  0.50011799  0.00070825  1
  Te  Te43  1  0.24722791  0.49984918  0.49926427  1
  Te  Te44  1  0.74811748  -0.00645765  -0.00153603  1
  Te  Te45  1  0.75037900  -0.00008942  0.50106053  1
  Te  Te46  1  0.75926158  0.50463580  -0.00118626  1
  Te  Te47  1  0.76030498  0.50009640  0.50119400  1
  Te  Te48  1  0.00345410  0.25223639  0.00358499  1
  Te  Te49  1  0.00251081  0.25016633  0.49833690  1
  Te  Te50  1  0.00516302  0.75113976  0.00189941  1
  Te  Te51  1  0.00224115  0.74970791  0.49845729  1
  Te  Te52  1  0.49607150  0.24945219  0.00644064  1
  Te  Te53  1  0.49714584  0.24829073  0.49648070  1
  Te  Te54  1  0.49790248  0.75020625  0.00032181  1
  Te  Te55  1  0.49616488  0.75394253  0.49905351  1
  Te  Te56  1  -0.00032568  -0.00047798  0.25476793  1
  Te  Te57  1  0.00440419  -0.00308174  0.74529936  1
  Te  Te58  1  0.00357721  0.50040607  0.25032959  1
  Te  Te59  1  0.00545778  0.50163734  0.75019792  1
  Te  Te60  1  0.50123816  0.00468946  0.25560038  1
  Te  Te61  1  0.49442444  -0.00008214  0.74326798  1
  Te  Te62  1  0.49247410  0.49521081  0.25063005  1
  Te  Te63  1  0.49186614  0.49975605  0.74970821  1
