# generated using pymatgen
data_AgSbTe2
_symmetry_space_group_name_H-M   'P 1'
_cell_length_a   12.30401394
_cell_length_b   12.32415420
_cell_length_c   12.32415367
_cell_angle_alpha   89.98674499
_cell_angle_beta   90.00285096
_cell_angle_gamma   90.00285097
_symmetry_Int_Tables_number   1
_chemical_formula_structural   AgSbTe2
_chemical_formula_sum   'Ag16 Sb16 Te32'
_cell_volume   1868.79227653
_cell_formula_units_Z   16
loop_
 _symmetry_equiv_pos_site_id
 _symmetry_equiv_pos_as_xyz
  1  'x, y, z'
loop_
 _atom_site_type_symbol
 _atom_site_label
 _atom_site_symmetry_multiplicity
 _atom_site_fract_x
 _atom_site_fract_y
 _atom_site_fract_z
 _atom_site_occupancy
  Ag  Ag0  1  0.76503871  0.24524312  0.00107075  1
  Ag  Ag1  1  -0.00386863  0.74989224  0.73402415  1
  Ag  Ag2  1  0.22791287  0.24880376  -0.00194698  1
  Ag  Ag3  1  -0.00405989  -0.01799298  0.49267114  1
  Ag  Ag4  1  -0.00181774  0.51511785  0.49993304  1
  Ag  Ag5  1  -0.00181776  0.24993266  0.76511890  1
  Ag  Ag6  1  -0.00620104  0.01625790  0.00742924  1
  Ag  Ag7  1  0.76503823  0.75107083  0.49524339  1
  Ag  Ag8  1  -0.00620093  0.75742937  0.26626038  1
  Ag  Ag9  1  0.50468362  0.50227861  0.50353272  1
  Ag  Ag10  1  0.75873050  0.75394169  0.00394165  1
  Ag  Ag11  1  -0.00386828  0.48402482  -0.00010793  1
  Ag  Ag12  1  0.22791290  0.74805328  0.49880403  1
  Ag  Ag13  1  0.50468361  0.25353274  0.75227853  1
  Ag  Ag14  1  0.75829481  -0.00326422  0.24673563  1
  Ag  Ag15  1  -0.00405980  0.24267074  0.23200693  1
  Sb  Sb16  1  0.75436471  0.50141193  0.25015407  1
  Sb  Sb17  1  0.24460895  0.50007412  0.25106138  1
  Sb  Sb18  1  0.50437244  0.49794555  -0.00174540  1
  Sb  Sb19  1  0.50466691  -0.00090127  0.49977096  1
  Sb  Sb20  1  0.23019123  0.75141923  0.00141923  1
  Sb  Sb21  1  0.75812315  0.24904124  0.49904120  1
  Sb  Sb22  1  0.50466683  0.24977092  0.24909873  1
  Sb  Sb23  1  0.24502912  0.49952347  0.74952344  1
  Sb  Sb24  1  0.50702593  0.75039649  0.25156160  1
  Sb  Sb25  1  0.75490044  0.49879050  0.74879051  1
  Sb  Sb26  1  0.50437251  0.74825468  0.74794557  1
  Sb  Sb27  1  0.75436511  0.00015414  0.75141196  1
  Sb  Sb28  1  0.23946510  0.00059044  0.25059047  1
  Sb  Sb29  1  0.24460880  0.00106136  0.75007406  1
  Sb  Sb30  1  0.50702594  0.00156163  0.00039655  1
  Sb  Sb31  1  0.24059266  0.25069326  0.50069326  1
  Te  Te32  1  0.24660962  0.24881941  0.24614740  1
  Te  Te33  1  0.24063012  0.25023986  0.75174383  1
  Te  Te34  1  0.24739904  0.75078432  0.25193739  1
  Te  Te35  1  0.24788113  0.74982335  0.74669927  1
  Te  Te36  1  0.75329551  0.24803715  0.24952198  1
  Te  Te37  1  0.75754769  0.25026869  0.75212583  1
  Te  Te38  1  0.75223579  0.74938779  0.24853069  1
  Te  Te39  1  0.75287950  0.74928000  0.75096404  1
  Te  Te40  1  0.24739879  0.00193751  0.00078434  1
  Te  Te41  1  0.24660955  -0.00385266  0.49881939  1
  Te  Te42  1  0.24788136  0.49669921  -0.00017665  1
  Te  Te43  1  0.24063019  0.50174373  0.50023986  1
  Te  Te44  1  0.75223600  -0.00146918  -0.00061226  1
  Te  Te45  1  0.75329563  -0.00047801  0.49803719  1
  Te  Te46  1  0.75287896  0.50096400  -0.00072005  1
  Te  Te47  1  0.75754753  0.50212581  0.50026874  1
  Te  Te48  1  -0.00180465  0.25134346  0.00121654  1
  Te  Te49  1  0.00043857  0.25284753  0.50284786  1
  Te  Te50  1  -0.00078735  0.74900433  -0.00099655  1
  Te  Te51  1  -0.00180408  0.75121780  0.50134192  1
  Te  Te52  1  0.50525685  0.25198525  -0.00253931  1
  Te  Te53  1  0.49870328  0.25186159  0.50186173  1
  Te  Te54  1  0.51310953  0.74777226  -0.00222778  1
  Te  Te55  1  0.50525674  0.74746072  0.50198532  1
  Te  Te56  1  -0.00267447  0.00012560  0.25012543  1
  Te  Te57  1  -0.00039592  0.00133445  0.74883733  1
  Te  Te58  1  -0.00039569  0.49883725  0.25133469  1
  Te  Te59  1  -0.00002906  0.49912282  0.74912266  1
  Te  Te60  1  0.51529734  -0.00093437  0.24906561  1
  Te  Te61  1  0.49793441  0.01248812  0.75120456  1
  Te  Te62  1  0.49793441  0.50120455  0.26248824  1
  Te  Te63  1  0.49822264  0.49323755  0.74323759  1
