# generated using pymatgen
data_AgSbTe2
_symmetry_space_group_name_H-M   'P 1'
_cell_length_a   12.26924518
_cell_length_b   12.26161153
_cell_length_c   12.26146347
_cell_angle_alpha   89.98765694
_cell_angle_beta   89.99932317
_cell_angle_gamma   89.99678966
_symmetry_Int_Tables_number   1
_chemical_formula_structural   AgSbTe2
_chemical_formula_sum   'Ag16 Sb16 Te32'
_cell_volume   1844.62332495
_cell_formula_units_Z   16
loop_
 _symmetry_equiv_pos_site_id
 _symmetry_equiv_pos_as_xyz
  1  'x, y, z'
loop_
 _atom_site_type_symbol
 _atom_site_label
 _atom_site_symmetry_multiplicity
 _atom_site_fract_x
 _atom_site_fract_y
 _atom_site_fract_z
 _atom_site_occupancy
  Ag  Ag0  1  0.49881471  0.50883257  -0.00262256  1
  Ag  Ag1  1  0.75104286  0.74851918  0.50792658  1
  Ag  Ag2  1  0.75101764  0.74532106  -0.00753521  1
  Ag  Ag3  1  0.00804606  0.74876602  0.74306879  1
  Ag  Ag4  1  0.24645869  -0.01070720  0.74398833  1
  Ag  Ag5  1  0.49248440  0.74828338  0.74335948  1
  Ag  Ag6  1  0.00163239  0.25265248  0.25424567  1
  Ag  Ag7  1  0.00120214  0.50736762  -0.00570213  1
  Ag  Ag8  1  0.24894129  0.75222689  0.51367716  1
  Ag  Ag9  1  0.00444194  -0.00900897  0.50600897  1
  Ag  Ag10  1  0.49541912  -0.01239770  0.50333318  1
  Ag  Ag11  1  0.49798171  0.25269889  0.25338568  1
  Ag  Ag12  1  0.24906908  0.74629665  -0.01344030  1
  Ag  Ag13  1  0.00174797  0.50899503  0.50658016  1
  Ag  Ag14  1  0.00384912  0.25233322  0.74490689  1
  Ag  Ag15  1  0.49810110  0.51229802  0.50325566  1
  Sb  Sb16  1  0.75050148  0.49979818  0.25044969  1
  Sb  Sb17  1  0.00276821  -0.01052933  -0.00547390  1
  Sb  Sb18  1  0.24885829  -0.00070394  0.25825054  1
  Sb  Sb19  1  0.49938544  0.74618274  0.25811259  1
  Sb  Sb20  1  0.24973169  0.49978340  0.25133806  1
  Sb  Sb21  1  0.75443713  -0.00497755  0.74767817  1
  Sb  Sb22  1  0.00061539  0.74613507  0.25823419  1
  Sb  Sb23  1  0.75234881  0.50440801  0.74939361  1
  Sb  Sb24  1  0.75160049  0.25653608  -0.00247383  1
  Sb  Sb25  1  0.24887462  0.25638150  -0.00446945  1
  Sb  Sb26  1  0.75101664  -0.00016947  0.25157642  1
  Sb  Sb27  1  0.49396455  0.25055479  0.74787381  1
  Sb  Sb28  1  0.49685606  -0.01168541  -0.00340177  1
  Sb  Sb29  1  0.75278011  0.25474413  0.50192236  1
  Sb  Sb30  1  0.24672390  0.51279591  0.74861336  1
  Sb  Sb31  1  0.24706023  0.24896921  0.50373916  1
  Te  Te32  1  0.24834095  0.24790276  0.24856441  1
  Te  Te33  1  0.24101659  0.23193001  0.75052415  1
  Te  Te34  1  0.24983038  0.75189246  0.24685920  1
  Te  Te35  1  0.24906909  0.75395440  0.74723048  1
  Te  Te36  1  0.75199287  0.24890445  0.24962733  1
  Te  Te37  1  0.76498976  0.24577939  0.75105378  1
  Te  Te38  1  0.75016048  0.75088173  0.24821896  1
  Te  Te39  1  0.74970612  0.75158392  0.74799728  1
  Te  Te40  1  0.25002614  -0.01340669  -0.00959019  1
  Te  Te41  1  0.24902510  -0.00577238  0.50411658  1
  Te  Te42  1  0.24973855  0.50875930  0.00042363  1
  Te  Te43  1  0.25013687  0.50932398  0.50043443  1
  Te  Te44  1  0.74962458  -0.01650501  0.00098580  1
  Te  Te45  1  0.74968967  -0.01275599  0.50093688  1
  Te  Te46  1  0.75012507  0.51021156  0.00059307  1
  Te  Te47  1  0.74990102  0.51016482  0.50001280  1
  Te  Te48  1  -0.00085103  0.26026358  -0.00006613  1
  Te  Te49  1  -0.00091570  0.25447492  0.50187225  1
  Te  Te50  1  0.00108918  0.74655402  -0.00092419  1
  Te  Te51  1  0.00086620  0.74670176  0.49860074  1
  Te  Te52  1  0.50077667  0.26187577  0.00108415  1
  Te  Te53  1  0.50130114  0.25470996  0.50012884  1
  Te  Te54  1  0.49899506  0.74577135  -0.00161296  1
  Te  Te55  1  0.49925414  0.74695747  0.49945186  1
  Te  Te56  1  0.00123888  0.01316688  0.26099551  1
  Te  Te57  1  0.00320068  -0.00584524  0.74452168  1
  Te  Te58  1  0.00042546  0.49167204  0.25151935  1
  Te  Te59  1  0.00189557  0.50347809  0.74756165  1
  Te  Te60  1  0.49887026  0.01182129  0.25997800  1
  Te  Te61  1  0.49417516  0.00004796  0.74346594  1
  Te  Te62  1  0.49933670  0.49286785  0.25189436  1
  Te  Te63  1  0.49919516  0.50193308  0.74774099  1
