# generated using pymatgen
data_AgSbTe2
_symmetry_space_group_name_H-M   'P 1'
_cell_length_a   12.21472856
_cell_length_b   12.21752410
_cell_length_c   12.22126747
_cell_angle_alpha   90.00314739
_cell_angle_beta   89.99583963
_cell_angle_gamma   90.00093706
_symmetry_Int_Tables_number   1
_chemical_formula_structural   AgSbTe2
_chemical_formula_sum   'Ag16 Sb16 Te32'
_cell_volume   1823.82545079
_cell_formula_units_Z   16
loop_
 _symmetry_equiv_pos_site_id
 _symmetry_equiv_pos_as_xyz
  1  'x, y, z'
loop_
 _atom_site_type_symbol
 _atom_site_label
 _atom_site_symmetry_multiplicity
 _atom_site_fract_x
 _atom_site_fract_y
 _atom_site_fract_z
 _atom_site_occupancy
  Ag  Ag0  1  0.49783476  0.00457002  -0.00200951  1
  Ag  Ag1  1  0.74519420  0.49554905  0.25225385  1
  Ag  Ag2  1  0.49632505  0.75027512  0.74810261  1
  Ag  Ag3  1  0.50207427  0.25228977  0.25418358  1
  Ag  Ag4  1  0.74091153  0.25456975  0.49717261  1
  Ag  Ag5  1  0.25569450  0.00118673  0.74944398  1
  Ag  Ag6  1  0.25490382  0.25127514  -0.00227740  1
  Ag  Ag7  1  0.49949041  0.49337171  0.49901378  1
  Ag  Ag8  1  0.00409092  0.74442216  0.74937185  1
  Ag  Ag9  1  0.50110795  0.74757401  0.25218048  1
  Ag  Ag10  1  0.49776473  0.00565157  0.50189496  1
  Ag  Ag11  1  0.74494381  0.25270373  0.00252324  1
  Ag  Ag12  1  0.24984556  0.49872363  0.74752909  1
  Ag  Ag13  1  0.25817666  0.25325106  0.50198554  1
  Ag  Ag14  1  0.00100877  0.49793396  -0.00357510  1
  Ag  Ag15  1  0.00115521  0.49791320  0.50380020  1
  Sb  Sb16  1  -0.00085627  0.74445150  0.25123225  1
  Sb  Sb17  1  0.74497758  0.00493663  0.25054837  1
  Sb  Sb18  1  0.25204061  0.74766278  -0.00369589  1
  Sb  Sb19  1  0.49912088  0.49343552  -0.00071740  1
  Sb  Sb20  1  0.00206202  0.00221345  -0.00534114  1
  Sb  Sb21  1  -0.00340397  0.25300117  0.25047944  1
  Sb  Sb22  1  0.74635441  0.74502888  0.49907343  1
  Sb  Sb23  1  0.74741752  0.74623926  0.00113936  1
  Sb  Sb24  1  0.74918698  0.49898222  0.74786768  1
  Sb  Sb25  1  0.25456175  0.00278403  0.25097983  1
  Sb  Sb26  1  0.00384593  0.25620947  0.74991329  1
  Sb  Sb27  1  0.74272566  0.00079402  0.74937715  1
  Sb  Sb28  1  0.25335011  0.74611453  0.50415258  1
  Sb  Sb29  1  0.49628872  0.25038606  0.74433470  1
  Sb  Sb30  1  0.00240062  0.00236540  0.50539257  1
  Sb  Sb31  1  0.25552752  0.49689952  0.25266168  1
  Te  Te32  1  0.25609399  0.25065797  0.25005565  1
  Te  Te33  1  0.24961916  0.25180538  0.75010102  1
  Te  Te34  1  0.25921299  0.75028247  0.24864724  1
  Te  Te35  1  0.25241316  0.74847702  0.75015361  1
  Te  Te36  1  0.74639204  0.25405216  0.25061822  1
  Te  Te37  1  0.75213432  0.24951216  0.75103784  1
  Te  Te38  1  0.74265597  0.74232916  0.24958073  1
  Te  Te39  1  0.74838782  0.75079270  0.75027038  1
  Te  Te40  1  0.25359223  0.00672469  -0.00442519  1
  Te  Te41  1  0.25393183  0.00708183  0.50429407  1
  Te  Te42  1  0.24697104  0.49468317  -0.00395334  1
  Te  Te43  1  0.25090823  0.49605037  0.50255069  1
  Te  Te44  1  0.74549489  0.00887615  -0.00026061  1
  Te  Te45  1  0.74507217  0.00969439  0.50031696  1
  Te  Te46  1  0.75280160  0.49474974  0.00230119  1
  Te  Te47  1  0.74811228  0.49539927  0.49865719  1
  Te  Te48  1  0.00078455  0.25433536  0.00065418  1
  Te  Te49  1  0.00105478  0.25478351  0.49920397  1
  Te  Te50  1  -0.00068584  0.74445917  -0.00352564  1
  Te  Te51  1  -0.00099092  0.74412683  0.50336171  1
  Te  Te52  1  0.49930239  0.24871086  0.00223643  1
  Te  Te53  1  0.49938280  0.25134335  0.50061195  1
  Te  Te54  1  0.50074702  0.75618817  -0.00063995  1
  Te  Te55  1  0.50029348  0.75056620  0.50024582  1
  Te  Te56  1  -0.00041046  -0.00406324  0.24997795  1
  Te  Te57  1  0.00865985  -0.01107235  0.74963750  1
  Te  Te58  1  -0.00573725  0.50224411  0.25117903  1
  Te  Te59  1  0.00259157  0.50443021  0.74840396  1
  Te  Te60  1  0.50018314  0.00036252  0.25123927  1
  Te  Te61  1  0.49598028  -0.00475207  0.74898067  1
  Te  Te62  1  0.50244092  0.49841599  0.25226567  1
  Te  Te63  1  0.49648773  0.50598771  0.74723020  1
