# generated using pymatgen
data_AgSbTe2
_symmetry_space_group_name_H-M   'P 1'
_cell_length_a   12.28614595
_cell_length_b   12.31265022
_cell_length_c   12.31280633
_cell_angle_alpha   90.00406935
_cell_angle_beta   90.00749604
_cell_angle_gamma   89.99392600
_symmetry_Int_Tables_number   1
_chemical_formula_structural   AgSbTe2
_chemical_formula_sum   'Ag16 Sb16 Te32'
_cell_volume   1862.61996345
_cell_formula_units_Z   16
loop_
 _symmetry_equiv_pos_site_id
 _symmetry_equiv_pos_as_xyz
  1  'x, y, z'
loop_
 _atom_site_type_symbol
 _atom_site_label
 _atom_site_symmetry_multiplicity
 _atom_site_fract_x
 _atom_site_fract_y
 _atom_site_fract_z
 _atom_site_occupancy
  Ag  Ag0  1  0.25353530  0.00918784  0.24004919  1
  Ag  Ag1  1  0.75075720  0.24929575  0.48730957  1
  Ag  Ag2  1  0.25343863  0.49104283  0.24587283  1
  Ag  Ag3  1  0.74547683  0.01105015  0.23835336  1
  Ag  Ag4  1  0.50394078  0.00714865  0.00575159  1
  Ag  Ag5  1  -0.00694711  0.24565916  0.75787728  1
  Ag  Ag6  1  0.24953244  0.75584730  0.49425565  1
  Ag  Ag7  1  0.50877834  0.24525460  0.24437852  1
  Ag  Ag8  1  0.75034875  0.75012294  0.49306453  1
  Ag  Ag9  1  0.75205562  0.49345785  0.75487081  1
  Ag  Ag10  1  0.24664022  0.00744964  0.76402314  1
  Ag  Ag11  1  0.74623759  0.48929098  0.24748187  1
  Ag  Ag12  1  0.74932701  0.24166010  0.00937267  1
  Ag  Ag13  1  0.74987115  0.76020311  0.01170330  1
  Ag  Ag14  1  0.24972110  0.23636521  0.00995810  1
  Ag  Ag15  1  -0.00234949  0.00687831  0.00190114  1
  Sb  Sb16  1  0.24866128  0.49745110  0.75145692  1
  Sb  Sb17  1  -0.00238403  0.75344997  0.75164750  1
  Sb  Sb18  1  0.50216579  0.49883579  0.49721951  1
  Sb  Sb19  1  -0.00164405  0.00160352  0.49712960  1
  Sb  Sb20  1  0.50297021  0.75389920  0.24925874  1
  Sb  Sb21  1  0.24716474  0.24848343  0.49475216  1
  Sb  Sb22  1  0.50182159  0.49564420  0.00316276  1
  Sb  Sb23  1  0.50111546  0.00198681  0.49717460  1
  Sb  Sb24  1  0.50217994  0.75441906  0.75115358  1
  Sb  Sb25  1  0.75196424  0.00159873  0.75574502  1
  Sb  Sb26  1  -0.00278752  0.24913853  0.24722984  1
  Sb  Sb27  1  0.50181626  0.24675227  0.75382306  1
  Sb  Sb28  1  -0.00312902  0.49546098  -0.00017877  1
  Sb  Sb29  1  0.25012699  0.75700380  0.00300472  1
  Sb  Sb30  1  -0.00291548  0.49839379  0.49953613  1
  Sb  Sb31  1  -0.00259738  0.75076627  0.24965144  1
  Te  Te32  1  0.24509303  0.24884401  0.24953178  1
  Te  Te33  1  0.25335218  0.25136918  0.74730084  1
  Te  Te34  1  0.25061393  0.74884606  0.25293069  1
  Te  Te35  1  0.25056192  0.74585984  0.74523942  1
  Te  Te36  1  0.75197012  0.24779335  0.24775515  1
  Te  Te37  1  0.74853777  0.24905024  0.75454376  1
  Te  Te38  1  0.74918465  0.74887262  0.25022535  1
  Te  Te39  1  0.75041522  0.74652173  0.74285184  1
  Te  Te40  1  0.24838766  0.00080110  0.00327876  1
  Te  Te41  1  0.24993674  -0.00275109  0.49254855  1
  Te  Te42  1  0.24935771  0.49938822  0.00520599  1
  Te  Te43  1  0.24999721  0.50460666  0.49457096  1
  Te  Te44  1  0.75023832  0.00316323  0.00032496  1
  Te  Te45  1  0.74949861  -0.00218065  0.49560667  1
  Te  Te46  1  0.75066314  0.49720709  0.00812333  1
  Te  Te47  1  0.74990760  0.50203728  0.48838072  1
  Te  Te48  1  0.00140277  0.24765750  -0.00277027  1
  Te  Te49  1  -0.00845942  0.24940771  0.51279462  1
  Te  Te50  1  -0.00781503  0.76065092  0.00020109  1
  Te  Te51  1  -0.00593571  0.75013641  0.50012484  1
  Te  Te52  1  0.49918554  0.24800070  0.00343301  1
  Te  Te53  1  0.50958201  0.24953946  0.49104045  1
  Te  Te54  1  0.50775416  0.76021064  0.00014371  1
  Te  Te55  1  0.50602614  0.75063366  0.50047814  1
  Te  Te56  1  0.00155959  -0.00094856  0.24716765  1
  Te  Te57  1  0.00575874  0.00378059  0.75374242  1
  Te  Te58  1  0.00283795  0.50060169  0.24976592  1
  Te  Te59  1  -0.00564912  0.49201771  0.75014595  1
  Te  Te60  1  0.50261701  0.00347330  0.24864582  1
  Te  Te61  1  0.48763331  -0.00039808  0.75876960  1
  Te  Te62  1  0.50061246  0.49040716  0.24937015  1
  Te  Te63  1  0.51028042  0.50059842  0.75053781  1
