# generated using pymatgen
data_AgSbTe2
_symmetry_space_group_name_H-M   'P 1'
_cell_length_a   12.30480042
_cell_length_b   12.31954885
_cell_length_c   12.29274789
_cell_angle_alpha   89.98948448
_cell_angle_beta   89.99312208
_cell_angle_gamma   89.99767492
_symmetry_Int_Tables_number   1
_chemical_formula_structural   AgSbTe2
_chemical_formula_sum   'Ag16 Sb16 Te32'
_cell_volume   1863.45256504
_cell_formula_units_Z   16
loop_
 _symmetry_equiv_pos_site_id
 _symmetry_equiv_pos_as_xyz
  1  'x, y, z'
loop_
 _atom_site_type_symbol
 _atom_site_label
 _atom_site_symmetry_multiplicity
 _atom_site_fract_x
 _atom_site_fract_y
 _atom_site_fract_z
 _atom_site_occupancy
  Ag  Ag0  1  -0.00363063  0.00294313  0.00417361  1
  Ag  Ag1  1  -0.01451242  0.48903661  0.49664268  1
  Ag  Ag2  1  0.50118522  0.24548965  0.72981464  1
  Ag  Ag3  1  0.51208240  0.47963427  0.49431582  1
  Ag  Ag4  1  0.26958887  0.24297024  0.49941406  1
  Ag  Ag5  1  0.50608082  0.75474986  0.25975386  1
  Ag  Ag6  1  0.74184500  0.75387914  0.49195946  1
  Ag  Ag7  1  0.73375471  0.24699686  0.48901316  1
  Ag  Ag8  1  0.25239401  0.00367178  0.74138121  1
  Ag  Ag9  1  0.51144535  0.01632560  0.49405185  1
  Ag  Ag10  1  0.74372546  0.48902321  0.25810541  1
  Ag  Ag11  1  0.74496156  0.24330011  0.01334770  1
  Ag  Ag12  1  0.25275631  0.75852634  0.00319434  1
  Ag  Ag13  1  0.74477150  0.00861179  0.26120327  1
  Ag  Ag14  1  0.50929584  0.24627954  0.26387761  1
  Ag  Ag15  1  -0.00996178  0.00689241  0.49720302  1
  Sb  Sb16  1  0.74891381  0.75378902  0.00825977  1
  Sb  Sb17  1  -0.00776046  0.24846824  0.25523666  1
  Sb  Sb18  1  -0.00202996  0.24782345  0.74585592  1
  Sb  Sb19  1  0.74974437  0.00155027  0.74248198  1
  Sb  Sb20  1  0.25204010  0.75251435  0.49929336  1
  Sb  Sb21  1  0.50302467  0.00193495  0.00323642  1
  Sb  Sb22  1  -0.00405562  0.75216458  0.25368561  1
  Sb  Sb23  1  0.50299852  0.49751363  0.00508341  1
  Sb  Sb24  1  0.25317361  0.24759568  0.00236260  1
  Sb  Sb25  1  0.49929595  0.75107602  0.74260151  1
  Sb  Sb26  1  0.25298231  0.49748698  0.74565702  1
  Sb  Sb27  1  0.25242205  0.00074636  0.25218261  1
  Sb  Sb28  1  0.25451530  0.49982725  0.25319232  1
  Sb  Sb29  1  -0.00534243  0.49788436  0.00640872  1
  Sb  Sb30  1  0.74823793  0.49676204  0.74019368  1
  Sb  Sb31  1  0.00056113  0.75255164  0.74761860  1
  Te  Te32  1  0.26431803  0.25114327  0.25174455  1
  Te  Te33  1  0.25451106  0.24695041  0.75028754  1
  Te  Te34  1  0.25962734  0.74969610  0.24657407  1
  Te  Te35  1  0.24980493  0.75623016  0.75384395  1
  Te  Te36  1  0.74866904  0.24627571  0.25170961  1
  Te  Te37  1  0.74556705  0.24945592  0.75165619  1
  Te  Te38  1  0.74728371  0.75519490  0.25528444  1
  Te  Te39  1  0.74996595  0.74824335  0.74108843  1
  Te  Te40  1  0.24632059  -0.00173281  0.00190735  1
  Te  Te41  1  0.24635792  0.00263455  0.49998775  1
  Te  Te42  1  0.24621173  0.50819687  -0.00014022  1
  Te  Te43  1  0.24797277  0.49639943  0.50001413  1
  Te  Te44  1  0.75378700  0.00243949  0.00280120  1
  Te  Te45  1  0.74958003  0.00414405  0.49997197  1
  Te  Te46  1  0.75215288  0.49680526  0.00958954  1
  Te  Te47  1  0.74942660  0.49529439  0.49754197  1
  Te  Te48  1  -0.00296401  0.24514169  -0.00048328  1
  Te  Te49  1  -0.00197219  0.24565239  0.49761879  1
  Te  Te50  1  0.00202081  0.75474381  -0.00002754  1
  Te  Te51  1  -0.00120989  0.75737277  0.49944684  1
  Te  Te52  1  0.50402710  0.25124795  0.00333669  1
  Te  Te53  1  0.49782690  0.24893172  0.50014138  1
  Te  Te54  1  0.49891819  0.74857216  0.00288835  1
  Te  Te55  1  0.50164349  0.75339914  0.49760000  1
  Te  Te56  1  -0.00458269  0.00146457  0.25447326  1
  Te  Te57  1  0.00342698  0.00044904  0.74438267  1
  Te  Te58  1  -0.00649041  0.49879360  0.25609289  1
  Te  Te59  1  0.00023803  0.50113007  0.73782970  1
  Te  Te60  1  0.50216320  0.00097575  0.25176006  1
  Te  Te61  1  0.49791466  0.00157201  0.74641300  1
  Te  Te62  1  0.50187383  0.49864441  0.25152056  1
  Te  Te63  1  0.50110591  0.49651849  0.74234223  1
