# generated using pymatgen
data_AgSbTe2
_symmetry_space_group_name_H-M   'P 1'
_cell_length_a   12.22672442
_cell_length_b   12.21281258
_cell_length_c   12.20681288
_cell_angle_alpha   89.98740974
_cell_angle_beta   90.00721853
_cell_angle_gamma   89.99597539
_symmetry_Int_Tables_number   1
_chemical_formula_structural   AgSbTe2
_chemical_formula_sum   'Ag16 Sb16 Te32'
_cell_volume   1822.75412010
_cell_formula_units_Z   16
loop_
 _symmetry_equiv_pos_site_id
 _symmetry_equiv_pos_as_xyz
  1  'x, y, z'
loop_
 _atom_site_type_symbol
 _atom_site_label
 _atom_site_symmetry_multiplicity
 _atom_site_fract_x
 _atom_site_fract_y
 _atom_site_fract_z
 _atom_site_occupancy
  Ag  Ag0  1  -0.00284157  0.49233273  0.49499808  1
  Ag  Ag1  1  -0.00073830  0.75187029  0.24770227  1
  Ag  Ag2  1  0.50297773  0.24748275  0.74079057  1
  Ag  Ag3  1  -0.00038877  -0.00283523  0.00411923  1
  Ag  Ag4  1  0.75101696  0.25133430  0.50106838  1
  Ag  Ag5  1  0.24895307  0.24910857  0.49822331  1
  Ag  Ag6  1  0.50083800  0.75075045  0.25125551  1
  Ag  Ag7  1  0.75269264  0.75246831  0.00535871  1
  Ag  Ag8  1  0.24714453  0.75408731  0.00647841  1
  Ag  Ag9  1  0.24656272  -0.00192163  0.25076832  1
  Ag  Ag10  1  0.50293714  0.49388263  0.49713547  1
  Ag  Ag11  1  -0.00083118  0.24942579  0.25734753  1
  Ag  Ag12  1  0.75299831  0.50150356  0.25492450  1
  Ag  Ag13  1  0.75075083  0.00439722  0.74797528  1
  Ag  Ag14  1  0.50130395  0.00600893  0.49900148  1
  Ag  Ag15  1  -0.00326248  0.24776286  0.74218077  1
  Sb  Sb16  1  -0.00287640  0.75168353  0.75119361  1
  Sb  Sb17  1  0.24691392  0.24725138  0.00270654  1
  Sb  Sb18  1  0.24745971  0.50106156  0.25334457  1
  Sb  Sb19  1  -0.00118566  0.00788503  0.49723972  1
  Sb  Sb20  1  0.24965216  0.49833571  0.74735629  1
  Sb  Sb21  1  0.50047650  -0.00133397  0.00157113  1
  Sb  Sb22  1  0.75220789  -0.00087931  0.25151696  1
  Sb  Sb23  1  0.24872874  0.75243053  0.49467690  1
  Sb  Sb24  1  0.50276687  0.75137191  0.74787846  1
  Sb  Sb25  1  0.50278133  0.50120372  0.00340830  1
  Sb  Sb26  1  0.75103984  0.74883409  0.49503363  1
  Sb  Sb27  1  0.50109169  0.24923025  0.25895034  1
  Sb  Sb28  1  0.24889872  0.00262498  0.74836848  1
  Sb  Sb29  1  0.75236161  0.24808009  -0.00022796  1
  Sb  Sb30  1  0.75038104  0.49628490  0.74543439  1
  Sb  Sb31  1  -0.00250201  0.50210568  0.00379655  1
  Te  Te32  1  0.24604285  0.24553803  0.25384157  1
  Te  Te33  1  0.24856343  0.24900474  0.74567386  1
  Te  Te34  1  0.24841088  0.75358127  0.24786374  1
  Te  Te35  1  0.25037248  0.75038577  0.75980966  1
  Te  Te36  1  0.75336916  0.25262731  0.25235945  1
  Te  Te37  1  0.75162076  0.24690379  0.74831866  1
  Te  Te38  1  0.75161606  0.74912904  0.24752395  1
  Te  Te39  1  0.74976487  0.75607210  0.75749564  1
  Te  Te40  1  0.24565138  -0.00355442  0.00543330  1
  Te  Te41  1  0.25430781  0.00401230  0.49584012  1
  Te  Te42  1  0.25041382  0.50809816  -0.00025677  1
  Te  Te43  1  0.25059221  0.49418885  0.49916957  1
  Te  Te44  1  0.75375894  -0.00374285  -0.00274176  1
  Te  Te45  1  0.74632047  0.00370023  0.50344263  1
  Te  Te46  1  0.74986113  0.50692057  0.00746127  1
  Te  Te47  1  0.75016925  0.49756214  0.49622290  1
  Te  Te48  1  0.00145988  0.24622989  0.00080545  1
  Te  Te49  1  -0.00103098  0.24979310  0.49875128  1
  Te  Te50  1  -0.00134798  0.75252131  0.00249004  1
  Te  Te51  1  0.00124930  0.74306057  0.49507637  1
  Te  Te52  1  0.49843140  0.25064280  -0.01103775  1
  Te  Te53  1  0.50105988  0.25007905  0.50059513  1
  Te  Te54  1  0.50109887  0.74961891  0.00548955  1
  Te  Te55  1  0.49926213  0.74947761  0.49534604  1
  Te  Te56  1  0.00187283  -0.00142420  0.24807087  1
  Te  Te57  1  -0.00338553  0.00379248  0.75252385  1
  Te  Te58  1  -0.00279724  0.49948435  0.25328716  1
  Te  Te59  1  -0.00118799  0.49359904  0.74347201  1
  Te  Te60  1  0.49729577  -0.00288225  0.25375178  1
  Te  Te61  1  0.50376619  0.00293881  0.74534354  1
  Te  Te62  1  0.50409073  0.50312660  0.25475800  1
  Te  Te63  1  0.50101771  0.49568597  0.74224318  1
