# generated using pymatgen
data_AgSbTe2
_symmetry_space_group_name_H-M   'P 1'
_cell_length_a   12.22145542
_cell_length_b   12.21746585
_cell_length_c   12.20972174
_cell_angle_alpha   89.99327769
_cell_angle_beta   90.00810456
_cell_angle_gamma   90.00239246
_symmetry_Int_Tables_number   1
_chemical_formula_structural   AgSbTe2
_chemical_formula_sum   'Ag16 Sb16 Te32'
_cell_volume   1823.09718486
_cell_formula_units_Z   16
loop_
 _symmetry_equiv_pos_site_id
 _symmetry_equiv_pos_as_xyz
  1  'x, y, z'
loop_
 _atom_site_type_symbol
 _atom_site_label
 _atom_site_symmetry_multiplicity
 _atom_site_fract_x
 _atom_site_fract_y
 _atom_site_fract_z
 _atom_site_occupancy
  Ag  Ag0  1  0.50346335  0.00026700  0.50055270  1
  Ag  Ag1  1  0.00013504  0.75208103  0.75655501  1
  Ag  Ag2  1  0.25162890  -0.00289039  0.75305697  1
  Ag  Ag3  1  0.74765644  -0.00243894  0.74976574  1
  Ag  Ag4  1  0.49983372  0.75401444  0.75858506  1
  Ag  Ag5  1  0.25584199  0.74581600  -0.00250192  1
  Ag  Ag6  1  0.00540910  0.50211450  -0.00161040  1
  Ag  Ag7  1  0.74443189  0.75114902  -0.00299604  1
  Ag  Ag8  1  0.50026799  0.24868195  0.24699859  1
  Ag  Ag9  1  0.50000501  0.75061794  0.24174139  1
  Ag  Ag10  1  0.25420938  0.50037377  0.24141127  1
  Ag  Ag11  1  0.74379111  -0.00048254  0.24978780  1
  Ag  Ag12  1  0.74753121  0.24455318  0.50049105  1
  Ag  Ag13  1  0.25214758  0.25407359  -0.00076764  1
  Ag  Ag14  1  0.00007674  0.24815434  0.75354475  1
  Ag  Ag15  1  0.49453015  0.50559506  0.00256230  1
  Sb  Sb16  1  -0.00010245  0.25084651  0.24599567  1
  Sb  Sb17  1  0.25068846  0.50285249  0.75878016  1
  Sb  Sb18  1  0.50032035  -0.00728508  -0.00143473  1
  Sb  Sb19  1  0.74781841  0.24781626  -0.00071008  1
  Sb  Sb20  1  0.49987033  0.24498102  0.75397149  1
  Sb  Sb21  1  0.74596526  0.50164956  0.24651522  1
  Sb  Sb22  1  0.25153190  0.24774775  0.50168900  1
  Sb  Sb23  1  0.49953370  0.49934392  0.49866489  1
  Sb  Sb24  1  0.74713307  0.75447112  0.50209493  1
  Sb  Sb25  1  0.25675311  -0.00066839  0.24747913  1
  Sb  Sb26  1  0.00074524  0.49907431  0.50205750  1
  Sb  Sb27  1  0.74925863  0.50326954  0.75250117  1
  Sb  Sb28  1  0.25165142  0.75147050  0.50353809  1
  Sb  Sb29  1  0.00050750  -0.00188750  -0.00382019  1
  Sb  Sb30  1  -0.00383511  0.00121872  0.50390696  1
  Sb  Sb31  1  0.00018796  0.74892968  0.24242809  1
  Te  Te32  1  0.25248943  0.24938192  0.24586974  1
  Te  Te33  1  0.24828189  0.24652001  0.75329549  1
  Te  Te34  1  0.25273785  0.75017768  0.24507852  1
  Te  Te35  1  0.25090321  0.75224909  0.75348524  1
  Te  Te36  1  0.74733673  0.24575157  0.25015990  1
  Te  Te37  1  0.75142408  0.24417918  0.74978040  1
  Te  Te38  1  0.74693871  0.75320587  0.24772650  1
  Te  Te39  1  0.74894286  0.75358907  0.75200557  1
  Te  Te40  1  0.24962642  0.00009206  -0.00499819  1
  Te  Te41  1  0.25716821  0.00031699  0.50625421  1
  Te  Te42  1  0.25178663  0.50100619  0.00132179  1
  Te  Te43  1  0.24984046  0.49955605  0.48750764  1
  Te  Te44  1  0.75077209  -0.00477317  -0.00138011  1
  Te  Te45  1  0.74618681  0.00340702  0.50169752  1
  Te  Te46  1  0.74928298  0.50602717  0.00075868  1
  Te  Te47  1  0.75043845  0.48956295  0.49927208  1
  Te  Te48  1  0.00255720  0.25503960  -0.00436760  1
  Te  Te49  1  -0.00439135  0.25121455  0.50697083  1
  Te  Te50  1  0.00073619  0.74666174  -0.00405643  1
  Te  Te51  1  -0.00041591  0.74879362  0.51096407  1
  Te  Te52  1  0.49745859  0.25670942  0.00309327  1
  Te  Te53  1  0.50294008  0.24785847  0.49647593  1
  Te  Te54  1  0.49925050  0.74903432  0.00012668  1
  Te  Te55  1  0.50089425  0.75333580  0.49938552  1
  Te  Te56  1  -0.00893318  -0.00012262  0.25214765  1
  Te  Te57  1  -0.00093208  -0.00058819  0.74972205  1
  Te  Te58  1  0.00594170  0.50017814  0.24369975  1
  Te  Te59  1  0.00006222  0.50028176  0.75465468  1
  Te  Te60  1  0.50245192  -0.00034021  0.25316797  1
  Te  Te61  1  0.50200662  -0.00264571  0.74762550  1
  Te  Te62  1  0.49762147  0.50129399  0.24784337  1
  Te  Te63  1  0.49960758  0.50753528  0.75387784  1
