# generated using pymatgen
data_AgSbTe2
_symmetry_space_group_name_H-M   'P 1'
_cell_length_a   12.25336372
_cell_length_b   12.25041869
_cell_length_c   12.25756750
_cell_angle_alpha   89.99941409
_cell_angle_beta   89.99571239
_cell_angle_gamma   90.00309715
_symmetry_Int_Tables_number   1
_chemical_formula_structural   AgSbTe2
_chemical_formula_sum   'Ag16 Sb16 Te32'
_cell_volume   1839.96918075
_cell_formula_units_Z   16
loop_
 _symmetry_equiv_pos_site_id
 _symmetry_equiv_pos_as_xyz
  1  'x, y, z'
loop_
 _atom_site_type_symbol
 _atom_site_label
 _atom_site_symmetry_multiplicity
 _atom_site_fract_x
 _atom_site_fract_y
 _atom_site_fract_z
 _atom_site_occupancy
  Ag  Ag0  1  -0.00515438  0.24380035  0.25633985  1
  Ag  Ag1  1  0.75066541  0.74790680  0.00528528  1
  Ag  Ag2  1  0.24765864  0.00340602  0.74583548  1
  Ag  Ag3  1  0.75373440  0.49938565  0.26153314  1
  Ag  Ag4  1  0.75367068  0.24936091  0.49519179  1
  Ag  Ag5  1  0.74913257  0.49940073  0.73841670  1
  Ag  Ag6  1  0.51713284  0.49634104  0.49764499  1
  Ag  Ag7  1  0.50769827  0.49854749  0.00273119  1
  Ag  Ag8  1  -0.00767327  0.75584523  0.25313770  1
  Ag  Ag9  1  0.24077090  0.00355985  0.25390059  1
  Ag  Ag10  1  -0.01249740  0.00346434  0.49111552  1
  Ag  Ag11  1  -0.01675202  0.49545725  0.49386642  1
  Ag  Ag12  1  0.24917293  0.24682457  0.00410186  1
  Ag  Ag13  1  0.75983514  0.00083679  0.26442058  1
  Ag  Ag14  1  0.51316050  0.00320693  0.49841908  1
  Ag  Ag15  1  0.75192707  0.00114036  0.73487367  1
  Sb  Sb16  1  0.50357919  0.75045809  0.75046673  1
  Sb  Sb17  1  -0.00847230  0.49918905  0.00568887  1
  Sb  Sb18  1  -0.00199441  0.00085009  0.01200661  1
  Sb  Sb19  1  0.24965370  0.75115399  0.00335005  1
  Sb  Sb20  1  -0.00167666  0.24751349  0.74202641  1
  Sb  Sb21  1  0.50105820  0.24970905  0.74811086  1
  Sb  Sb22  1  0.75087262  0.25159952  0.00533589  1
  Sb  Sb23  1  0.25004711  0.49499117  0.74958223  1
  Sb  Sb24  1  0.24852505  0.75389969  0.49649426  1
  Sb  Sb25  1  0.24618451  0.49489590  0.25040641  1
  Sb  Sb26  1  0.50909790  0.75079510  0.24862107  1
  Sb  Sb27  1  0.75153511  0.75009241  0.49223950  1
  Sb  Sb28  1  0.24419866  0.24550016  0.49529593  1
  Sb  Sb29  1  0.50252026  0.00297064  0.00164999  1
  Sb  Sb30  1  -0.00359809  0.75239387  0.74655135  1
  Sb  Sb31  1  0.50654988  0.24974223  0.25217506  1
  Te  Te32  1  0.24093723  0.24395699  0.24800748  1
  Te  Te33  1  0.24700636  0.24076770  0.75786498  1
  Te  Te34  1  0.23632553  0.76165160  0.24730443  1
  Te  Te35  1  0.24634050  0.76527476  0.75476246  1
  Te  Te36  1  0.75441474  0.24905003  0.25253197  1
  Te  Te37  1  0.75216235  0.24760490  0.74476080  1
  Te  Te38  1  0.75591417  0.75074193  0.24424542  1
  Te  Te39  1  0.75279492  0.75159049  0.76483919  1
  Te  Te40  1  0.25399859  0.00297137  0.00020307  1
  Te  Te41  1  0.25081318  0.00426248  0.49884021  1
  Te  Te42  1  0.26015328  0.49689019  -0.00288102  1
  Te  Te43  1  0.25394759  0.49670368  0.50276358  1
  Te  Te44  1  0.74604032  0.00115308  -0.00127595  1
  Te  Te45  1  0.75022109  -0.00672195  0.49913877  1
  Te  Te46  1  0.74633042  0.49647030  0.00050490  1
  Te  Te47  1  0.74907084  0.50731060  0.49859486  1
  Te  Te48  1  0.00395087  0.25217611  0.01293718  1
  Te  Te49  1  -0.00476799  0.24889108  0.49412217  1
  Te  Te50  1  -0.00631910  0.74812469  0.01143728  1
  Te  Te51  1  0.00166383  0.75069454  0.49069503  1
  Te  Te52  1  0.49619588  0.25794175  0.00212643  1
  Te  Te53  1  0.50990855  0.25135226  0.49814880  1
  Te  Te54  1  0.50610519  0.73903342  0.00165731  1
  Te  Te55  1  0.49659020  0.74771320  0.49862375  1
  Te  Te56  1  -0.00403127  0.00155571  0.25357549  1
  Te  Te57  1  -0.00461062  -0.00045326  0.73723114  1
  Te  Te58  1  -0.00274571  0.49893215  0.25558099  1
  Te  Te59  1  -0.00620866  0.50080736  0.73886770  1
  Te  Te60  1  0.50171924  -0.00063368  0.25705255  1
  Te  Te61  1  0.50449867  -0.00008292  0.74151700  1
  Te  Te62  1  0.50460695  0.50035439  0.25663191  1
  Te  Te63  1  0.50640988  0.49967628  0.74277507  1
