# generated using pymatgen
data_AgSbTe2
_symmetry_space_group_name_H-M   'P 1'
_cell_length_a   12.28213872
_cell_length_b   12.30848021
_cell_length_c   12.30524597
_cell_angle_alpha   90.01454011
_cell_angle_beta   90.00445400
_cell_angle_gamma   89.99068066
_symmetry_Int_Tables_number   1
_chemical_formula_structural   AgSbTe2
_chemical_formula_sum   'Ag16 Sb16 Te32'
_cell_volume   1860.23884097
_cell_formula_units_Z   16
loop_
 _symmetry_equiv_pos_site_id
 _symmetry_equiv_pos_as_xyz
  1  'x, y, z'
loop_
 _atom_site_type_symbol
 _atom_site_label
 _atom_site_symmetry_multiplicity
 _atom_site_fract_x
 _atom_site_fract_y
 _atom_site_fract_z
 _atom_site_occupancy
  Ag  Ag0  1  0.23988648  0.75314801  0.50562405  1
  Ag  Ag1  1  0.75681771  0.24781899  0.50971608  1
  Ag  Ag2  1  -0.00648901  -0.00014253  0.51354534  1
  Ag  Ag3  1  0.52377031  0.50022689  -0.00311333  1
  Ag  Ag4  1  -0.00801734  0.24390306  0.75441299  1
  Ag  Ag5  1  -0.01496736  0.50025973  -0.00827791  1
  Ag  Ag6  1  0.23268637  -0.00035648  0.74976497  1
  Ag  Ag7  1  0.75660885  0.26854721  -0.00838620  1
  Ag  Ag8  1  0.75887231  -0.00069428  0.23881558  1
  Ag  Ag9  1  -0.00740546  0.75198703  0.24531979  1
  Ag  Ag10  1  -0.01058967  0.00049299  -0.01117247  1
  Ag  Ag11  1  0.75732894  0.73165798  0.00025035  1
  Ag  Ag12  1  0.76202712  0.49150810  0.76918065  1
  Ag  Ag13  1  0.75617259  0.50119381  0.22897131  1
  Ag  Ag14  1  0.23743143  0.50045493  0.75383132  1
  Ag  Ag15  1  0.76569009  0.01073778  0.75960430  1
  Sb  Sb16  1  -0.00273006  0.25044935  0.24644181  1
  Sb  Sb17  1  -0.00160442  0.75335942  0.75435223  1
  Sb  Sb18  1  0.24036858  0.50413885  0.24467599  1
  Sb  Sb19  1  0.50363705  0.50086967  0.50258144  1
  Sb  Sb20  1  0.24255763  0.75013434  -0.00203725  1
  Sb  Sb21  1  0.51118727  0.25006846  0.75086339  1
  Sb  Sb22  1  0.75573408  0.75166988  0.50090457  1
  Sb  Sb23  1  0.51467104  0.00020816  -0.00149452  1
  Sb  Sb24  1  -0.00249199  0.50050686  0.50803727  1
  Sb  Sb25  1  0.50935679  0.74847944  0.24818443  1
  Sb  Sb26  1  0.23575685  -0.00437910  0.24941159  1
  Sb  Sb27  1  0.23927939  0.24850332  0.50665628  1
  Sb  Sb28  1  0.50588417  -0.00049247  0.50077123  1
  Sb  Sb29  1  0.50179599  0.75001386  0.75124421  1
  Sb  Sb30  1  0.50720055  0.25099673  0.24815359  1
  Sb  Sb31  1  0.24110471  0.24991758  -0.00473595  1
  Te  Te32  1  0.25305309  0.24991096  0.25161047  1
  Te  Te33  1  0.23771633  0.24995571  0.75149018  1
  Te  Te34  1  0.24111463  0.75019732  0.25368653  1
  Te  Te35  1  0.25000467  0.74958107  0.74843734  1
  Te  Te36  1  0.75282235  0.25015364  0.24760577  1
  Te  Te37  1  0.75651535  0.24896940  0.75262245  1
  Te  Te38  1  0.75513930  0.74997227  0.25240821  1
  Te  Te39  1  0.74953324  0.74778956  0.74966799  1
  Te  Te40  1  0.24432100  -0.00042602  -0.00413345  1
  Te  Te41  1  0.24708126  0.00118367  0.50197140  1
  Te  Te42  1  0.24331101  0.50054307  -0.00518629  1
  Te  Te43  1  0.25084004  0.49832529  0.50682008  1
  Te  Te44  1  0.75159922  -0.00007199  -0.00366394  1
  Te  Te45  1  0.75277858  -0.00208151  0.50534325  1
  Te  Te46  1  0.75285744  0.50157988  -0.00053836  1
  Te  Te47  1  0.75064579  0.49954712  0.50268118  1
  Te  Te48  1  -0.00362515  0.24804838  -0.00305269  1
  Te  Te49  1  -0.00640534  0.24507830  0.50553192  1
  Te  Te50  1  -0.00480224  0.75160555  0.00244198  1
  Te  Te51  1  0.00170674  0.75375765  0.49269601  1
  Te  Te52  1  0.51005205  0.25409697  -0.00103643  1
  Te  Te53  1  0.51536967  0.24952614  0.49942636  1
  Te  Te54  1  0.50962036  0.74636556  0.00059925  1
  Te  Te55  1  0.48402666  0.75073760  0.49899360  1
  Te  Te56  1  -0.00483201  0.00155889  0.24466278  1
  Te  Te57  1  -0.00304911  -0.00332298  0.75256641  1
  Te  Te58  1  -0.00230080  0.49925637  0.24572142  1
  Te  Te59  1  -0.00283457  0.50178292  0.75089954  1
  Te  Te60  1  0.51344275  0.00060455  0.24911899  1
  Te  Te61  1  0.49521356  0.00082339  0.75081630  1
  Te  Te62  1  0.50730147  0.50042597  0.24433993  1
  Te  Te63  1  0.50025164  0.49933771  0.75335466  1
