# generated using pymatgen
data_AgSbTe2
_symmetry_space_group_name_H-M   'P 1'
_cell_length_a   12.29016340
_cell_length_b   12.31180113
_cell_length_c   12.31956795
_cell_angle_alpha   90.01224917
_cell_angle_beta   89.99144399
_cell_angle_gamma   89.99235714
_symmetry_Int_Tables_number   1
_chemical_formula_structural   AgSbTe2
_chemical_formula_sum   'Ag16 Sb16 Te32'
_cell_volume   1864.12361134
_cell_formula_units_Z   16
loop_
 _symmetry_equiv_pos_site_id
 _symmetry_equiv_pos_as_xyz
  1  'x, y, z'
loop_
 _atom_site_type_symbol
 _atom_site_label
 _atom_site_symmetry_multiplicity
 _atom_site_fract_x
 _atom_site_fract_y
 _atom_site_fract_z
 _atom_site_occupancy
  Ag  Ag0  1  0.26080715  0.75482522  0.51597335  1
  Ag  Ag1  1  0.73208983  0.50373213  0.75079396  1
  Ag  Ag2  1  0.74393657  -0.00368889  0.24908204  1
  Ag  Ag3  1  0.50060122  0.26968075  0.74502054  1
  Ag  Ag4  1  0.26049387  -0.01480882  0.74954859  1
  Ag  Ag5  1  0.00318936  -0.00575416  0.00010957  1
  Ag  Ag6  1  0.49094924  0.73484731  0.75104835  1
  Ag  Ag7  1  0.26042960  0.75330050  -0.01177617  1
  Ag  Ag8  1  0.49462085  -0.00504493  0.50721736  1
  Ag  Ag9  1  0.74080595  0.25486048  0.50222270  1
  Ag  Ag10  1  0.50361186  0.50244977  0.51662586  1
  Ag  Ag11  1  0.74120550  0.50385207  0.24920561  1
  Ag  Ag12  1  0.25753392  -0.00650309  0.24947463  1
  Ag  Ag13  1  0.26656755  0.51394212  0.75038778  1
  Ag  Ag14  1  0.73941574  0.74483890  -0.00360503  1
  Ag  Ag15  1  0.50468013  0.50873391  -0.01990245  1
  Sb  Sb16  1  0.74280061  0.74836721  0.50300049  1
  Sb  Sb17  1  0.00419634  0.75049522  0.75039373  1
  Sb  Sb18  1  -0.00157287  0.50154607  0.50126982  1
  Sb  Sb19  1  0.74654415  0.25179008  0.00000576  1
  Sb  Sb20  1  -0.00165992  0.50388399  -0.00159464  1
  Sb  Sb21  1  -0.00092468  0.24894350  0.75022297  1
  Sb  Sb22  1  0.00253504  -0.00016291  0.50093235  1
  Sb  Sb23  1  -0.00214506  0.24853966  0.24974466  1
  Sb  Sb24  1  0.74136014  -0.00255512  0.75012318  1
  Sb  Sb25  1  0.25413131  0.24709501  -0.00270556  1
  Sb  Sb26  1  0.50046628  0.75058162  0.24905042  1
  Sb  Sb27  1  0.50212545  0.24872504  0.25265909  1
  Sb  Sb28  1  0.25518251  0.24838038  0.50385919  1
  Sb  Sb29  1  0.25844515  0.50530139  0.24970664  1
  Sb  Sb30  1  0.49925155  -0.00339378  -0.00390695  1
  Sb  Sb31  1  -0.00140285  0.75037285  0.24965509  1
  Te  Te32  1  0.24881881  0.23805105  0.25005725  1
  Te  Te33  1  0.25254512  0.25579276  0.75025302  1
  Te  Te34  1  0.24901302  0.75451395  0.24229570  1
  Te  Te35  1  0.25121212  0.74839611  0.75323136  1
  Te  Te36  1  0.74969491  0.24601460  0.25217534  1
  Te  Te37  1  0.74761630  0.25002958  0.74710527  1
  Te  Te38  1  0.75020656  0.75296736  0.24560688  1
  Te  Te39  1  0.74753563  0.74823414  0.75401743  1
  Te  Te40  1  0.25639117  -0.00213228  0.00099652  1
  Te  Te41  1  0.25182920  0.00178671  0.50116175  1
  Te  Te42  1  0.24666150  0.50380507  0.00513990  1
  Te  Te43  1  0.25105164  0.49783710  0.49532400  1
  Te  Te44  1  0.74488024  -0.00181926  0.00172682  1
  Te  Te45  1  0.75073847  -0.00691011  0.49890746  1
  Te  Te46  1  0.75265161  0.50180149  -0.00156654  1
  Te  Te47  1  0.74859764  0.50582067  0.50156427  1
  Te  Te48  1  0.00105709  0.23583037  0.00041695  1
  Te  Te49  1  -0.01910804  0.25149841  0.49923024  1
  Te  Te50  1  -0.00153399  0.75542089  0.00039410  1
  Te  Te51  1  0.02202781  0.74903377  0.49947667  1
  Te  Te52  1  0.49879487  0.26481078  -0.00820801  1
  Te  Te53  1  0.50344390  0.25122254  0.50124348  1
  Te  Te54  1  0.50106359  0.74612386  -0.00093601  1
  Te  Te55  1  0.49579198  0.75152284  0.50224287  1
  Te  Te56  1  -0.00390955  -0.00046776  0.24808449  1
  Te  Te57  1  0.01319421  0.00037019  0.75252707  1
  Te  Te58  1  -0.01511739  0.49909426  0.25055708  1
  Te  Te59  1  0.00197000  0.49930517  0.74966220  1
  Te  Te60  1  0.50230963  0.00009086  0.25517503  1
  Te  Te61  1  0.49702596  -0.00471572  0.74577791  1
  Te  Te62  1  0.50432014  0.49898895  0.25327634  1
  Te  Te63  1  0.49895433  0.50050819  0.74924018  1
