# generated using pymatgen
data_AgSbTe2
_symmetry_space_group_name_H-M   'P 1'
_cell_length_a   12.21766553
_cell_length_b   12.22728383
_cell_length_c   12.23155230
_cell_angle_alpha   90.01133054
_cell_angle_beta   89.99703948
_cell_angle_gamma   89.99825580
_symmetry_Int_Tables_number   1
_chemical_formula_structural   AgSbTe2
_chemical_formula_sum   'Ag16 Sb16 Te32'
_cell_volume   1827.25766555
_cell_formula_units_Z   16
loop_
 _symmetry_equiv_pos_site_id
 _symmetry_equiv_pos_as_xyz
  1  'x, y, z'
loop_
 _atom_site_type_symbol
 _atom_site_label
 _atom_site_symmetry_multiplicity
 _atom_site_fract_x
 _atom_site_fract_y
 _atom_site_fract_z
 _atom_site_occupancy
  Ag  Ag0  1  0.49007506  0.50444985  0.50081568  1
  Ag  Ag1  1  0.48902554  0.74735599  0.74927104  1
  Ag  Ag2  1  0.24746973  -0.00716385  0.75178080  1
  Ag  Ag3  1  0.25218636  0.50806045  0.74450218  1
  Ag  Ag4  1  0.49191617  -0.00283959  -0.00281898  1
  Ag  Ag5  1  0.00873046  0.50021955  0.50109715  1
  Ag  Ag6  1  0.25276246  0.50174916  0.25403099  1
  Ag  Ag7  1  0.00528333  -0.00004310  0.50313581  1
  Ag  Ag8  1  0.00386226  0.25064650  0.25342933  1
  Ag  Ag9  1  0.25001121  0.74413638  0.50664551  1
  Ag  Ag10  1  0.00862955  0.00043919  -0.00360775  1
  Ag  Ag11  1  0.75337034  0.25149319  0.49858042  1
  Ag  Ag12  1  0.24970925  0.24919918  -0.00008061  1
  Ag  Ag13  1  0.01173861  0.75179846  0.74577666  1
  Ag  Ag14  1  0.49298367  0.74569415  0.24993239  1
  Ag  Ag15  1  0.49168915  0.50319539  -0.00078872  1
  Sb  Sb16  1  0.00945782  0.49955511  -0.00129211  1
  Sb  Sb17  1  0.75025194  0.00085009  0.25146897  1
  Sb  Sb18  1  0.75219871  -0.00131913  0.74870190  1
  Sb  Sb19  1  0.24758526  0.25528830  0.49856999  1
  Sb  Sb20  1  0.49634506  0.25303306  0.25024431  1
  Sb  Sb21  1  0.00402754  0.24875603  0.74762454  1
  Sb  Sb22  1  0.75076542  0.74939863  0.50038420  1
  Sb  Sb23  1  0.49530808  0.25254044  0.75021840  1
  Sb  Sb24  1  0.24986739  -0.00184916  0.24798582  1
  Sb  Sb25  1  0.74798833  0.49899557  0.25215036  1
  Sb  Sb26  1  0.25164103  0.75182625  -0.00716346  1
  Sb  Sb27  1  0.75059855  0.24941132  0.00186554  1
  Sb  Sb28  1  0.49438244  -0.00335718  0.50268314  1
  Sb  Sb29  1  0.00762140  0.74920090  0.25269441  1
  Sb  Sb30  1  0.74784254  0.50125608  0.74810685  1
  Sb  Sb31  1  0.74819722  0.75018701  -0.00037244  1
  Te  Te32  1  0.24535650  0.25470022  0.24550558  1
  Te  Te33  1  0.25010527  0.24932824  0.75649501  1
  Te  Te34  1  0.25446824  0.74484512  0.25841505  1
  Te  Te35  1  0.25007283  0.74911118  0.74693634  1
  Te  Te36  1  0.75900990  0.25020554  0.25527354  1
  Te  Te37  1  0.75010850  0.25017599  0.74178924  1
  Te  Te38  1  0.73813073  0.74996404  0.24994827  1
  Te  Te39  1  0.74931420  0.74980479  0.75008702  1
  Te  Te40  1  0.24982520  0.00231450  -0.00164604  1
  Te  Te41  1  0.24628177  -0.00198768  0.50338392  1
  Te  Te42  1  0.25335873  0.49688266  -0.00056745  1
  Te  Te43  1  0.25026611  0.49944431  0.50224961  1
  Te  Te44  1  0.74934651  0.00125103  0.00021646  1
  Te  Te45  1  0.75778040  0.00563105  0.50027262  1
  Te  Te46  1  0.73777028  0.49861298  0.00010112  1
  Te  Te47  1  0.75189054  0.49606848  0.49997455  1
  Te  Te48  1  0.00233299  0.24694065  0.00356183  1
  Te  Te49  1  0.00073286  0.25058538  0.49720739  1
  Te  Te50  1  -0.00185903  0.75575306  -0.00300233  1
  Te  Te51  1  0.00143670  0.74944109  0.50113018  1
  Te  Te52  1  0.49821954  0.24876360  0.00076838  1
  Te  Te53  1  0.50378143  0.25357961  0.49827882  1
  Te  Te54  1  0.50062182  0.74998218  -0.00185565  1
  Te  Te55  1  0.49856535  0.74834088  0.50282512  1
  Te  Te56  1  0.00041141  0.00118725  0.25024839  1
  Te  Te57  1  0.00290339  -0.00281750  0.74969981  1
  Te  Te58  1  0.00418536  0.49890537  0.25198701  1
  Te  Te59  1  0.00427133  0.50467359  0.74756756  1
  Te  Te60  1  0.49918905  -0.00406605  0.24475752  1
  Te  Te61  1  0.49546524  -0.00446513  0.75309534  1
  Te  Te62  1  0.49614226  0.50173571  0.25106757  1
  Te  Te63  1  0.49699269  0.50294364  0.74865587  1
