# generated using pymatgen
data_AgSbTe2
_symmetry_space_group_name_H-M   'P 1'
_cell_length_a   12.21578301
_cell_length_b   12.20628425
_cell_length_c   12.21308524
_cell_angle_alpha   90.00785138
_cell_angle_beta   90.00327422
_cell_angle_gamma   89.99650848
_symmetry_Int_Tables_number   1
_chemical_formula_structural   AgSbTe2
_chemical_formula_sum   'Ag16 Sb16 Te32'
_cell_volume   1821.08480796
_cell_formula_units_Z   16
loop_
 _symmetry_equiv_pos_site_id
 _symmetry_equiv_pos_as_xyz
  1  'x, y, z'
loop_
 _atom_site_type_symbol
 _atom_site_label
 _atom_site_symmetry_multiplicity
 _atom_site_fract_x
 _atom_site_fract_y
 _atom_site_fract_z
 _atom_site_occupancy
  Ag  Ag0  1  0.74516241  0.75736157  0.50309423  1
  Ag  Ag1  1  0.50164081  0.75216021  0.25537760  1
  Ag  Ag2  1  -0.00350815  0.75689757  0.74635213  1
  Ag  Ag3  1  0.25215197  -0.00156164  0.25183401  1
  Ag  Ag4  1  0.25314048  0.24632746  -0.00088509  1
  Ag  Ag5  1  0.74647163  0.24272062  0.50318908  1
  Ag  Ag6  1  0.50502829  -0.00581346  0.50292342  1
  Ag  Ag7  1  0.50382471  0.75511129  0.74348551  1
  Ag  Ag8  1  0.74842882  -0.00087318  0.74462634  1
  Ag  Ag9  1  0.50466651  0.24614320  0.75149940  1
  Ag  Ag10  1  0.74608386  0.24768585  -0.00270613  1
  Ag  Ag11  1  -0.00538398  -0.00414049  0.50313922  1
  Ag  Ag12  1  0.25441379  0.75614947  0.50031986  1
  Ag  Ag13  1  0.50266827  0.49784542  0.00005945  1
  Ag  Ag14  1  -0.00169030  0.00033512  -0.00237862  1
  Ag  Ag15  1  0.74577534  0.50097838  0.24987466  1
  Sb  Sb16  1  0.25192720  0.75371826  0.00049976  1
  Sb  Sb17  1  0.25285696  0.50049353  0.75105407  1
  Sb  Sb18  1  0.50161144  0.00269980  -0.00284324  1
  Sb  Sb19  1  0.74691006  0.50067593  0.75073432  1
  Sb  Sb20  1  0.50279311  0.50632746  0.49939660  1
  Sb  Sb21  1  0.74721997  -0.00118050  0.25628017  1
  Sb  Sb22  1  -0.00548455  0.24229571  0.74949253  1
  Sb  Sb23  1  -0.00118300  0.24642853  0.25049895  1
  Sb  Sb24  1  0.74824560  0.75301924  -0.00269996  1
  Sb  Sb25  1  0.25409921  0.24308413  0.50081615  1
  Sb  Sb26  1  -0.00284690  0.49888061  -0.00035187  1
  Sb  Sb27  1  -0.00206658  0.75406300  0.25359229  1
  Sb  Sb28  1  0.50223145  0.24832950  0.24893728  1
  Sb  Sb29  1  0.25174775  -0.00104092  0.74869887  1
  Sb  Sb30  1  0.25435349  0.50208093  0.24823311  1
  Sb  Sb31  1  -0.00406544  0.50386894  0.50071551  1
  Te  Te32  1  0.25024138  0.24552453  0.24573672  1
  Te  Te33  1  0.25695983  0.25033793  0.75465986  1
  Te  Te34  1  0.25469755  0.75348071  0.25357160  1
  Te  Te35  1  0.25332153  0.75015875  0.74519220  1
  Te  Te36  1  0.74879546  0.25325614  0.24986331  1
  Te  Te37  1  0.74652220  0.24749363  0.74950445  1
  Te  Te38  1  0.74571332  0.74800270  0.25348654  1
  Te  Te39  1  0.74658343  0.75260747  0.74731903  1
  Te  Te40  1  0.24679659  0.00445539  0.00389609  1
  Te  Te41  1  0.25038401  -0.00270545  0.49695385  1
  Te  Te42  1  0.25488324  0.49215519  0.00167489  1
  Te  Te43  1  0.24882843  0.50726357  0.49815970  1
  Te  Te44  1  0.75319411  0.00467724  -0.00241700  1
  Te  Te45  1  0.74923005  -0.00074067  0.49904606  1
  Te  Te46  1  0.74656562  0.49426240  0.00386565  1
  Te  Te47  1  0.75052524  0.49882565  0.49477680  1
  Te  Te48  1  -0.00121633  0.24580095  -0.00105600  1
  Te  Te49  1  -0.00456373  0.24352449  0.50165428  1
  Te  Te50  1  0.00082258  0.75604047  -0.00596030  1
  Te  Te51  1  -0.00155971  0.75397830  0.50332062  1
  Te  Te52  1  0.50274789  0.25057283  -0.00207513  1
  Te  Te53  1  0.50276671  0.24666779  0.50394201  1
  Te  Te54  1  0.49926818  0.74697077  -0.00129132  1
  Te  Te55  1  0.50226320  0.75029773  0.50242904  1
  Te  Te56  1  0.00556545  -0.00171379  0.24995106  1
  Te  Te57  1  -0.00357456  -0.00382369  0.74851432  1
  Te  Te58  1  -0.00791931  0.50127417  0.24865618  1
  Te  Te59  1  0.00034556  0.51152517  0.75125191  1
  Te  Te60  1  0.49633369  -0.00536734  0.25365646  1
  Te  Te61  1  0.50323932  -0.00175521  0.74757106  1
  Te  Te62  1  0.50410209  0.50539092  0.24525670  1
  Te  Te63  1  0.50091276  0.50048969  0.75602972  1
