# generated using pymatgen
data_AgSbTe2
_symmetry_space_group_name_H-M   'P 1'
_cell_length_a   12.21020781
_cell_length_b   12.20899911
_cell_length_c   12.20925976
_cell_angle_alpha   89.99609334
_cell_angle_beta   90.00323759
_cell_angle_gamma   90.00520033
_symmetry_Int_Tables_number   1
_chemical_formula_structural   AgSbTe2
_chemical_formula_sum   'Ag16 Sb16 Te32'
_cell_volume   1820.08825755
_cell_formula_units_Z   16
loop_
 _symmetry_equiv_pos_site_id
 _symmetry_equiv_pos_as_xyz
  1  'x, y, z'
loop_
 _atom_site_type_symbol
 _atom_site_label
 _atom_site_symmetry_multiplicity
 _atom_site_fract_x
 _atom_site_fract_y
 _atom_site_fract_z
 _atom_site_occupancy
  Ag  Ag0  1  -0.00525222  0.50092650  0.49634683  1
  Ag  Ag1  1  0.50562923  0.50247268  0.49852911  1
  Ag  Ag2  1  0.75167402  0.25764762  0.49593960  1
  Ag  Ag3  1  0.74977612  0.50153250  0.74478779  1
  Ag  Ag4  1  0.74980094  0.74319147  0.49394851  1
  Ag  Ag5  1  0.74948985  -0.00389327  0.24743266  1
  Ag  Ag6  1  0.50243834  -0.00413314  0.00211952  1
  Ag  Ag7  1  -0.00545499  0.25367109  0.25144652  1
  Ag  Ag8  1  0.50546817  0.74828884  0.24789040  1
  Ag  Ag9  1  0.74992278  0.25091488  0.00489050  1
  Ag  Ag10  1  0.25026379  0.50309629  0.74904464  1
  Ag  Ag11  1  -0.00513296  0.74665703  0.25027193  1
  Ag  Ag12  1  0.74756907  0.74991665  0.00814641  1
  Ag  Ag13  1  0.24801255  0.50406361  0.25067441  1
  Ag  Ag14  1  0.25149376  -0.00385153  0.75291049  1
  Ag  Ag15  1  0.25174333  0.74903919  0.00231162  1
  Sb  Sb16  1  0.25031693  0.74601886  0.49737296  1
  Sb  Sb17  1  0.50770354  0.25332502  0.25008937  1
  Sb  Sb18  1  -0.00214860  0.25318761  0.74840081  1
  Sb  Sb19  1  -0.00287978  -0.00095547  0.00160359  1
  Sb  Sb20  1  -0.00194054  0.50083308  0.00551369  1
  Sb  Sb21  1  -0.00030651  0.74661964  0.74903720  1
  Sb  Sb22  1  0.49985281  0.74858885  0.75211664  1
  Sb  Sb23  1  0.75338666  0.50667628  0.25802212  1
  Sb  Sb24  1  -0.00171322  -0.00132043  0.49737143  1
  Sb  Sb25  1  0.74835926  -0.00122362  0.75306159  1
  Sb  Sb26  1  0.50277301  -0.00275022  0.49786107  1
  Sb  Sb27  1  0.25060649  0.25096464  0.00238550  1
  Sb  Sb28  1  0.50091752  0.25191217  0.75018004  1
  Sb  Sb29  1  0.50293218  0.50464260  0.00329360  1
  Sb  Sb30  1  0.24848813  0.25369361  0.49795212  1
  Sb  Sb31  1  0.25117847  -0.00416859  0.24703659  1
  Te  Te32  1  0.24232698  0.25424173  0.24873487  1
  Te  Te33  1  0.24913582  0.25484947  0.75109827  1
  Te  Te34  1  0.24910427  0.74829837  0.24708319  1
  Te  Te35  1  0.24935495  0.74574587  0.75491015  1
  Te  Te36  1  0.75218982  0.24712875  0.24959954  1
  Te  Te37  1  0.75128417  0.25352693  0.74982171  1
  Te  Te38  1  0.75040351  0.74844715  0.24837807  1
  Te  Te39  1  0.75073921  0.74628208  0.75009624  1
  Te  Te40  1  0.25422661  -0.00326674  -0.00268891  1
  Te  Te41  1  0.25130884  0.00063245  0.50723293  1
  Te  Te42  1  0.25071516  0.50303036  -0.00219535  1
  Te  Te43  1  0.24983642  0.50020706  0.50203425  1
  Te  Te44  1  0.74728396  -0.00281144  0.00082545  1
  Te  Te45  1  0.74845658  -0.00092993  0.49797460  1
  Te  Te46  1  0.74868319  0.50135614  -0.00779403  1
  Te  Te47  1  0.75010604  0.50082337  0.50005475  1
  Te  Te48  1  -0.00737907  0.25026570  0.00723167  1
  Te  Te49  1  -0.00562886  0.25459719  0.49447632  1
  Te  Te50  1  -0.00083940  0.74950582  0.00655975  1
  Te  Te51  1  -0.00435453  0.74573835  0.49429415  1
  Te  Te52  1  0.50681709  0.24332339  0.00103979  1
  Te  Te53  1  0.50737274  0.25555352  0.49919170  1
  Te  Te54  1  0.50175784  0.75206894  0.00406227  1
  Te  Te55  1  0.50432071  0.74609443  0.49438602  1
  Te  Te56  1  -0.00411706  -0.00145158  0.25110204  1
  Te  Te57  1  0.00814887  0.00038222  0.74953315  1
  Te  Te58  1  0.00344628  0.50171548  0.25390557  1
  Te  Te59  1  0.00122933  0.50021971  0.74217080  1
  Te  Te60  1  0.50312016  -0.00527663  0.24709969  1
  Te  Te61  1  0.49467243  -0.00041461  0.75458797  1
  Te  Te62  1  0.49265952  0.50383275  0.25341320  1
  Te  Te63  1  0.49865031  0.50069925  0.74379089  1
