# generated using pymatgen
data_AgSbTe2
_symmetry_space_group_name_H-M   'P 1'
_cell_length_a   12.23455920
_cell_length_b   12.22934690
_cell_length_c   12.22039796
_cell_angle_alpha   89.99440451
_cell_angle_beta   90.00336292
_cell_angle_gamma   89.99759229
_symmetry_Int_Tables_number   1
_chemical_formula_structural   AgSbTe2
_chemical_formula_sum   'Ag16 Sb16 Te32'
_cell_volume   1828.42410113
_cell_formula_units_Z   16
loop_
 _symmetry_equiv_pos_site_id
 _symmetry_equiv_pos_as_xyz
  1  'x, y, z'
loop_
 _atom_site_type_symbol
 _atom_site_label
 _atom_site_symmetry_multiplicity
 _atom_site_fract_x
 _atom_site_fract_y
 _atom_site_fract_z
 _atom_site_occupancy
  Ag  Ag0  1  0.74355767  -0.00671068  0.24857454  1
  Ag  Ag1  1  0.49183744  0.50145662  -0.00028543  1
  Ag  Ag2  1  0.74624851  0.74881509  0.49649512  1
  Ag  Ag3  1  0.25645447  -0.00593371  0.24598911  1
  Ag  Ag4  1  0.25336405  0.25674197  -0.00335103  1
  Ag  Ag5  1  0.49503807  0.74527065  0.75215374  1
  Ag  Ag6  1  0.74488481  0.50646582  0.24721484  1
  Ag  Ag7  1  0.49805606  0.74836459  0.24774780  1
  Ag  Ag8  1  0.49353764  0.25499011  0.75701348  1
  Ag  Ag9  1  0.00626667  0.25670748  0.75541702  1
  Ag  Ag10  1  0.00558001  0.74405895  0.75057816  1
  Ag  Ag11  1  0.25480095  0.50481282  0.24135563  1
  Ag  Ag12  1  0.00904141  0.49988001  -0.00361586  1
  Ag  Ag13  1  0.49602642  -0.00231926  0.00343851  1
  Ag  Ag14  1  0.25169968  0.50168885  0.75800267  1
  Ag  Ag15  1  0.25299851  0.74776213  0.50017693  1
  Sb  Sb16  1  0.25257826  0.74382955  0.00021223  1
  Sb  Sb17  1  0.49949127  0.50371181  0.49949119  1
  Sb  Sb18  1  0.00382515  -0.00044205  -0.00009848  1
  Sb  Sb19  1  0.74862932  0.50298141  0.75307631  1
  Sb  Sb20  1  0.49909089  -0.00385681  0.49552503  1
  Sb  Sb21  1  0.74683455  -0.00325706  0.75093801  1
  Sb  Sb22  1  0.00087666  0.50212749  0.50416541  1
  Sb  Sb23  1  0.00246424  0.25322279  0.24587267  1
  Sb  Sb24  1  0.74696558  0.74936217  0.00384271  1
  Sb  Sb25  1  0.00084574  -0.00214445  0.49992931  1
  Sb  Sb26  1  0.00144040  0.74730199  0.24904582  1
  Sb  Sb27  1  0.74696730  0.25108249  -0.00041369  1
  Sb  Sb28  1  0.49775604  0.25136740  0.24473813  1
  Sb  Sb29  1  0.25283819  -0.00281611  0.75342956  1
  Sb  Sb30  1  0.25082821  0.25114762  0.50229542  1
  Sb  Sb31  1  0.74894104  0.25091091  0.49938197  1
  Te  Te32  1  0.24971019  0.25319718  0.24884233  1
  Te  Te33  1  0.25123543  0.25133290  0.75089937  1
  Te  Te34  1  0.25074904  0.74759435  0.25161427  1
  Te  Te35  1  0.25329934  0.74896147  0.74767361  1
  Te  Te36  1  0.75055059  0.25042444  0.25164331  1
  Te  Te37  1  0.75039363  0.24951765  0.74823976  1
  Te  Te38  1  0.75018361  0.74892434  0.25358777  1
  Te  Te39  1  0.74647976  0.75046470  0.74261780  1
  Te  Te40  1  0.25353019  0.00706694  0.00478480  1
  Te  Te41  1  0.24991452  -0.00519010  0.49063596  1
  Te  Te42  1  0.25192065  0.49820775  -0.00118781  1
  Te  Te43  1  0.24918197  0.50380950  0.49917785  1
  Te  Te44  1  0.74494503  0.00040403  0.00685077  1
  Te  Te45  1  0.75037371  -0.00550880  0.49214663  1
  Te  Te46  1  0.74805771  0.49944607  0.00591491  1
  Te  Te47  1  0.75072426  0.50516237  0.49003692  1
  Te  Te48  1  0.00405448  0.25326417  -0.00484466  1
  Te  Te49  1  -0.00041369  0.24975922  0.51178696  1
  Te  Te50  1  -0.00203155  0.74598610  -0.00771101  1
  Te  Te51  1  0.00198393  0.74942450  0.50712888  1
  Te  Te52  1  0.49759380  0.25263607  -0.00374275  1
  Te  Te53  1  0.50039142  0.24796822  0.51432699  1
  Te  Te54  1  0.50073650  0.74863835  0.00071700  1
  Te  Te55  1  0.49880063  0.75060238  0.50002683  1
  Te  Te56  1  0.00019362  0.00085377  0.24853996  1
  Te  Te57  1  -0.00054152  -0.00155339  0.75129929  1
  Te  Te58  1  0.00296957  0.49941118  0.24295304  1
  Te  Te59  1  -0.00036338  0.50154705  0.75425707  1
  Te  Te60  1  0.49852734  -0.00034851  0.24551873  1
  Te  Te61  1  0.50043790  -0.00377948  0.75770351  1
  Te  Te62  1  0.49715120  0.50109343  0.24712664  1
  Te  Te63  1  0.49949491  0.50410155  0.75309846  1
