# generated using pymatgen
data_AgSbTe2
_symmetry_space_group_name_H-M   'P 1'
_cell_length_a   12.22232259
_cell_length_b   12.22948096
_cell_length_c   12.22860643
_cell_angle_alpha   89.99116286
_cell_angle_beta   90.00102628
_cell_angle_gamma   90.00039191
_symmetry_Int_Tables_number   1
_chemical_formula_structural   AgSbTe2
_chemical_formula_sum   'Ag16 Sb16 Te32'
_cell_volume   1827.84232689
_cell_formula_units_Z   16
loop_
 _symmetry_equiv_pos_site_id
 _symmetry_equiv_pos_as_xyz
  1  'x, y, z'
loop_
 _atom_site_type_symbol
 _atom_site_label
 _atom_site_symmetry_multiplicity
 _atom_site_fract_x
 _atom_site_fract_y
 _atom_site_fract_z
 _atom_site_occupancy
  Ag  Ag0  1  0.00877045  0.00191525  0.49860568  1
  Ag  Ag1  1  0.49111753  0.00451069  -0.00480227  1
  Ag  Ag2  1  0.49228485  0.24861453  0.74995654  1
  Ag  Ag3  1  0.75030271  0.49627224  0.74978023  1
  Ag  Ag4  1  0.00515240  0.75658910  0.25053256  1
  Ag  Ag5  1  0.24728031  0.75472565  0.50074514  1
  Ag  Ag6  1  0.49453171  0.49703459  0.50603129  1
  Ag  Ag7  1  0.00486907  0.49640138  -0.00229077  1
  Ag  Ag8  1  0.24249077  0.00323105  0.24959131  1
  Ag  Ag9  1  0.24847300  0.24531961  0.50626784  1
  Ag  Ag10  1  0.75192630  0.00366239  0.75087589  1
  Ag  Ag11  1  0.25073509  0.49219427  0.74827441  1
  Ag  Ag12  1  0.24823557  0.00801650  0.75132927  1
  Ag  Ag13  1  0.00806845  0.00422580  0.00154386  1
  Ag  Ag14  1  0.00699775  0.24379608  0.24747415  1
  Ag  Ag15  1  0.24641578  0.24299109  -0.00513275  1
  Sb  Sb16  1  0.75266267  0.24862766  0.50461531  1
  Sb  Sb17  1  0.75772348  0.00126373  0.24939473  1
  Sb  Sb18  1  0.00424019  0.49805030  0.50262342  1
  Sb  Sb19  1  0.24705695  0.75685097  -0.00005800  1
  Sb  Sb20  1  0.75280910  0.75080457  -0.00098764  1
  Sb  Sb21  1  0.49681852  0.75154657  0.74889089  1
  Sb  Sb22  1  0.49289462  0.24708722  0.24994996  1
  Sb  Sb23  1  0.49060621  0.00261072  0.50479271  1
  Sb  Sb24  1  0.75260509  0.75150491  0.50144887  1
  Sb  Sb25  1  0.49539483  0.49560457  -0.00565351  1
  Sb  Sb26  1  0.24765664  0.49756050  0.25015973  1
  Sb  Sb27  1  0.75528307  0.24882982  -0.00454132  1
  Sb  Sb28  1  0.00304746  0.75295540  0.74935488  1
  Sb  Sb29  1  0.49379430  0.75348390  0.25293649  1
  Sb  Sb30  1  0.00895562  0.24738136  0.75242543  1
  Sb  Sb31  1  0.75325083  0.49841245  0.25022700  1
  Te  Te32  1  0.24635390  0.24695373  0.24916307  1
  Te  Te33  1  0.25171299  0.24886058  0.74974176  1
  Te  Te34  1  0.24505956  0.75445450  0.25511920  1
  Te  Te35  1  0.24979421  0.74919824  0.74389110  1
  Te  Te36  1  0.75914948  0.25015815  0.25101373  1
  Te  Te37  1  0.74030294  0.24938565  0.74964677  1
  Te  Te38  1  0.75953540  0.74966105  0.25012925  1
  Te  Te39  1  0.74934351  0.75002378  0.74919789  1
  Te  Te40  1  0.24643528  0.00018489  -0.00262081  1
  Te  Te41  1  0.24864199  0.00249451  0.50199608  1
  Te  Te42  1  0.24721364  0.49691193  -0.00363745  1
  Te  Te43  1  0.25026479  0.49761202  0.50275601  1
  Te  Te44  1  0.75325261  0.00022491  -0.00626761  1
  Te  Te45  1  0.75643874  -0.00070992  0.50626262  1
  Te  Te46  1  0.75346256  0.50026122  -0.00737166  1
  Te  Te47  1  0.74635162  0.50035827  0.50772723  1
  Te  Te48  1  0.00442398  0.24796889  0.00171010  1
  Te  Te49  1  0.00545329  0.24707728  0.49574891  1
  Te  Te50  1  0.00135485  0.75063595  0.00573295  1
  Te  Te51  1  0.00485388  0.75258483  0.49572783  1
  Te  Te52  1  0.49375777  0.24569403  -0.00187695  1
  Te  Te53  1  0.49431374  0.25304211  0.50195584  1
  Te  Te54  1  0.50051312  0.75769530  0.00222946  1
  Te  Te55  1  0.49347997  0.74465300  0.49825834  1
  Te  Te56  1  0.00124886  0.00150022  0.24888190  1
  Te  Te57  1  0.00179836  -0.00019463  0.75092610  1
  Te  Te58  1  -0.00123271  0.49896276  0.24495346  1
  Te  Te59  1  0.00059961  0.50124571  0.75424819  1
  Te  Te60  1  0.49626593  0.00002782  0.24441790  1
  Te  Te61  1  0.49792615  0.00275700  0.75182843  1
  Te  Te62  1  0.50234370  0.50066481  0.25557518  1
  Te  Te63  1  0.49713496  0.49757654  0.74857385  1
