# generated using pymatgen
data_AgSbTe2
_symmetry_space_group_name_H-M   'P 1'
_cell_length_a   12.22867724
_cell_length_b   12.22548676
_cell_length_c   12.22101321
_cell_angle_alpha   90.00555425
_cell_angle_beta   89.99361382
_cell_angle_gamma   89.99514530
_symmetry_Int_Tables_number   1
_chemical_formula_structural   AgSbTe2
_chemical_formula_sum   'Ag16 Sb16 Te32'
_cell_volume   1827.06016660
_cell_formula_units_Z   16
loop_
 _symmetry_equiv_pos_site_id
 _symmetry_equiv_pos_as_xyz
  1  'x, y, z'
loop_
 _atom_site_type_symbol
 _atom_site_label
 _atom_site_symmetry_multiplicity
 _atom_site_fract_x
 _atom_site_fract_y
 _atom_site_fract_z
 _atom_site_occupancy
  Ag  Ag0  1  -0.00021132  0.75898563  0.24738340  1
  Ag  Ag1  1  0.23906677  -0.00052397  0.23780523  1
  Ag  Ag2  1  0.75094706  0.24314079  -0.00105507  1
  Ag  Ag3  1  0.75529053  0.75260656  0.50258522  1
  Ag  Ag4  1  0.24692121  -0.00309094  0.76117639  1
  Ag  Ag5  1  0.49975688  0.49907308  -0.00336258  1
  Ag  Ag6  1  0.50009386  0.24648178  0.75674840  1
  Ag  Ag7  1  0.00005578  0.23962033  0.24460311  1
  Ag  Ag8  1  -0.00041749  0.75645515  0.75207956  1
  Ag  Ag9  1  0.24615373  0.76027013  -0.00326854  1
  Ag  Ag10  1  0.76039216  -0.00042610  0.24325461  1
  Ag  Ag11  1  0.75255809  -0.00295994  0.75516067  1
  Ag  Ag12  1  0.24853302  0.24011355  -0.00080550  1
  Ag  Ag13  1  -0.00207869  0.50424552  0.50023497  1
  Ag  Ag14  1  0.49995347  0.75416428  0.75416483  1
  Ag  Ag15  1  0.00421094  -0.00123108  0.00400248  1
  Sb  Sb16  1  0.24951277  0.50216161  0.75325268  1
  Sb  Sb17  1  -0.00113747  -0.00293523  0.49583639  1
  Sb  Sb18  1  0.49968519  0.24686828  0.24323705  1
  Sb  Sb19  1  0.75075116  0.50319002  0.75191119  1
  Sb  Sb20  1  0.75232398  0.75837634  -0.00176777  1
  Sb  Sb21  1  0.50120145  -0.00182842  0.50331917  1
  Sb  Sb22  1  0.00003256  0.24220940  0.75467897  1
  Sb  Sb23  1  0.24712478  0.50039331  0.24631223  1
  Sb  Sb24  1  0.49523793  0.00078418  -0.00372843  1
  Sb  Sb25  1  0.75282138  0.50085681  0.24796546  1
  Sb  Sb26  1  0.24726769  0.24738848  0.50112905  1
  Sb  Sb27  1  0.50237308  0.50259067  0.50302849  1
  Sb  Sb28  1  -0.00084022  0.50097039  -0.00066875  1
  Sb  Sb29  1  0.75270023  0.24736185  0.50039468  1
  Sb  Sb30  1  0.49969693  0.75341627  0.24565845  1
  Sb  Sb31  1  0.24615015  0.75182376  0.50223472  1
  Te  Te32  1  0.24841257  0.24427940  0.24571790  1
  Te  Te33  1  0.25109644  0.24450170  0.75392492  1
  Te  Te34  1  0.24806182  0.75548087  0.24729809  1
  Te  Te35  1  0.24922407  0.75406021  0.75201592  1
  Te  Te36  1  0.75146153  0.24412917  0.24813675  1
  Te  Te37  1  0.74907333  0.24387867  0.75239839  1
  Te  Te38  1  0.75221597  0.75534420  0.25075178  1
  Te  Te39  1  0.75130576  0.75420114  0.75050954  1
  Te  Te40  1  0.24743252  -0.00043244  -0.00075277  1
  Te  Te41  1  0.25041606  0.00031168  0.50070212  1
  Te  Te42  1  0.25346940  0.49861011  0.00047387  1
  Te  Te43  1  0.24314976  0.49985792  0.49915603  1
  Te  Te44  1  0.75443334  0.00275725  -0.00062997  1
  Te  Te45  1  0.75023387  -0.00441358  0.50194185  1
  Te  Te46  1  0.74571585  0.48948348  0.00026723  1
  Te  Te47  1  0.75435770  0.50609999  0.49952716  1
  Te  Te48  1  0.00097906  0.24924999  0.00266398  1
  Te  Te49  1  -0.00033530  0.25767160  0.49262756  1
  Te  Te50  1  0.00201866  0.75158660  0.00002552  1
  Te  Te51  1  -0.00276596  0.74754728  0.50037526  1
  Te  Te52  1  0.49929979  0.25229783  -0.00395356  1
  Te  Te53  1  0.49996259  0.25364456  0.51038350  1
  Te  Te54  1  0.49688369  0.74554788  -0.00470507  1
  Te  Te55  1  0.50592865  0.74762726  0.50760924  1
  Te  Te56  1  0.00006315  -0.00129134  0.24848246  1
  Te  Te57  1  0.00018028  -0.00293810  0.75260006  1
  Te  Te58  1  -0.00026315  0.50325974  0.25210553  1
  Te  Te59  1  0.00004462  0.50846221  0.74650324  1
  Te  Te60  1  0.50107571  -0.00007705  0.25255662  1
  Te  Te61  1  0.50071958  -0.00193001  0.75003746  1
  Te  Te62  1  0.49996708  0.50013175  0.24355022  1
  Te  Te63  1  0.50005399  0.50050749  0.75419837  1
