# generated using pymatgen
data_AgSbTe2
_symmetry_space_group_name_H-M   'P 1'
_cell_length_a   12.30280712
_cell_length_b   12.28560576
_cell_length_c   12.30600858
_cell_angle_alpha   90.00492729
_cell_angle_beta   89.99875499
_cell_angle_gamma   89.99697522
_symmetry_Int_Tables_number   1
_chemical_formula_structural   AgSbTe2
_chemical_formula_sum   'Ag16 Sb16 Te32'
_cell_volume   1860.02165896
_cell_formula_units_Z   16
loop_
 _symmetry_equiv_pos_site_id
 _symmetry_equiv_pos_as_xyz
  1  'x, y, z'
loop_
 _atom_site_type_symbol
 _atom_site_label
 _atom_site_symmetry_multiplicity
 _atom_site_fract_x
 _atom_site_fract_y
 _atom_site_fract_z
 _atom_site_occupancy
  Ag  Ag0  1  -0.01031489  0.75868175  0.74905752  1
  Ag  Ag1  1  -0.01522215  -0.00860932  0.50184236  1
  Ag  Ag2  1  0.50601612  0.23254484  0.74783835  1
  Ag  Ag3  1  0.51398475  -0.01205691  0.51293174  1
  Ag  Ag4  1  0.50578557  0.51695343  0.50223821  1
  Ag  Ag5  1  -0.01434102  -0.00740571  -0.00157937  1
  Ag  Ag6  1  0.74900358  0.50927743  0.25445357  1
  Ag  Ag7  1  -0.00671229  0.24143822  0.25114677  1
  Ag  Ag8  1  0.74731524  0.75936789  -0.00850934  1
  Ag  Ag9  1  0.51396709  -0.01037344  -0.01239761  1
  Ag  Ag10  1  0.75279767  -0.00563554  0.25198322  1
  Ag  Ag11  1  0.25308146  0.75415290  -0.00721159  1
  Ag  Ag12  1  0.25988108  0.75301552  0.50724112  1
  Ag  Ag13  1  0.74250007  -0.00909050  0.74857503  1
  Ag  Ag14  1  0.74155274  0.76039236  0.50773034  1
  Ag  Ag15  1  0.50969586  0.76001653  0.74292483  1
  Sb  Sb16  1  0.25187293  0.24370611  0.50080409  1
  Sb  Sb17  1  0.74994819  0.23859602  0.49986315  1
  Sb  Sb18  1  -0.00667094  0.51206252  0.49696087  1
  Sb  Sb19  1  -0.00528355  0.23346085  0.74999981  1
  Sb  Sb20  1  0.25162391  0.24093442  -0.00082649  1
  Sb  Sb21  1  0.25227169  0.50294816  0.25290202  1
  Sb  Sb22  1  0.24650112  -0.00075489  0.25069348  1
  Sb  Sb23  1  0.74968958  0.23715238  0.00072206  1
  Sb  Sb24  1  0.50379236  0.51334130  -0.00082144  1
  Sb  Sb25  1  0.25873207  -0.00246972  0.74964689  1
  Sb  Sb26  1  -0.00261710  0.75517277  0.25071105  1
  Sb  Sb27  1  0.50376482  0.24479113  0.24936195  1
  Sb  Sb28  1  -0.00430290  0.51206446  0.00214117  1
  Sb  Sb29  1  0.50251934  0.75314334  0.25651162  1
  Sb  Sb30  1  0.74895841  0.51135713  0.74505795  1
  Sb  Sb31  1  0.25165393  0.50503860  0.74830018  1
  Te  Te32  1  0.23799082  0.25111761  0.24914502  1
  Te  Te33  1  0.26116738  0.25349663  0.75061069  1
  Te  Te34  1  0.24851933  0.74978894  0.24996186  1
  Te  Te35  1  0.25041423  0.75311530  0.74814921  1
  Te  Te36  1  0.75352927  0.24412429  0.25030695  1
  Te  Te37  1  0.74336692  0.24083838  0.75073704  1
  Te  Te38  1  0.74879035  0.75576527  0.25127958  1
  Te  Te39  1  0.74865264  0.75452603  0.74822037  1
  Te  Te40  1  0.25092438  -0.00693500  0.00059490  1
  Te  Te41  1  0.25175070  -0.00684969  0.49954101  1
  Te  Te42  1  0.24963870  0.51512980  0.00223929  1
  Te  Te43  1  0.25787713  0.51216817  0.49850395  1
  Te  Te44  1  0.74880187  -0.00388399  0.00111465  1
  Te  Te45  1  0.74954678  -0.00286323  0.49895110  1
  Te  Te46  1  0.74988498  0.51471186  0.00818704  1
  Te  Te47  1  0.74724869  0.51065942  0.49716094  1
  Te  Te48  1  0.00138499  0.23933483  -0.00344673  1
  Te  Te49  1  0.00203644  0.24024775  0.50254728  1
  Te  Te50  1  -0.00343968  0.75437036  -0.00115601  1
  Te  Te51  1  -0.00249764  0.75459038  0.50043023  1
  Te  Te52  1  0.49791915  0.24130473  -0.00373137  1
  Te  Te53  1  0.49892441  0.24295602  0.50307044  1
  Te  Te54  1  0.50283590  0.75374337  -0.00132127  1
  Te  Te55  1  0.50245124  0.75455357  0.49836937  1
  Te  Te56  1  -0.00381320  0.00050152  0.25099429  1
  Te  Te57  1  -0.00587367  -0.00404613  0.74871993  1
  Te  Te58  1  -0.00745465  0.48995004  0.25095955  1
  Te  Te59  1  -0.00157509  0.50746843  0.74964588  1
  Te  Te60  1  0.50870698  0.00125204  0.24982169  1
  Te  Te61  1  0.50237445  -0.00518807  0.74919708  1
  Te  Te62  1  0.50608402  0.49624570  0.25539671  1
  Te  Te63  1  0.50238743  0.50459166  0.74550582  1
