# generated using pymatgen
data_AgSbTe2
_symmetry_space_group_name_H-M   'P 1'
_cell_length_a   12.24401505
_cell_length_b   12.23065224
_cell_length_c   12.22545243
_cell_angle_alpha   89.98954755
_cell_angle_beta   90.00000000
_cell_angle_gamma   90.00000001
_symmetry_Int_Tables_number   1
_chemical_formula_structural   AgSbTe2
_chemical_formula_sum   'Ag16 Sb16 Te32'
_cell_volume   1830.78946948
_cell_formula_units_Z   16
loop_
 _symmetry_equiv_pos_site_id
 _symmetry_equiv_pos_as_xyz
  1  'x, y, z'
loop_
 _atom_site_type_symbol
 _atom_site_label
 _atom_site_symmetry_multiplicity
 _atom_site_fract_x
 _atom_site_fract_y
 _atom_site_fract_z
 _atom_site_occupancy
  Ag  Ag0  1  0.74999996  0.75685414  0.49827303  1
  Ag  Ag1  1  0.25000001  0.24481927  -0.00241915  1
  Ag  Ag2  1  0.25000000  0.49463132  0.73894908  1
  Ag  Ag3  1  0.74999999  0.24345952  0.50098333  1
  Ag  Ag4  1  0.75000000  0.00136629  0.25822831  1
  Ag  Ag5  1  0.25000004  0.74844263  0.49907676  1
  Ag  Ag6  1  0.50038453  0.00331454  0.49763292  1
  Ag  Ag7  1  0.49570046  0.24873987  0.74461718  1
  Ag  Ag8  1  0.25000001  0.49833855  0.26125289  1
  Ag  Ag9  1  0.00850268  0.49699622  0.50139411  1
  Ag  Ag10  1  0.24999999  0.00262761  0.25463049  1
  Ag  Ag11  1  0.49564311  0.00509495  0.00197389  1
  Ag  Ag12  1  0.00435691  0.00509495  0.00197390  1
  Ag  Ag13  1  0.49149726  0.49699624  0.50139411  1
  Ag  Ag14  1  0.00429953  0.24873989  0.74461714  1
  Ag  Ag15  1  -0.00038453  0.00331458  0.49763291  1
  Sb  Sb16  1  0.25000000  0.00411757  0.74447161  1
  Sb  Sb17  1  0.00079094  0.75255154  0.25330952  1
  Sb  Sb18  1  0.49920905  0.75255152  0.25330954  1
  Sb  Sb19  1  0.74999998  0.49865192  0.25786588  1
  Sb  Sb20  1  0.24999997  0.75532908  0.00022522  1
  Sb  Sb21  1  0.74999997  0.00165031  0.74084579  1
  Sb  Sb22  1  0.49751663  0.24753581  0.25586931  1
  Sb  Sb23  1  0.00257847  0.75072246  0.74524401  1
  Sb  Sb24  1  0.00522266  0.49368424  -0.00157831  1
  Sb  Sb25  1  0.49477737  0.49368422  -0.00157832  1
  Sb  Sb26  1  0.75000000  0.24526209  -0.00027083  1
  Sb  Sb27  1  0.74999999  0.49680502  0.74504445  1
  Sb  Sb28  1  0.25000002  0.25160729  0.50249415  1
  Sb  Sb29  1  0.49742152  0.75072246  0.74524395  1
  Sb  Sb30  1  0.00248337  0.24753580  0.25586932  1
  Sb  Sb31  1  0.75000003  0.75726159  0.00174621  1
  Te  Te32  1  0.24999999  0.24699196  0.24009061  1
  Te  Te33  1  0.25000001  0.25237850  0.75433535  1
  Te  Te34  1  0.25000001  0.75055540  0.25531959  1
  Te  Te35  1  0.25000002  0.73964340  0.74458963  1
  Te  Te36  1  0.75000001  0.24543070  0.25582295  1
  Te  Te37  1  0.74999999  0.25046486  0.74500968  1
  Te  Te38  1  0.75000000  0.75542803  0.25733856  1
  Te  Te39  1  0.74999998  0.74884762  0.74142059  1
  Te  Te40  1  0.24999998  0.00070063  0.00252954  1
  Te  Te41  1  0.25000001  -0.00039549  0.49926711  1
  Te  Te42  1  0.25000000  0.49791554  0.00282769  1
  Te  Te43  1  0.25000003  0.49836154  0.49858182  1
  Te  Te44  1  0.75000000  -0.00126211  0.00922075  1
  Te  Te45  1  0.75000000  0.00052737  0.49757120  1
  Te  Te46  1  0.74999997  0.50323265  0.00367771  1
  Te  Te47  1  0.75000002  0.50009819  0.49733842  1
  Te  Te48  1  0.00039834  0.24561009  -0.00764928  1
  Te  Te49  1  -0.00129506  0.24815808  0.50419945  1
  Te  Te50  1  -0.00150895  0.76045545  -0.00264716  1
  Te  Te51  1  0.00208248  0.75138668  0.50168001  1
  Te  Te52  1  0.49960168  0.24561010  -0.00764930  1
  Te  Te53  1  0.50129506  0.24815808  0.50419948  1
  Te  Te54  1  0.50150894  0.76045548  -0.00264707  1
  Te  Te55  1  0.49791752  0.75138669  0.50167999  1
  Te  Te56  1  0.00366648  0.00110264  0.25418627  1
  Te  Te57  1  0.00013918  0.00529244  0.74728341  1
  Te  Te58  1  0.00538399  0.49925212  0.25463729  1
  Te  Te59  1  0.00303524  0.49503133  0.74667818  1
  Te  Te60  1  0.49633353  0.00110265  0.25418628  1
  Te  Te61  1  0.49986084  0.00529241  0.74728340  1
  Te  Te62  1  0.49461601  0.49925212  0.25463728  1
  Te  Te63  1  0.49696478  0.49503136  0.74667818  1
