# generated using pymatgen
data_AgSbTe2
_symmetry_space_group_name_H-M   'P 1'
_cell_length_a   12.20978663
_cell_length_b   12.21635772
_cell_length_c   12.20413955
_cell_angle_alpha   90.00291385
_cell_angle_beta   89.99008714
_cell_angle_gamma   89.99933726
_symmetry_Int_Tables_number   1
_chemical_formula_structural   AgSbTe2
_chemical_formula_sum   'Ag16 Sb16 Te32'
_cell_volume   1820.35869934
_cell_formula_units_Z   16
loop_
 _symmetry_equiv_pos_site_id
 _symmetry_equiv_pos_as_xyz
  1  'x, y, z'
loop_
 _atom_site_type_symbol
 _atom_site_label
 _atom_site_symmetry_multiplicity
 _atom_site_fract_x
 _atom_site_fract_y
 _atom_site_fract_z
 _atom_site_occupancy
  Ag  Ag0  1  -0.00261743  0.24594052  0.74593301  1
  Ag  Ag1  1  0.25024277  0.49786908  0.74743052  1
  Ag  Ag2  1  0.75082681  0.75013693  -0.00467449  1
  Ag  Ag3  1  0.75685942  0.00323783  0.74921776  1
  Ag  Ag4  1  0.24889375  -0.00198802  0.25391349  1
  Ag  Ag5  1  0.00269382  0.00225328  0.50645114  1
  Ag  Ag6  1  0.49941141  0.50103110  -0.00369340  1
  Ag  Ag7  1  -0.00067691  -0.00148587  -0.00765595  1
  Ag  Ag8  1  0.50152202  0.25308664  0.74835802  1
  Ag  Ag9  1  0.24727489  0.24973379  0.50431377  1
  Ag  Ag10  1  0.74980153  0.49634526  0.75046637  1
  Ag  Ag11  1  0.75225679  0.24878941  0.50862392  1
  Ag  Ag12  1  0.25253962  0.50263418  0.25263883  1
  Ag  Ag13  1  -0.00100873  0.75417295  0.74963526  1
  Ag  Ag14  1  0.24814173  0.75024825  0.49949904  1
  Ag  Ag15  1  0.49563861  0.74870445  0.24941473  1
  Sb  Sb16  1  0.75242456  0.75082190  0.50524737  1
  Sb  Sb17  1  0.00201077  0.24842013  0.25456013  1
  Sb  Sb18  1  0.49666314  0.25151807  0.25062290  1
  Sb  Sb19  1  0.49723319  0.49945816  0.50410170  1
  Sb  Sb20  1  0.49994248  0.74717922  0.75071433  1
  Sb  Sb21  1  0.75092058  -0.00128932  0.25070583  1
  Sb  Sb22  1  0.00417485  0.75140491  0.25161635  1
  Sb  Sb23  1  0.74678307  0.50155340  0.24888209  1
  Sb  Sb24  1  0.49642006  0.00032447  0.50190250  1
  Sb  Sb25  1  0.00268616  0.49745298  0.50481544  1
  Sb  Sb26  1  0.50047026  -0.00127095  -0.00256323  1
  Sb  Sb27  1  0.24887585  0.74968808  -0.00045301  1
  Sb  Sb28  1  0.75110175  0.24958511  -0.00972282  1
  Sb  Sb29  1  0.24886629  0.25026755  -0.00605849  1
  Sb  Sb30  1  0.24187990  0.00164561  0.74620619  1
  Sb  Sb31  1  -0.00081273  0.50178685  -0.00569378  1
  Te  Te32  1  0.25131236  0.25081728  0.25845667  1
  Te  Te33  1  0.24913119  0.25227832  0.74507642  1
  Te  Te34  1  0.25232441  0.74857750  0.25310249  1
  Te  Te35  1  0.24789207  0.74633648  0.74630640  1
  Te  Te36  1  0.74929769  0.25082004  0.26096717  1
  Te  Te37  1  0.75198754  0.25092124  0.74742423  1
  Te  Te38  1  0.74442867  0.74908436  0.24594463  1
  Te  Te39  1  0.75165518  0.74922581  0.75082241  1
  Te  Te40  1  0.24504301  -0.00006295  0.00663582  1
  Te  Te41  1  0.24668354  0.00033730  0.49787120  1
  Te  Te42  1  0.25419751  0.50005188  -0.00131598  1
  Te  Te43  1  0.24924963  0.49966986  0.50152242  1
  Te  Te44  1  0.75388372  -0.00381785  -0.00216242  1
  Te  Te45  1  0.75531600  0.00238028  0.50274130  1
  Te  Te46  1  0.74684281  0.50398101  -0.00370450  1
  Te  Te47  1  0.75090969  0.49611139  0.50596282  1
  Te  Te48  1  -0.00073968  0.24311054  -0.00696728  1
  Te  Te49  1  0.00227879  0.24612858  0.50413299  1
  Te  Te50  1  -0.00443625  0.75421852  -0.00527703  1
  Te  Te51  1  0.00398051  0.75601157  0.50411181  1
  Te  Te52  1  0.50039821  0.25573354  -0.00581535  1
  Te  Te53  1  0.49871306  0.24967013  0.50554286  1
  Te  Te54  1  0.50394193  0.74708519  0.00241785  1
  Te  Te55  1  0.49402438  0.75049073  0.49439006  1
  Te  Te56  1  0.00437486  -0.00043930  0.25059981  1
  Te  Te57  1  -0.00055318  0.00009220  0.74952711  1
  Te  Te58  1  0.00924811  0.50019538  0.24719726  1
  Te  Te59  1  0.00059074  0.49990303  0.75171421  1
  Te  Te60  1  0.49403130  -0.00423066  0.24880690  1
  Te  Te61  1  0.50812809  0.00555288  0.75167445  1
  Te  Te62  1  0.49512925  0.50280818  0.24378529  1
  Te  Te63  1  0.49929457  0.49770156  0.75375248  1
