# generated using pymatgen
data_AgSbTe2
_symmetry_space_group_name_H-M   'P 1'
_cell_length_a   12.20783342
_cell_length_b   12.21180692
_cell_length_c   12.20967699
_cell_angle_alpha   89.99951255
_cell_angle_beta   90.00883160
_cell_angle_gamma   90.00114752
_symmetry_Int_Tables_number   1
_chemical_formula_structural   AgSbTe2
_chemical_formula_sum   'Ag16 Sb16 Te32'
_cell_volume   1820.21501731
_cell_formula_units_Z   16
loop_
 _symmetry_equiv_pos_site_id
 _symmetry_equiv_pos_as_xyz
  1  'x, y, z'
loop_
 _atom_site_type_symbol
 _atom_site_label
 _atom_site_symmetry_multiplicity
 _atom_site_fract_x
 _atom_site_fract_y
 _atom_site_fract_z
 _atom_site_occupancy
  Ag  Ag0  1  -0.00548065  0.49905340  0.50570708  1
  Ag  Ag1  1  0.24922142  0.74659261  -0.00227248  1
  Ag  Ag2  1  0.24652176  0.74697436  0.50208416  1
  Ag  Ag3  1  -0.00351422  0.00044506  0.50090334  1
  Ag  Ag4  1  0.75401823  0.74525693  0.50000102  1
  Ag  Ag5  1  0.74897131  0.00363931  0.25355770  1
  Ag  Ag6  1  0.25127229  0.25298424  -0.00358969  1
  Ag  Ag7  1  0.75131549  0.49654698  0.25640752  1
  Ag  Ag8  1  0.50392055  0.24962090  0.24868897  1
  Ag  Ag9  1  0.00214221  0.49745729  -0.00618756  1
  Ag  Ag10  1  0.50065909  0.25189542  0.75161862  1
  Ag  Ag11  1  -0.00086019  0.25725025  0.74807229  1
  Ag  Ag12  1  0.75285633  0.25471253  0.50028490  1
  Ag  Ag13  1  0.49969865  0.00436290  0.00071351  1
  Ag  Ag14  1  0.75605669  0.49565942  0.74451282  1
  Ag  Ag15  1  0.24455940  0.49732985  0.75115299  1
  Sb  Sb16  1  0.00093078  0.74073621  0.74720938  1
  Sb  Sb17  1  0.75120015  0.74729326  -0.00116736  1
  Sb  Sb18  1  0.75082922  0.00443214  0.74570866  1
  Sb  Sb19  1  0.49953634  0.74833827  0.75103226  1
  Sb  Sb20  1  0.24946781  0.00298780  0.74928938  1
  Sb  Sb21  1  0.24654668  0.25463877  0.50409874  1
  Sb  Sb22  1  0.00016459  0.00260988  -0.00127395  1
  Sb  Sb23  1  0.74817177  0.25128782  -0.00044848  1
  Sb  Sb24  1  0.50210260  0.74969224  0.24870393  1
  Sb  Sb25  1  0.50298589  0.00232541  0.49870586  1
  Sb  Sb26  1  0.25077827  0.00225660  0.25139775  1
  Sb  Sb27  1  0.24873988  0.49787086  0.25026862  1
  Sb  Sb28  1  -0.00505806  0.25176073  0.25222902  1
  Sb  Sb29  1  0.49649287  0.49548093  -0.00110639  1
  Sb  Sb30  1  0.50716196  0.49848355  0.50071400  1
  Sb  Sb31  1  -0.00123669  0.74874790  0.25271842  1
  Te  Te32  1  0.25833126  0.25055946  0.24422874  1
  Te  Te33  1  0.25069936  0.25397750  0.75173112  1
  Te  Te34  1  0.25173098  0.74977206  0.25057264  1
  Te  Te35  1  0.25155742  0.74360727  0.74951993  1
  Te  Te36  1  0.74692220  0.25127405  0.25176175  1
  Te  Te37  1  0.74995817  0.25342802  0.74821339  1
  Te  Te38  1  0.74842607  0.74820232  0.25585184  1
  Te  Te39  1  0.74795077  0.74310535  0.74392745  1
  Te  Te40  1  0.25195305  -0.00042559  0.00016919  1
  Te  Te41  1  0.24341049  -0.00713153  0.49935723  1
  Te  Te42  1  0.24678726  0.49970871  -0.00079202  1
  Te  Te43  1  0.24373931  0.50305130  0.50151237  1
  Te  Te44  1  0.74743736  -0.00234936  0.00641999  1
  Te  Te45  1  0.75339044  0.00007115  0.49705567  1
  Te  Te46  1  0.75601335  0.50258256  -0.00108835  1
  Te  Te47  1  0.75162642  0.49928696  0.50064926  1
  Te  Te48  1  0.00439744  0.25215696  -0.00402565  1
  Te  Te49  1  -0.00176918  0.25209410  0.50235229  1
  Te  Te50  1  0.00655098  0.74704133  -0.00033917  1
  Te  Te51  1  -0.00079184  0.74917281  0.50049827  1
  Te  Te52  1  0.49778287  0.24752972  -0.00159040  1
  Te  Te53  1  0.50328205  0.24821495  0.50104411  1
  Te  Te54  1  0.49359269  0.75678866  -0.00032706  1
  Te  Te55  1  0.49858339  0.75193222  0.50026074  1
  Te  Te56  1  -0.00713322  0.00171222  0.25514613  1
  Te  Te57  1  -0.00122506  0.01047713  0.74567519  1
  Te  Te58  1  -0.00596738  0.49830893  0.25107240  1
  Te  Te59  1  -0.00027443  0.49673509  0.74892169  1
  Te  Te60  1  0.50504193  0.00571043  0.24692024  1
  Te  Te61  1  0.50084154  0.00855875  0.75561640  1
  Te  Te62  1  0.50757789  0.49312419  0.24878246  1
  Te  Te63  1  0.49940400  0.49299846  0.75116714  1
