# generated using pymatgen
data_AgSbTe2
_symmetry_space_group_name_H-M   'P 1'
_cell_length_a   12.21338507
_cell_length_b   12.22069448
_cell_length_c   12.21220370
_cell_angle_alpha   89.99964012
_cell_angle_beta   89.99938621
_cell_angle_gamma   90.00406276
_symmetry_Int_Tables_number   1
_chemical_formula_structural   AgSbTe2
_chemical_formula_sum   'Ag16 Sb16 Te32'
_cell_volume   1822.74525201
_cell_formula_units_Z   16
loop_
 _symmetry_equiv_pos_site_id
 _symmetry_equiv_pos_as_xyz
  1  'x, y, z'
loop_
 _atom_site_type_symbol
 _atom_site_label
 _atom_site_symmetry_multiplicity
 _atom_site_fract_x
 _atom_site_fract_y
 _atom_site_fract_z
 _atom_site_occupancy
  Ag  Ag0  1  0.24720541  0.25489954  0.00102402  1
  Ag  Ag1  1  0.49355892  0.74908388  0.24816516  1
  Ag  Ag2  1  0.75199350  0.50092829  0.75190369  1
  Ag  Ag3  1  0.49218348  0.50130240  0.00031482  1
  Ag  Ag4  1  0.24398281  0.74512307  -0.00294050  1
  Ag  Ag5  1  0.49751997  0.25077580  0.24887265  1
  Ag  Ag6  1  0.00620454  0.74907229  0.24222741  1
  Ag  Ag7  1  0.00631453  -0.00381591  0.00004856  1
  Ag  Ag8  1  0.24994045  0.75061398  0.50188496  1
  Ag  Ag9  1  0.00816222  0.50446071  -0.00232431  1
  Ag  Ag10  1  0.00759516  0.74691843  0.75699646  1
  Ag  Ag11  1  0.24810979  -0.00586248  0.75276473  1
  Ag  Ag12  1  0.24764365  0.50545477  0.75761812  1
  Ag  Ag13  1  0.74913576  0.25081652  0.49887259  1
  Ag  Ag14  1  0.00273951  0.25086447  0.24550489  1
  Ag  Ag15  1  0.49664106  -0.00062300  0.49887636  1
  Sb  Sb16  1  0.00208062  0.25279240  0.75526591  1
  Sb  Sb17  1  0.49077522  0.74825640  0.75308658  1
  Sb  Sb18  1  0.25047179  0.24931592  0.49857027  1
  Sb  Sb19  1  0.49875468  0.25131661  0.75169470  1
  Sb  Sb20  1  0.49731069  0.50077186  0.49810269  1
  Sb  Sb21  1  0.74855236  0.74898339  0.50153976  1
  Sb  Sb22  1  0.00223477  0.50072412  0.50260005  1
  Sb  Sb23  1  0.75222610  -0.00132351  0.74894296  1
  Sb  Sb24  1  0.24894310  0.50244649  0.24100858  1
  Sb  Sb25  1  0.49288006  -0.00089456  0.00061197  1
  Sb  Sb26  1  0.75204472  0.25298547  0.00105019  1
  Sb  Sb27  1  0.24956528  -0.00267182  0.24708497  1
  Sb  Sb28  1  0.75128478  0.49916824  0.24933380  1
  Sb  Sb29  1  0.75600399  0.74774396  -0.00085586  1
  Sb  Sb30  1  0.75033185  0.00071725  0.25101095  1
  Sb  Sb31  1  0.00360974  -0.00094049  0.50087436  1
  Te  Te32  1  0.24942180  0.24982487  0.24647836  1
  Te  Te33  1  0.24910112  0.25091353  0.75385788  1
  Te  Te34  1  0.24859009  0.75007126  0.24978881  1
  Te  Te35  1  0.24822760  0.74905292  0.75244738  1
  Te  Te36  1  0.74965673  0.25046460  0.25450439  1
  Te  Te37  1  0.75042762  0.25482851  0.74416044  1
  Te  Te38  1  0.75096937  0.74975953  0.25145697  1
  Te  Te39  1  0.75871775  0.74512498  0.74819079  1
  Te  Te40  1  0.24647918  -0.00046728  -0.00528744  1
  Te  Te41  1  0.25404049  -0.00259342  0.50786516  1
  Te  Te42  1  0.24913401  0.50094215  -0.00246696  1
  Te  Te43  1  0.25041232  0.50497105  0.51206662  1
  Te  Te44  1  0.75958160  0.00058389  -0.00230633  1
  Te  Te45  1  0.74268704  0.00517228  0.50184034  1
  Te  Te46  1  0.74921061  0.49925938  -0.00660886  1
  Te  Te47  1  0.74966286  0.49554833  0.50761729  1
  Te  Te48  1  0.00273544  0.25147626  0.00410566  1
  Te  Te49  1  -0.00177989  0.24874412  0.49012758  1
  Te  Te50  1  0.00160451  0.74757173  0.00201238  1
  Te  Te51  1  0.00468070  0.75114237  0.49664593  1
  Te  Te52  1  0.49656254  0.25073130  0.00566908  1
  Te  Te53  1  0.50030116  0.24808381  0.49337864  1
  Te  Te54  1  0.49566775  0.74857154  0.00471944  1
  Te  Te55  1  0.49664689  0.75189885  0.49388793  1
  Te  Te56  1  -0.00043003  -0.00141920  0.24541831  1
  Te  Te57  1  0.00369141  -0.00372089  0.75287063  1
  Te  Te58  1  -0.00129240  0.50133805  0.24401145  1
  Te  Te59  1  0.00271334  0.50225944  0.75329406  1
  Te  Te60  1  0.50038212  -0.00014378  0.25279688  1
  Te  Te61  1  0.49580906  -0.00050211  0.74651430  1
  Te  Te62  1  0.50153859  0.50021916  0.24486605  1
  Te  Te63  1  0.49884809  0.50088829  0.75634532  1
