# generated using pymatgen
data_AgSbTe2
_symmetry_space_group_name_H-M   'P 1'
_cell_length_a   12.22905194
_cell_length_b   12.23792400
_cell_length_c   12.22891979
_cell_angle_alpha   89.99403703
_cell_angle_beta   89.99623116
_cell_angle_gamma   89.98283355
_symmetry_Int_Tables_number   1
_chemical_formula_structural   AgSbTe2
_chemical_formula_sum   'Ag16 Sb16 Te32'
_cell_volume   1830.15812912
_cell_formula_units_Z   16
loop_
 _symmetry_equiv_pos_site_id
 _symmetry_equiv_pos_as_xyz
  1  'x, y, z'
loop_
 _atom_site_type_symbol
 _atom_site_label
 _atom_site_symmetry_multiplicity
 _atom_site_fract_x
 _atom_site_fract_y
 _atom_site_fract_z
 _atom_site_occupancy
  Ag  Ag0  1  0.74864095  0.25041769  0.50554266  1
  Ag  Ag1  1  0.49845172  0.50144794  -0.00377120  1
  Ag  Ag2  1  0.25175614  -0.00164337  0.73562904  1
  Ag  Ag3  1  0.25172501  0.23562489  0.50256097  1
  Ag  Ag4  1  0.74516020  0.49678024  0.74556836  1
  Ag  Ag5  1  0.25098677  -0.00174383  0.26530268  1
  Ag  Ag6  1  0.01419434  0.00255549  0.50212906  1
  Ag  Ag7  1  0.25394992  0.50238760  0.25625891  1
  Ag  Ag8  1  0.49753802  0.50467984  0.50362601  1
  Ag  Ag9  1  0.74107018  0.74930187  0.50478049  1
  Ag  Ag10  1  0.74829751  0.25311815  -0.00731258  1
  Ag  Ag11  1  0.25475573  0.74946940  -0.00172257  1
  Ag  Ag12  1  0.49671367  0.74777173  0.74258507  1
  Ag  Ag13  1  0.48622954  -0.00381656  0.50293415  1
  Ag  Ag14  1  -0.00100423  0.24889093  0.74469391  1
  Ag  Ag15  1  0.25708274  0.76342371  0.50243123  1
  Sb  Sb16  1  0.50118449  0.25165110  0.74654344  1
  Sb  Sb17  1  0.25425560  0.50151198  0.74476298  1
  Sb  Sb18  1  0.74456973  0.74686659  -0.00525044  1
  Sb  Sb19  1  0.74842191  0.00052375  0.25610994  1
  Sb  Sb20  1  0.00221445  0.24819058  0.25478359  1
  Sb  Sb21  1  0.00196423  0.49864405  -0.00282005  1
  Sb  Sb22  1  0.25120521  0.25073320  -0.00270033  1
  Sb  Sb23  1  0.00190858  0.49793851  0.50187531  1
  Sb  Sb24  1  0.00411387  0.75110698  0.25323663  1
  Sb  Sb25  1  0.74819756  0.00169868  0.74522094  1
  Sb  Sb26  1  0.00253698  0.75070253  0.74623175  1
  Sb  Sb27  1  0.00300499  0.00205855  -0.00238148  1
  Sb  Sb28  1  0.49610088  0.74969993  0.25863051  1
  Sb  Sb29  1  0.49659299  -0.00130472  -0.00306889  1
  Sb  Sb30  1  0.74599621  0.49914409  0.25401387  1
  Sb  Sb31  1  0.49848764  0.25033086  0.25371051  1
  Te  Te32  1  0.24880050  0.24913135  0.25286247  1
  Te  Te33  1  0.24687838  0.24798660  0.74742640  1
  Te  Te34  1  0.25014635  0.75049263  0.25142006  1
  Te  Te35  1  0.25156385  0.75066113  0.74708813  1
  Te  Te36  1  0.75131025  0.25048848  0.25334584  1
  Te  Te37  1  0.75110002  0.25099698  0.74541754  1
  Te  Te38  1  0.75259214  0.74993520  0.25687709  1
  Te  Te39  1  0.74739298  0.74752809  0.74606578  1
  Te  Te40  1  0.25099603  -0.00277511  0.00021201  1
  Te  Te41  1  0.25239481  0.00119304  0.50185556  1
  Te  Te42  1  0.25392385  0.50175373  0.00110209  1
  Te  Te43  1  0.25258533  0.50042299  0.49998413  1
  Te  Te44  1  0.74974380  0.00511661  0.00297855  1
  Te  Te45  1  0.74757977  0.00146559  0.49896811  1
  Te  Te46  1  0.74595609  0.49841702  -0.00010279  1
  Te  Te47  1  0.74839838  0.49877130  0.50019229  1
  Te  Te48  1  -0.00583127  0.24976622  -0.00736047  1
  Te  Te49  1  -0.00049841  0.24760333  0.50377996  1
  Te  Te50  1  0.00693694  0.75070081  -0.00032923  1
  Te  Te51  1  0.00110847  0.75523702  0.50161921  1
  Te  Te52  1  0.50544313  0.25444854  -0.00046830  1
  Te  Te53  1  0.49978821  0.25110807  0.50049743  1
  Te  Te54  1  0.49731568  0.74724375  -0.00711360  1
  Te  Te55  1  0.49887061  0.74840530  0.50263601  1
  Te  Te56  1  0.00628955  0.00031317  0.25564619  1
  Te  Te57  1  0.00359865  0.00342806  0.74654598  1
  Te  Te58  1  0.01053672  0.49981467  0.24893220  1
  Te  Te59  1  -0.00955635  0.49456868  0.75014161  1
  Te  Te60  1  0.49385334  -0.00011014  0.25557603  1
  Te  Te61  1  0.49647780  -0.00573456  0.74617557  1
  Te  Te62  1  0.49465247  0.50013821  0.25109400  1
  Te  Te63  1  0.50334836  0.50332078  0.74679967  1
