# generated using pymatgen
data_AgSbTe2
_symmetry_space_group_name_H-M   'P 1'
_cell_length_a   12.31217807
_cell_length_b   12.31552206
_cell_length_c   12.28685933
_cell_angle_alpha   90.01181433
_cell_angle_beta   90.00861397
_cell_angle_gamma   89.99894674
_symmetry_Int_Tables_number   1
_chemical_formula_structural   AgSbTe2
_chemical_formula_sum   'Ag16 Sb16 Te32'
_cell_volume   1863.06748325
_cell_formula_units_Z   16
loop_
 _symmetry_equiv_pos_site_id
 _symmetry_equiv_pos_as_xyz
  1  'x, y, z'
loop_
 _atom_site_type_symbol
 _atom_site_label
 _atom_site_symmetry_multiplicity
 _atom_site_fract_x
 _atom_site_fract_y
 _atom_site_fract_z
 _atom_site_occupancy
  Ag  Ag0  1  0.24481909  0.00673151  0.25256545  1
  Ag  Ag1  1  0.24746457  0.25789089  0.48826186  1
  Ag  Ag2  1  0.48915767  0.74384873  0.25586453  1
  Ag  Ag3  1  0.24581616  0.25216703  0.01197835  1
  Ag  Ag4  1  0.01245698  0.49989325  0.49051639  1
  Ag  Ag5  1  0.75770821  0.25189631  0.01149450  1
  Ag  Ag6  1  0.75997885  0.49613340  0.25251800  1
  Ag  Ag7  1  0.48487750  0.74443623  0.74449627  1
  Ag  Ag8  1  0.01093519  0.26111786  0.25134893  1
  Ag  Ag9  1  0.00739105  0.74019662  0.25513018  1
  Ag  Ag10  1  0.24197989  0.49324384  0.26206791  1
  Ag  Ag11  1  0.24916535  -0.00510039  0.74715171  1
  Ag  Ag12  1  0.24727103  0.50520030  0.73842933  1
  Ag  Ag13  1  0.48586911  0.50199435  0.49381873  1
  Ag  Ag14  1  0.01439551  0.74341400  0.74418452  1
  Ag  Ag15  1  0.75600396  0.00398182  0.24796864  1
  Sb  Sb16  1  0.00199352  0.49879330  0.00616691  1
  Sb  Sb17  1  0.49459100  0.25496030  0.74894601  1
  Sb  Sb18  1  0.24992098  0.74450615  0.49694048  1
  Sb  Sb19  1  0.49377090  -0.00306514  0.49640844  1
  Sb  Sb20  1  0.00211416  0.00091159  0.00221654  1
  Sb  Sb21  1  0.00461360  -0.00150597  0.49701815  1
  Sb  Sb22  1  0.75076404  0.50043159  0.74855201  1
  Sb  Sb23  1  0.75081993  0.74900338  0.49839782  1
  Sb  Sb24  1  0.00571295  0.25562725  0.74677792  1
  Sb  Sb25  1  0.24986059  0.74662331  0.00270761  1
  Sb  Sb26  1  0.74991716  0.74763665  0.00544408  1
  Sb  Sb27  1  0.49719108  0.49959010  0.00461547  1
  Sb  Sb28  1  0.75412263  0.25393257  0.49287145  1
  Sb  Sb29  1  0.49544867  0.25475915  0.25143938  1
  Sb  Sb30  1  0.49764490  0.00068647  0.00350505  1
  Sb  Sb31  1  0.75035193  -0.00117379  0.75311894  1
  Te  Te32  1  0.25030100  0.25097477  0.25007873  1
  Te  Te33  1  0.24874709  0.25083193  0.75238625  1
  Te  Te34  1  0.24745438  0.75012387  0.24992732  1
  Te  Te35  1  0.24836673  0.74818180  0.75145817  1
  Te  Te36  1  0.74891301  0.25148370  0.24909671  1
  Te  Te37  1  0.75002928  0.24594312  0.76061747  1
  Te  Te38  1  0.75629076  0.74822414  0.25000751  1
  Te  Te39  1  0.75211313  0.75265606  0.75192659  1
  Te  Te40  1  0.24961987  0.00770863  0.00228167  1
  Te  Te41  1  0.24981721  0.01436713  0.49706311  1
  Te  Te42  1  0.24982826  0.49602509  -0.00396910  1
  Te  Te43  1  0.24827639  0.50025209  0.50019041  1
  Te  Te44  1  0.75020172  0.00731253  0.00721013  1
  Te  Te45  1  0.74867671  0.00152191  0.49085909  1
  Te  Te46  1  0.75000212  0.49573758  0.00624053  1
  Te  Te47  1  0.75126064  0.50073302  0.49616515  1
  Te  Te48  1  0.00324952  0.24988032  0.00670979  1
  Te  Te49  1  0.00183243  0.25510869  0.49571308  1
  Te  Te50  1  0.00097541  0.74998362  0.00034231  1
  Te  Te51  1  0.00083702  0.74502582  0.49591115  1
  Te  Te52  1  0.49521657  0.24946187  -0.00065730  1
  Te  Te53  1  0.49495651  0.25959154  0.50078675  1
  Te  Te54  1  0.49951179  0.75051269  -0.00174371  1
  Te  Te55  1  0.49857884  0.74477286  0.49769000  1
  Te  Te56  1  0.00673935  -0.00551090  0.25054787  1
  Te  Te57  1  0.00349180  -0.00966458  0.74886001  1
  Te  Te58  1  0.00469014  0.50103308  0.24950818  1
  Te  Te59  1  -0.00075431  0.50345989  0.74487237  1
  Te  Te60  1  0.49318660  -0.01184274  0.25124322  1
  Te  Te61  1  0.49704441  -0.00953985  0.74846525  1
  Te  Te62  1  0.49354447  0.50352276  0.25085714  1
  Te  Te63  1  0.50287301  0.50336489  0.74643262  1
