# generated using pymatgen
data_AgSbTe2
_symmetry_space_group_name_H-M   'P 1'
_cell_length_a   12.21994919
_cell_length_b   12.21216892
_cell_length_c   12.21977899
_cell_angle_alpha   90.00450709
_cell_angle_beta   90.00054811
_cell_angle_gamma   90.00124062
_symmetry_Int_Tables_number   1
_chemical_formula_structural   AgSbTe2
_chemical_formula_sum   'Ag16 Sb16 Te32'
_cell_volume   1823.58307477
_cell_formula_units_Z   16
loop_
 _symmetry_equiv_pos_site_id
 _symmetry_equiv_pos_as_xyz
  1  'x, y, z'
loop_
 _atom_site_type_symbol
 _atom_site_label
 _atom_site_symmetry_multiplicity
 _atom_site_fract_x
 _atom_site_fract_y
 _atom_site_fract_z
 _atom_site_occupancy
  Ag  Ag0  1  0.00215730  0.25701691  0.75174267  1
  Ag  Ag1  1  0.50212010  0.75014964  0.24512642  1
  Ag  Ag2  1  0.75071651  0.74865767  -0.00005837  1
  Ag  Ag3  1  -0.00216723  0.74770357  0.24530167  1
  Ag  Ag4  1  0.00174186  0.49680095  0.50339644  1
  Ag  Ag5  1  0.00239831  0.25342053  0.24837269  1
  Ag  Ag6  1  0.50262536  0.74806231  0.75569758  1
  Ag  Ag7  1  0.24554379  0.25450040  0.49912243  1
  Ag  Ag8  1  0.24846202  0.74475245  0.00010060  1
  Ag  Ag9  1  0.24537667  0.25573572  0.00032527  1
  Ag  Ag10  1  0.24311333  0.49811240  0.75342712  1
  Ag  Ag11  1  0.75168029  -0.00280801  0.75316772  1
  Ag  Ag12  1  0.49839520  0.25017559  0.24840460  1
  Ag  Ag13  1  0.75093267  -0.00257670  0.24680124  1
  Ag  Ag14  1  0.00236852  0.49966775  -0.00329522  1
  Ag  Ag15  1  0.75638814  0.50209120  0.75300275  1
  Sb  Sb16  1  0.75152167  0.74809424  0.50034550  1
  Sb  Sb17  1  0.49776092  0.49851187  0.50063510  1
  Sb  Sb18  1  0.24721065  0.74388408  0.50116330  1
  Sb  Sb19  1  0.24906604  0.00130813  0.24886318  1
  Sb  Sb20  1  0.50077951  0.00083487  0.49947478  1
  Sb  Sb21  1  -0.00079377  0.00321758  0.50044973  1
  Sb  Sb22  1  0.24740920  -0.00001274  0.75155900  1
  Sb  Sb23  1  -0.00281910  0.74171308  0.75702782  1
  Sb  Sb24  1  0.50221026  -0.00187615  0.00046081  1
  Sb  Sb25  1  0.24639249  0.49902705  0.24528357  1
  Sb  Sb26  1  0.75458801  0.25247377  0.49932548  1
  Sb  Sb27  1  0.75532464  0.25366518  0.00092356  1
  Sb  Sb28  1  -0.00177036  -0.00026248  -0.00001908  1
  Sb  Sb29  1  0.49794792  0.25070360  0.75235130  1
  Sb  Sb30  1  0.49687461  0.50186181  -0.00076753  1
  Sb  Sb31  1  0.75387439  0.50358301  0.24556433  1
  Te  Te32  1  0.24747186  0.24953176  0.24701815  1
  Te  Te33  1  0.24971151  0.25087471  0.75369219  1
  Te  Te34  1  0.25148059  0.75050453  0.24564981  1
  Te  Te35  1  0.25303430  0.74910917  0.75303997  1
  Te  Te36  1  0.75048502  0.24619150  0.24835884  1
  Te  Te37  1  0.75080662  0.25028425  0.75100790  1
  Te  Te38  1  0.74922856  0.75122399  0.24750411  1
  Te  Te39  1  0.74885576  0.74996540  0.75239910  1
  Te  Te40  1  0.24935289  -0.00156398  -0.00069433  1
  Te  Te41  1  0.24959067  0.01088132  0.50066506  1
  Te  Te42  1  0.24588296  0.50083227  -0.00345489  1
  Te  Te43  1  0.24486863  0.49530719  0.50752379  1
  Te  Te44  1  0.75065027  -0.00725320  -0.00050269  1
  Te  Te45  1  0.75056463  0.00038633  0.50110875  1
  Te  Te46  1  0.75630615  0.50454228  -0.00501553  1
  Te  Te47  1  0.75737664  0.49942252  0.50979651  1
  Te  Te48  1  0.00240027  0.25358408  0.00150729  1
  Te  Te49  1  0.00331194  0.25370314  0.49796313  1
  Te  Te50  1  0.00137696  0.74668222  0.00312336  1
  Te  Te51  1  0.00265250  0.74334923  0.48934893  1
  Te  Te52  1  0.49201827  0.25157312  0.00620509  1
  Te  Te53  1  0.49199881  0.25116153  0.49256273  1
  Te  Te54  1  0.49933506  0.74870823  0.00220817  1
  Te  Te55  1  0.49780533  0.74929907  0.49585981  1
  Te  Te56  1  -0.00555601  0.00057519  0.25050832  1
  Te  Te57  1  -0.00582093  0.00861061  0.74863241  1
  Te  Te58  1  -0.00068294  0.49770626  0.24878557  1
  Te  Te59  1  0.00079224  0.49863030  0.75171177  1
  Te  Te60  1  0.50664387  -0.00199120  0.25035702  1
  Te  Te61  1  0.50785006  -0.00532655  0.74942417  1
  Te  Te62  1  0.50172499  0.50128455  0.25103309  1
  Te  Te63  1  0.50105260  0.50402090  0.74939595  1
