# generated using pymatgen
data_AgSbTe2
_symmetry_space_group_name_H-M   'P 1'
_cell_length_a   12.28278124
_cell_length_b   12.28105899
_cell_length_c   12.29016028
_cell_angle_alpha   89.99769729
_cell_angle_beta   90.00641154
_cell_angle_gamma   89.99058103
_symmetry_Int_Tables_number   1
_chemical_formula_structural   AgSbTe2
_chemical_formula_sum   'Ag16 Sb16 Te32'
_cell_volume   1853.91608437
_cell_formula_units_Z   16
loop_
 _symmetry_equiv_pos_site_id
 _symmetry_equiv_pos_as_xyz
  1  'x, y, z'
loop_
 _atom_site_type_symbol
 _atom_site_label
 _atom_site_symmetry_multiplicity
 _atom_site_fract_x
 _atom_site_fract_y
 _atom_site_fract_z
 _atom_site_occupancy
  Ag  Ag0  1  0.25715010  0.23979194  0.49473556  1
  Ag  Ag1  1  0.74120712  0.25029028  0.50064942  1
  Ag  Ag2  1  0.01756392  0.00562952  0.00256727  1
  Ag  Ag3  1  0.48611984  0.75966001  0.25364442  1
  Ag  Ag4  1  0.25663207  0.76113029  0.49021389  1
  Ag  Ag5  1  0.74873182  0.49225713  0.74361585  1
  Ag  Ag6  1  0.24865874  0.23404557  0.00313431  1
  Ag  Ag7  1  0.01384665  0.75795498  0.24771300  1
  Ag  Ag8  1  0.00620478  0.24535251  0.74880998  1
  Ag  Ag9  1  0.48846930  0.24175198  0.25941364  1
  Ag  Ag10  1  0.48962221  0.00761863  0.49207158  1
  Ag  Ag11  1  0.48522661  0.00367628  0.00404471  1
  Ag  Ag12  1  0.01173085  0.24330906  0.25005067  1
  Ag  Ag13  1  0.49857673  0.48962669  0.49789448  1
  Ag  Ag14  1  0.25126614  0.76638524  0.00925606  1
  Ag  Ag15  1  0.25048260  0.00581843  0.75581079  1
  Sb  Sb16  1  0.25348943  0.00211567  0.24272138  1
  Sb  Sb17  1  0.74452413  0.75154679  0.49877474  1
  Sb  Sb18  1  0.24960823  0.49913587  0.25251268  1
  Sb  Sb19  1  0.00495464  0.75541845  0.75268479  1
  Sb  Sb20  1  0.74856555  0.24767081  -0.00136888  1
  Sb  Sb21  1  0.49476699  0.24722262  0.74353602  1
  Sb  Sb22  1  0.00028155  0.49905881  0.50095867  1
  Sb  Sb23  1  0.00126424  0.49765122  -0.00045394  1
  Sb  Sb24  1  0.74784537  0.75275161  0.00123374  1
  Sb  Sb25  1  0.74831111  0.49658570  0.25341511  1
  Sb  Sb26  1  0.01367998  0.00258302  0.49524989  1
  Sb  Sb27  1  0.49661041  0.75208489  0.74759367  1
  Sb  Sb28  1  0.75197231  0.00343503  0.74671007  1
  Sb  Sb29  1  0.74837999  0.00119939  0.25343553  1
  Sb  Sb30  1  0.49818377  0.49754141  0.00202849  1
  Sb  Sb31  1  0.24906486  0.49480051  0.74851949  1
  Te  Te32  1  0.24980823  0.24964224  0.25203859  1
  Te  Te33  1  0.24747545  0.24502071  0.75047838  1
  Te  Te34  1  0.25041311  0.74884642  0.25144114  1
  Te  Te35  1  0.24893505  0.75671672  0.74998596  1
  Te  Te36  1  0.75144888  0.25008354  0.25698208  1
  Te  Te37  1  0.75734197  0.25016136  0.74697880  1
  Te  Te38  1  0.75291873  0.74938590  0.25055640  1
  Te  Te39  1  0.75252889  0.74237649  0.74856048  1
  Te  Te40  1  0.25196979  0.00232053  -0.00051465  1
  Te  Te41  1  0.25285073  0.00172402  0.50619800  1
  Te  Te42  1  0.25088360  0.50123921  -0.00398395  1
  Te  Te43  1  0.25684501  0.49992379  0.50030074  1
  Te  Te44  1  0.74416350  -0.00101183  -0.00302281  1
  Te  Te45  1  0.73390912  0.00518080  0.50132807  1
  Te  Te46  1  0.74934285  0.50072896  -0.01222058  1
  Te  Te47  1  0.74528943  0.49676132  0.50284414  1
  Te  Te48  1  0.00048662  0.24865682  0.00837360  1
  Te  Te49  1  0.00786433  0.24839391  0.49207332  1
  Te  Te50  1  0.00262961  0.75220205  0.00396352  1
  Te  Te51  1  0.00567918  0.75042940  0.49242375  1
  Te  Te52  1  0.49866826  0.24956035  0.00653493  1
  Te  Te53  1  0.49378193  0.24662006  0.49898884  1
  Te  Te54  1  0.49789735  0.74945230  0.00606220  1
  Te  Te55  1  0.49772283  0.75586273  0.49737281  1
  Te  Te56  1  -0.00353336  0.00289168  0.24664156  1
  Te  Te57  1  0.00236867  0.00443963  0.75411677  1
  Te  Te58  1  -0.00008303  0.49740494  0.25046856  1
  Te  Te59  1  -0.00154865  0.49017865  0.74836807  1
  Te  Te60  1  0.50061274  0.00168200  0.24994989  1
  Te  Te61  1  0.49665142  0.00090393  0.75641569  1
  Te  Te62  1  0.49958243  0.49787411  0.25419252  1
  Te  Te63  1  0.50210329  0.49924697  0.74492611  1
