# generated using pymatgen
data_AgSbTe2
_symmetry_space_group_name_H-M   'P 1'
_cell_length_a   12.20324477
_cell_length_b   12.20348144
_cell_length_c   12.20292647
_cell_angle_alpha   89.99146320
_cell_angle_beta   89.99901024
_cell_angle_gamma   89.99217488
_symmetry_Int_Tables_number   1
_chemical_formula_structural   AgSbTe2
_chemical_formula_sum   'Ag16 Sb16 Te32'
_cell_volume   1817.28504536
_cell_formula_units_Z   16
loop_
 _symmetry_equiv_pos_site_id
 _symmetry_equiv_pos_as_xyz
  1  'x, y, z'
loop_
 _atom_site_type_symbol
 _atom_site_label
 _atom_site_symmetry_multiplicity
 _atom_site_fract_x
 _atom_site_fract_y
 _atom_site_fract_z
 _atom_site_occupancy
  Ag  Ag0  1  0.74860651  0.49257107  0.25003321  1
  Ag  Ag1  1  0.24963532  0.75058770  -0.00352335  1
  Ag  Ag2  1  0.00305919  0.75617212  0.75034222  1
  Ag  Ag3  1  -0.00106528  0.24465228  0.74781780  1
  Ag  Ag4  1  0.49712431  0.75244590  0.75121969  1
  Ag  Ag5  1  0.50643619  0.25129900  0.24995237  1
  Ag  Ag6  1  0.75060311  0.24918639  0.00521861  1
  Ag  Ag7  1  0.75009789  0.00749381  0.25206958  1
  Ag  Ag8  1  0.75261211  0.24718363  0.49500730  1
  Ag  Ag9  1  0.25056195  0.49880272  0.24878796  1
  Ag  Ag10  1  0.24495718  -0.00273064  0.75044148  1
  Ag  Ag11  1  0.50274407  0.00180023  0.50052284  1
  Ag  Ag12  1  -0.00074570  0.00087048  -0.00480831  1
  Ag  Ag13  1  -0.00303777  0.00327445  0.50553924  1
  Ag  Ag14  1  -0.00201113  0.49753194  0.49979602  1
  Ag  Ag15  1  0.50055217  0.49939776  0.00289478  1
  Sb  Sb16  1  0.25005974  0.00190257  0.24971932  1
  Sb  Sb17  1  0.50257342  0.49806819  0.49679835  1
  Sb  Sb18  1  -0.00115419  0.49901242  0.00076382  1
  Sb  Sb19  1  0.50185846  0.00042703  -0.00124334  1
  Sb  Sb20  1  0.24899961  0.50298871  0.75192184  1
  Sb  Sb21  1  0.24571428  0.24983804  0.49947626  1
  Sb  Sb22  1  0.75735685  0.00164199  0.74730483  1
  Sb  Sb23  1  -0.00945738  0.24971389  0.25280567  1
  Sb  Sb24  1  0.75091599  0.75366125  0.49955366  1
  Sb  Sb25  1  0.00143216  0.75058767  0.24968761  1
  Sb  Sb26  1  0.24791800  0.24970348  0.00096856  1
  Sb  Sb27  1  0.75058861  0.49792210  0.74948474  1
  Sb  Sb28  1  0.50075027  0.24686848  0.74982451  1
  Sb  Sb29  1  0.24926422  0.75053587  0.50465141  1
  Sb  Sb30  1  0.75132450  0.75157346  0.00010039  1
  Sb  Sb31  1  0.49865699  0.74875242  0.24855665  1
  Te  Te32  1  0.25973618  0.25509397  0.24911038  1
  Te  Te33  1  0.24426482  0.24360286  0.75057743  1
  Te  Te34  1  0.25056278  0.74430433  0.24169591  1
  Te  Te35  1  0.24854391  0.75337644  0.75376366  1
  Te  Te36  1  0.74875751  0.25002912  0.25004581  1
  Te  Te37  1  0.75455609  0.25065400  0.75007354  1
  Te  Te38  1  0.74942909  0.74916635  0.24912028  1
  Te  Te39  1  0.75022403  0.74940276  0.75093594  1
  Te  Te40  1  0.24568992  -0.00378620  -0.00198024  1
  Te  Te41  1  0.24813579  -0.00012830  0.50215074  1
  Te  Te42  1  0.25253729  0.50343738  0.00373142  1
  Te  Te43  1  0.24483106  0.50031318  0.49372707  1
  Te  Te44  1  0.75350507  0.00368719  0.00639837  1
  Te  Te45  1  0.75192720  0.00324632  0.49588861  1
  Te  Te46  1  0.74739555  0.49565830  0.00623551  1
  Te  Te47  1  0.75353462  0.49475822  0.49407171  1
  Te  Te48  1  -0.00388629  0.24690939  -0.00483201  1
  Te  Te49  1  -0.00365794  0.24778354  0.50269159  1
  Te  Te50  1  0.00279413  0.75313097  -0.00617383  1
  Te  Te51  1  0.00023205  0.75136909  0.50662982  1
  Te  Te52  1  0.50508752  0.25305721  0.00162703  1
  Te  Te53  1  0.50595771  0.24625690  0.49835221  1
  Te  Te54  1  0.49678460  0.74720500  -0.00448005  1
  Te  Te55  1  0.49985207  0.75551768  0.50679589  1
  Te  Te56  1  -0.00267941  -0.00044992  0.25120200  1
  Te  Te57  1  0.00026493  -0.00073230  0.74845923  1
  Te  Te58  1  -0.00064629  0.50015779  0.25418267  1
  Te  Te59  1  0.00143493  0.50013447  0.74507699  1
  Te  Te60  1  0.50232907  0.00306419  0.25356316  1
  Te  Te61  1  0.49485494  -0.00258401  0.74703526  1
  Te  Te62  1  0.50200423  0.49810871  0.24857467  1
  Te  Te63  1  0.49871120  0.50451899  0.75406353  1
