# generated using pymatgen
data_AgSbTe2
_symmetry_space_group_name_H-M   'P 1'
_cell_length_a   12.21256659
_cell_length_b   12.21951331
_cell_length_c   12.21102855
_cell_angle_alpha   89.99468871
_cell_angle_beta   89.99478994
_cell_angle_gamma   89.99971335
_symmetry_Int_Tables_number   1
_chemical_formula_structural   AgSbTe2
_chemical_formula_sum   'Ag16 Sb16 Te32'
_cell_volume   1822.27155717
_cell_formula_units_Z   16
loop_
 _symmetry_equiv_pos_site_id
 _symmetry_equiv_pos_as_xyz
  1  'x, y, z'
loop_
 _atom_site_type_symbol
 _atom_site_label
 _atom_site_symmetry_multiplicity
 _atom_site_fract_x
 _atom_site_fract_y
 _atom_site_fract_z
 _atom_site_occupancy
  Ag  Ag0  1  0.49572960  -0.00014016  -0.00497662  1
  Ag  Ag1  1  0.25635203  0.00201803  0.75197674  1
  Ag  Ag2  1  0.49678344  0.24531666  0.75257491  1
  Ag  Ag3  1  0.74847656  0.50107401  0.25153979  1
  Ag  Ag4  1  0.25178287  0.50053954  0.25065946  1
  Ag  Ag5  1  0.49529903  0.25210206  0.24740089  1
  Ag  Ag6  1  0.74253456  0.00018721  0.74953304  1
  Ag  Ag7  1  0.25114033  0.24961729  0.49968971  1
  Ag  Ag8  1  0.25632927  0.24785193  0.00039655  1
  Ag  Ag9  1  0.49850079  0.75518240  0.75408472  1
  Ag  Ag10  1  0.25523444  0.75184815  0.00269392  1
  Ag  Ag11  1  0.49565119  0.74760355  0.24601478  1
  Ag  Ag12  1  0.74716475  0.49976300  0.74872873  1
  Ag  Ag13  1  0.00282629  0.00014497  0.50058321  1
  Ag  Ag14  1  0.00110907  0.50023789  0.49633077  1
  Ag  Ag15  1  0.00316913  0.74652980  0.25114250  1
  Sb  Sb16  1  0.25171057  -0.00023203  0.24870272  1
  Sb  Sb17  1  0.74362898  0.75089937  -0.00025556  1
  Sb  Sb18  1  0.75068257  0.74920511  0.50017686  1
  Sb  Sb19  1  0.49854154  0.50041620  0.00141939  1
  Sb  Sb20  1  0.00458955  0.25284706  0.25225404  1
  Sb  Sb21  1  0.74310172  0.24886065  -0.00052082  1
  Sb  Sb22  1  0.00385879  -0.00197487  -0.00026549  1
  Sb  Sb23  1  0.24901161  0.75046823  0.49754945  1
  Sb  Sb24  1  0.25242729  0.49912005  0.74850952  1
  Sb  Sb25  1  0.00364906  0.24966978  0.74867406  1
  Sb  Sb26  1  0.74857906  0.25069882  0.50057373  1
  Sb  Sb27  1  0.49868546  0.49856094  0.49784365  1
  Sb  Sb28  1  0.74751431  -0.00071672  0.25140775  1
  Sb  Sb29  1  0.00169983  0.74990280  0.75012655  1
  Sb  Sb30  1  0.49677476  0.00181881  0.50658633  1
  Sb  Sb31  1  0.00169540  0.50156187  0.00330423  1
  Te  Te32  1  0.25386632  0.25138511  0.24977317  1
  Te  Te33  1  0.25397340  0.24962813  0.75068788  1
  Te  Te34  1  0.25402558  0.74860335  0.24825385  1
  Te  Te35  1  0.25404278  0.75056887  0.75338764  1
  Te  Te36  1  0.74246496  0.25607862  0.24955005  1
  Te  Te37  1  0.74325325  0.25089460  0.75023758  1
  Te  Te38  1  0.74716294  0.74476691  0.24936159  1
  Te  Te39  1  0.74513981  0.74931930  0.75079595  1
  Te  Te40  1  0.25294417  0.00041980  -0.00317930  1
  Te  Te41  1  0.24624719  0.00412040  0.50485873  1
  Te  Te42  1  0.24890504  0.49980526  0.00432428  1
  Te  Te43  1  0.24506276  0.49580722  0.49643055  1
  Te  Te44  1  0.74526433  0.00070728  -0.00715029  1
  Te  Te45  1  0.75773333  0.00163485  0.50659400  1
  Te  Te46  1  0.75178050  0.49961408  -0.00059615  1
  Te  Te47  1  0.75670612  0.49894354  0.49942621  1
  Te  Te48  1  0.01138115  0.24919808  0.00068417  1
  Te  Te49  1  0.00675705  0.24968485  0.49919212  1
  Te  Te50  1  0.00940162  0.75105837  0.00656192  1
  Te  Te51  1  0.00073120  0.74935668  0.49481499  1
  Te  Te52  1  0.49500904  0.24661254  -0.00018681  1
  Te  Te53  1  0.49328587  0.24925047  0.49937461  1
  Te  Te54  1  0.49523825  0.75307808  0.00075277  1
  Te  Te55  1  0.49915844  0.75051944  0.49819667  1
  Te  Te56  1  -0.00222278  -0.00510647  0.25475047  1
  Te  Te57  1  0.00004139  -0.00125062  0.74648725  1
  Te  Te58  1  -0.00017798  0.50276169  0.25283946  1
  Te  Te59  1  -0.00712982  0.50144289  0.74383211  1
  Te  Te60  1  0.50239584  -0.00104068  0.24582154  1
  Te  Te61  1  0.49911758  -0.00024481  0.75005365  1
  Te  Te62  1  0.49951472  0.50116120  0.25119568  1
  Te  Te63  1  0.50469210  0.50023857  0.74841414  1
