# generated using pymatgen
data_AgSbTe2
_symmetry_space_group_name_H-M   'P 1'
_cell_length_a   12.21415527
_cell_length_b   12.21433776
_cell_length_c   12.21932696
_cell_angle_alpha   89.99942326
_cell_angle_beta   89.99704512
_cell_angle_gamma   89.99715917
_symmetry_Int_Tables_number   1
_chemical_formula_structural   AgSbTe2
_chemical_formula_sum   'Ag16 Sb16 Te32'
_cell_volume   1822.97472089
_cell_formula_units_Z   16
loop_
 _symmetry_equiv_pos_site_id
 _symmetry_equiv_pos_as_xyz
  1  'x, y, z'
loop_
 _atom_site_type_symbol
 _atom_site_label
 _atom_site_symmetry_multiplicity
 _atom_site_fract_x
 _atom_site_fract_y
 _atom_site_fract_z
 _atom_site_occupancy
  Ag  Ag0  1  0.24088299  0.49786879  0.24602798  1
  Ag  Ag1  1  0.50161036  0.49951582  0.50137669  1
  Ag  Ag2  1  -0.00209126  0.00317557  0.50023801  1
  Ag  Ag3  1  0.50176547  -0.00050521  -0.00147530  1
  Ag  Ag4  1  -0.00070156  0.74397418  0.75455408  1
  Ag  Ag5  1  0.24175172  0.25557710  0.00014411  1
  Ag  Ag6  1  0.24488327  0.49933200  0.75310915  1
  Ag  Ag7  1  0.75861649  0.49721544  0.24620188  1
  Ag  Ag8  1  0.50081883  0.74620498  0.75300569  1
  Ag  Ag9  1  -0.00035565  0.25543636  0.75496475  1
  Ag  Ag10  1  -0.00268899  0.25852372  0.24475713  1
  Ag  Ag11  1  0.75809117  0.25514166  0.00228413  1
  Ag  Ag12  1  0.75552081  0.25377755  0.49844446  1
  Ag  Ag13  1  0.75459491  0.74603228  -0.00001307  1
  Ag  Ag14  1  -0.00076900  0.49587344  0.00357486  1
  Ag  Ag15  1  -0.00215364  0.74097309  0.24534972  1
  Sb  Sb16  1  0.24455930  0.25391756  0.49927694  1
  Sb  Sb17  1  0.24772593  0.00138509  0.75248083  1
  Sb  Sb18  1  0.75282919  0.74589311  0.49846754  1
  Sb  Sb19  1  -0.00116288  0.00338667  -0.00064188  1
  Sb  Sb20  1  0.24768111  0.74642352  0.50026775  1
  Sb  Sb21  1  -0.00259434  0.49739471  0.49680975  1
  Sb  Sb22  1  0.50084762  0.50067619  -0.00181676  1
  Sb  Sb23  1  0.24591210  0.00268814  0.24691572  1
  Sb  Sb24  1  0.49938031  0.25394403  0.75184616  1
  Sb  Sb25  1  0.50276815  0.25335794  0.24881231  1
  Sb  Sb26  1  0.75317974  0.00330932  0.24848617  1
  Sb  Sb27  1  0.50229311  0.74567849  0.24712491  1
  Sb  Sb28  1  0.75134256  0.00018547  0.75124280  1
  Sb  Sb29  1  0.24486817  0.74473704  -0.00047704  1
  Sb  Sb30  1  0.75583664  0.49963975  0.75394969  1
  Sb  Sb31  1  0.50267642  0.00048721  0.50210106  1
  Te  Te32  1  0.24538190  0.25529279  0.24657132  1
  Te  Te33  1  0.24578249  0.25560184  0.75348140  1
  Te  Te34  1  0.24393986  0.74280165  0.24966070  1
  Te  Te35  1  0.24623006  0.74377249  0.75044480  1
  Te  Te36  1  0.75288922  0.25350198  0.24650910  1
  Te  Te37  1  0.75507311  0.25055244  0.75251893  1
  Te  Te38  1  0.75408066  0.74488221  0.24624601  1
  Te  Te39  1  0.75355587  0.74948297  0.75459746  1
  Te  Te40  1  0.25617550  0.00883065  0.00045376  1
  Te  Te41  1  0.24543904  0.00117274  0.49957798  1
  Te  Te42  1  0.24804558  0.49628137  0.00060694  1
  Te  Te43  1  0.25654828  0.49827121  0.49998279  1
  Te  Te44  1  0.74595892  0.00046803  0.00069895  1
  Te  Te45  1  0.75342556  0.00830482  0.49929920  1
  Te  Te46  1  0.75213774  0.49837278  0.00283759  1
  Te  Te47  1  0.74627408  0.49530830  0.49507578  1
  Te  Te48  1  -0.00240944  0.24853253  -0.00007643  1
  Te  Te49  1  -0.00376776  0.24847936  0.50057824  1
  Te  Te50  1  -0.00224744  0.75094463  -0.00113544  1
  Te  Te51  1  -0.00234791  0.75454963  0.50203536  1
  Te  Te52  1  0.50318380  0.24726997  -0.00163334  1
  Te  Te53  1  0.50728182  0.25148323  0.50093057  1
  Te  Te54  1  0.50409417  0.75183992  -0.00384142  1
  Te  Te55  1  0.50157949  0.74855109  0.50589191  1
  Te  Te56  1  0.00107906  -0.00046512  0.25429261  1
  Te  Te57  1  0.00123638  -0.00093389  0.74603990  1
  Te  Te58  1  -0.00027413  0.49912602  0.25095727  1
  Te  Te59  1  0.00204128  0.50039985  0.75020092  1
  Te  Te60  1  0.49852797  -0.00163864  0.24584034  1
  Te  Te61  1  0.49871412  -0.00776854  0.75247726  1
  Te  Te62  1  0.49910911  0.50148943  0.25457146  1
  Te  Te63  1  0.49534253  0.50402125  0.74691783  1
