# generated using pymatgen
data_AgSbTe2
_symmetry_space_group_name_H-M   'P 1'
_cell_length_a   12.20877257
_cell_length_b   12.22169287
_cell_length_c   12.21992896
_cell_angle_alpha   90.00276843
_cell_angle_beta   90.00257478
_cell_angle_gamma   89.99791186
_symmetry_Int_Tables_number   1
_chemical_formula_structural   AgSbTe2
_chemical_formula_sum   'Ag16 Sb16 Te32'
_cell_volume   1823.35842997
_cell_formula_units_Z   16
loop_
 _symmetry_equiv_pos_site_id
 _symmetry_equiv_pos_as_xyz
  1  'x, y, z'
loop_
 _atom_site_type_symbol
 _atom_site_label
 _atom_site_symmetry_multiplicity
 _atom_site_fract_x
 _atom_site_fract_y
 _atom_site_fract_z
 _atom_site_occupancy
  Ag  Ag0  1  0.74587135  0.25057293  -0.00025060  1
  Ag  Ag1  1  -0.00040863  0.25246139  0.25487448  1
  Ag  Ag2  1  0.00203639  -0.00468360  0.50027098  1
  Ag  Ag3  1  0.00518591  0.74653692  0.25915023  1
  Ag  Ag4  1  0.49705120  0.50343788  0.49946613  1
  Ag  Ag5  1  0.25248487  -0.00405125  0.74747748  1
  Ag  Ag6  1  0.50014550  0.25070298  0.75094320  1
  Ag  Ag7  1  0.24688331  0.74736079  0.50001984  1
  Ag  Ag8  1  0.00537913  0.75051998  0.74069852  1
  Ag  Ag9  1  0.49508774  0.74955293  0.74743867  1
  Ag  Ag10  1  0.49483558  0.74550959  0.25323679  1
  Ag  Ag11  1  0.49933173  0.49990395  -0.00021466  1
  Ag  Ag12  1  0.25063095  0.50410348  0.25436456  1
  Ag  Ag13  1  0.49942023  0.00015950  -0.00343035  1
  Ag  Ag14  1  0.00284774  0.50474502  0.49619494  1
  Ag  Ag15  1  0.75097925  0.25168962  0.49971587  1
  Sb  Sb16  1  0.25397693  0.25074915  -0.00026931  1
  Sb  Sb17  1  0.50000801  0.25444182  0.24996806  1
  Sb  Sb18  1  0.74563654  0.74941963  0.00012667  1
  Sb  Sb19  1  0.25043938  -0.00412088  0.25272961  1
  Sb  Sb20  1  0.49845178  -0.00293374  0.50263557  1
  Sb  Sb21  1  0.00021479  0.00047051  -0.00066591  1
  Sb  Sb22  1  0.25309474  0.50435872  0.74577183  1
  Sb  Sb23  1  0.74950834  0.00129540  0.25098115  1
  Sb  Sb24  1  0.25247359  0.74969273  -0.00021394  1
  Sb  Sb25  1  0.00063119  0.49948049  0.00315802  1
  Sb  Sb26  1  0.74718286  0.00110655  0.74917291  1
  Sb  Sb27  1  0.24983941  0.25338253  0.49959639  1
  Sb  Sb28  1  0.75313579  0.74880603  0.50005075  1
  Sb  Sb29  1  0.74998982  0.49903250  0.25096573  1
  Sb  Sb30  1  0.74731184  0.49894073  0.74927121  1
  Sb  Sb31  1  0.00018964  0.24976207  0.74548395  1
  Te  Te32  1  0.24354306  0.25480150  0.25012668  1
  Te  Te33  1  0.25598739  0.24365677  0.75011159  1
  Te  Te34  1  0.24962449  0.74759976  0.25351256  1
  Te  Te35  1  0.25169708  0.75206492  0.74676165  1
  Te  Te36  1  0.75511203  0.24947716  0.25190155  1
  Te  Te37  1  0.74487212  0.24990586  0.74947011  1
  Te  Te38  1  0.75064225  0.75078735  0.24947576  1
  Te  Te39  1  0.74869767  0.75001075  0.75064194  1
  Te  Te40  1  0.25590622  0.00058190  -0.00662192  1
  Te  Te41  1  0.24604014  -0.00590327  0.50360618  1
  Te  Te42  1  0.25645507  0.49937221  0.00749522  1
  Te  Te43  1  0.25079807  0.50388449  0.49679204  1
  Te  Te44  1  0.74361789  0.00704745  -0.00001078  1
  Te  Te45  1  0.75723047  0.00876908  0.50009133  1
  Te  Te46  1  0.74269994  0.49286832  -0.00032272  1
  Te  Te47  1  0.74965068  0.49346087  0.50026137  1
  Te  Te48  1  -0.00679921  0.25030635  0.00329764  1
  Te  Te49  1  -0.00117030  0.25216128  0.49915961  1
  Te  Te50  1  -0.00212199  0.74984770  0.00086136  1
  Te  Te51  1  -0.00197844  0.74801052  0.49926662  1
  Te  Te52  1  0.50325208  0.25149863  -0.00070727  1
  Te  Te53  1  0.50198548  0.25206610  0.50115653  1
  Te  Te54  1  0.50179742  0.74820056  -0.00158961  1
  Te  Te55  1  0.50126542  0.74882030  0.50067759  1
  Te  Te56  1  0.00153071  -0.00191048  0.25262336  1
  Te  Te57  1  0.00473927  -0.00334945  0.74779621  1
  Te  Te58  1  0.00332072  0.50296157  0.25138210  1
  Te  Te59  1  0.00273163  0.50498255  0.74638977  1
  Te  Te60  1  0.49807946  -0.00650219  0.24541401  1
  Te  Te61  1  0.49713935  -0.00244609  0.75117935  1
  Te  Te62  1  0.49655383  0.50266276  0.25250849  1
  Te  Te63  1  0.49725314  0.50189843  0.74857289  1
