# generated using pymatgen
data_AgSbTe2
_symmetry_space_group_name_H-M   'P 1'
_cell_length_a   12.21889262
_cell_length_b   12.21710172
_cell_length_c   12.22282012
_cell_angle_alpha   89.99339349
_cell_angle_beta   90.00076885
_cell_angle_gamma   90.00125186
_symmetry_Int_Tables_number   1
_chemical_formula_structural   AgSbTe2
_chemical_formula_sum   'Ag16 Sb16 Te32'
_cell_volume   1824.61590152
_cell_formula_units_Z   16
loop_
 _symmetry_equiv_pos_site_id
 _symmetry_equiv_pos_as_xyz
  1  'x, y, z'
loop_
 _atom_site_type_symbol
 _atom_site_label
 _atom_site_symmetry_multiplicity
 _atom_site_fract_x
 _atom_site_fract_y
 _atom_site_fract_z
 _atom_site_occupancy
  Ag  Ag0  1  0.00405231  0.50314302  0.49602670  1
  Ag  Ag1  1  0.49577065  0.50162484  0.49533494  1
  Ag  Ag2  1  0.50269026  0.25514189  0.25513596  1
  Ag  Ag3  1  0.74421042  -0.00192273  0.74374404  1
  Ag  Ag4  1  0.50196726  -0.00178588  0.50143376  1
  Ag  Ag5  1  0.25336035  0.74585224  -0.00243401  1
  Ag  Ag6  1  0.74400098  0.49956342  0.25547424  1
  Ag  Ag7  1  0.25603342  -0.00812505  0.74580003  1
  Ag  Ag8  1  0.74488971  0.24982867  0.49628961  1
  Ag  Ag9  1  0.00206072  0.74591487  0.25334078  1
  Ag  Ag10  1  0.49356968  0.74995178  0.74565116  1
  Ag  Ag11  1  0.25538135  0.50806856  0.74431466  1
  Ag  Ag12  1  0.25413297  0.74389508  0.50291118  1
  Ag  Ag13  1  0.74555408  0.00051899  0.25600688  1
  Ag  Ag14  1  0.25553854  0.50450819  0.25586462  1
  Ag  Ag15  1  0.49617145  0.50289572  0.00386513  1
  Sb  Sb16  1  0.00345972  0.50387267  0.00333746  1
  Sb  Sb17  1  0.25496435  0.25657422  0.49854540  1
  Sb  Sb18  1  0.49804264  0.74357040  0.25417710  1
  Sb  Sb19  1  0.00694865  0.74817416  0.74621496  1
  Sb  Sb20  1  0.49829503  -0.00358087  -0.00093347  1
  Sb  Sb21  1  -0.00239603  0.25356035  0.25393875  1
  Sb  Sb22  1  -0.00117620  -0.00353606  0.49845389  1
  Sb  Sb23  1  -0.00048367  0.25138017  0.74614684  1
  Sb  Sb24  1  0.25371916  0.25408155  0.00127626  1
  Sb  Sb25  1  0.50075134  0.24949767  0.74527533  1
  Sb  Sb26  1  0.74553229  0.74800884  0.00117679  1
  Sb  Sb27  1  0.74561612  0.75043951  0.49915283  1
  Sb  Sb28  1  0.74628358  0.25165846  0.00352285  1
  Sb  Sb29  1  0.25520698  -0.00485519  0.25481950  1
  Sb  Sb30  1  0.00147655  -0.00354764  0.00117504  1
  Sb  Sb31  1  0.74427741  0.50163232  0.74358227  1
  Te  Te32  1  0.25443388  0.25509653  0.25002581  1
  Te  Te33  1  0.25006858  0.24857698  0.75008160  1
  Te  Te34  1  0.24847955  0.74739910  0.25193742  1
  Te  Te35  1  0.25108784  0.74885139  0.74722958  1
  Te  Te36  1  0.74749854  0.25087241  0.25317112  1
  Te  Te37  1  0.74965839  0.24373650  0.74468661  1
  Te  Te38  1  0.75405993  0.74942085  0.24941543  1
  Te  Te39  1  0.74492261  0.75537052  0.75097667  1
  Te  Te40  1  0.25073659  -0.00622408  -0.00622511  1
  Te  Te41  1  0.25265008  -0.00260259  0.50276922  1
  Te  Te42  1  0.25330619  0.50357301  -0.00010876  1
  Te  Te43  1  0.25366335  0.49977418  0.49940649  1
  Te  Te44  1  0.74987022  -0.00013317  0.00041697  1
  Te  Te45  1  0.74810020  -0.00045383  0.49881932  1
  Te  Te46  1  0.74509558  0.50041308  0.00572785  1
  Te  Te47  1  0.74685266  0.50000717  0.49782707  1
  Te  Te48  1  0.00007259  0.25020352  -0.00002484  1
  Te  Te49  1  -0.00888526  0.25782330  0.49942350  1
  Te  Te50  1  0.00822880  0.74907002  0.00707331  1
  Te  Te51  1  0.00659230  0.74494141  0.49580935  1
  Te  Te52  1  0.49973901  0.25829424  0.00891421  1
  Te  Te53  1  0.50392459  0.25012147  0.49559294  1
  Te  Te54  1  0.49489517  0.74499014  -0.00603957  1
  Te  Te55  1  0.49611755  0.74996016  0.50327691  1
  Te  Te56  1  -0.00630487  -0.00393161  0.25071532  1
  Te  Te57  1  -0.00061866  -0.00028774  0.74981027  1
  Te  Te58  1  0.00014268  0.50260350  0.25326708  1
  Te  Te59  1  0.00486926  0.50088860  0.74503920  1
  Te  Te60  1  0.50338755  0.00251650  0.25270565  1
  Te  Te61  1  0.49923554  -0.00033532  0.74836082  1
  Te  Te62  1  0.50009233  0.50240472  0.25401652  1
  Te  Te63  1  0.49812517  0.50105486  0.74728054  1
