# generated using pymatgen
data_AgSbTe2
_symmetry_space_group_name_H-M   'P 1'
_cell_length_a   12.29287814
_cell_length_b   12.32621380
_cell_length_c   12.32016446
_cell_angle_alpha   90.00154889
_cell_angle_beta   89.99969008
_cell_angle_gamma   89.99368952
_symmetry_Int_Tables_number   1
_chemical_formula_structural   AgSbTe2
_chemical_formula_sum   'Ag16 Sb16 Te32'
_cell_volume   1866.80852516
_cell_formula_units_Z   16
loop_
 _symmetry_equiv_pos_site_id
 _symmetry_equiv_pos_as_xyz
  1  'x, y, z'
loop_
 _atom_site_type_symbol
 _atom_site_label
 _atom_site_symmetry_multiplicity
 _atom_site_fract_x
 _atom_site_fract_y
 _atom_site_fract_z
 _atom_site_occupancy
  Ag  Ag0  1  0.76788745  0.73360971  0.49971910  1
  Ag  Ag1  1  0.76169850  0.49993056  0.73460428  1
  Ag  Ag2  1  0.76565128  0.50249717  0.26284551  1
  Ag  Ag3  1  0.00112289  0.00322710  -0.00261240  1
  Ag  Ag4  1  0.00161692  0.49679198  0.00229484  1
  Ag  Ag5  1  -0.00849124  0.51730361  0.49830093  1
  Ag  Ag6  1  0.00012009  0.74096793  0.26878487  1
  Ag  Ag7  1  0.49558633  0.00388519  0.00045850  1
  Ag  Ag8  1  0.23872490  0.25259637  0.00080759  1
  Ag  Ag9  1  -0.00208365  0.73840347  0.73362797  1
  Ag  Ag10  1  0.77099237  0.26613073  0.50301173  1
  Ag  Ag11  1  0.23377704  0.25908582  0.50029105  1
  Ag  Ag12  1  0.23413801  0.50039169  0.25774134  1
  Ag  Ag13  1  -0.00009772  0.26051647  0.73834143  1
  Ag  Ag14  1  0.23091135  0.73801966  0.49586298  1
  Ag  Ag15  1  0.00028205  -0.02036086  0.50179580  1
  Sb  Sb16  1  -0.00022994  0.25938083  0.26223830  1
  Sb  Sb17  1  0.50196913  0.74706224  0.74785872  1
  Sb  Sb18  1  0.24202337  0.74743353  0.00280179  1
  Sb  Sb19  1  0.75705876  -0.00058180  0.25233448  1
  Sb  Sb20  1  0.24556258  -0.00052173  0.75058223  1
  Sb  Sb21  1  0.75579849  0.74722036  0.00048524  1
  Sb  Sb22  1  0.49890385  0.00073670  0.49930750  1
  Sb  Sb23  1  0.75577521  -0.00063915  0.74891269  1
  Sb  Sb24  1  0.50085216  0.74740068  0.25110036  1
  Sb  Sb25  1  0.50147962  0.49909376  0.50005908  1
  Sb  Sb26  1  0.24406213  0.00054175  0.25012601  1
  Sb  Sb27  1  0.49463308  0.49702786  0.00075135  1
  Sb  Sb28  1  0.50173603  0.25214367  0.75028094  1
  Sb  Sb29  1  0.24131200  0.49939601  0.74304211  1
  Sb  Sb30  1  0.49885623  0.25145652  0.24998796  1
  Sb  Sb31  1  0.76289671  0.25299741  -0.00144922  1
  Te  Te32  1  0.24992976  0.25360345  0.25377370  1
  Te  Te33  1  0.24682524  0.25153576  0.74576726  1
  Te  Te34  1  0.25123248  0.74654911  0.25301695  1
  Te  Te35  1  0.24705910  0.74856067  0.74208405  1
  Te  Te36  1  0.74979095  0.25549503  0.25667231  1
  Te  Te37  1  0.75358015  0.25057787  0.74760921  1
  Te  Te38  1  0.74890904  0.74806232  0.25155533  1
  Te  Te39  1  0.75319092  0.74955091  0.74832946  1
  Te  Te40  1  0.23698533  0.00380675  -0.00015158  1
  Te  Te41  1  0.24646662  0.00573985  0.50007498  1
  Te  Te42  1  0.24521552  0.49807289  0.00272271  1
  Te  Te43  1  0.25485764  0.49773633  0.49912087  1
  Te  Te44  1  0.76297893  0.00141870  0.00125359  1
  Te  Te45  1  0.75236551  0.00212735  0.49843459  1
  Te  Te46  1  0.75542233  0.49969161  0.00726711  1
  Te  Te47  1  0.74776838  0.49914041  0.49713849  1
  Te  Te48  1  0.00126337  0.25147054  -0.00365921  1
  Te  Te49  1  0.00001036  0.25319899  0.49980845  1
  Te  Te50  1  0.00092634  0.74830572  -0.00498288  1
  Te  Te51  1  -0.00008310  0.75103022  0.50128031  1
  Te  Te52  1  0.48671595  0.24610661  -0.00083989  1
  Te  Te53  1  0.49199898  0.24707550  0.50053269  1
  Te  Te54  1  0.49813143  0.75823151  -0.00171952  1
  Te  Te55  1  0.49779303  0.75375887  0.50177004  1
  Te  Te56  1  -0.00023898  -0.01748953  0.25040197  1
  Te  Te57  1  0.00113717  0.00035468  0.74812287  1
  Te  Te58  1  0.00093473  0.50235927  0.25155645  1
  Te  Te59  1  -0.00006109  0.49944987  0.74718832  1
  Te  Te60  1  0.50048925  0.00032226  0.24052461  1
  Te  Te61  1  0.50038507  -0.00026256  0.75990261  1
  Te  Te62  1  0.50139704  0.50011704  0.24845864  1
  Te  Te63  1  0.52209660  0.50115676  0.75269045  1
