# generated using pymatgen
data_AgSbTe2
_symmetry_space_group_name_H-M   'P 1'
_cell_length_a   12.22725179
_cell_length_b   12.23080803
_cell_length_c   12.21718457
_cell_angle_alpha   90.00042740
_cell_angle_beta   90.00377542
_cell_angle_gamma   90.00215568
_symmetry_Int_Tables_number   1
_chemical_formula_structural   AgSbTe2
_chemical_formula_sum   'Ag16 Sb16 Te32'
_cell_volume   1827.06979886
_cell_formula_units_Z   16
loop_
 _symmetry_equiv_pos_site_id
 _symmetry_equiv_pos_as_xyz
  1  'x, y, z'
loop_
 _atom_site_type_symbol
 _atom_site_label
 _atom_site_symmetry_multiplicity
 _atom_site_fract_x
 _atom_site_fract_y
 _atom_site_fract_z
 _atom_site_occupancy
  Ag  Ag0  1  0.24578522  0.49601859  0.74958373  1
  Ag  Ag1  1  0.25098611  0.00162041  0.24786517  1
  Ag  Ag2  1  0.49410390  0.75010933  0.24469434  1
  Ag  Ag3  1  0.00316015  0.00753280  0.49575647  1
  Ag  Ag4  1  0.00495927  0.25204515  0.74319865  1
  Ag  Ag5  1  0.75779718  0.25195732  0.49513098  1
  Ag  Ag6  1  0.75241016  0.50075428  0.25155391  1
  Ag  Ag7  1  0.74906817  0.74936867  0.00715390  1
  Ag  Ag8  1  0.25175302  0.74985893  0.00908166  1
  Ag  Ag9  1  0.49505099  -0.00183089  0.00708416  1
  Ag  Ag10  1  0.24360656  0.25288678  0.49385988  1
  Ag  Ag11  1  0.00549725  0.74692874  0.24935261  1
  Ag  Ag12  1  0.00439679  0.49295243  0.49549503  1
  Ag  Ag13  1  0.24824534  0.49839279  0.25015484  1
  Ag  Ag14  1  0.49177026  0.25007738  0.24937117  1
  Ag  Ag15  1  0.25006491  0.25088299  0.00829849  1
  Sb  Sb16  1  0.00326740  0.74836241  0.75059117  1
  Sb  Sb17  1  0.24764833  0.00251939  0.75097280  1
  Sb  Sb18  1  0.49631201  0.74973927  0.75580099  1
  Sb  Sb19  1  0.00847939  0.25309280  0.25697016  1
  Sb  Sb20  1  0.49677273  0.50165605  0.00529093  1
  Sb  Sb21  1  0.75305575  0.74800516  0.49315841  1
  Sb  Sb22  1  0.75036471  0.00018258  0.25045208  1
  Sb  Sb23  1  0.49587132  0.49776803  0.49476475  1
  Sb  Sb24  1  0.00341919  0.49960306  0.00508481  1
  Sb  Sb25  1  0.74997440  0.25074752  0.00589787  1
  Sb  Sb26  1  0.75422719  0.49796674  0.74818267  1
  Sb  Sb27  1  0.75255395  0.00123174  0.74960801  1
  Sb  Sb28  1  0.24795736  0.74735469  0.49020299  1
  Sb  Sb29  1  0.49676612  0.00338893  0.49349732  1
  Sb  Sb30  1  0.00412077  0.00119584  0.00517955  1
  Sb  Sb31  1  0.49609400  0.25039104  0.75177090  1
  Te  Te32  1  0.24965922  0.25162241  0.24905315  1
  Te  Te33  1  0.24825347  0.25319293  0.74930023  1
  Te  Te34  1  0.25031851  0.74841182  0.24822596  1
  Te  Te35  1  0.25030322  0.74411835  0.75938392  1
  Te  Te36  1  0.74477348  0.25405875  0.25160657  1
  Te  Te37  1  0.75374295  0.25192813  0.74484944  1
  Te  Te38  1  0.74967153  0.74704409  0.24716014  1
  Te  Te39  1  0.74930265  0.74855050  0.75962993  1
  Te  Te40  1  0.25121356  0.00049602  0.00309614  1
  Te  Te41  1  0.24666702  0.00357533  0.49692907  1
  Te  Te42  1  0.24884863  0.49829593  0.00478325  1
  Te  Te43  1  0.24678683  0.49802466  0.49549670  1
  Te  Te44  1  0.74586750  -0.00419377  -0.00000003  1
  Te  Te45  1  0.75485146  0.00550341  0.50025847  1
  Te  Te46  1  0.75098647  0.50441011  0.00569936  1
  Te  Te47  1  0.75466154  0.49630405  0.49612267  1
  Te  Te48  1  0.00386886  0.24851784  -0.00833429  1
  Te  Te49  1  0.00224824  0.25104154  0.49880781  1
  Te  Te50  1  0.00179484  0.75054015  0.00392807  1
  Te  Te51  1  -0.00044081  0.74978681  0.49641919  1
  Te  Te52  1  0.49715209  0.24598339  0.00386493  1
  Te  Te53  1  0.49841270  0.24833426  0.49533602  1
  Te  Te54  1  0.49645622  0.75234392  0.00474476  1
  Te  Te55  1  0.50138845  0.75223356  0.49231029  1
  Te  Te56  1  0.00447860  -0.00537708  0.25397256  1
  Te  Te57  1  0.00013956  0.00377262  0.74116369  1
  Te  Te58  1  0.00188026  0.50211015  0.25405667  1
  Te  Te59  1  0.00500081  0.49719271  0.74278676  1
  Te  Te60  1  0.49628683  0.00031652  0.24739112  1
  Te  Te61  1  0.50058349  -0.00066190  0.75824917  1
  Te  Te62  1  0.49801241  0.49942789  0.25075858  1
  Te  Te63  1  0.49128952  0.50033395  0.74788932  1
