# generated using pymatgen
data_AgSbTe2
_symmetry_space_group_name_H-M   'P 1'
_cell_length_a   12.22326151
_cell_length_b   12.21896084
_cell_length_c   12.22870487
_cell_angle_alpha   90.00288951
_cell_angle_beta   89.99343146
_cell_angle_gamma   90.00459273
_symmetry_Int_Tables_number   1
_chemical_formula_structural   AgSbTe2
_chemical_formula_sum   'Ag16 Sb16 Te32'
_cell_volume   1826.42496805
_cell_formula_units_Z   16
loop_
 _symmetry_equiv_pos_site_id
 _symmetry_equiv_pos_as_xyz
  1  'x, y, z'
loop_
 _atom_site_type_symbol
 _atom_site_label
 _atom_site_symmetry_multiplicity
 _atom_site_fract_x
 _atom_site_fract_y
 _atom_site_fract_z
 _atom_site_occupancy
  Ag  Ag0  1  0.00247652  0.50738852  0.49929621  1
  Ag  Ag1  1  0.24390566  0.74741595  0.50159745  1
  Ag  Ag2  1  0.75075963  0.25368968  0.50242193  1
  Ag  Ag3  1  0.00789929  0.50710455  0.00109690  1
  Ag  Ag4  1  0.00673196  0.74602792  0.24946438  1
  Ag  Ag5  1  0.24788271  -0.00864448  0.24751877  1
  Ag  Ag6  1  0.25090783  0.25579893  -0.00215487  1
  Ag  Ag7  1  0.25061552  -0.00700369  0.75233244  1
  Ag  Ag8  1  0.75397259  0.74649262  -0.00236302  1
  Ag  Ag9  1  0.49167324  0.50409951  -0.00206457  1
  Ag  Ag10  1  0.24606562  0.74430530  -0.00111248  1
  Ag  Ag11  1  0.49337085  0.74902515  0.75303639  1
  Ag  Ag12  1  0.49631618  0.25191829  0.75199481  1
  Ag  Ag13  1  0.00651134  0.74776740  0.75064090  1
  Ag  Ag14  1  0.24618616  0.50739445  0.24439609  1
  Ag  Ag15  1  0.75683072  0.74681262  0.50249731  1
  Sb  Sb16  1  0.24984883  0.50997646  0.75878854  1
  Sb  Sb17  1  0.75346056  -0.00539480  0.25027941  1
  Sb  Sb18  1  0.49089221  0.74755891  0.24543391  1
  Sb  Sb19  1  0.49716417  0.25302774  0.24719522  1
  Sb  Sb20  1  0.49623489  0.50326687  0.50271095  1
  Sb  Sb21  1  0.00229449  -0.01020949  0.50007202  1
  Sb  Sb22  1  0.75022870  0.50398076  0.74857571  1
  Sb  Sb23  1  0.49501832  -0.00554839  -0.00240268  1
  Sb  Sb24  1  0.00462165  0.25277366  0.75018189  1
  Sb  Sb25  1  0.00509285  -0.01144101  -0.00002075  1
  Sb  Sb26  1  0.24940666  0.25432055  0.50393535  1
  Sb  Sb27  1  0.00282867  0.25491114  0.25012219  1
  Sb  Sb28  1  0.75074553  -0.00452787  0.74982806  1
  Sb  Sb29  1  0.49794085  -0.00268662  0.50167824  1
  Sb  Sb30  1  0.74873180  0.25529076  -0.00331833  1
  Sb  Sb31  1  0.75502057  0.50437698  0.25091180  1
  Te  Te32  1  0.24992892  0.24924920  0.24473389  1
  Te  Te33  1  0.25294552  0.24163974  0.75276356  1
  Te  Te34  1  0.24893039  0.74939789  0.24924191  1
  Te  Te35  1  0.24989613  0.75071798  0.75038916  1
  Te  Te36  1  0.74975015  0.24722424  0.25708514  1
  Te  Te37  1  0.74407394  0.24625043  0.74634062  1
  Te  Te38  1  0.75698553  0.75155489  0.25136201  1
  Te  Te39  1  0.75001571  0.75235351  0.74918442  1
  Te  Te40  1  0.24987917  -0.00042082  0.00010274  1
  Te  Te41  1  0.24992026  -0.00464287  0.49958098  1
  Te  Te42  1  0.24870307  0.50205042  0.00059867  1
  Te  Te43  1  0.24682484  0.50305776  0.49210637  1
  Te  Te44  1  0.74954284  -0.00751597  0.00188696  1
  Te  Te45  1  0.74987318  -0.00282470  0.49844489  1
  Te  Te46  1  0.75101238  0.50496098  0.00155520  1
  Te  Te47  1  0.75401394  0.50418376  0.49870742  1
  Te  Te48  1  0.00206329  0.26156511  -0.00154183  1
  Te  Te49  1  -0.00496212  0.26051797  0.50168921  1
  Te  Te50  1  0.00207523  0.74656709  -0.00118714  1
  Te  Te51  1  0.00066922  0.74684788  0.50132229  1
  Te  Te52  1  0.49901883  0.25659032  -0.00453489  1
  Te  Te53  1  0.50502196  0.25224107  0.50721861  1
  Te  Te54  1  0.49858107  0.74615567  -0.00373852  1
  Te  Te55  1  0.50072998  0.74763431  0.50786251  1
  Te  Te56  1  0.00806868  -0.00740709  0.24977254  1
  Te  Te57  1  0.00746895  -0.00658202  0.75027034  1
  Te  Te58  1  0.00369083  0.50411793  0.24921675  1
  Te  Te59  1  -0.00014896  0.50531564  0.74987550  1
  Te  Te60  1  0.48889648  0.00083358  0.25019776  1
  Te  Te61  1  0.49312921  -0.00206218  0.75023526  1
  Te  Te62  1  0.49129901  0.50006217  0.24183313  1
  Te  Te63  1  0.50046576  0.50109776  0.75485437  1
