# generated using pymatgen
data_AgSbTe2
_symmetry_space_group_name_H-M   'P 1'
_cell_length_a   12.23020053
_cell_length_b   12.22796831
_cell_length_c   12.21440989
_cell_angle_alpha   89.99794694
_cell_angle_beta   90.00110435
_cell_angle_gamma   90.00213804
_symmetry_Int_Tables_number   1
_chemical_formula_structural   AgSbTe2
_chemical_formula_sum   'Ag16 Sb16 Te32'
_cell_volume   1826.67115715
_cell_formula_units_Z   16
loop_
 _symmetry_equiv_pos_site_id
 _symmetry_equiv_pos_as_xyz
  1  'x, y, z'
loop_
 _atom_site_type_symbol
 _atom_site_label
 _atom_site_symmetry_multiplicity
 _atom_site_fract_x
 _atom_site_fract_y
 _atom_site_fract_z
 _atom_site_occupancy
  Ag  Ag0  1  0.24769627  0.50921871  0.74282692  1
  Ag  Ag1  1  0.75070337  0.49876624  0.25401299  1
  Ag  Ag2  1  0.24724547  0.74741170  0.50492530  1
  Ag  Ag3  1  0.24717594  -0.00972473  0.74406073  1
  Ag  Ag4  1  0.00348188  0.75233667  0.74453656  1
  Ag  Ag5  1  0.75110534  0.00109667  0.25479072  1
  Ag  Ag6  1  0.50613454  0.25195094  0.25385750  1
  Ag  Ag7  1  0.74963512  0.75101715  0.00163213  1
  Ag  Ag8  1  0.75343170  -0.00484467  0.74536693  1
  Ag  Ag9  1  0.00176179  0.50175669  0.49713976  1
  Ag  Ag10  1  0.50311439  0.74761716  0.25257400  1
  Ag  Ag11  1  0.75377626  0.24793642  0.49314213  1
  Ag  Ag12  1  0.24880614  0.50268459  0.25618490  1
  Ag  Ag13  1  -0.00639981  0.25212620  0.25647620  1
  Ag  Ag14  1  0.49682380  0.75114926  0.74711667  1
  Ag  Ag15  1  -0.00306728  -0.00161866  0.50173886  1
  Sb  Sb16  1  0.50174224  -0.00243036  0.00021983  1
  Sb  Sb17  1  -0.00172998  0.74905636  0.25476081  1
  Sb  Sb18  1  0.24981412  0.74914991  -0.00351836  1
  Sb  Sb19  1  0.50137767  0.50239639  0.00204363  1
  Sb  Sb20  1  -0.00242369  -0.00243496  -0.00127084  1
  Sb  Sb21  1  0.75053885  0.24958269  0.00640549  1
  Sb  Sb22  1  0.24657733  0.25193566  0.49791621  1
  Sb  Sb23  1  0.50211326  0.24944627  0.74569605  1
  Sb  Sb24  1  0.24939466  -0.00328095  0.25658126  1
  Sb  Sb25  1  0.75246167  0.75155131  0.49891619  1
  Sb  Sb26  1  0.50399767  -0.00123439  0.49975629  1
  Sb  Sb27  1  0.24949466  0.25065128  0.00167201  1
  Sb  Sb28  1  0.49800770  0.50188420  0.49758893  1
  Sb  Sb29  1  -0.00143129  0.50241987  0.00292069  1
  Sb  Sb30  1  -0.00120719  0.24917245  0.74430540  1
  Sb  Sb31  1  0.75162597  0.50568984  0.74462553  1
  Te  Te32  1  0.25185209  0.25400817  0.25043408  1
  Te  Te33  1  0.25197123  0.25144791  0.75057955  1
  Te  Te34  1  0.25272126  0.74751390  0.25035328  1
  Te  Te35  1  0.25093584  0.74903429  0.75047853  1
  Te  Te36  1  0.74956756  0.24943479  0.25094995  1
  Te  Te37  1  0.74748498  0.24383948  0.74696369  1
  Te  Te38  1  0.74844511  0.75079352  0.25096069  1
  Te  Te39  1  0.74825085  0.75162836  0.74893930  1
  Te  Te40  1  0.24902422  0.00006402  -0.01135343  1
  Te  Te41  1  0.24365865  -0.00284566  0.50392756  1
  Te  Te42  1  0.24934674  0.50000654  0.00127780  1
  Te  Te43  1  0.24612293  0.50162614  0.49900429  1
  Te  Te44  1  0.75072602  -0.00459191  -0.00004488  1
  Te  Te45  1  0.75354598  0.00102313  0.49900581  1
  Te  Te46  1  0.75079283  0.50500466  0.00705735  1
  Te  Te47  1  0.75611927  0.49699078  0.49628332  1
  Te  Te48  1  -0.00037658  0.25000756  0.01133548  1
  Te  Te49  1  -0.00319797  0.24993339  0.49620866  1
  Te  Te50  1  -0.00606473  0.75004677  -0.00983317  1
  Te  Te51  1  0.00352505  0.74990731  0.50335831  1
  Te  Te52  1  0.50001414  0.25005266  0.01105659  1
  Te  Te53  1  0.50738477  0.24959263  0.49340651  1
  Te  Te54  1  0.50579212  0.75025603  0.00086367  1
  Te  Te55  1  0.49265995  0.75068144  0.49981968  1
  Te  Te56  1  -0.00235952  0.00052849  0.25425141  1
  Te  Te57  1  -0.00197036  -0.00040801  0.74638626  1
  Te  Te58  1  0.00066289  0.50026047  0.25321470  1
  Te  Te59  1  0.00249751  0.50022094  0.74568346  1
  Te  Te60  1  0.50276620  -0.00295939  0.25020632  1
  Te  Te61  1  0.50077556  -0.00319784  0.74978949  1
  Te  Te62  1  0.50014169  0.50339805  0.25093417  1
  Te  Te63  1  0.49540518  0.50426549  0.74950022  1
