# generated using pymatgen
data_AgSbTe2
_symmetry_space_group_name_H-M   'P 1'
_cell_length_a   12.21208619
_cell_length_b   12.21873458
_cell_length_c   12.22244806
_cell_angle_alpha   90.00354556
_cell_angle_beta   90.00359851
_cell_angle_gamma   89.99675646
_symmetry_Int_Tables_number   1
_chemical_formula_structural   AgSbTe2
_chemical_formula_sum   'Ag16 Sb16 Te32'
_cell_volume   1823.78773212
_cell_formula_units_Z   16
loop_
 _symmetry_equiv_pos_site_id
 _symmetry_equiv_pos_as_xyz
  1  'x, y, z'
loop_
 _atom_site_type_symbol
 _atom_site_label
 _atom_site_symmetry_multiplicity
 _atom_site_fract_x
 _atom_site_fract_y
 _atom_site_fract_z
 _atom_site_occupancy
  Ag  Ag0  1  0.50314712  0.50284868  0.00281683  1
  Ag  Ag1  1  0.74463121  0.50475076  0.74980695  1
  Ag  Ag2  1  0.50271505  -0.00307887  0.00047469  1
  Ag  Ag3  1  0.50278090  -0.00897244  0.49940266  1
  Ag  Ag4  1  0.25996820  0.74697718  0.50243892  1
  Ag  Ag5  1  0.74045788  0.74689507  0.50272068  1
  Ag  Ag6  1  0.74508294  0.25325751  0.00360626  1
  Ag  Ag7  1  -0.00177083  0.74777343  0.74974923  1
  Ag  Ag8  1  0.74579863  -0.00461426  0.74980209  1
  Ag  Ag9  1  0.50320116  0.50836620  0.49710587  1
  Ag  Ag10  1  0.25505141  0.50655138  0.75017701  1
  Ag  Ag11  1  0.74187273  0.49855743  0.24936339  1
  Ag  Ag12  1  0.50517196  0.25537848  0.24745347  1
  Ag  Ag13  1  0.25692793  0.74688959  -0.00284508  1
  Ag  Ag14  1  -0.00567160  0.25314039  0.24818303  1
  Ag  Ag15  1  0.50211605  0.74525710  0.25383378  1
  Sb  Sb16  1  0.25531716  0.25240753  0.00066207  1
  Sb  Sb17  1  0.74098933  0.74757783  -0.00278593  1
  Sb  Sb18  1  -0.00302423  0.50173435  0.49968523  1
  Sb  Sb19  1  0.25481168  0.25328891  0.50001601  1
  Sb  Sb20  1  0.50291694  0.25300413  0.75345395  1
  Sb  Sb21  1  0.25932586  0.50234079  0.24995760  1
  Sb  Sb22  1  -0.00336941  0.50075761  0.00040944  1
  Sb  Sb23  1  0.74605391  0.25290759  0.49661045  1
  Sb  Sb24  1  0.25425878  -0.00144687  0.25043698  1
  Sb  Sb25  1  -0.00322487  0.74719571  0.24976347  1
  Sb  Sb26  1  0.50250417  0.74654214  0.74400849  1
  Sb  Sb27  1  0.25411211  -0.00798559  0.74976753  1
  Sb  Sb28  1  -0.00379480  -0.00152740  -0.00175851  1
  Sb  Sb29  1  -0.00366410  -0.00296523  0.50177332  1
  Sb  Sb30  1  0.74541099  0.00074116  0.24992148  1
  Sb  Sb31  1  -0.00401564  0.25206690  0.75182499  1
  Te  Te32  1  0.25104781  0.25064050  0.24927644  1
  Te  Te33  1  0.24630646  0.25956679  0.75046089  1
  Te  Te34  1  0.25198333  0.74865040  0.25140631  1
  Te  Te35  1  0.24603519  0.74686037  0.74904460  1
  Te  Te36  1  0.74541511  0.25285427  0.24736362  1
  Te  Te37  1  0.75202300  0.25261315  0.75448833  1
  Te  Te38  1  0.74818989  0.74619174  0.25332290  1
  Te  Te39  1  0.75235090  0.74683191  0.74887509  1
  Te  Te40  1  0.25857270  -0.00452751  -0.00187248  1
  Te  Te41  1  0.25778514  -0.00641577  0.50186983  1
  Te  Te42  1  0.25597488  0.50371598  -0.00394885  1
  Te  Te43  1  0.25548497  0.50455919  0.50415714  1
  Te  Te44  1  0.74444328  0.00205517  -0.00392379  1
  Te  Te45  1  0.74489563  -0.00378708  0.50432963  1
  Te  Te46  1  0.74588571  0.49895454  -0.00133514  1
  Te  Te47  1  0.74632010  0.50239875  0.50236039  1
  Te  Te48  1  -0.00503174  0.24905367  0.00543123  1
  Te  Te49  1  0.00154139  0.24908592  0.49194791  1
  Te  Te50  1  0.00932069  0.75110671  -0.00268791  1
  Te  Te51  1  0.00050449  0.75101547  0.50204041  1
  Te  Te52  1  0.50288246  0.25084247  0.00422518  1
  Te  Te53  1  0.49949620  0.24993894  0.49228765  1
  Te  Te54  1  0.49877171  0.74907764  0.00455207  1
  Te  Te55  1  0.50100825  0.74889517  0.49874627  1
  Te  Te56  1  -0.00063964  0.00687948  0.24984289  1
  Te  Te57  1  -0.00725185  -0.00457274  0.74982422  1
  Te  Te58  1  -0.00933296  0.49575132  0.25001074  1
  Te  Te59  1  -0.00262998  0.50401787  0.75001779  1
  Te  Te60  1  0.50129117  -0.00155304  0.24975305  1
  Te  Te61  1  0.50532745  0.00360424  0.75012961  1
  Te  Te62  1  0.50257552  0.50166917  0.24986197  1
  Te  Te63  1  0.50336407  0.49740814  0.75030564  1
