# generated using pymatgen
data_AgSbTe2
_symmetry_space_group_name_H-M   'P 1'
_cell_length_a   12.21075721
_cell_length_b   12.21036803
_cell_length_c   12.21045374
_cell_angle_alpha   89.99776488
_cell_angle_beta   90.00491478
_cell_angle_gamma   90.00175224
_symmetry_Int_Tables_number   1
_chemical_formula_structural   AgSbTe2
_chemical_formula_sum   'Ag16 Sb16 Te32'
_cell_volume   1820.55226295
_cell_formula_units_Z   16
loop_
 _symmetry_equiv_pos_site_id
 _symmetry_equiv_pos_as_xyz
  1  'x, y, z'
loop_
 _atom_site_type_symbol
 _atom_site_label
 _atom_site_symmetry_multiplicity
 _atom_site_fract_x
 _atom_site_fract_y
 _atom_site_fract_z
 _atom_site_occupancy
  Ag  Ag0  1  0.25635463  0.00278176  0.75150526  1
  Ag  Ag1  1  0.74862516  0.75113778  -0.00381480  1
  Ag  Ag2  1  0.50113667  0.75353804  0.75269290  1
  Ag  Ag3  1  -0.00242364  0.49500927  -0.00164727  1
  Ag  Ag4  1  0.25203736  0.49760804  0.75248344  1
  Ag  Ag5  1  0.74815100  0.24848102  0.50183161  1
  Ag  Ag6  1  0.50164511  0.49592368  -0.00433899  1
  Ag  Ag7  1  0.74468525  0.00388915  0.75343125  1
  Ag  Ag8  1  0.25156191  0.00442713  0.24754700  1
  Ag  Ag9  1  -0.00081608  0.49505698  0.50202630  1
  Ag  Ag10  1  0.74959377  0.24898608  -0.00199325  1
  Ag  Ag11  1  -0.00115781  0.24917010  0.24636277  1
  Ag  Ag12  1  0.50238074  0.24564165  0.75196560  1
  Ag  Ag13  1  0.50179619  0.24725070  0.24780418  1
  Ag  Ag14  1  -0.00253524  0.00465824  -0.00096369  1
  Ag  Ag15  1  0.50063545  0.00465381  0.50529435  1
  Sb  Sb16  1  -0.00085230  0.00603318  0.50015481  1
  Sb  Sb17  1  0.24973480  0.49598845  0.24779717  1
  Sb  Sb18  1  0.25315420  0.75142911  -0.00291688  1
  Sb  Sb19  1  0.50101456  0.49396689  0.50422077  1
  Sb  Sb20  1  -0.00219979  0.74974684  0.75222599  1
  Sb  Sb21  1  0.50325908  0.00537908  -0.00698437  1
  Sb  Sb22  1  0.50037620  0.75328235  0.24630200  1
  Sb  Sb23  1  -0.00025370  0.75195139  0.24678225  1
  Sb  Sb24  1  0.25150759  0.75039690  0.50270073  1
  Sb  Sb25  1  0.74789982  0.75211784  0.50508331  1
  Sb  Sb26  1  0.25129190  0.24951289  0.50138229  1
  Sb  Sb27  1  0.75051291  0.49566169  0.24731867  1
  Sb  Sb28  1  0.74710849  0.49602782  0.75333285  1
  Sb  Sb29  1  0.74791056  0.00483890  0.24609983  1
  Sb  Sb30  1  -0.00340305  0.25045172  0.75468426  1
  Sb  Sb31  1  0.25048960  0.24879488  -0.00135647  1
  Te  Te32  1  0.25052186  0.24419257  0.25100742  1
  Te  Te33  1  0.25645951  0.24793435  0.74938476  1
  Te  Te34  1  0.25126221  0.76050688  0.25030180  1
  Te  Te35  1  0.25690000  0.75190902  0.75049790  1
  Te  Te36  1  0.74876464  0.24886773  0.24889447  1
  Te  Te37  1  0.74706738  0.24656287  0.75184169  1
  Te  Te38  1  0.74861148  0.75117322  0.24096129  1
  Te  Te39  1  0.74510008  0.75610200  0.75475354  1
  Te  Te40  1  0.24392238  -0.00113741  -0.00279369  1
  Te  Te41  1  0.25278328  -0.00012236  0.50405163  1
  Te  Te42  1  0.24844116  0.50105942  -0.00422577  1
  Te  Te43  1  0.24498476  0.50010297  0.50543526  1
  Te  Te44  1  0.75268405  0.00327295  -0.00359140  1
  Te  Te45  1  0.74744284  0.00353077  0.50543416  1
  Te  Te46  1  0.75190574  0.49717003  -0.00163956  1
  Te  Te47  1  0.75441062  0.49495223  0.50142154  1
  Te  Te48  1  -0.00393824  0.25113019  0.00148320  1
  Te  Te49  1  -0.00609965  0.25333568  0.49546399  1
  Te  Te50  1  -0.00703012  0.74823064  0.00075131  1
  Te  Te51  1  -0.00234230  0.74014787  0.49913617  1
  Te  Te52  1  0.50376948  0.25203232  -0.00029592  1
  Te  Te53  1  0.50484164  0.24801078  0.50014598  1
  Te  Te54  1  0.50474377  0.74385888  -0.00380702  1
  Te  Te55  1  0.50203732  0.75548280  0.50525329  1
  Te  Te56  1  0.00379745  0.00410090  0.24755493  1
  Te  Te57  1  0.00198010  -0.00008592  0.75311678  1
  Te  Te58  1  0.00263273  0.49446020  0.24606807  1
  Te  Te59  1  0.00589225  0.49971543  0.75343491  1
  Te  Te60  1  0.49701878  0.00457217  0.25374716  1
  Te  Te61  1  0.49830350  0.00277733  0.75163364  1
  Te  Te62  1  0.49681978  0.49411108  0.24570564  1
  Te  Te63  1  0.49709020  0.49824900  0.75185893  1
