# generated using pymatgen
data_AgSbTe2
_symmetry_space_group_name_H-M   'P 1'
_cell_length_a   12.25541069
_cell_length_b   12.25486737
_cell_length_c   12.25288934
_cell_angle_alpha   90.00357891
_cell_angle_beta   90.00176783
_cell_angle_gamma   89.99945828
_symmetry_Int_Tables_number   1
_chemical_formula_structural   AgSbTe2
_chemical_formula_sum   'Ag16 Sb16 Te32'
_cell_volume   1840.24223983
_cell_formula_units_Z   16
loop_
 _symmetry_equiv_pos_site_id
 _symmetry_equiv_pos_as_xyz
  1  'x, y, z'
loop_
 _atom_site_type_symbol
 _atom_site_label
 _atom_site_symmetry_multiplicity
 _atom_site_fract_x
 _atom_site_fract_y
 _atom_site_fract_z
 _atom_site_occupancy
  Ag  Ag0  1  0.24981799  -0.00234184  0.25024531  1
  Ag  Ag1  1  0.49597339  -0.00143160  0.49797296  1
  Ag  Ag2  1  0.49616457  -0.00482867  0.00160385  1
  Ag  Ag3  1  0.24329235  0.75297506  -0.00126604  1
  Ag  Ag4  1  0.75425737  0.73916454  0.50146355  1
  Ag  Ag5  1  -0.00523727  0.49875085  0.51005313  1
  Ag  Ag6  1  0.75579201  0.26009864  0.50352067  1
  Ag  Ag7  1  0.75607608  0.50257759  0.25660525  1
  Ag  Ag8  1  0.24697037  0.74852930  0.50162510  1
  Ag  Ag9  1  0.75696414  0.74623682  -0.00130579  1
  Ag  Ag10  1  0.24523387  0.25171559  0.50375488  1
  Ag  Ag11  1  -0.00270098  0.50521486  -0.01062281  1
  Ag  Ag12  1  0.23632493  0.50070533  0.74498859  1
  Ag  Ag13  1  0.76399447  0.50077627  0.74392233  1
  Ag  Ag14  1  0.00044553  0.25991232  0.74511625  1
  Ag  Ag15  1  0.00366860  -0.00736863  -0.00121090  1
  Sb  Sb16  1  0.24720738  0.24856282  -0.00611487  1
  Sb  Sb17  1  0.50584696  0.50452899  0.50036454  1
  Sb  Sb18  1  0.75266389  -0.00179477  0.25018480  1
  Sb  Sb19  1  -0.00043624  0.24994928  0.25776057  1
  Sb  Sb20  1  0.75252159  0.25559186  -0.00572954  1
  Sb  Sb21  1  0.75515769  -0.00264048  0.75002132  1
  Sb  Sb22  1  0.50021767  0.75111094  0.74992237  1
  Sb  Sb23  1  0.24361717  0.50139266  0.25418736  1
  Sb  Sb24  1  0.50067749  0.50734579  -0.00120030  1
  Sb  Sb25  1  0.00015214  0.73773983  0.75221711  1
  Sb  Sb26  1  0.49967865  0.24993838  0.74781954  1
  Sb  Sb27  1  0.00406667  -0.00047852  0.50240743  1
  Sb  Sb28  1  0.24531706  -0.00309199  0.75051424  1
  Sb  Sb29  1  0.50001100  0.24828541  0.25166952  1
  Sb  Sb30  1  0.50003771  0.75190260  0.25044069  1
  Sb  Sb31  1  -0.00047414  0.75014952  0.24839832  1
  Te  Te32  1  0.24982791  0.24593178  0.26282985  1
  Te  Te33  1  0.24561599  0.25954299  0.74331442  1
  Te  Te34  1  0.24987384  0.75380532  0.25168211  1
  Te  Te35  1  0.24963371  0.74178143  0.74761595  1
  Te  Te36  1  0.75047799  0.25633936  0.26214170  1
  Te  Te37  1  0.75476278  0.25836011  0.74372509  1
  Te  Te38  1  0.74991336  0.74550861  0.25187611  1
  Te  Te39  1  0.75054192  0.74238743  0.74814397  1
  Te  Te40  1  0.24874092  -0.00390222  -0.00211196  1
  Te  Te41  1  0.24780007  -0.00469503  0.50143647  1
  Te  Te42  1  0.24766583  0.50458837  0.00374179  1
  Te  Te43  1  0.25017874  0.50382229  0.49601720  1
  Te  Te44  1  0.75102797  -0.00868226  0.00258211  1
  Te  Te45  1  0.74880088  -0.00411305  0.49695840  1
  Te  Te46  1  0.75221262  0.50454155  -0.00412816  1
  Te  Te47  1  0.74765059  0.50370868  0.50399021  1
  Te  Te48  1  -0.00058372  0.25460400  -0.00891769  1
  Te  Te49  1  -0.00048681  0.25004611  0.50416509  1
  Te  Te50  1  0.00008106  0.74839298  -0.00117625  1
  Te  Te51  1  -0.00033707  0.74812235  0.50052424  1
  Te  Te52  1  0.50051746  0.23379448  -0.00127617  1
  Te  Te53  1  0.49894636  0.23939915  0.50185766  1
  Te  Te54  1  0.49914642  0.75814090  -0.00045170  1
  Te  Te55  1  0.49846502  0.75799723  0.50016668  1
  Te  Te56  1  0.00663358  0.00346675  0.23782561  1
  Te  Te57  1  -0.00030475  0.01752410  0.75975100  1
  Te  Te58  1  -0.00691597  0.49744930  0.24977678  1
  Te  Te59  1  -0.00022906  0.49552907  0.74867395  1
  Te  Te60  1  0.49280180  0.00071558  0.24947159  1
  Te  Te61  1  0.50075331  0.00166188  0.75122896  1
  Te  Te62  1  0.51463668  0.49732905  0.24750393  1
  Te  Te63  1  0.49885048  0.49772296  0.75173166  1
