# generated using pymatgen
data_AgSbTe2
_symmetry_space_group_name_H-M   'P 1'
_cell_length_a   12.21688940
_cell_length_b   12.22551484
_cell_length_c   12.22618071
_cell_angle_alpha   89.99899809
_cell_angle_beta   90.01195378
_cell_angle_gamma   89.99634657
_symmetry_Int_Tables_number   1
_chemical_formula_structural   AgSbTe2
_chemical_formula_sum   'Ag16 Sb16 Te32'
_cell_volume   1826.07495157
_cell_formula_units_Z   16
loop_
 _symmetry_equiv_pos_site_id
 _symmetry_equiv_pos_as_xyz
  1  'x, y, z'
loop_
 _atom_site_type_symbol
 _atom_site_label
 _atom_site_symmetry_multiplicity
 _atom_site_fract_x
 _atom_site_fract_y
 _atom_site_fract_z
 _atom_site_occupancy
  Ag  Ag0  1  0.50721706  0.24753226  0.24166722  1
  Ag  Ag1  1  -0.00011468  0.75324933  0.25157545  1
  Ag  Ag2  1  0.50171155  0.01131729  0.00118826  1
  Ag  Ag3  1  0.00151396  0.49706052  0.49731726  1
  Ag  Ag4  1  0.50019833  0.48858575  -0.00074830  1
  Ag  Ag5  1  0.49936286  0.24948131  0.75883222  1
  Ag  Ag6  1  0.74731367  0.24724717  0.00616582  1
  Ag  Ag7  1  0.75557359  0.00737989  0.24783647  1
  Ag  Ag8  1  0.75421960  0.24805680  0.49255352  1
  Ag  Ag9  1  0.24917633  0.49752573  0.75065736  1
  Ag  Ag10  1  0.24468630  0.75063798  0.50031950  1
  Ag  Ag11  1  0.00014157  0.00306320  0.49368604  1
  Ag  Ag12  1  -0.00222566  0.00690262  0.00681410  1
  Ag  Ag13  1  0.00021812  0.49329133  0.00289333  1
  Ag  Ag14  1  -0.00733794  0.24554382  0.24798077  1
  Ag  Ag15  1  0.24891344  0.00227544  0.75051606  1
  Sb  Sb16  1  0.24435123  0.00062727  0.24958066  1
  Sb  Sb17  1  0.75023710  0.00430440  0.75182046  1
  Sb  Sb18  1  0.24367131  0.24911375  0.50123367  1
  Sb  Sb19  1  0.50056543  0.75218535  0.24896050  1
  Sb  Sb20  1  0.75002551  0.49583701  0.75129869  1
  Sb  Sb21  1  0.00255472  0.75025730  0.74797356  1
  Sb  Sb22  1  0.25252011  0.24944995  -0.00076668  1
  Sb  Sb23  1  0.75229459  0.49099923  0.24954320  1
  Sb  Sb24  1  0.49777050  0.49485724  0.50076816  1
  Sb  Sb25  1  0.75231861  0.75287873  0.00295394  1
  Sb  Sb26  1  0.00108137  0.24954072  0.75346248  1
  Sb  Sb27  1  0.75561910  0.75189969  0.49536866  1
  Sb  Sb28  1  0.24747130  0.49942022  0.24931207  1
  Sb  Sb29  1  0.49610342  0.75112354  0.75114116  1
  Sb  Sb30  1  0.49921807  0.00378650  0.49858137  1
  Sb  Sb31  1  0.24778172  0.75053933  0.00045152  1
  Te  Te32  1  0.25050685  0.24978889  0.25147473  1
  Te  Te33  1  0.25612071  0.24963480  0.74893912  1
  Te  Te34  1  0.24408341  0.74984975  0.25659722  1
  Te  Te35  1  0.25029195  0.75050411  0.74483514  1
  Te  Te36  1  0.75171538  0.24713765  0.24825994  1
  Te  Te37  1  0.74234888  0.24968835  0.75202519  1
  Te  Te38  1  0.75572781  0.76124690  0.25058214  1
  Te  Te39  1  0.74923900  0.74969662  0.74892033  1
  Te  Te40  1  0.24865733  -0.00207749  -0.00526272  1
  Te  Te41  1  0.24603804  -0.00145054  0.50443131  1
  Te  Te42  1  0.24733487  0.50219082  -0.00531416  1
  Te  Te43  1  0.24558131  0.50169070  0.50442059  1
  Te  Te44  1  0.75193910  0.00304886  0.00110417  1
  Te  Te45  1  0.75463298  0.00300999  0.49807852  1
  Te  Te46  1  0.75205376  0.49505560  -0.00025402  1
  Te  Te47  1  0.75690449  0.49604878  0.50028198  1
  Te  Te48  1  -0.00184548  0.24991106  0.00012961  1
  Te  Te49  1  -0.00383705  0.24969313  0.49975619  1
  Te  Te50  1  -0.00043343  0.74904467  0.00606290  1
  Te  Te51  1  0.00213746  0.74985327  0.49682785  1
  Te  Te52  1  0.50026048  0.24947848  0.00168868  1
  Te  Te53  1  0.50776400  0.25081305  0.49724133  1
  Te  Te54  1  0.50030992  0.74921359  0.00190007  1
  Te  Te55  1  0.49342692  0.74923630  0.49854460  1
  Te  Te56  1  0.00056473  0.00424376  0.24865902  1
  Te  Te57  1  0.00451096  0.00058421  0.75109742  1
  Te  Te58  1  0.00017448  0.49778262  0.24822510  1
  Te  Te59  1  0.00497037  0.49970780  0.75197959  1
  Te  Te60  1  0.50272929  0.00319116  0.24629981  1
  Te  Te61  1  0.49654851  0.00217237  0.75376299  1
  Te  Te62  1  0.49936262  0.49654793  0.24396176  1
  Te  Te63  1  0.49602813  0.49749214  0.75380509  1
