# generated using pymatgen
data_AgSbTe2
_symmetry_space_group_name_H-M   'P 1'
_cell_length_a   12.21123871
_cell_length_b   12.21268603
_cell_length_c   12.21836470
_cell_angle_alpha   90.00241356
_cell_angle_beta   90.00165217
_cell_angle_gamma   90.00776974
_symmetry_Int_Tables_number   1
_chemical_formula_structural   AgSbTe2
_chemical_formula_sum   'Ag16 Sb16 Te32'
_cell_volume   1822.14944274
_cell_formula_units_Z   16
loop_
 _symmetry_equiv_pos_site_id
 _symmetry_equiv_pos_as_xyz
  1  'x, y, z'
loop_
 _atom_site_type_symbol
 _atom_site_label
 _atom_site_symmetry_multiplicity
 _atom_site_fract_x
 _atom_site_fract_y
 _atom_site_fract_z
 _atom_site_occupancy
  Ag  Ag0  1  0.75178040  0.50299337  0.24536874  1
  Ag  Ag1  1  0.75275327  0.75082189  0.00287576  1
  Ag  Ag2  1  -0.00342291  0.75828631  0.24902479  1
  Ag  Ag3  1  0.00662018  -0.00242191  0.49552311  1
  Ag  Ag4  1  0.24740542  0.24018253  0.49931138  1
  Ag  Ag5  1  0.49226197  -0.00058992  0.49892714  1
  Ag  Ag6  1  0.75641336  -0.00243451  0.24663631  1
  Ag  Ag7  1  -0.00023267  0.75447862  0.75057330  1
  Ag  Ag8  1  0.50384962  0.50138775  0.00069198  1
  Ag  Ag9  1  0.24594635  0.76052606  0.50057705  1
  Ag  Ag10  1  0.00048566  0.24219702  0.24921514  1
  Ag  Ag11  1  0.49872832  -0.00042227  0.00174493  1
  Ag  Ag12  1  0.24708620  -0.00098665  0.74665562  1
  Ag  Ag13  1  0.75108372  0.50377629  0.75559718  1
  Ag  Ag14  1  0.00082186  -0.00207545  0.00557548  1
  Ag  Ag15  1  0.24850753  0.24389465  0.00120893  1
  Sb  Sb16  1  0.00213553  0.24539296  0.75082263  1
  Sb  Sb17  1  0.50372356  0.75328123  0.24925379  1
  Sb  Sb18  1  0.75204893  0.24891092  0.00230210  1
  Sb  Sb19  1  0.50067274  0.75144997  0.75041033  1
  Sb  Sb20  1  0.00036312  0.50233093  0.49901905  1
  Sb  Sb21  1  0.75462326  0.75266150  0.49720403  1
  Sb  Sb22  1  0.75315547  -0.00437434  0.75401214  1
  Sb  Sb23  1  0.49865499  0.24870952  0.75052945  1
  Sb  Sb24  1  0.24883452  0.50074408  0.24737622  1
  Sb  Sb25  1  0.24641005  0.75773970  -0.00001756  1
  Sb  Sb26  1  0.24863931  0.50224492  0.75320786  1
  Sb  Sb27  1  0.24152804  -0.00024992  0.25492325  1
  Sb  Sb28  1  -0.00412530  0.50230098  0.00115959  1
  Sb  Sb29  1  0.75388962  0.24663102  0.49779260  1
  Sb  Sb30  1  0.49849010  0.24692774  0.24921069  1
  Sb  Sb31  1  0.49983809  0.50039365  0.49875620  1
  Te  Te32  1  0.24373360  0.25141599  0.24980315  1
  Te  Te33  1  0.24901427  0.24583655  0.74937142  1
  Te  Te34  1  0.24113629  0.74795196  0.25451155  1
  Te  Te35  1  0.24434217  0.75333302  0.74719098  1
  Te  Te36  1  0.75728454  0.24914210  0.25019953  1
  Te  Te37  1  0.75092260  0.26022727  0.74946348  1
  Te  Te38  1  0.75403691  0.75124025  0.24746498  1
  Te  Te39  1  0.75498971  0.74712905  0.75402083  1
  Te  Te40  1  0.25088098  0.00095763  -0.00316056  1
  Te  Te41  1  0.24930181  0.00024246  0.49995168  1
  Te  Te42  1  0.25808327  0.49334656  -0.00157526  1
  Te  Te43  1  0.25251248  0.49776115  0.50097582  1
  Te  Te44  1  0.74991137  -0.00131035  0.00059743  1
  Te  Te45  1  0.74998347  -0.00014279  0.49732029  1
  Te  Te46  1  0.74730920  0.50106140  0.00210747  1
  Te  Te47  1  0.74768787  0.49999786  0.49763821  1
  Te  Te48  1  0.00398250  0.24508286  0.00230493  1
  Te  Te49  1  0.00454757  0.24506473  0.49718563  1
  Te  Te50  1  -0.00174823  0.75312567  0.00164652  1
  Te  Te51  1  0.00257571  0.75299887  0.49916824  1
  Te  Te52  1  0.49404660  0.24546867  0.00054512  1
  Te  Te53  1  0.49186840  0.24357280  0.49981868  1
  Te  Te54  1  0.50362611  0.75285699  0.00048362  1
  Te  Te55  1  0.49236431  0.75601965  0.49970751  1
  Te  Te56  1  -0.00156672  -0.00078243  0.24922254  1
  Te  Te57  1  0.00103233  -0.00353425  0.74982340  1
  Te  Te58  1  -0.00630477  0.50021858  0.24952728  1
  Te  Te59  1  -0.00424439  0.50727845  0.75007272  1
  Te  Te60  1  0.50945071  0.00011260  0.24733667  1
  Te  Te61  1  0.49699514  -0.00071684  0.75127448  1
  Te  Te62  1  0.50792097  0.49975278  0.24549701  1
  Te  Te63  1  0.50535294  0.50058214  0.75503545  1
