# generated using pymatgen
data_AgSbTe2
_symmetry_space_group_name_H-M   'P 1'
_cell_length_a   12.21447668
_cell_length_b   12.21031264
_cell_length_c   12.22110528
_cell_angle_alpha   89.99927818
_cell_angle_beta   89.99820678
_cell_angle_gamma   89.99263171
_symmetry_Int_Tables_number   1
_chemical_formula_structural   AgSbTe2
_chemical_formula_sum   'Ag16 Sb16 Te32'
_cell_volume   1822.68714335
_cell_formula_units_Z   16
loop_
 _symmetry_equiv_pos_site_id
 _symmetry_equiv_pos_as_xyz
  1  'x, y, z'
loop_
 _atom_site_type_symbol
 _atom_site_label
 _atom_site_symmetry_multiplicity
 _atom_site_fract_x
 _atom_site_fract_y
 _atom_site_fract_z
 _atom_site_occupancy
  Ag  Ag0  1  0.49323085  0.74281517  0.25308029  1
  Ag  Ag1  1  0.00099561  0.25227493  0.74950136  1
  Ag  Ag2  1  0.00030918  0.25385990  0.25057609  1
  Ag  Ag3  1  0.49617554  0.50350170  0.00339547  1
  Ag  Ag4  1  0.00688159  0.74582814  0.24919540  1
  Ag  Ag5  1  0.74888979  0.49737550  0.74681847  1
  Ag  Ag6  1  0.74750472  0.49977518  0.25283242  1
  Ag  Ag7  1  0.75051965  0.25542175  0.49935253  1
  Ag  Ag8  1  0.49705153  -0.00256756  0.49883421  1
  Ag  Ag9  1  0.25302181  0.50701924  0.25106893  1
  Ag  Ag10  1  0.49866410  0.50258011  0.49585634  1
  Ag  Ag11  1  0.24870796  -0.00121928  0.74902009  1
  Ag  Ag12  1  0.00410146  -0.00090204  0.00042029  1
  Ag  Ag13  1  0.24975254  0.74588362  0.00459770  1
  Ag  Ag14  1  0.25142994  0.50212736  0.74907796  1
  Ag  Ag15  1  0.25345369  0.74583227  0.49551978  1
  Sb  Sb16  1  0.00440204  0.50224142  0.00283048  1
  Sb  Sb17  1  0.24922099  -0.00753765  0.25149943  1
  Sb  Sb18  1  0.00199955  0.50024977  0.49793384  1
  Sb  Sb19  1  0.00326394  -0.00048114  0.50043497  1
  Sb  Sb20  1  0.75276081  0.25347689  0.00135325  1
  Sb  Sb21  1  0.74976848  0.74704098  0.00202148  1
  Sb  Sb22  1  0.74652264  0.74463095  0.49725621  1
  Sb  Sb23  1  0.49495015  -0.00502479  0.00056384  1
  Sb  Sb24  1  0.00465967  0.74808026  0.75056691  1
  Sb  Sb25  1  0.24792977  0.25391596  0.00043345  1
  Sb  Sb26  1  0.49613020  0.74709849  0.74627437  1
  Sb  Sb27  1  0.49967074  0.25319732  0.74782918  1
  Sb  Sb28  1  0.49945435  0.25860827  0.25286649  1
  Sb  Sb29  1  0.75014860  0.00172786  0.25210195  1
  Sb  Sb30  1  0.24989968  0.25373007  0.49908492  1
  Sb  Sb31  1  0.75125701  0.00301955  0.74707521  1
  Te  Te32  1  0.24324189  0.25788306  0.25100230  1
  Te  Te33  1  0.24427854  0.25229512  0.74971626  1
  Te  Te34  1  0.24930231  0.74795503  0.25081019  1
  Te  Te35  1  0.24856289  0.74619176  0.74943816  1
  Te  Te36  1  0.75520192  0.25554759  0.25325438  1
  Te  Te37  1  0.75512057  0.25505813  0.74639511  1
  Te  Te38  1  0.75165575  0.74339994  0.25098478  1
  Te  Te39  1  0.75206770  0.74083936  0.74952459  1
  Te  Te40  1  0.24864867  -0.00478380  -0.00500663  1
  Te  Te41  1  0.25499884  -0.00292733  0.50420715  1
  Te  Te42  1  0.25343826  0.50367073  -0.00123262  1
  Te  Te43  1  0.25292727  0.50223953  0.50105085  1
  Te  Te44  1  0.75518818  -0.00040658  -0.00123483  1
  Te  Te45  1  0.74228810  0.00537700  0.50140577  1
  Te  Te46  1  0.74332848  0.50079173  0.00016324  1
  Te  Te47  1  0.74619962  0.49822831  0.49953805  1
  Te  Te48  1  0.00027726  0.24499901  0.00053858  1
  Te  Te49  1  -0.00448767  0.24918546  0.49921500  1
  Te  Te50  1  0.00516143  0.75299279  0.00496706  1
  Te  Te51  1  0.00621729  0.75132852  0.49297264  1
  Te  Te52  1  0.50023090  0.25567420  0.00060183  1
  Te  Te53  1  0.50458900  0.25126474  0.49865419  1
  Te  Te54  1  0.49500937  0.74662039  0.00597334  1
  Te  Te55  1  0.49684823  0.74713089  0.49696589  1
  Te  Te56  1  -0.00009492  0.00101559  0.24668352  1
  Te  Te57  1  0.00353666  0.00303526  0.75225841  1
  Te  Te58  1  0.00048646  0.50016911  0.24822662  1
  Te  Te59  1  0.00175369  0.49655838  0.75177216  1
  Te  Te60  1  0.50042640  -0.00638549  0.25341051  1
  Te  Te61  1  0.49482756  0.00050890  0.74742229  1
  Te  Te62  1  0.49853750  0.50106330  0.25226770  1
  Te  Te63  1  0.49750327  0.49989917  0.74878019  1
