# generated using pymatgen
data_AgSbTe2
_symmetry_space_group_name_H-M   'P 1'
_cell_length_a   12.22047442
_cell_length_b   12.22627043
_cell_length_c   12.22324197
_cell_angle_alpha   90.00231546
_cell_angle_beta   90.00028769
_cell_angle_gamma   90.00438916
_symmetry_Int_Tables_number   1
_chemical_formula_structural   AgSbTe2
_chemical_formula_sum   'Ag16 Sb16 Te32'
_cell_volume   1826.28466058
_cell_formula_units_Z   16
loop_
 _symmetry_equiv_pos_site_id
 _symmetry_equiv_pos_as_xyz
  1  'x, y, z'
loop_
 _atom_site_type_symbol
 _atom_site_label
 _atom_site_symmetry_multiplicity
 _atom_site_fract_x
 _atom_site_fract_y
 _atom_site_fract_z
 _atom_site_occupancy
  Ag  Ag0  1  0.74453618  0.74251778  0.50257382  1
  Ag  Ag1  1  0.49415145  0.01392904  0.50082304  1
  Ag  Ag2  1  0.49855918  0.24818315  0.26506015  1
  Ag  Ag3  1  0.50505365  0.49853601  -0.00345745  1
  Ag  Ag4  1  0.50505090  0.48598036  0.50320126  1
  Ag  Ag5  1  0.25765069  0.00205458  0.74255776  1
  Ag  Ag6  1  -0.00506778  0.49950720  0.50228041  1
  Ag  Ag7  1  0.26629464  0.24640563  0.50059243  1
  Ag  Ag8  1  0.73342810  0.25654890  0.50229244  1
  Ag  Ag9  1  0.49997643  0.25066082  0.73511564  1
  Ag  Ag10  1  0.74539780  0.49988908  0.74563288  1
  Ag  Ag11  1  0.25602172  0.75321108  0.50086296  1
  Ag  Ag12  1  0.49936571  0.00182422  -0.00091233  1
  Ag  Ag13  1  0.74581573  0.74431926  -0.00293191  1
  Ag  Ag14  1  -0.00490648  0.50090446  -0.00235517  1
  Ag  Ag15  1  0.25734705  0.00219924  0.25736591  1
  Sb  Sb16  1  0.00122223  0.74832594  0.25177363  1
  Sb  Sb17  1  0.25520204  0.75020704  -0.00180685  1
  Sb  Sb18  1  -0.00169864  -0.00217182  -0.00118521  1
  Sb  Sb19  1  0.50068971  0.74820513  0.74511128  1
  Sb  Sb20  1  0.25635558  0.24942167  -0.00112698  1
  Sb  Sb21  1  0.00256094  0.25142824  0.25389126  1
  Sb  Sb22  1  0.00915135  -0.00043541  0.50086114  1
  Sb  Sb23  1  0.73934282  0.00255147  0.25223737  1
  Sb  Sb24  1  0.49855999  0.75346795  0.25490648  1
  Sb  Sb25  1  0.00004775  0.25421187  0.74667389  1
  Sb  Sb26  1  0.74296817  0.25901743  -0.00432213  1
  Sb  Sb27  1  0.73856584  0.00190220  0.74681866  1
  Sb  Sb28  1  0.74541226  0.49859423  0.25825941  1
  Sb  Sb29  1  -0.00064238  0.74547785  0.74802686  1
  Sb  Sb30  1  0.25508826  0.49603891  0.25622429  1
  Sb  Sb31  1  0.25830923  0.49621553  0.74412986  1
  Te  Te32  1  0.25649643  0.24348640  0.25750941  1
  Te  Te33  1  0.25691100  0.24523703  0.74322183  1
  Te  Te34  1  0.25039345  0.76082323  0.25980290  1
  Te  Te35  1  0.24970814  0.75911561  0.74124012  1
  Te  Te36  1  0.74145101  0.24806768  0.26065918  1
  Te  Te37  1  0.74343671  0.25506749  0.74311144  1
  Te  Te38  1  0.75023684  0.75166909  0.25216748  1
  Te  Te39  1  0.75003122  0.74328135  0.74749125  1
  Te  Te40  1  0.25693118  -0.00215221  -0.00047519  1
  Te  Te41  1  0.25013812  0.00033536  0.50064761  1
  Te  Te42  1  0.25154649  0.50291749  -0.00134034  1
  Te  Te43  1  0.25137045  0.50055334  0.50131155  1
  Te  Te44  1  0.74394383  -0.00906946  -0.00082341  1
  Te  Te45  1  0.74469515  -0.00184232  0.50181542  1
  Te  Te46  1  0.74675500  0.50290703  -0.00463860  1
  Te  Te47  1  0.74790800  0.50182817  0.50013458  1
  Te  Te48  1  -0.00103653  0.26069633  0.00108310  1
  Te  Te49  1  -0.00031849  0.25876980  0.49922396  1
  Te  Te50  1  -0.00864199  0.74135847  0.00093933  1
  Te  Te51  1  -0.00246278  0.74135449  0.49969906  1
  Te  Te52  1  0.50076217  0.25057646  -0.00039416  1
  Te  Te53  1  0.49944526  0.24980678  0.50061010  1
  Te  Te54  1  0.50522434  0.74816016  0.00133154  1
  Te  Te55  1  0.50107603  0.74965733  0.49916992  1
  Te  Te56  1  0.01463859  0.00165668  0.24669966  1
  Te  Te57  1  0.01391585  0.00265709  0.75337095  1
  Te  Te58  1  0.00271217  0.49833781  0.24922300  1
  Te  Te59  1  -0.00863494  0.49807689  0.74942884  1
  Te  Te60  1  0.49440244  0.00563249  0.25054699  1
  Te  Te61  1  0.49611696  0.00629933  0.74942409  1
  Te  Te62  1  0.49782813  0.49059455  0.24872657  1
  Te  Te63  1  0.50320962  0.49501103  0.74990703  1
