# generated using pymatgen
data_AgSbTe2
_symmetry_space_group_name_H-M   'P 1'
_cell_length_a   12.22409452
_cell_length_b   12.23920522
_cell_length_c   12.23324759
_cell_angle_alpha   89.99647085
_cell_angle_beta   90.00207296
_cell_angle_gamma   89.99983625
_symmetry_Int_Tables_number   1
_chemical_formula_structural   AgSbTe2
_chemical_formula_sum   'Ag16 Sb16 Te32'
_cell_volume   1830.25533148
_cell_formula_units_Z   16
loop_
 _symmetry_equiv_pos_site_id
 _symmetry_equiv_pos_as_xyz
  1  'x, y, z'
loop_
 _atom_site_type_symbol
 _atom_site_label
 _atom_site_symmetry_multiplicity
 _atom_site_fract_x
 _atom_site_fract_y
 _atom_site_fract_z
 _atom_site_occupancy
  Ag  Ag0  1  0.00188968  0.49394036  0.50373547  1
  Ag  Ag1  1  0.00067932  0.49541227  -0.00375103  1
  Ag  Ag2  1  0.24192942  0.25080213  0.49385074  1
  Ag  Ag3  1  0.00183145  0.00684233  0.49653637  1
  Ag  Ag4  1  0.24183945  0.00710630  0.24911010  1
  Ag  Ag5  1  0.75885672  0.00273779  0.24776024  1
  Ag  Ag6  1  0.76207207  0.25291710  0.00072008  1
  Ag  Ag7  1  -0.00156990  0.74273280  0.75587506  1
  Ag  Ag8  1  0.00606082  0.24986206  0.24689518  1
  Ag  Ag9  1  0.75831064  0.74709463  -0.00364016  1
  Ag  Ag10  1  0.50012414  0.74732958  0.75358027  1
  Ag  Ag11  1  0.75766671  0.50157941  0.75438448  1
  Ag  Ag12  1  0.24186240  0.74714183  -0.00025285  1
  Ag  Ag13  1  0.24269206  0.49305587  0.24624490  1
  Ag  Ag14  1  0.23885497  0.25344349  0.00556108  1
  Ag  Ag15  1  0.00038314  0.25617639  0.75394727  1
  Sb  Sb16  1  0.24523555  0.74902885  0.49970044  1
  Sb  Sb17  1  0.24123577  0.49992400  0.75334920  1
  Sb  Sb18  1  0.24516408  0.00032519  0.75119305  1
  Sb  Sb19  1  0.75506406  0.74974650  0.50367505  1
  Sb  Sb20  1  0.75850535  0.49762339  0.24537402  1
  Sb  Sb21  1  0.49632857  0.49973479  0.50222366  1
  Sb  Sb22  1  0.75504382  -0.00022969  0.75270791  1
  Sb  Sb23  1  0.76042094  0.25013783  0.49893451  1
  Sb  Sb24  1  0.49942686  0.75010804  0.24640728  1
  Sb  Sb25  1  0.00033320  0.00555834  0.00398009  1
  Sb  Sb26  1  0.49968147  -0.00069978  0.00035770  1
  Sb  Sb27  1  0.49787109  0.50097024  -0.00100145  1
  Sb  Sb28  1  0.50041220  0.25298829  0.75148768  1
  Sb  Sb29  1  0.49481716  0.25005951  0.24914446  1
  Sb  Sb30  1  0.00066985  0.75126637  0.24305128  1
  Sb  Sb31  1  0.49787018  0.00045975  0.49919740  1
  Te  Te32  1  0.24877976  0.24873500  0.24661361  1
  Te  Te33  1  0.24727364  0.25011336  0.75410320  1
  Te  Te34  1  0.25108269  0.75184214  0.24463751  1
  Te  Te35  1  0.24615312  0.74995187  0.75566553  1
  Te  Te36  1  0.75241592  0.24837426  0.24629123  1
  Te  Te37  1  0.75259235  0.25104216  0.75427609  1
  Te  Te38  1  0.74832767  0.75312656  0.24250375  1
  Te  Te39  1  0.75649310  0.74992738  0.75378565  1
  Te  Te40  1  0.24985594  0.00010374  0.00459404  1
  Te  Te41  1  0.24661513  0.00180623  0.49513918  1
  Te  Te42  1  0.24698696  0.49923940  0.00145912  1
  Te  Te43  1  0.24526292  0.49825589  0.49630165  1
  Te  Te44  1  0.74974724  0.00033832  0.00461505  1
  Te  Te45  1  0.75400346  0.00065163  0.49151787  1
  Te  Te46  1  0.75320422  0.49990511  -0.00079450  1
  Te  Te47  1  0.75580365  0.49922639  0.50314947  1
  Te  Te48  1  0.00056761  0.24957070  0.00000375  1
  Te  Te49  1  0.00222094  0.25178879  0.49981726  1
  Te  Te50  1  0.00039988  0.74832733  -0.00225562  1
  Te  Te51  1  0.00033191  0.74702067  0.50797246  1
  Te  Te52  1  0.49940402  0.24994335  -0.00141591  1
  Te  Te53  1  0.48644999  0.25020817  0.50144819  1
  Te  Te54  1  0.49963823  0.74983297  -0.00463184  1
  Te  Te55  1  0.49962167  0.74945199  0.50937578  1
  Te  Te56  1  0.00126653  0.00097771  0.25385039  1
  Te  Te57  1  0.00027723  0.00243955  0.74070398  1
  Te  Te58  1  0.00317806  0.49768956  0.24850204  1
  Te  Te59  1  -0.00101536  0.49810334  0.75232749  1
  Te  Te60  1  0.49981092  -0.00058818  0.25093304  1
  Te  Te61  1  0.50090972  -0.00829177  0.74863731  1
  Te  Te62  1  0.48903079  0.50094398  0.25155992  1
  Te  Te63  1  0.51174682  0.50476642  0.74897382  1
