# generated using pymatgen
data_AgSbTe2
_symmetry_space_group_name_H-M   'P 1'
_cell_length_a   12.28975355
_cell_length_b   12.28286292
_cell_length_c   12.28975352
_cell_angle_alpha   90.00000001
_cell_angle_beta   90.00384706
_cell_angle_gamma   89.99999982
_symmetry_Int_Tables_number   1
_chemical_formula_structural   AgSbTe2
_chemical_formula_sum   'Ag16 Sb16 Te32'
_cell_volume   1855.17956060
_cell_formula_units_Z   16
loop_
 _symmetry_equiv_pos_site_id
 _symmetry_equiv_pos_as_xyz
  1  'x, y, z'
loop_
 _atom_site_type_symbol
 _atom_site_label
 _atom_site_symmetry_multiplicity
 _atom_site_fract_x
 _atom_site_fract_y
 _atom_site_fract_z
 _atom_site_occupancy
  Ag  Ag0  1  0.00657595  0.24999997  0.24543967  1
  Ag  Ag1  1  0.00807671  0.50036494  0.48281558  1
  Ag  Ag2  1  0.24700177  0.50075230  0.76337265  1
  Ag  Ag3  1  0.48281500  -0.00036497  0.00807757  1
  Ag  Ag4  1  0.01709982  0.49507741  0.01710122  1
  Ag  Ag5  1  0.48281525  0.50036497  0.00807734  1
  Ag  Ag6  1  0.01710121  0.00492258  0.01709949  1
  Ag  Ag7  1  0.23755498  0.50088407  0.23755509  1
  Ag  Ag8  1  0.23755462  -0.00088408  0.23755556  1
  Ag  Ag9  1  0.76337269  -0.00075224  0.24700171  1
  Ag  Ag10  1  0.76337258  0.50075222  0.24700171  1
  Ag  Ag11  1  0.24631101  0.74999999  0.49211922  1
  Ag  Ag12  1  0.24543974  0.25000003  0.00657612  1
  Ag  Ag13  1  0.00807716  -0.00036496  0.48281522  1
  Ag  Ag14  1  0.24700178  -0.00075230  0.76337253  1
  Ag  Ag15  1  0.49211903  0.74999996  0.24631126  1
  Sb  Sb16  1  0.49205835  0.75000000  0.75705991  1
  Sb  Sb17  1  0.24658958  0.25000003  0.49141392  1
  Sb  Sb18  1  0.75705990  0.75000001  0.49205843  1
  Sb  Sb19  1  0.74973328  0.75000002  0.00647155  1
  Sb  Sb20  1  0.75263786  0.50063987  0.75263787  1
  Sb  Sb21  1  0.00438238  0.25000002  0.75806339  1
  Sb  Sb22  1  0.00647144  0.75000001  0.74973329  1
  Sb  Sb23  1  0.48884503  0.50449343  0.48884490  1
  Sb  Sb24  1  0.75523207  0.24999998  0.49336747  1
  Sb  Sb25  1  0.49336754  0.25000000  0.75523200  1
  Sb  Sb26  1  0.49141394  0.25000003  0.24658961  1
  Sb  Sb27  1  0.75806336  0.24999996  0.00438235  1
  Sb  Sb28  1  0.75263785  -0.00063989  0.75263789  1
  Sb  Sb29  1  0.00912023  0.75000013  0.24980500  1
  Sb  Sb30  1  0.48884494  -0.00449342  0.48884490  1
  Sb  Sb31  1  0.24980500  0.74999989  0.00912016  1
  Te  Te32  1  0.24273927  0.25000001  0.24273907  1
  Te  Te33  1  0.24807597  0.25000002  0.76391783  1
  Te  Te34  1  0.25697223  0.75000000  0.25697207  1
  Te  Te35  1  0.25083476  0.75000003  0.73216743  1
  Te  Te36  1  0.76391779  0.24999999  0.24807598  1
  Te  Te37  1  0.74946298  0.25000000  0.74946310  1
  Te  Te38  1  0.73216732  0.75000000  0.25083460  1
  Te  Te39  1  0.74496259  0.74999999  0.74496253  1
  Te  Te40  1  0.24726585  -0.00993741  0.00293744  1
  Te  Te41  1  0.24599088  0.00463729  0.49786839  1
  Te  Te42  1  0.24726692  0.50993752  0.00293769  1
  Te  Te43  1  0.24599114  0.49536271  0.49786839  1
  Te  Te44  1  0.75204990  0.00005337  0.00525985  1
  Te  Te45  1  0.76112706  0.00030613  0.49615035  1
  Te  Te46  1  0.75204986  0.49994664  0.00525984  1
  Te  Te47  1  0.76112714  0.49969387  0.49615030  1
  Te  Te48  1  0.00688488  0.24999996  0.00688492  1
  Te  Te49  1  0.00270825  0.25000005  0.48771437  1
  Te  Te50  1  -0.00228463  0.75000004  -0.00228456  1
  Te  Te51  1  0.00657080  0.74999996  0.50155240  1
  Te  Te52  1  0.48771439  0.24999997  0.00270822  1
  Te  Te53  1  0.50094422  0.24999999  0.50094428  1
  Te  Te54  1  0.50155241  0.75000005  0.00657055  1
  Te  Te55  1  0.49092290  0.75000001  0.49092290  1
  Te  Te56  1  0.00293808  -0.00993769  0.24726711  1
  Te  Te57  1  0.00525984  0.00005334  0.75204994  1
  Te  Te58  1  0.00293792  0.50993757  0.24726533  1
  Te  Te59  1  0.00525983  0.49994666  0.75204982  1
  Te  Te60  1  0.49786838  0.00463723  0.24599045  1
  Te  Te61  1  0.49615031  0.00030611  0.76112706  1
  Te  Te62  1  0.49786842  0.49536276  0.24599068  1
  Te  Te63  1  0.49615030  0.49969388  0.76112710  1
