# generated using pymatgen
data_AgSbTe2
_symmetry_space_group_name_H-M   'P 1'
_cell_length_a   12.22028209
_cell_length_b   12.21036301
_cell_length_c   12.21702985
_cell_angle_alpha   89.99409149
_cell_angle_beta   90.00245027
_cell_angle_gamma   90.00040921
_symmetry_Int_Tables_number   1
_chemical_formula_structural   AgSbTe2
_chemical_formula_sum   'Ag16 Sb16 Te32'
_cell_volume   1822.95286317
_cell_formula_units_Z   16
loop_
 _symmetry_equiv_pos_site_id
 _symmetry_equiv_pos_as_xyz
  1  'x, y, z'
loop_
 _atom_site_type_symbol
 _atom_site_label
 _atom_site_symmetry_multiplicity
 _atom_site_fract_x
 _atom_site_fract_y
 _atom_site_fract_z
 _atom_site_occupancy
  Ag  Ag0  1  0.75036707  0.74809895  0.49665672  1
  Ag  Ag1  1  0.00523269  0.50416774  -0.00234880  1
  Ag  Ag2  1  0.25228822  0.25906682  0.50363757  1
  Ag  Ag3  1  0.24963958  0.50693559  0.25557416  1
  Ag  Ag4  1  0.00461550  0.74441474  0.74865306  1
  Ag  Ag5  1  0.74838798  -0.00401682  0.25197888  1
  Ag  Ag6  1  0.00334330  0.25514037  0.74698020  1
  Ag  Ag7  1  0.74844767  0.25200356  0.50115143  1
  Ag  Ag8  1  0.24740784  0.50067406  0.74461934  1
  Ag  Ag9  1  0.49328524  0.50065380  0.50041590  1
  Ag  Ag10  1  0.49620649  0.74883868  0.25338636  1
  Ag  Ag11  1  0.00468660  0.74677179  0.25220121  1
  Ag  Ag12  1  0.24992164  0.74106910  0.49664070  1
  Ag  Ag13  1  0.49898995  -0.00240759  0.00166322  1
  Ag  Ag14  1  0.49694160  0.25294205  0.74488713  1
  Ag  Ag15  1  0.24777933  0.74565546  0.00279451  1
  Sb  Sb16  1  0.00186811  0.25347899  0.25272225  1
  Sb  Sb17  1  0.49842072  0.25159645  0.25443558  1
  Sb  Sb18  1  -0.00060146  -0.00225715  0.49862229  1
  Sb  Sb19  1  0.75139927  0.75051056  0.00291134  1
  Sb  Sb20  1  0.49519271  0.50182419  -0.00011339  1
  Sb  Sb21  1  0.75369549  0.50029467  0.74594717  1
  Sb  Sb22  1  0.49523722  0.74713213  0.74689762  1
  Sb  Sb23  1  0.00154983  -0.00320310  0.00114205  1
  Sb  Sb24  1  0.74965691  0.24916305  -0.00010697  1
  Sb  Sb25  1  0.25184958  -0.00824084  0.24975555  1
  Sb  Sb26  1  0.74877186  -0.00101390  0.74820634  1
  Sb  Sb27  1  0.75119881  0.50348576  0.25466477  1
  Sb  Sb28  1  0.00880176  0.50257406  0.50283546  1
  Sb  Sb29  1  0.24980355  0.25383548  -0.00301223  1
  Sb  Sb30  1  0.25087882  -0.00044822  0.75002684  1
  Sb  Sb31  1  0.50067235  -0.00122306  0.49870324  1
  Te  Te32  1  0.24856436  0.25664992  0.25591693  1
  Te  Te33  1  0.24865943  0.25249456  0.74716132  1
  Te  Te34  1  0.24942345  0.74831616  0.25277031  1
  Te  Te35  1  0.24752618  0.74735700  0.74770655  1
  Te  Te36  1  0.75110347  0.24557595  0.25701483  1
  Te  Te37  1  0.75117336  0.24986342  0.74353562  1
  Te  Te38  1  0.74983086  0.75146425  0.25396800  1
  Te  Te39  1  0.75651419  0.75061532  0.74252304  1
  Te  Te40  1  0.25502440  -0.00679936  0.00109444  1
  Te  Te41  1  0.25062131  0.00022397  0.49891712  1
  Te  Te42  1  0.24731200  0.50425063  -0.00064982  1
  Te  Te43  1  0.25259689  0.50163341  0.50066988  1
  Te  Te44  1  0.74406137  0.00063300  0.00635909  1
  Te  Te45  1  0.74939285  -0.00079771  0.49537060  1
  Te  Te46  1  0.75774541  0.49927431  0.00115943  1
  Te  Te47  1  0.74014588  0.50017994  0.49935360  1
  Te  Te48  1  0.00013494  0.25380283  -0.00605356  1
  Te  Te49  1  -0.00000170  0.24968610  0.50469433  1
  Te  Te50  1  0.00215410  0.74786190  -0.00116271  1
  Te  Te51  1  0.00076691  0.74939591  0.49976331  1
  Te  Te52  1  0.50023562  0.24714668  -0.00554585  1
  Te  Te53  1  0.49865434  0.25164690  0.50253146  1
  Te  Te54  1  0.49770665  0.75117231  0.00152533  1
  Te  Te55  1  0.49889676  0.74838741  0.49908651  1
  Te  Te56  1  -0.00511076  -0.00647339  0.24816934  1
  Te  Te57  1  -0.00037318  0.00039295  0.75226699  1
  Te  Te58  1  0.00426113  0.50460315  0.24465902  1
  Te  Te59  1  0.00325696  0.50152283  0.75250753  1
  Te  Te60  1  0.50230190  -0.00407181  0.24629761  1
  Te  Te61  1  0.50067710  0.00605843  0.75604574  1
  Te  Te62  1  0.49556941  0.50408833  0.25163889  1
  Te  Te63  1  0.49523818  0.49632730  0.74817561  1
