# generated using pymatgen
data_AgSbTe2
_symmetry_space_group_name_H-M   'P 1'
_cell_length_a   12.21477810
_cell_length_b   12.21502084
_cell_length_c   12.21432500
_cell_angle_alpha   89.99702194
_cell_angle_beta   90.00153115
_cell_angle_gamma   90.00222995
_symmetry_Int_Tables_number   1
_chemical_formula_structural   AgSbTe2
_chemical_formula_sum   'Ag16 Sb16 Te32'
_cell_volume   1822.42332072
_cell_formula_units_Z   16
loop_
 _symmetry_equiv_pos_site_id
 _symmetry_equiv_pos_as_xyz
  1  'x, y, z'
loop_
 _atom_site_type_symbol
 _atom_site_label
 _atom_site_symmetry_multiplicity
 _atom_site_fract_x
 _atom_site_fract_y
 _atom_site_fract_z
 _atom_site_occupancy
  Ag  Ag0  1  0.74629188  0.24960223  0.50418858  1
  Ag  Ag1  1  0.50228192  0.25077922  0.74383806  1
  Ag  Ag2  1  0.75222226  0.50063495  0.74657035  1
  Ag  Ag3  1  0.49536627  0.74878081  0.74539743  1
  Ag  Ag4  1  0.24680050  0.50674164  0.74785698  1
  Ag  Ag5  1  0.00387997  0.50337565  -0.00706303  1
  Ag  Ag6  1  0.24988152  0.74506999  -0.00481859  1
  Ag  Ag7  1  0.74797190  -0.00006182  0.74427515  1
  Ag  Ag8  1  0.00445824  0.74407699  0.74613377  1
  Ag  Ag9  1  0.00242472  0.50354638  0.50692340  1
  Ag  Ag10  1  0.49519292  0.74855406  0.25472804  1
  Ag  Ag11  1  0.49916528  0.25125824  0.25551934  1
  Ag  Ag12  1  0.25154124  0.50388047  0.25206457  1
  Ag  Ag13  1  0.50119554  -0.00082469  0.50379370  1
  Ag  Ag14  1  -0.00126904  -0.00308401  0.50472138  1
  Ag  Ag15  1  0.25102503  0.74635224  0.50450778  1
  Sb  Sb16  1  -0.00283368  0.25737356  0.74619971  1
  Sb  Sb17  1  0.25236401  -0.00878814  0.74593106  1
  Sb  Sb18  1  0.49683359  0.50240701  0.50329019  1
  Sb  Sb19  1  0.74734264  0.00062284  0.25796645  1
  Sb  Sb20  1  0.74854603  0.25307890  -0.00529262  1
  Sb  Sb21  1  0.25224141  -0.00461573  0.25352186  1
  Sb  Sb22  1  0.00049171  -0.00545007  -0.00856314  1
  Sb  Sb23  1  0.74871673  0.75000395  0.50416805  1
  Sb  Sb24  1  0.25071033  0.25611647  -0.00237485  1
  Sb  Sb25  1  0.49512248  0.50256837  -0.00313591  1
  Sb  Sb26  1  0.00203742  0.25238874  0.25454984  1
  Sb  Sb27  1  0.00567144  0.74756831  0.25531996  1
  Sb  Sb28  1  0.49988773  -0.00274554  -0.00509551  1
  Sb  Sb29  1  0.75073813  0.74704369  -0.00435437  1
  Sb  Sb30  1  0.74810553  0.49949865  0.25485884  1
  Sb  Sb31  1  0.25538874  0.25480561  0.50183458  1
  Te  Te32  1  0.25743494  0.25752083  0.24929376  1
  Te  Te33  1  0.25831156  0.25870863  0.75070259  1
  Te  Te34  1  0.25439988  0.74590923  0.25234884  1
  Te  Te35  1  0.25107054  0.74763739  0.74735965  1
  Te  Te36  1  0.74128672  0.25115687  0.25625231  1
  Te  Te37  1  0.74565938  0.25148041  0.74621071  1
  Te  Te38  1  0.73851090  0.74897906  0.24787372  1
  Te  Te39  1  0.74849923  0.74762433  0.74991183  1
  Te  Te40  1  0.24807873  -0.00953243  0.00149305  1
  Te  Te41  1  0.24964341  -0.00616387  0.50005967  1
  Te  Te42  1  0.24618392  0.50495047  -0.00117501  1
  Te  Te43  1  0.24707572  0.50352975  0.50134955  1
  Te  Te44  1  0.75189258  0.00067353  -0.01022380  1
  Te  Te45  1  0.74938092  0.00239612  0.50478457  1
  Te  Te46  1  0.75959259  0.49968003  -0.00745634  1
  Te  Te47  1  0.75637575  0.49666111  0.50459855  1
  Te  Te48  1  0.00034125  0.25700605  0.00182513  1
  Te  Te49  1  -0.00506850  0.24875041  0.49969723  1
  Te  Te50  1  0.00473046  0.74617709  -0.00429364  1
  Te  Te51  1  0.00157556  0.74909004  0.50239409  1
  Te  Te52  1  0.49984087  0.24886828  0.00108628  1
  Te  Te53  1  0.50140925  0.24737807  0.50189922  1
  Te  Te54  1  0.49410086  0.75081394  -0.00130394  1
  Te  Te55  1  0.49879576  0.75123683  0.50267683  1
  Te  Te56  1  -0.00083013  0.00004247  0.25908228  1
  Te  Te57  1  -0.00333393  -0.00419999  0.74553800  1
  Te  Te58  1  0.00430313  0.50041478  0.25196913  1
  Te  Te59  1  0.00105545  0.50078579  0.74726596  1
  Te  Te60  1  0.50089930  -0.00003344  0.25628096  1
  Te  Te61  1  0.50185927  -0.00127573  0.74590073  1
  Te  Te62  1  0.49652333  0.50102390  0.24915195  1
  Te  Te63  1  0.50060691  0.50215108  0.74998510  1
