# generated using pymatgen
data_AgSbTe2
_symmetry_space_group_name_H-M   'P 1'
_cell_length_a   12.21965751
_cell_length_b   12.23549761
_cell_length_c   12.23039810
_cell_angle_alpha   90.00065590
_cell_angle_beta   89.99528490
_cell_angle_gamma   89.99933349
_symmetry_Int_Tables_number   1
_chemical_formula_structural   AgSbTe2
_chemical_formula_sum   'Ag16 Sb16 Te32'
_cell_volume   1828.61072485
_cell_formula_units_Z   16
loop_
 _symmetry_equiv_pos_site_id
 _symmetry_equiv_pos_as_xyz
  1  'x, y, z'
loop_
 _atom_site_type_symbol
 _atom_site_label
 _atom_site_symmetry_multiplicity
 _atom_site_fract_x
 _atom_site_fract_y
 _atom_site_fract_z
 _atom_site_occupancy
  Ag  Ag0  1  0.49942757  -0.00305699  -0.00675950  1
  Ag  Ag1  1  0.49674352  0.25404487  0.75217613  1
  Ag  Ag2  1  0.00315319  -0.00051476  0.50776583  1
  Ag  Ag3  1  0.25584903  0.50364598  0.25296453  1
  Ag  Ag4  1  0.25738316  0.50495213  0.74654440  1
  Ag  Ag5  1  0.49051801  0.74504153  0.75336106  1
  Ag  Ag6  1  0.74792443  0.00188184  0.75145184  1
  Ag  Ag7  1  0.25411196  0.74409897  0.50817852  1
  Ag  Ag8  1  0.49482100  0.50451384  -0.00649765  1
  Ag  Ag9  1  0.00363479  0.24821613  0.74833611  1
  Ag  Ag10  1  0.49154528  0.50263922  0.50656076  1
  Ag  Ag11  1  0.74530083  0.24909735  -0.00701050  1
  Ag  Ag12  1  0.25187045  0.25516094  0.50734910  1
  Ag  Ag13  1  0.00914041  0.75146078  0.74874668  1
  Ag  Ag14  1  0.25742467  0.74610064  -0.00841980  1
  Ag  Ag15  1  0.49369341  0.74596829  0.24724601  1
  Sb  Sb16  1  0.74372736  0.50046373  0.24792338  1
  Sb  Sb17  1  0.00420954  0.25034624  0.25194545  1
  Sb  Sb18  1  0.74188964  0.49811093  0.75158683  1
  Sb  Sb19  1  0.74652866  -0.00003469  0.24804507  1
  Sb  Sb20  1  0.74849301  0.24914598  0.50561633  1
  Sb  Sb21  1  0.74695280  0.75016003  0.50393933  1
  Sb  Sb22  1  0.25179684  -0.00541985  0.74992116  1
  Sb  Sb23  1  0.25262248  -0.00311054  0.25016488  1
  Sb  Sb24  1  0.74120737  0.75047345  -0.00409386  1
  Sb  Sb25  1  0.49665752  0.25276297  0.24834164  1
  Sb  Sb26  1  0.25328826  0.25315106  -0.00853056  1
  Sb  Sb27  1  0.00954312  0.50075357  0.50466642  1
  Sb  Sb28  1  0.00686115  0.74976018  0.25164700  1
  Sb  Sb29  1  0.00045044  -0.00120648  -0.00691994  1
  Sb  Sb30  1  0.00479763  0.50075581  -0.00416701  1
  Sb  Sb31  1  0.49840177  -0.00193622  0.50600865  1
  Te  Te32  1  0.24912957  0.25638421  0.25829626  1
  Te  Te33  1  0.25151354  0.25319602  0.74746283  1
  Te  Te34  1  0.25415502  0.74682047  0.25147766  1
  Te  Te35  1  0.25175283  0.74907579  0.74888696  1
  Te  Te36  1  0.75114615  0.25022135  0.24111874  1
  Te  Te37  1  0.74856523  0.24825267  0.75277539  1
  Te  Te38  1  0.74239839  0.74949270  0.24950521  1
  Te  Te39  1  0.75197085  0.75438540  0.75039960  1
  Te  Te40  1  0.25547612  -0.00502718  0.00185136  1
  Te  Te41  1  0.24666455  0.00045158  0.49922484  1
  Te  Te42  1  0.25409302  0.50249414  -0.00295882  1
  Te  Te43  1  0.25321037  0.50172257  0.50454674  1
  Te  Te44  1  0.74583044  0.00298615  -0.00392778  1
  Te  Te45  1  0.75553532  0.00085092  0.50546368  1
  Te  Te46  1  0.74234264  0.49524819  0.00079096  1
  Te  Te47  1  0.73878402  0.49889524  0.49819513  1
  Te  Te48  1  -0.00318179  0.24889948  -0.00633854  1
  Te  Te49  1  0.00244840  0.24859842  0.50500520  1
  Te  Te50  1  0.00669694  0.75079989  -0.00503730  1
  Te  Te51  1  0.00378795  0.75119311  0.50404056  1
  Te  Te52  1  0.49946492  0.24966394  -0.00286962  1
  Te  Te53  1  0.49682538  0.25005957  0.50345832  1
  Te  Te54  1  0.49803733  0.74817550  -0.00515574  1
  Te  Te55  1  0.49688086  0.74996143  0.50387563  1
  Te  Te56  1  -0.00067958  -0.00029808  0.25864987  1
  Te  Te57  1  -0.00317627  0.00056562  0.74788218  1
  Te  Te58  1  0.00777314  0.50048735  0.24942707  1
  Te  Te59  1  0.00541424  0.50038369  0.74997307  1
  Te  Te60  1  0.50085770  -0.00575515  0.24324986  1
  Te  Te61  1  0.50295907  0.00101866  0.75273787  1
  Te  Te62  1  0.49527952  0.50303847  0.24936325  1
  Te  Te63  1  0.49807484  0.50033095  0.75054125  1
