# generated using pymatgen
data_AgSbTe2
_symmetry_space_group_name_H-M   'P 1'
_cell_length_a   12.21400179
_cell_length_b   12.22021691
_cell_length_c   12.22026437
_cell_angle_alpha   89.99817388
_cell_angle_beta   89.99960981
_cell_angle_gamma   90.00619290
_symmetry_Int_Tables_number   1
_chemical_formula_structural   AgSbTe2
_chemical_formula_sum   'Ag16 Sb16 Te32'
_cell_volume   1823.96916885
_cell_formula_units_Z   16
loop_
 _symmetry_equiv_pos_site_id
 _symmetry_equiv_pos_as_xyz
  1  'x, y, z'
loop_
 _atom_site_type_symbol
 _atom_site_label
 _atom_site_symmetry_multiplicity
 _atom_site_fract_x
 _atom_site_fract_y
 _atom_site_fract_z
 _atom_site_occupancy
  Ag  Ag0  1  0.25097245  0.75408463  0.49486002  1
  Ag  Ag1  1  0.50042313  0.24384070  0.24923707  1
  Ag  Ag2  1  -0.00217691  0.74682832  0.75268122  1
  Ag  Ag3  1  0.50143309  0.00214020  0.00727620  1
  Ag  Ag4  1  0.50040066  0.75538376  0.24904452  1
  Ag  Ag5  1  -0.00136446  0.74754937  0.24682367  1
  Ag  Ag6  1  0.25616736  -0.00007369  0.25295577  1
  Ag  Ag7  1  0.75109169  0.50036952  0.75836789  1
  Ag  Ag8  1  0.74738699  0.25542798  0.00420974  1
  Ag  Ag9  1  0.25404885  0.24572012  0.49501916  1
  Ag  Ag10  1  -0.00141819  0.25216418  0.24763112  1
  Ag  Ag11  1  0.75192011  0.74397561  0.00398903  1
  Ag  Ag12  1  0.75217135  0.49995869  0.24175008  1
  Ag  Ag13  1  0.50201159  0.24907332  0.75104832  1
  Ag  Ag14  1  -0.00806515  0.50190877  0.00360869  1
  Ag  Ag15  1  0.49508294  0.00223376  0.49204486  1
  Sb  Sb16  1  -0.00204725  0.25352757  0.75196127  1
  Sb  Sb17  1  0.24940317  0.75201533  0.00499520  1
  Sb  Sb18  1  0.25226830  0.00002911  0.74685643  1
  Sb  Sb19  1  0.24945480  0.50033414  0.75101975  1
  Sb  Sb20  1  -0.00115702  -0.00090109  0.00411422  1
  Sb  Sb21  1  -0.00068846  0.50038759  0.49588667  1
  Sb  Sb22  1  0.25305781  0.24800955  0.00499729  1
  Sb  Sb23  1  0.24827913  0.50001076  0.24953016  1
  Sb  Sb24  1  0.49991167  0.49795390  0.49796383  1
  Sb  Sb25  1  0.74636674  0.25014036  0.49559657  1
  Sb  Sb26  1  0.74849606  0.74976866  0.49570353  1
  Sb  Sb27  1  0.74849368  0.00000889  0.75287643  1
  Sb  Sb28  1  0.00474363  -0.00015652  0.49538526  1
  Sb  Sb29  1  0.74225653  -0.00017717  0.24758738  1
  Sb  Sb30  1  0.50212219  0.74996467  0.75051971  1
  Sb  Sb31  1  0.50851549  0.49789717  0.00220984  1
  Te  Te32  1  0.25164346  0.24937549  0.25281998  1
  Te  Te33  1  0.25408159  0.25026657  0.74317262  1
  Te  Te34  1  0.25042092  0.75050675  0.25320724  1
  Te  Te35  1  0.24587926  0.74922581  0.74289199  1
  Te  Te36  1  0.75004701  0.25243315  0.24783109  1
  Te  Te37  1  0.74803927  0.25413482  0.75328493  1
  Te  Te38  1  0.75118494  0.74756803  0.24774988  1
  Te  Te39  1  0.75277116  0.74544584  0.75338730  1
  Te  Te40  1  0.25785169  0.00039896  0.00722542  1
  Te  Te41  1  0.25407969  0.00003379  0.49577194  1
  Te  Te42  1  0.23705449  0.49966442  -0.00121785  1
  Te  Te43  1  0.25001424  0.50059191  0.50091377  1
  Te  Te44  1  0.74405960  0.00048717  -0.00035244  1
  Te  Te45  1  0.73966916  0.00021590  0.50142664  1
  Te  Te46  1  0.75219663  0.50045365  0.00181292  1
  Te  Te47  1  0.75032747  0.49992325  0.50076939  1
  Te  Te48  1  -0.00358859  0.25053750  0.00375853  1
  Te  Te49  1  0.00553263  0.24853764  0.49477443  1
  Te  Te50  1  -0.00218116  0.74998396  0.00421649  1
  Te  Te51  1  0.00397934  0.75114563  0.49657856  1
  Te  Te52  1  0.50240975  0.24858459  0.00285391  1
  Te  Te53  1  0.49743990  0.24737549  0.49665889  1
  Te  Te54  1  0.50240126  0.75271816  0.00288709  1
  Te  Te55  1  0.49675798  0.75387911  0.49740200  1
  Te  Te56  1  0.00717776  -0.00058606  0.24960353  1
  Te  Te57  1  0.00037233  -0.00765606  0.75039563  1
  Te  Te58  1  -0.00337479  0.50093716  0.24698536  1
  Te  Te59  1  -0.00505775  0.50348344  0.75478159  1
  Te  Te60  1  0.49864011  0.00043545  0.24959875  1
  Te  Te61  1  0.49944425  0.00513217  0.75134150  1
  Te  Te62  1  0.50524887  0.50075056  0.24893806  1
  Te  Te63  1  0.50591558  0.49461760  0.75077994  1
