# generated using pymatgen
data_AgSbTe2
_symmetry_space_group_name_H-M   'P 1'
_cell_length_a   12.31804518
_cell_length_b   12.31672422
_cell_length_c   12.27891010
_cell_angle_alpha   89.99035818
_cell_angle_beta   89.99694553
_cell_angle_gamma   90.00992058
_symmetry_Int_Tables_number   1
_chemical_formula_structural   AgSbTe2
_chemical_formula_sum   'Ag16 Sb16 Te32'
_cell_volume   1862.93119904
_cell_formula_units_Z   16
loop_
 _symmetry_equiv_pos_site_id
 _symmetry_equiv_pos_as_xyz
  1  'x, y, z'
loop_
 _atom_site_type_symbol
 _atom_site_label
 _atom_site_symmetry_multiplicity
 _atom_site_fract_x
 _atom_site_fract_y
 _atom_site_fract_z
 _atom_site_occupancy
  Ag  Ag0  1  0.49569778  0.74890561  0.75590152  1
  Ag  Ag1  1  0.75070484  0.24714274  -0.00656561  1
  Ag  Ag2  1  0.74667127  0.75223888  -0.00778519  1
  Ag  Ag3  1  0.74917344  0.75522526  0.50951023  1
  Ag  Ag4  1  0.48638454  0.25249536  0.75831474  1
  Ag  Ag5  1  0.49607008  0.49062383  -0.00760504  1
  Ag  Ag6  1  0.00400685  0.01122299  -0.00404818  1
  Ag  Ag7  1  0.25318534  0.49091851  0.75736595  1
  Ag  Ag8  1  0.24586624  0.24383146  0.51340089  1
  Ag  Ag9  1  0.24990409  0.75950679  0.50829452  1
  Ag  Ag10  1  0.01424722  0.24965504  0.75990373  1
  Ag  Ag11  1  0.49490443  0.00885753  -0.00373207  1
  Ag  Ag12  1  0.24837564  0.00257916  0.24591360  1
  Ag  Ag13  1  0.24959763  0.24772820  -0.01332612  1
  Ag  Ag14  1  0.01010234  0.00214746  0.50390738  1
  Ag  Ag15  1  0.00399974  0.48484136  -0.00725425  1
  Sb  Sb16  1  0.49676087  0.50117917  0.50891324  1
  Sb  Sb17  1  0.74864964  0.50058194  0.75332303  1
  Sb  Sb18  1  0.74984969  -0.00165698  0.75262348  1
  Sb  Sb19  1  0.49791840  0.75075251  0.24384587  1
  Sb  Sb20  1  0.49663996  0.24913834  0.23780544  1
  Sb  Sb21  1  0.00183620  0.75154364  0.24736258  1
  Sb  Sb22  1  0.75114335  0.24592301  0.50860738  1
  Sb  Sb23  1  0.75010627  0.50059273  0.24462259  1
  Sb  Sb24  1  0.25091191  0.75086905  -0.00664571  1
  Sb  Sb25  1  0.00301186  0.49857237  0.50890979  1
  Sb  Sb26  1  0.49556995  -0.00060773  0.50422918  1
  Sb  Sb27  1  0.00392494  0.75050227  0.75207904  1
  Sb  Sb28  1  0.24916050  0.00494027  0.75118560  1
  Sb  Sb29  1  0.00194012  0.24935659  0.24063727  1
  Sb  Sb30  1  0.75011096  -0.00069840  0.24544888  1
  Sb  Sb31  1  0.25019945  0.50074002  0.24690149  1
  Te  Te32  1  0.24997656  0.24853480  0.25813796  1
  Te  Te33  1  0.25023993  0.25268538  0.75200885  1
  Te  Te34  1  0.25001813  0.75131007  0.26693814  1
  Te  Te35  1  0.25344975  0.74074439  0.74552858  1
  Te  Te36  1  0.74941967  0.25064268  0.24098068  1
  Te  Te37  1  0.74803732  0.24969448  0.75501893  1
  Te  Te38  1  0.75008685  0.75012662  0.25057798  1
  Te  Te39  1  0.74502538  0.75008876  0.75192912  1
  Te  Te40  1  0.24594433  -0.00212039  -0.00089347  1
  Te  Te41  1  0.24809984  0.00397940  0.50371888  1
  Te  Te42  1  0.24933064  0.50429865  -0.00203861  1
  Te  Te43  1  0.25089477  0.49343743  0.49923171  1
  Te  Te44  1  0.75511287  -0.00071430  0.00063272  1
  Te  Te45  1  0.75687049  -0.00397090  0.49769124  1
  Te  Te46  1  0.75165671  0.50118384  -0.00147398  1
  Te  Te47  1  0.74979419  0.50918386  0.49771807  1
  Te  Te48  1  0.00363057  0.24665599  -0.00210197  1
  Te  Te49  1  -0.00332570  0.24837017  0.50553557  1
  Te  Te50  1  -0.00434321  0.75806850  -0.00041057  1
  Te  Te51  1  0.00017000  0.75062772  0.50088117  1
  Te  Te52  1  0.49600474  0.24684069  -0.00276308  1
  Te  Te53  1  0.50433279  0.24991883  0.51153932  1
  Te  Te54  1  0.50015638  0.75404116  -0.00345872  1
  Te  Te55  1  0.50116512  0.75083076  0.50683788  1
  Te  Te56  1  0.00590772  0.00035755  0.24866137  1
  Te  Te57  1  -0.00133972  0.00224819  0.75207486  1
  Te  Te58  1  -0.00204947  0.49951102  0.23186753  1
  Te  Te59  1  0.00438161  0.49665712  0.75431628  1
  Te  Te60  1  0.49289552  0.00087109  0.24002632  1
  Te  Te61  1  0.50064347  -0.00131784  0.75406080  1
  Te  Te62  1  0.50232240  0.49895511  0.23303051  1
  Te  Te63  1  0.49886481  0.49861020  0.75215067  1
