# generated using pymatgen
data_AgSbTe2
_symmetry_space_group_name_H-M   'P 1'
_cell_length_a   12.24341580
_cell_length_b   12.26437265
_cell_length_c   12.25042792
_cell_angle_alpha   89.99952384
_cell_angle_beta   90.00128725
_cell_angle_gamma   89.99621099
_symmetry_Int_Tables_number   1
_chemical_formula_structural   AgSbTe2
_chemical_formula_sum   'Ag16 Sb16 Te32'
_cell_volume   1839.49746943
_cell_formula_units_Z   16
loop_
 _symmetry_equiv_pos_site_id
 _symmetry_equiv_pos_as_xyz
  1  'x, y, z'
loop_
 _atom_site_type_symbol
 _atom_site_label
 _atom_site_symmetry_multiplicity
 _atom_site_fract_x
 _atom_site_fract_y
 _atom_site_fract_z
 _atom_site_occupancy
  Ag  Ag0  1  0.73980431  0.49833092  0.24995680  1
  Ag  Ag1  1  0.26137502  0.49212141  0.24926488  1
  Ag  Ag2  1  0.50515342  0.50116023  0.49142208  1
  Ag  Ag3  1  0.73675246  0.00171801  0.24532255  1
  Ag  Ag4  1  0.50255339  0.23692393  0.24700352  1
  Ag  Ag5  1  0.50671716  0.00295829  0.01421845  1
  Ag  Ag6  1  0.26548388  0.00806902  0.24726494  1
  Ag  Ag7  1  0.74479812  0.75497577  0.00753366  1
  Ag  Ag8  1  0.25649469  0.24762604  0.00836687  1
  Ag  Ag9  1  0.74564429  0.24513473  0.00753920  1
  Ag  Ag10  1  -0.00417391  0.24899135  0.24724503  1
  Ag  Ag11  1  0.50699476  0.76294831  0.25098207  1
  Ag  Ag12  1  0.74610396  0.50056346  0.75135495  1
  Ag  Ag13  1  0.50508425  -0.00112755  0.48485726  1
  Ag  Ag14  1  0.74537173  -0.00053494  0.75500978  1
  Ag  Ag15  1  0.74413051  0.75064166  0.49171080  1
  Sb  Sb16  1  0.25461766  0.24980919  0.48866386  1
  Sb  Sb17  1  0.25951835  0.75092839  0.49329891  1
  Sb  Sb18  1  0.25766255  0.49666877  0.75007375  1
  Sb  Sb19  1  0.50450774  0.75048943  0.75004538  1
  Sb  Sb20  1  -0.00739351  0.75029573  0.75058652  1
  Sb  Sb21  1  0.50447771  0.24964555  0.75416079  1
  Sb  Sb22  1  -0.00398666  0.49825465  0.00352224  1
  Sb  Sb23  1  -0.00604719  0.24956951  0.75407164  1
  Sb  Sb24  1  0.25912753  0.75191371  0.00655640  1
  Sb  Sb25  1  -0.00739973  0.49963388  0.49544804  1
  Sb  Sb26  1  0.25768210  0.00281709  0.75212895  1
  Sb  Sb27  1  -0.00875399  0.00158686  0.00347787  1
  Sb  Sb28  1  0.74618140  0.24926631  0.49014024  1
  Sb  Sb29  1  0.50419834  0.49605838  0.01132847  1
  Sb  Sb30  1  -0.00773740  0.00043418  0.49521560  1
  Sb  Sb31  1  -0.00908046  0.75090508  0.24957666  1
  Te  Te32  1  0.25458642  0.24980003  0.24679992  1
  Te  Te33  1  0.24675206  0.25086771  0.76411697  1
  Te  Te34  1  0.25463109  0.74898491  0.24938500  1
  Te  Te35  1  0.24585385  0.74823841  0.75158176  1
  Te  Te36  1  0.74612027  0.25038851  0.24875457  1
  Te  Te37  1  0.75128083  0.25021534  0.76041538  1
  Te  Te38  1  0.74834070  0.74937897  0.24935146  1
  Te  Te39  1  0.74923714  0.74978188  0.75251669  1
  Te  Te40  1  0.25501906  0.00201821  0.00117635  1
  Te  Te41  1  0.25761088  -0.00068873  0.49920652  1
  Te  Te42  1  0.24986973  0.49738789  0.00264214  1
  Te  Te43  1  0.25658717  0.50023065  0.49796060  1
  Te  Te44  1  0.74844621  0.00153166  0.00307455  1
  Te  Te45  1  0.74633475  -0.00014994  0.49747136  1
  Te  Te46  1  0.74801959  0.49889136  0.00178865  1
  Te  Te47  1  0.74668701  0.50037102  0.49639944  1
  Te  Te48  1  -0.00270219  0.24991828  0.00614126  1
  Te  Te49  1  0.00258938  0.24988518  0.49156115  1
  Te  Te50  1  -0.01104557  0.74977567  0.00009659  1
  Te  Te51  1  -0.01098127  0.75002176  0.50037979  1
  Te  Te52  1  0.50284386  0.24826170  0.00313018  1
  Te  Te53  1  0.49979669  0.24868596  0.49539806  1
  Te  Te54  1  0.50541180  0.75581467  0.00319133  1
  Te  Te55  1  0.50443657  0.75123672  0.49729026  1
  Te  Te56  1  0.00246994  0.00371618  0.25079923  1
  Te  Te57  1  -0.00864196  0.00088900  0.74780771  1
  Te  Te58  1  0.00088715  0.49589527  0.25063960  1
  Te  Te59  1  -0.00874347  0.49939026  0.74800567  1
  Te  Te60  1  0.50058141  0.00001897  0.24934690  1
  Te  Te61  1  0.50512332  0.00068658  0.74855658  1
  Te  Te62  1  0.50164739  0.50001572  0.25005129  1
  Te  Te63  1  0.50508772  0.49976285  0.73761489  1
