# generated using pymatgen
data_AgSbTe2
_symmetry_space_group_name_H-M   'P 1'
_cell_length_a   12.20580480
_cell_length_b   12.20992473
_cell_length_c   12.20984791
_cell_angle_alpha   89.99881917
_cell_angle_beta   90.00072515
_cell_angle_gamma   90.00230502
_symmetry_Int_Tables_number   1
_chemical_formula_structural   AgSbTe2
_chemical_formula_sum   'Ag16 Sb16 Te32'
_cell_volume   1819.65753647
_cell_formula_units_Z   16
loop_
 _symmetry_equiv_pos_site_id
 _symmetry_equiv_pos_as_xyz
  1  'x, y, z'
loop_
 _atom_site_type_symbol
 _atom_site_label
 _atom_site_symmetry_multiplicity
 _atom_site_fract_x
 _atom_site_fract_y
 _atom_site_fract_z
 _atom_site_occupancy
  Ag  Ag0  1  0.50597191  0.75041989  0.25070264  1
  Ag  Ag1  1  0.50086785  0.74963874  0.74932467  1
  Ag  Ag2  1  0.00069570  0.25234325  0.74397135  1
  Ag  Ag3  1  -0.00016400  0.49655504  0.49510546  1
  Ag  Ag4  1  0.24145033  0.25384678  0.50020363  1
  Ag  Ag5  1  0.75736463  0.50581938  0.25392136  1
  Ag  Ag6  1  0.00008507  0.50042890  0.00546667  1
  Ag  Ag7  1  -0.00226015  -0.00047831  0.00442749  1
  Ag  Ag8  1  0.50243874  -0.00305536  0.00249635  1
  Ag  Ag9  1  -0.00531384  0.74641717  0.25264603  1
  Ag  Ag10  1  0.24185082  0.50129547  0.25323082  1
  Ag  Ag11  1  0.75843243  0.25058903  0.49805846  1
  Ag  Ag12  1  -0.00349220  0.00334531  0.49624335  1
  Ag  Ag13  1  0.75428916  -0.00511490  0.25241454  1
  Ag  Ag14  1  0.24574864  0.49927223  0.74664842  1
  Ag  Ag15  1  0.75350360  0.74940639  0.49339448  1
  Sb  Sb16  1  0.24378026  -0.00147988  0.25234712  1
  Sb  Sb17  1  0.75514409  0.24952159  0.00276658  1
  Sb  Sb18  1  0.49828974  0.25092044  0.74898074  1
  Sb  Sb19  1  0.75522554  0.50104027  0.74474858  1
  Sb  Sb20  1  0.24843440  0.00030134  0.74772239  1
  Sb  Sb21  1  0.24892366  0.74872005  0.00113456  1
  Sb  Sb22  1  0.50036727  0.50225729  0.49856244  1
  Sb  Sb23  1  -0.00102590  0.74705935  0.74761805  1
  Sb  Sb24  1  0.24473732  0.74438655  0.49829869  1
  Sb  Sb25  1  0.75119812  -0.00108033  0.74657810  1
  Sb  Sb26  1  0.50106393  0.24860455  0.25039100  1
  Sb  Sb27  1  0.50439660  -0.00343165  0.49644131  1
  Sb  Sb28  1  0.24477024  0.25218924  0.00061082  1
  Sb  Sb29  1  -0.00083573  0.25651162  0.25991875  1
  Sb  Sb30  1  0.75081657  0.75116957  0.00950468  1
  Sb  Sb31  1  0.50084335  0.50386802  0.00189596  1
  Te  Te32  1  0.25237664  0.25810022  0.25687104  1
  Te  Te33  1  0.24689087  0.25584571  0.74419901  1
  Te  Te34  1  0.24982677  0.74394004  0.25147509  1
  Te  Te35  1  0.25601959  0.74304638  0.74846018  1
  Te  Te36  1  0.74830420  0.24961109  0.25703377  1
  Te  Te37  1  0.75482752  0.25071459  0.74082129  1
  Te  Te38  1  0.75101660  0.74965901  0.25251424  1
  Te  Te39  1  0.74422212  0.74888260  0.73994137  1
  Te  Te40  1  0.24654307  0.00133318  0.00030394  1
  Te  Te41  1  0.24199337  0.00826170  0.49941440  1
  Te  Te42  1  0.24369649  0.49875351  0.00161344  1
  Te  Te43  1  0.24691878  0.49729075  0.49883310  1
  Te  Te44  1  0.75375005  0.00113208  0.00687165  1
  Te  Te45  1  0.75416761  0.00000755  0.49589854  1
  Te  Te46  1  0.75650311  0.49829140  0.00770510  1
  Te  Te47  1  0.75292238  0.49996220  0.49628922  1
  Te  Te48  1  -0.00016194  0.24865168  -0.00987315  1
  Te  Te49  1  -0.00109192  0.25063248  0.50122714  1
  Te  Te50  1  -0.00002397  0.75116818  0.00319661  1
  Te  Te51  1  -0.00324331  0.74970521  0.49810766  1
  Te  Te52  1  0.50034659  0.23986340  -0.00189886  1
  Te  Te53  1  0.50109422  0.24857584  0.50192470  1
  Te  Te54  1  0.50017212  0.75565794  0.00126236  1
  Te  Te55  1  0.50628778  0.75151762  0.49805956  1
  Te  Te56  1  -0.00096956  -0.00466641  0.24945433  1
  Te  Te57  1  0.00081810  0.00283105  0.75099481  1
  Te  Te58  1  -0.00045164  0.50038734  0.25075064  1
  Te  Te59  1  0.00332987  0.49925143  0.74949073  1
  Te  Te60  1  0.50337975  -0.00576586  0.24644309  1
  Te  Te61  1  0.49953576  -0.00588887  0.75667658  1
  Te  Te62  1  0.50078275  0.50693073  0.24718477  1
  Te  Te63  1  0.49261810  0.50502917  0.75297818  1
