# generated using pymatgen
data_AgSbTe2
_symmetry_space_group_name_H-M   'P 1'
_cell_length_a   12.21809738
_cell_length_b   12.21828749
_cell_length_c   12.22904908
_cell_angle_alpha   89.99635787
_cell_angle_beta   89.98922639
_cell_angle_gamma   90.00375255
_symmetry_Int_Tables_number   1
_chemical_formula_structural   AgSbTe2
_chemical_formula_sum   'Ag16 Sb16 Te32'
_cell_volume   1825.60409039
_cell_formula_units_Z   16
loop_
 _symmetry_equiv_pos_site_id
 _symmetry_equiv_pos_as_xyz
  1  'x, y, z'
loop_
 _atom_site_type_symbol
 _atom_site_label
 _atom_site_symmetry_multiplicity
 _atom_site_fract_x
 _atom_site_fract_y
 _atom_site_fract_z
 _atom_site_occupancy
  Ag  Ag0  1  0.49590431  -0.00897108  0.50071405  1
  Ag  Ag1  1  -0.00091275  0.50411481  0.50335860  1
  Ag  Ag2  1  0.74866229  0.25346849  0.00101993  1
  Ag  Ag3  1  0.49377567  0.75139405  0.74488441  1
  Ag  Ag4  1  0.74761032  0.25488052  0.49836086  1
  Ag  Ag5  1  0.25522674  -0.01060268  0.74723547  1
  Ag  Ag6  1  0.49950873  -0.00577415  -0.00069450  1
  Ag  Ag7  1  0.50064296  0.50754768  0.50118478  1
  Ag  Ag8  1  0.25636365  0.74994850  0.50654706  1
  Ag  Ag9  1  0.24913698  0.51066840  0.74594542  1
  Ag  Ag10  1  -0.00388718  0.50391494  -0.00293978  1
  Ag  Ag11  1  0.49886350  0.75206021  0.25385223  1
  Ag  Ag12  1  0.00608273  0.74519170  0.74869061  1
  Ag  Ag13  1  0.74832606  0.50185898  0.25073900  1
  Ag  Ag14  1  0.74696320  0.74695104  -0.00016634  1
  Ag  Ag15  1  0.25633090  -0.00624546  0.25230507  1
  Sb  Sb16  1  0.50032542  0.24950865  0.74931211  1
  Sb  Sb17  1  0.25219387  0.50603941  0.25290715  1
  Sb  Sb18  1  0.50378534  0.50485141  -0.00146833  1
  Sb  Sb19  1  0.50211380  0.24911485  0.25062146  1
  Sb  Sb20  1  -0.00196175  0.25152730  0.25042368  1
  Sb  Sb21  1  0.00077066  0.74793872  0.25078730  1
  Sb  Sb22  1  -0.00006352  0.25488431  0.74933831  1
  Sb  Sb23  1  0.25223362  0.75026717  -0.00676997  1
  Sb  Sb24  1  0.74423484  -0.00318811  0.74973764  1
  Sb  Sb25  1  0.25153744  0.25019362  0.50067537  1
  Sb  Sb26  1  0.74482717  -0.00246751  0.25077210  1
  Sb  Sb27  1  0.74413528  0.74608051  0.49921564  1
  Sb  Sb28  1  0.75047821  0.50231011  0.74901071  1
  Sb  Sb29  1  -0.00093101  -0.00243866  -0.00334723  1
  Sb  Sb30  1  0.25094585  0.25070799  -0.00090717  1
  Sb  Sb31  1  0.00200229  -0.00335790  0.50326792  1
  Te  Te32  1  0.24998455  0.24043339  0.24936189  1
  Te  Te33  1  0.24935798  0.24957931  0.75077300  1
  Te  Te34  1  0.25512560  0.75316049  0.25557244  1
  Te  Te35  1  0.25236030  0.74883237  0.74873972  1
  Te  Te36  1  0.74944763  0.25551053  0.24947995  1
  Te  Te37  1  0.75068535  0.24846741  0.75147815  1
  Te  Te38  1  0.74573963  0.74579906  0.24591966  1
  Te  Te39  1  0.74890456  0.75099531  0.75477426  1
  Te  Te40  1  0.25429124  0.00087686  -0.00183716  1
  Te  Te41  1  0.25265266  -0.00056049  0.50291646  1
  Te  Te42  1  0.24436519  0.49806875  -0.00276446  1
  Te  Te43  1  0.25100537  0.50092608  0.50101413  1
  Te  Te44  1  0.74703507  0.00001696  0.00057988  1
  Te  Te45  1  0.74623868  0.00621960  0.49837312  1
  Te  Te46  1  0.75097851  0.50047920  0.00139465  1
  Te  Te47  1  0.74893595  0.49899596  0.49839800  1
  Te  Te48  1  -0.00737439  0.25463458  -0.00026999  1
  Te  Te49  1  -0.00702263  0.25683227  0.50060193  1
  Te  Te50  1  -0.00463519  0.74627872  -0.00292055  1
  Te  Te51  1  0.00247027  0.74575667  0.50344449  1
  Te  Te52  1  0.50632734  0.24399505  -0.00005618  1
  Te  Te53  1  0.50483979  0.25209324  0.50017026  1
  Te  Te54  1  0.50237378  0.75249864  -0.00036490  1
  Te  Te55  1  0.50035553  0.75006976  0.50183098  1
  Te  Te56  1  0.00934080  -0.00039468  0.24981472  1
  Te  Te57  1  0.00920209  -0.00782929  0.75010768  1
  Te  Te58  1  -0.00309470  0.50074263  0.25066991  1
  Te  Te59  1  0.00297113  0.50393913  0.74827926  1
  Te  Te60  1  0.49783993  -0.00444998  0.25121967  1
  Te  Te61  1  0.49628504  -0.00347075  0.74856442  1
  Te  Te62  1  0.50260440  0.50480913  0.25289886  1
  Te  Te63  1  0.49518292  0.50431627  0.74722219  1
