# generated using pymatgen
data_AgSbTe2
_symmetry_space_group_name_H-M   'P 1'
_cell_length_a   12.21700377
_cell_length_b   12.22164677
_cell_length_c   12.22831755
_cell_angle_alpha   90.00000001
_cell_angle_beta   90.00000001
_cell_angle_gamma   90.00000000
_symmetry_Int_Tables_number   1
_chemical_formula_structural   AgSbTe2
_chemical_formula_sum   'Ag16 Sb16 Te32'
_cell_volume   1825.83338610
_cell_formula_units_Z   16
loop_
 _symmetry_equiv_pos_site_id
 _symmetry_equiv_pos_as_xyz
  1  'x, y, z'
loop_
 _atom_site_type_symbol
 _atom_site_label
 _atom_site_symmetry_multiplicity
 _atom_site_fract_x
 _atom_site_fract_y
 _atom_site_fract_z
 _atom_site_occupancy
  Ag  Ag0  1  0.49456749  -0.00135020  0.50085156  1
  Ag  Ag1  1  0.00685374  0.24999999  0.25000009  1
  Ag  Ag2  1  0.25127453  0.75000001  -0.00055242  1
  Ag  Ag3  1  0.74608858  0.50393950  0.75000007  1
  Ag  Ag4  1  0.25305979  -0.00507284  0.25000000  1
  Ag  Ag5  1  0.00684828  0.75000001  0.75000002  1
  Ag  Ag6  1  0.25463239  -0.00934904  0.75000001  1
  Ag  Ag7  1  0.25127450  0.74999999  0.50055241  1
  Ag  Ag8  1  0.25463241  0.50934892  0.75000001  1
  Ag  Ag9  1  0.49456749  -0.00135019  -0.00085157  1
  Ag  Ag10  1  0.00852016  0.75000001  0.25000000  1
  Ag  Ag11  1  0.49356862  0.24999999  0.25000000  1
  Ag  Ag12  1  0.49456739  0.50135019  -0.00085157  1
  Ag  Ag13  1  0.74608859  -0.00393949  0.75000003  1
  Ag  Ag14  1  0.25305979  0.50507286  0.24999999  1
  Ag  Ag15  1  0.49456737  0.50135020  0.50085155  1
  Sb  Sb16  1  0.25292731  0.25000000  0.49620802  1
  Sb  Sb17  1  0.74665654  0.75000002  0.50364398  1
  Sb  Sb18  1  0.74461118  0.50214128  0.24999999  1
  Sb  Sb19  1  0.48936191  0.75000000  0.75000003  1
  Sb  Sb20  1  0.49853591  0.25000000  0.75000002  1
  Sb  Sb21  1  0.00750466  0.50284627  0.49949605  1
  Sb  Sb22  1  0.74461119  -0.00214129  0.24999999  1
  Sb  Sb23  1  0.00256919  0.25000000  0.75000000  1
  Sb  Sb24  1  0.00750464  -0.00284630  0.49949605  1
  Sb  Sb25  1  0.00750464  0.50284626  0.00050394  1
  Sb  Sb26  1  0.25292730  0.24999999  0.00379196  1
  Sb  Sb27  1  0.74755966  0.25000000  0.49986185  1
  Sb  Sb28  1  0.74755967  0.25000000  0.00013813  1
  Sb  Sb29  1  0.74665655  0.75000002  -0.00364398  1
  Sb  Sb30  1  0.00750463  -0.00284627  0.00050395  1
  Sb  Sb31  1  0.48893156  0.75000001  0.24999999  1
  Te  Te32  1  0.25052253  0.24999999  0.25000001  1
  Te  Te33  1  0.24690382  0.25000005  0.75000002  1
  Te  Te34  1  0.24801711  0.75000000  0.24999998  1
  Te  Te35  1  0.24822584  0.75000005  0.75000002  1
  Te  Te36  1  0.75160834  0.25000001  0.24999999  1
  Te  Te37  1  0.75312828  0.25000000  0.75000002  1
  Te  Te38  1  0.76746089  0.75000001  0.24999999  1
  Te  Te39  1  0.76227877  0.75000001  0.75000002  1
  Te  Te40  1  0.25450613  -0.00327335  -0.00001567  1
  Te  Te41  1  0.25450617  -0.00327337  0.50001567  1
  Te  Te42  1  0.25450624  0.50327335  -0.00001570  1
  Te  Te43  1  0.25450626  0.50327339  0.50001570  1
  Te  Te44  1  0.73871642  -0.00056566  -0.00704785  1
  Te  Te45  1  0.73871639  -0.00056565  0.50704781  1
  Te  Te46  1  0.73871641  0.50056565  -0.00704789  1
  Te  Te47  1  0.73871639  0.50056564  0.50704783  1
  Te  Te48  1  -0.00145861  0.25000001  0.01027757  1
  Te  Te49  1  -0.00145863  0.25000000  0.48972235  1
  Te  Te50  1  0.00779266  0.74999999  -0.00058415  1
  Te  Te51  1  0.00779266  0.75000001  0.50058414  1
  Te  Te52  1  0.49960242  0.25000000  0.00752727  1
  Te  Te53  1  0.49960241  0.24999999  0.49247272  1
  Te  Te54  1  0.49419173  0.75000000  0.00055549  1
  Te  Te55  1  0.49419176  0.74999999  0.49944450  1
  Te  Te56  1  0.00427950  -0.00076849  0.25000001  1
  Te  Te57  1  0.00145671  -0.00180206  0.74999998  1
  Te  Te58  1  0.00427950  0.50076848  0.25000000  1
  Te  Te59  1  0.00145674  0.50180206  0.75000000  1
  Te  Te60  1  0.49819768  0.00195834  0.24999999  1
  Te  Te61  1  0.49687108  0.00232798  0.75000001  1
  Te  Te62  1  0.49819768  0.49804166  0.25000000  1
  Te  Te63  1  0.49687104  0.49767203  0.75000001  1
