# generated using pymatgen
data_AgSbTe2
_symmetry_space_group_name_H-M   'P 1'
_cell_length_a   12.22184672
_cell_length_b   12.22663667
_cell_length_c   12.24494963
_cell_angle_alpha   90.00101901
_cell_angle_beta   89.99552649
_cell_angle_gamma   90.01771972
_symmetry_Int_Tables_number   1
_chemical_formula_structural   AgSbTe2
_chemical_formula_sum   'Ag16 Sb16 Te32'
_cell_volume   1829.78819002
_cell_formula_units_Z   16
loop_
 _symmetry_equiv_pos_site_id
 _symmetry_equiv_pos_as_xyz
  1  'x, y, z'
loop_
 _atom_site_type_symbol
 _atom_site_label
 _atom_site_symmetry_multiplicity
 _atom_site_fract_x
 _atom_site_fract_y
 _atom_site_fract_z
 _atom_site_occupancy
  Ag  Ag0  1  0.75610470  0.74950050  0.50186265  1
  Ag  Ag1  1  0.24515766  0.75373364  0.49596167  1
  Ag  Ag2  1  0.01660772  -0.00506793  -0.00008013  1
  Ag  Ag3  1  0.48435197  0.00281180  -0.00010605  1
  Ag  Ag4  1  0.49282632  0.24471732  0.24740315  1
  Ag  Ag5  1  0.24624133  0.76566808  0.00300958  1
  Ag  Ag6  1  0.25387704  0.23378357  0.00174336  1
  Ag  Ag7  1  0.49260265  -0.00157909  0.49993342  1
  Ag  Ag8  1  0.75154120  0.50354170  0.74624635  1
  Ag  Ag9  1  0.25208900  -0.00447682  0.23481884  1
  Ag  Ag10  1  0.25243724  -0.00349402  0.76572572  1
  Ag  Ag11  1  0.24874172  0.50591072  0.25053072  1
  Ag  Ag12  1  0.00249562  0.50904860  0.50054011  1
  Ag  Ag13  1  0.00879636  0.75148039  0.25337210  1
  Ag  Ag14  1  0.49571278  0.24465829  0.75213164  1
  Ag  Ag15  1  0.00487371  0.75093966  0.74578265  1
  Sb  Sb16  1  0.49807219  0.50205614  0.49957933  1
  Sb  Sb17  1  0.00299218  0.24902343  0.75192147  1
  Sb  Sb18  1  0.25028271  0.50259334  0.74908373  1
  Sb  Sb19  1  0.75253791  0.75235913  -0.00081638  1
  Sb  Sb20  1  0.25216283  0.24623022  0.49865654  1
  Sb  Sb21  1  0.00609412  0.24873061  0.24796875  1
  Sb  Sb22  1  0.74794417  0.24954992  0.50174296  1
  Sb  Sb23  1  0.74656191  0.24752915  -0.00145434  1
  Sb  Sb24  1  0.75101069  0.50360248  0.25218447  1
  Sb  Sb25  1  0.74799398  -0.00233071  0.25157461  1
  Sb  Sb26  1  0.74828985  -0.00186525  0.74835941  1
  Sb  Sb27  1  0.49077806  0.75360953  0.25048352  1
  Sb  Sb28  1  0.49591139  0.75373057  0.74959547  1
  Sb  Sb29  1  0.49564249  0.49906416  0.00031668  1
  Sb  Sb30  1  0.00463863  0.50401367  0.00010496  1
  Sb  Sb31  1  0.00715072  -0.00737480  0.49976373  1
  Te  Te32  1  0.25253907  0.24736650  0.24854402  1
  Te  Te33  1  0.25378857  0.24742853  0.75280921  1
  Te  Te34  1  0.24862366  0.75163806  0.25022659  1
  Te  Te35  1  0.24709486  0.75175771  0.75040837  1
  Te  Te36  1  0.74053412  0.25106638  0.25010402  1
  Te  Te37  1  0.74538389  0.25525163  0.74976856  1
  Te  Te38  1  0.75930219  0.74835726  0.25489263  1
  Te  Te39  1  0.75407574  0.74650694  0.74713805  1
  Te  Te40  1  0.25071028  -0.00099734  -0.00059297  1
  Te  Te41  1  0.25286812  -0.00398438  0.49996641  1
  Te  Te42  1  0.24995735  0.50137995  0.00523192  1
  Te  Te43  1  0.24673402  0.50507247  0.49647606  1
  Te  Te44  1  0.74908240  0.00002547  0.00012068  1
  Te  Te45  1  0.74277955  -0.00579930  0.49997330  1
  Te  Te46  1  0.74981613  0.49972569  -0.00752715  1
  Te  Te47  1  0.75280326  0.50561444  0.50330130  1
  Te  Te48  1  0.00533432  0.24233358  0.00006008  1
  Te  Te49  1  -0.00194865  0.26074267  0.49991862  1
  Te  Te50  1  0.00243566  0.75364954  -0.00033662  1
  Te  Te51  1  0.00322386  0.74957712  0.50102575  1
  Te  Te52  1  0.49699295  0.24712554  -0.00058220  1
  Te  Te53  1  0.50016301  0.24432909  0.50142302  1
  Te  Te54  1  0.49556400  0.75575349  0.00027407  1
  Te  Te55  1  0.49741866  0.75462725  0.49980307  1
  Te  Te56  1  0.00365926  -0.00275135  0.24859870  1
  Te  Te57  1  0.00361147  -0.00307083  0.75111538  1
  Te  Te58  1  0.00355961  0.50191093  0.25244096  1
  Te  Te59  1  -0.00184410  0.50221558  0.74747861  1
  Te  Te60  1  0.49750625  0.00152309  0.24930744  1
  Te  Te61  1  0.49785057  0.00202987  0.75075963  1
  Te  Te62  1  0.49470903  0.49396478  0.25044947  1
  Te  Te63  1  0.50315004  0.49393161  0.74948231  1
