# generated using pymatgen
data_AgSbTe2
_symmetry_space_group_name_H-M   'P 1'
_cell_length_a   12.25744467
_cell_length_b   12.27678865
_cell_length_c   12.26081686
_cell_angle_alpha   90.00584594
_cell_angle_beta   90.00048196
_cell_angle_gamma   90.00078866
_symmetry_Int_Tables_number   1
_chemical_formula_structural   AgSbTe2
_chemical_formula_sum   'Ag16 Sb16 Te32'
_cell_volume   1845.03293864
_cell_formula_units_Z   16
loop_
 _symmetry_equiv_pos_site_id
 _symmetry_equiv_pos_as_xyz
  1  'x, y, z'
loop_
 _atom_site_type_symbol
 _atom_site_label
 _atom_site_symmetry_multiplicity
 _atom_site_fract_x
 _atom_site_fract_y
 _atom_site_fract_z
 _atom_site_occupancy
  Ag  Ag0  1  0.25478960  0.49665921  0.26029852  1
  Ag  Ag1  1  0.00787201  0.00399803  -0.00527450  1
  Ag  Ag2  1  0.49267865  0.00237948  0.00117214  1
  Ag  Ag3  1  0.00579445  0.75542720  0.74113224  1
  Ag  Ag4  1  0.25044558  0.24500219  0.00188257  1
  Ag  Ag5  1  0.25664759  0.74632091  0.50009910  1
  Ag  Ag6  1  0.49293507  0.75387883  0.73697089  1
  Ag  Ag7  1  0.49153379  -0.00061479  0.49784167  1
  Ag  Ag8  1  0.00828776  0.00533700  0.50687658  1
  Ag  Ag9  1  0.49297647  0.75124173  0.26279347  1
  Ag  Ag10  1  0.48777222  0.50021537  0.49577618  1
  Ag  Ag11  1  0.25047588  0.25423013  0.49667590  1
  Ag  Ag12  1  0.00508226  0.24413169  0.73991587  1
  Ag  Ag13  1  0.74998968  0.24897629  0.49988600  1
  Ag  Ag14  1  0.01193443  0.49473395  0.50181710  1
  Ag  Ag15  1  0.49224937  0.24901294  0.26063369  1
  Sb  Sb16  1  0.25423509  0.00480545  0.25405904  1
  Sb  Sb17  1  0.75115675  0.00223437  0.74678581  1
  Sb  Sb18  1  0.24738690  -0.00030411  0.74512019  1
  Sb  Sb19  1  0.01094928  0.75070015  0.26196497  1
  Sb  Sb20  1  0.74843016  0.49770617  0.74554247  1
  Sb  Sb21  1  0.49400959  0.24449190  0.73871876  1
  Sb  Sb22  1  0.00841466  0.49473672  -0.00427356  1
  Sb  Sb23  1  0.74341770  0.49728812  0.25504899  1
  Sb  Sb24  1  0.74310576  0.75274611  0.49978386  1
  Sb  Sb25  1  0.75033554  0.75168936  0.00010743  1
  Sb  Sb26  1  0.25009933  0.75662088  0.00113843  1
  Sb  Sb27  1  0.75006927  0.24827622  0.00020052  1
  Sb  Sb28  1  0.74702859  0.00303156  0.25370291  1
  Sb  Sb29  1  0.25116070  0.50008548  0.73677127  1
  Sb  Sb30  1  0.01043538  0.25032229  0.26083228  1
  Sb  Sb31  1  0.49267392  0.49493326  0.00275454  1
  Te  Te32  1  0.25619493  0.25372354  0.25541314  1
  Te  Te33  1  0.24313675  0.25202473  0.74905736  1
  Te  Te34  1  0.25789635  0.74149421  0.25540977  1
  Te  Te35  1  0.24974050  0.74839981  0.74431480  1
  Te  Te36  1  0.73353216  0.25066103  0.25771418  1
  Te  Te37  1  0.76274252  0.25147327  0.74203162  1
  Te  Te38  1  0.73113210  0.74783103  0.25049849  1
  Te  Te39  1  0.75267453  0.74771014  0.74825425  1
  Te  Te40  1  0.25073769  0.00717240  0.00375657  1
  Te  Te41  1  0.25077520  0.00031171  0.49738801  1
  Te  Te42  1  0.24976350  0.48731561  0.01650284  1
  Te  Te43  1  0.25159609  0.49912249  0.49527432  1
  Te  Te44  1  0.74985249  0.00193031  0.00214098  1
  Te  Te45  1  0.75074320  0.00951382  0.49872434  1
  Te  Te46  1  0.75143930  0.49805830  0.00307714  1
  Te  Te47  1  0.75125233  0.48857317  0.49817684  1
  Te  Te48  1  0.00010823  0.24489754  -0.00419428  1
  Te  Te49  1  0.00746678  0.24651908  0.49916770  1
  Te  Te50  1  0.00249408  0.75904715  -0.01073957  1
  Te  Te51  1  0.00070687  0.75374278  0.50307088  1
  Te  Te52  1  0.49931853  0.24469322  -0.00098076  1
  Te  Te53  1  0.49208324  0.24683043  0.50418670  1
  Te  Te54  1  0.49690068  0.75949660  -0.00230377  1
  Te  Te55  1  0.50080990  0.75363995  0.50151609  1
  Te  Te56  1  -0.00147039  -0.00187375  0.24928887  1
  Te  Te57  1  0.00007248  -0.00189043  0.74541829  1
  Te  Te58  1  0.00753316  0.50143126  0.25925180  1
  Te  Te59  1  0.00071434  0.50354497  0.74287556  1
  Te  Te60  1  0.49848044  0.00009216  0.25299833  1
  Te  Te61  1  0.50107660  -0.00524250  0.74860124  1
  Te  Te62  1  0.49649351  0.49899178  0.25473399  1
  Te  Te63  1  0.49962852  0.51047009  0.74261895  1
