# generated using pymatgen
data_AgSbTe2
_symmetry_space_group_name_H-M   'P 1'
_cell_length_a   12.21507055
_cell_length_b   12.21666460
_cell_length_c   12.21997916
_cell_angle_alpha   90.00042774
_cell_angle_beta   90.00242201
_cell_angle_gamma   90.00178547
_symmetry_Int_Tables_number   1
_chemical_formula_structural   AgSbTe2
_chemical_formula_sum   'Ag16 Sb16 Te32'
_cell_volume   1823.55595879
_cell_formula_units_Z   16
loop_
 _symmetry_equiv_pos_site_id
 _symmetry_equiv_pos_as_xyz
  1  'x, y, z'
loop_
 _atom_site_type_symbol
 _atom_site_label
 _atom_site_symmetry_multiplicity
 _atom_site_fract_x
 _atom_site_fract_y
 _atom_site_fract_z
 _atom_site_occupancy
  Ag  Ag0  1  0.24791882  0.24503604  -0.00435838  1
  Ag  Ag1  1  0.75262572  0.24193406  -0.00366865  1
  Ag  Ag2  1  0.74762657  0.75131857  0.50522202  1
  Ag  Ag3  1  0.25198857  0.75183661  0.50374531  1
  Ag  Ag4  1  0.25192872  0.00246347  0.75031164  1
  Ag  Ag5  1  0.75121334  -0.00235174  0.24411902  1
  Ag  Ag6  1  0.74896255  0.75774261  -0.00515880  1
  Ag  Ag7  1  -0.00114208  0.49957207  0.50105913  1
  Ag  Ag8  1  -0.00638597  0.00352671  -0.00093425  1
  Ag  Ag9  1  0.24832756  0.24820481  0.50435778  1
  Ag  Ag10  1  -0.00118357  0.24744047  0.24785893  1
  Ag  Ag11  1  0.74770714  -0.00349484  0.75610478  1
  Ag  Ag12  1  0.50466074  0.75350371  0.25190292  1
  Ag  Ag13  1  0.50054665  0.24616413  0.75102671  1
  Ag  Ag14  1  0.74916455  0.50333038  0.74960460  1
  Ag  Ag15  1  0.50642211  0.75357499  0.74766589  1
  Sb  Sb16  1  0.50209309  0.50251970  0.50232588  1
  Sb  Sb17  1  0.24843413  0.50031551  0.25160189  1
  Sb  Sb18  1  0.50073625  -0.00227851  0.50282812  1
  Sb  Sb19  1  0.50236546  0.49987628  -0.00236493  1
  Sb  Sb20  1  0.25105941  0.75642447  -0.00518837  1
  Sb  Sb21  1  0.50815581  0.00026024  -0.00322067  1
  Sb  Sb22  1  0.25047695  0.49889334  0.74753240  1
  Sb  Sb23  1  -0.00367863  0.75331886  0.25109177  1
  Sb  Sb24  1  0.75119210  0.24895169  0.50438596  1
  Sb  Sb25  1  0.24957137  -0.00031875  0.24824884  1
  Sb  Sb26  1  0.75177420  0.50228978  0.25131837  1
  Sb  Sb27  1  -0.00323444  0.49723976  -0.00093228  1
  Sb  Sb28  1  0.50217721  0.24640099  0.24962740  1
  Sb  Sb29  1  -0.00816466  0.75099293  0.74878920  1
  Sb  Sb30  1  0.00036517  0.24822420  0.75224435  1
  Sb  Sb31  1  -0.00063826  0.00152646  0.50057649  1
  Te  Te32  1  0.24996108  0.24880836  0.25044262  1
  Te  Te33  1  0.25295431  0.24862201  0.74950110  1
  Te  Te34  1  0.25581534  0.75147258  0.25482058  1
  Te  Te35  1  0.25704307  0.75209662  0.74801780  1
  Te  Te36  1  0.74914190  0.24668066  0.24738276  1
  Te  Te37  1  0.74647794  0.24658821  0.75070136  1
  Te  Te38  1  0.74754958  0.75245486  0.25054046  1
  Te  Te39  1  0.74803089  0.75347755  0.74955004  1
  Te  Te40  1  0.24245585  0.00367110  -0.00347361  1
  Te  Te41  1  0.24708334  -0.00076860  0.50484965  1
  Te  Te42  1  0.24734701  0.49088615  -0.00042249  1
  Te  Te43  1  0.24327659  0.50087037  0.50137024  1
  Te  Te44  1  0.75253666  0.00051304  -0.00260138  1
  Te  Te45  1  0.75281583  -0.00438241  0.50197821  1
  Te  Te46  1  0.75176273  0.49969704  -0.00548433  1
  Te  Te47  1  0.75490200  0.50350596  0.50388577  1
  Te  Te48  1  -0.00201865  0.24803178  0.00299289  1
  Te  Te49  1  0.00342464  0.25169160  0.49533983  1
  Te  Te50  1  -0.00414790  0.75380886  0.00211151  1
  Te  Te51  1  0.00128395  0.74679343  0.49840244  1
  Te  Te52  1  0.50018159  0.25066659  -0.00291559  1
  Te  Te53  1  0.49301734  0.25207520  0.50341498  1
  Te  Te54  1  0.50387120  0.74909520  -0.00226575  1
  Te  Te55  1  0.50036110  0.74879430  0.50319062  1
  Te  Te56  1  -0.00475023  0.00460840  0.24550793  1
  Te  Te57  1  -0.00029859  -0.00007247  0.75495671  1
  Te  Te58  1  -0.00062426  0.49210372  0.25557643  1
  Te  Te59  1  -0.00710469  0.49988852  0.74459459  1
  Te  Te60  1  0.50693133  -0.00587798  0.25038560  1
  Te  Te61  1  0.50065832  -0.00009986  0.74991307  1
  Te  Te62  1  0.50019600  0.50913683  0.24992487  1
  Te  Te63  1  0.50679819  0.50072337  0.75008803  1
