# generated using pymatgen
data_AgSbTe2
_symmetry_space_group_name_H-M   'P 1'
_cell_length_a   12.31376594
_cell_length_b   12.30303853
_cell_length_c   12.31735720
_cell_angle_alpha   89.99709860
_cell_angle_beta   90.00972092
_cell_angle_gamma   90.00098964
_symmetry_Int_Tables_number   1
_chemical_formula_structural   AgSbTe2
_chemical_formula_sum   'Ag16 Sb16 Te32'
_cell_volume   1866.03939264
_cell_formula_units_Z   16
loop_
 _symmetry_equiv_pos_site_id
 _symmetry_equiv_pos_as_xyz
  1  'x, y, z'
loop_
 _atom_site_type_symbol
 _atom_site_label
 _atom_site_symmetry_multiplicity
 _atom_site_fract_x
 _atom_site_fract_y
 _atom_site_fract_z
 _atom_site_occupancy
  Ag  Ag0  1  0.25605278  0.24325094  0.01063133  1
  Ag  Ag1  1  -0.01679138  0.23593256  0.25150334  1
  Ag  Ag2  1  0.50168633  0.76087421  0.74605779  1
  Ag  Ag3  1  0.50229655  0.24352979  0.75248103  1
  Ag  Ag4  1  0.75218932  0.47809717  0.25082157  1
  Ag  Ag5  1  0.76111847  0.01357880  0.25606978  1
  Ag  Ag6  1  0.25365296  0.00087636  0.74320313  1
  Ag  Ag7  1  0.75003275  0.23955725  0.48065314  1
  Ag  Ag8  1  0.75036564  0.75628811  0.01801549  1
  Ag  Ag9  1  0.75435033  0.75963449  0.48488562  1
  Ag  Ag10  1  0.23892886  0.00576051  0.25539843  1
  Ag  Ag11  1  0.24674069  0.76140890  0.49428016  1
  Ag  Ag12  1  0.51959316  0.24378247  0.24714610  1
  Ag  Ag13  1  -0.01600620  0.76473716  0.25641116  1
  Ag  Ag14  1  0.74656240  0.24578524  0.01796625  1
  Ag  Ag15  1  -0.00279613  -0.00291167  0.49115339  1
  Sb  Sb16  1  0.50302179  0.00025967  0.49816896  1
  Sb  Sb17  1  -0.00152629  0.50074716  0.49557473  1
  Sb  Sb18  1  0.24981353  0.49643605  0.25178064  1
  Sb  Sb19  1  -0.00176549  0.49910993  0.00436959  1
  Sb  Sb20  1  0.74771312  0.49924954  0.74921150  1
  Sb  Sb21  1  0.50171715  0.00204364  0.00142063  1
  Sb  Sb22  1  -0.00210463  0.75633394  0.74544556  1
  Sb  Sb23  1  0.50112486  0.49785622  0.00210126  1
  Sb  Sb24  1  0.25342770  0.49835853  0.74879177  1
  Sb  Sb25  1  0.74817110  0.00117205  0.74820306  1
  Sb  Sb26  1  -0.00198903  0.24382724  0.75019097  1
  Sb  Sb27  1  0.50099262  0.49926214  0.49848292  1
  Sb  Sb28  1  0.25007973  0.75498960  0.00368101  1
  Sb  Sb29  1  0.24974051  0.24258345  0.49569327  1
  Sb  Sb30  1  0.50632443  0.75569563  0.25114155  1
  Sb  Sb31  1  -0.00116618  0.00001599  0.00714058  1
  Te  Te32  1  0.24716733  0.24993604  0.25161826  1
  Te  Te33  1  0.25184414  0.24932587  0.74589474  1
  Te  Te34  1  0.25698616  0.74861176  0.24598891  1
  Te  Te35  1  0.25155429  0.75015822  0.75655169  1
  Te  Te36  1  0.75077886  0.24824346  0.25194978  1
  Te  Te37  1  0.74660419  0.24897809  0.75343127  1
  Te  Te38  1  0.74691016  0.76031273  0.25016685  1
  Te  Te39  1  0.74708415  0.75107008  0.74859370  1
  Te  Te40  1  0.24766148  0.00611925  0.00496360  1
  Te  Te41  1  0.24929153  -0.00513602  0.49304270  1
  Te  Te42  1  0.24981655  0.48413163  -0.00113304  1
  Te  Te43  1  0.25024501  0.52407767  0.50013765  1
  Te  Te44  1  0.75177681  -0.00001056  0.00042911  1
  Te  Te45  1  0.75096645  0.00014721  0.50007055  1
  Te  Te46  1  0.75018319  0.49834238  0.00369073  1
  Te  Te47  1  0.74937759  0.50094484  0.49761604  1
  Te  Te48  1  -0.00765617  0.24921062  0.00184122  1
  Te  Te49  1  -0.00189141  0.24947581  0.49856951  1
  Te  Te50  1  -0.00587712  0.75119214  0.00787919  1
  Te  Te51  1  -0.00654353  0.74992434  0.49668025  1
  Te  Te52  1  0.50470979  0.24935120  -0.00147869  1
  Te  Te53  1  0.50239681  0.25051013  0.50306220  1
  Te  Te54  1  0.50482830  0.75049587  -0.00563632  1
  Te  Te55  1  0.50545652  0.74929303  0.50198017  1
  Te  Te56  1  0.00012212  -0.00119783  0.25202400  1
  Te  Te57  1  0.01174231  -0.00002274  0.73478977  1
  Te  Te58  1  -0.00344192  0.49974655  0.24995741  1
  Te  Te59  1  0.00100289  0.50050083  0.75094889  1
  Te  Te60  1  0.49660502  0.00496955  0.24850060  1
  Te  Te61  1  0.49506476  0.00104938  0.75040835  1
  Te  Te62  1  0.50397286  0.48756337  0.25009293  1
  Te  Te63  1  0.49970944  0.49456203  0.74929229  1
