# generated using pymatgen
data_AgSbTe2
_symmetry_space_group_name_H-M   'P 1'
_cell_length_a   12.27738176
_cell_length_b   12.30835205
_cell_length_c   12.29863220
_cell_angle_alpha   90.00239538
_cell_angle_beta   89.99838943
_cell_angle_gamma   89.98940284
_symmetry_Int_Tables_number   1
_chemical_formula_structural   AgSbTe2
_chemical_formula_sum   'Ag16 Sb16 Te32'
_cell_volume   1858.49961694
_cell_formula_units_Z   16
loop_
 _symmetry_equiv_pos_site_id
 _symmetry_equiv_pos_as_xyz
  1  'x, y, z'
loop_
 _atom_site_type_symbol
 _atom_site_label
 _atom_site_symmetry_multiplicity
 _atom_site_fract_x
 _atom_site_fract_y
 _atom_site_fract_z
 _atom_site_occupancy
  Ag  Ag0  1  -0.01907986  0.24600871  0.74251446  1
  Ag  Ag1  1  0.50601942  0.49586422  -0.01263887  1
  Ag  Ag2  1  0.75012886  0.24119056  0.51688605  1
  Ag  Ag3  1  0.75070460  0.02080403  0.73604904  1
  Ag  Ag4  1  -0.00992756  0.24498347  0.25867232  1
  Ag  Ag5  1  -0.01532757  0.00655620  0.50212095  1
  Ag  Ag6  1  0.51581074  0.00769760  0.50719317  1
  Ag  Ag7  1  0.24863477  0.49782542  0.25210969  1
  Ag  Ag8  1  0.51579545  0.74378000  0.74641297  1
  Ag  Ag9  1  -0.01240689  0.75323737  0.74407357  1
  Ag  Ag10  1  0.75690662  0.00874456  0.26538724  1
  Ag  Ag11  1  0.74024193  0.48010251  0.74574240  1
  Ag  Ag12  1  0.51973338  0.25733314  0.74288900  1
  Ag  Ag13  1  -0.00409273  0.75359207  0.25791006  1
  Ag  Ag14  1  0.74906391  0.25200279  -0.02197108  1
  Ag  Ag15  1  0.50820753  0.49376358  0.51208817  1
  Sb  Sb16  1  0.75003747  0.49546870  0.25451082  1
  Sb  Sb17  1  0.24968350  0.25114665  0.49977892  1
  Sb  Sb18  1  0.25268548  0.25397312  0.00082548  1
  Sb  Sb19  1  -0.00448304  0.00087212  -0.00381294  1
  Sb  Sb20  1  0.24914155  0.74788955  0.49984341  1
  Sb  Sb21  1  0.24931532  0.00023288  0.74701625  1
  Sb  Sb22  1  0.74826163  0.74446470  -0.00379474  1
  Sb  Sb23  1  0.25511296  0.49933929  0.74716051  1
  Sb  Sb24  1  0.50841309  0.00388051  -0.00999876  1
  Sb  Sb25  1  0.51021071  0.24830601  0.25542980  1
  Sb  Sb26  1  -0.00468223  0.49778292  -0.00112288  1
  Sb  Sb27  1  0.24312626  0.00152241  0.25499876  1
  Sb  Sb28  1  -0.00983805  0.49614674  0.50231912  1
  Sb  Sb29  1  0.25089399  0.74488658  0.00012520  1
  Sb  Sb30  1  0.50700796  0.75150454  0.25436650  1
  Sb  Sb31  1  0.75036075  0.75763653  0.50411577  1
  Te  Te32  1  0.23496377  0.25174705  0.24893939  1
  Te  Te33  1  0.24379613  0.25129304  0.75128456  1
  Te  Te34  1  0.23790491  0.74795237  0.24980526  1
  Te  Te35  1  0.24091888  0.74977271  0.75040930  1
  Te  Te36  1  0.75339057  0.24760192  0.25482046  1
  Te  Te37  1  0.74987971  0.25046506  0.74893053  1
  Te  Te38  1  0.75684822  0.75619665  0.24771461  1
  Te  Te39  1  0.75175264  0.74943301  0.74951898  1
  Te  Te40  1  0.25331577  0.00018363  0.00210758  1
  Te  Te41  1  0.25359580  -0.00004069  0.50036607  1
  Te  Te42  1  0.26201100  0.49903880  0.00673839  1
  Te  Te43  1  0.26476123  0.49943820  0.49520911  1
  Te  Te44  1  0.74904084  0.01063487  -0.00113214  1
  Te  Te45  1  0.75094511  0.00216472  0.50286446  1
  Te  Te46  1  0.74567629  0.49441473  -0.00264499  1
  Te  Te47  1  0.74573091  0.48996627  0.50269283  1
  Te  Te48  1  -0.00477586  0.25098314  -0.00455029  1
  Te  Te49  1  -0.00027139  0.24967076  0.50303561  1
  Te  Te50  1  0.00060265  0.74994693  -0.00610158  1
  Te  Te51  1  -0.00165400  0.75324567  0.50408946  1
  Te  Te52  1  0.50271267  0.25194572  -0.00269746  1
  Te  Te53  1  0.50019991  0.24738172  0.49984158  1
  Te  Te54  1  0.50039857  0.74368065  -0.00934318  1
  Te  Te55  1  0.50219087  0.75007971  0.50500409  1
  Te  Te56  1  -0.00308166  0.00168342  0.25253109  1
  Te  Te57  1  -0.00019885  0.00017729  0.74816791  1
  Te  Te58  1  -0.00126422  0.50215987  0.25084245  1
  Te  Te59  1  -0.00119534  0.50176831  0.74850294  1
  Te  Te60  1  0.50361895  -0.00306384  0.25897812  1
  Te  Te61  1  0.49886373  0.00014453  0.74679415  1
  Te  Te62  1  0.50204860  0.50202168  0.25364258  1
  Te  Te63  1  0.50161365  0.49937263  0.74643776  1
