# generated using pymatgen
data_AgSbTe2
_symmetry_space_group_name_H-M   'P 1'
_cell_length_a   12.22639814
_cell_length_b   12.23468723
_cell_length_c   12.21678889
_cell_angle_alpha   90.01051748
_cell_angle_beta   90.00692782
_cell_angle_gamma   89.99956497
_symmetry_Int_Tables_number   1
_chemical_formula_structural   AgSbTe2
_chemical_formula_sum   'Ag16 Sb16 Te32'
_cell_volume   1827.46245932
_cell_formula_units_Z   16
loop_
 _symmetry_equiv_pos_site_id
 _symmetry_equiv_pos_as_xyz
  1  'x, y, z'
loop_
 _atom_site_type_symbol
 _atom_site_label
 _atom_site_symmetry_multiplicity
 _atom_site_fract_x
 _atom_site_fract_y
 _atom_site_fract_z
 _atom_site_occupancy
  Ag  Ag0  1  0.49993611  0.74915485  0.25054385  1
  Ag  Ag1  1  0.75324080  0.25141719  0.49551180  1
  Ag  Ag2  1  0.75269012  0.50426040  0.25363463  1
  Ag  Ag3  1  0.75654093  0.49980801  0.74718894  1
  Ag  Ag4  1  0.24754421  -0.00709120  0.25067576  1
  Ag  Ag5  1  0.50236280  0.25084011  0.25268862  1
  Ag  Ag6  1  0.00281568  0.50187195  0.00180390  1
  Ag  Ag7  1  0.24730916  0.74656284  0.00620927  1
  Ag  Ag8  1  0.75322257  0.74880664  0.49183870  1
  Ag  Ag9  1  0.24500770  -0.00158912  0.74892151  1
  Ag  Ag10  1  0.24338082  0.50164969  0.75294719  1
  Ag  Ag11  1  0.00004157  0.74850631  0.25088665  1
  Ag  Ag12  1  -0.00169082  -0.00071644  0.49618230  1
  Ag  Ag13  1  0.00006528  0.25383419  0.74760673  1
  Ag  Ag14  1  0.24654261  0.50769634  0.24667589  1
  Ag  Ag15  1  0.75276527  -0.00467921  0.25554402  1
  Sb  Sb16  1  0.24750402  0.25347815  0.00102288  1
  Sb  Sb17  1  0.75518074  -0.00006600  0.74400973  1
  Sb  Sb18  1  0.50280400  0.50069581  0.49610564  1
  Sb  Sb19  1  0.75282752  0.74654509  0.00805570  1
  Sb  Sb20  1  0.75242643  0.25228619  0.00369617  1
  Sb  Sb21  1  0.24683150  0.75091382  0.49336275  1
  Sb  Sb22  1  0.49666321  0.50195583  0.00367049  1
  Sb  Sb23  1  0.24620950  0.24925041  0.49842282  1
  Sb  Sb24  1  0.50046490  0.25126446  0.74639118  1
  Sb  Sb25  1  0.50129904  -0.00068309  0.49613428  1
  Sb  Sb26  1  0.49858146  0.74889090  0.74884071  1
  Sb  Sb27  1  0.00297531  -0.00193992  0.00314406  1
  Sb  Sb28  1  0.49780640  -0.00179586  0.00328708  1
  Sb  Sb29  1  -0.00191951  0.25076486  0.25217384  1
  Sb  Sb30  1  0.00099027  0.74685907  0.74894618  1
  Sb  Sb31  1  -0.00329087  0.50117316  0.49855454  1
  Te  Te32  1  0.25291316  0.24997629  0.25165443  1
  Te  Te33  1  0.24886591  0.25231501  0.74945832  1
  Te  Te34  1  0.24871090  0.74893657  0.25133464  1
  Te  Te35  1  0.25155642  0.74747591  0.75243832  1
  Te  Te36  1  0.74959041  0.25204366  0.25301924  1
  Te  Te37  1  0.75132107  0.25320966  0.74620889  1
  Te  Te38  1  0.75133716  0.74817826  0.25050684  1
  Te  Te39  1  0.74802733  0.74574604  0.74516544  1
  Te  Te40  1  0.24876755  -0.00519432  0.00243413  1
  Te  Te41  1  0.24430570  -0.00022285  0.49848172  1
  Te  Te42  1  0.24545476  0.50291297  0.00161597  1
  Te  Te43  1  0.24933499  0.49992857  0.50117553  1
  Te  Te44  1  0.75043880  -0.00049072  0.00739563  1
  Te  Te45  1  0.75420383  -0.00040400  0.49688078  1
  Te  Te46  1  0.75672159  0.50130132  -0.00044332  1
  Te  Te47  1  0.75077706  0.50003733  0.49780341  1
  Te  Te48  1  -0.00029259  0.25766089  -0.00916067  1
  Te  Te49  1  -0.00455018  0.24320157  0.50472651  1
  Te  Te50  1  0.00416395  0.74484467  0.00559397  1
  Te  Te51  1  -0.00432180  0.75659447  0.49457219  1
  Te  Te52  1  0.50049244  0.24933498  0.01003555  1
  Te  Te53  1  0.50935071  0.24956118  0.49335689  1
  Te  Te54  1  0.49246239  0.75042738  0.00726111  1
  Te  Te55  1  0.50872379  0.75037427  0.49252421  1
  Te  Te56  1  0.00124708  0.00072995  0.25117532  1
  Te  Te57  1  0.00387341  0.00191587  0.74838325  1
  Te  Te58  1  0.00086600  0.49993335  0.24898660  1
  Te  Te59  1  0.00133445  0.49944349  0.75064000  1
  Te  Te60  1  0.49792215  -0.00145393  0.25064757  1
  Te  Te61  1  0.48936888  0.00109944  0.75055190  1
  Te  Te62  1  0.49967305  0.50148782  0.24933922  1
  Te  Te63  1  0.49823092  0.49916945  0.75155856  1
