# generated using pymatgen
data_AgSbTe2
_symmetry_space_group_name_H-M   'P 1'
_cell_length_a   12.31228719
_cell_length_b   12.32304218
_cell_length_c   12.26824655
_cell_angle_alpha   89.99280836
_cell_angle_beta   89.98810582
_cell_angle_gamma   89.99270621
_symmetry_Int_Tables_number   1
_chemical_formula_structural   AgSbTe2
_chemical_formula_sum   'Ag16 Sb16 Te32'
_cell_volume   1861.39760630
_cell_formula_units_Z   16
loop_
 _symmetry_equiv_pos_site_id
 _symmetry_equiv_pos_as_xyz
  1  'x, y, z'
loop_
 _atom_site_type_symbol
 _atom_site_label
 _atom_site_symmetry_multiplicity
 _atom_site_fract_x
 _atom_site_fract_y
 _atom_site_fract_z
 _atom_site_occupancy
  Ag  Ag0  1  0.24667538  0.25581131  0.01687393  1
  Ag  Ag1  1  0.49975305  0.74892772  0.24528355  1
  Ag  Ag2  1  0.00759935  0.25806360  0.25785184  1
  Ag  Ag3  1  0.76540526  0.25138649  0.48798944  1
  Ag  Ag4  1  0.23717897  0.25139681  0.48425922  1
  Ag  Ag5  1  0.74652386  0.74587140  0.01073081  1
  Ag  Ag6  1  0.23923213  0.48871159  0.24978253  1
  Ag  Ag7  1  0.00445204  0.01202557  0.48957028  1
  Ag  Ag8  1  0.75213013  0.00350876  0.25013042  1
  Ag  Ag9  1  0.00242114  0.49567266  0.01737117  1
  Ag  Ag10  1  0.76022273  0.49631606  0.24687404  1
  Ag  Ag11  1  0.00469012  0.48824291  0.48433775  1
  Ag  Ag12  1  0.49883099  0.50122981  0.01063410  1
  Ag  Ag13  1  0.24655172  0.01058502  0.25325366  1
  Ag  Ag14  1  0.49910910  -0.00177753  0.01101449  1
  Ag  Ag15  1  0.24649195  0.74768699  0.48826042  1
  Sb  Sb16  1  0.00069317  0.25073071  0.74382357  1
  Sb  Sb17  1  0.25036710  0.00113630  0.74768901  1
  Sb  Sb18  1  0.49864214  0.74954156  0.75448891  1
  Sb  Sb19  1  0.49689173  0.49998357  0.48814205  1
  Sb  Sb20  1  0.24997718  0.49963229  0.74961762  1
  Sb  Sb21  1  0.75094602  0.49885709  0.75157738  1
  Sb  Sb22  1  0.00238104  0.74327690  0.24980911  1
  Sb  Sb23  1  0.49968802  0.25060269  0.75211967  1
  Sb  Sb24  1  0.75438617  0.25226987  0.01150697  1
  Sb  Sb25  1  0.75039141  0.00091052  0.74984010  1
  Sb  Sb26  1  0.00070332  0.74940550  0.75027702  1
  Sb  Sb27  1  0.49373079  0.25179580  0.24890866  1
  Sb  Sb28  1  0.25111910  0.74673863  0.00878644  1
  Sb  Sb29  1  0.00095758  0.00392102  0.01330022  1
  Sb  Sb30  1  0.49773340  0.00019662  0.48938444  1
  Sb  Sb31  1  0.75242731  0.74919740  0.49062516  1
  Te  Te32  1  0.24884623  0.25161264  0.24901640  1
  Te  Te33  1  0.25033386  0.24885085  0.74893575  1
  Te  Te34  1  0.25082257  0.75035269  0.25365351  1
  Te  Te35  1  0.24916686  0.75134603  0.72873634  1
  Te  Te36  1  0.75295530  0.25135530  0.25420200  1
  Te  Te37  1  0.74914523  0.24882969  0.72686512  1
  Te  Te38  1  0.74691607  0.74896323  0.24564404  1
  Te  Te39  1  0.74971684  0.75120463  0.76582751  1
  Te  Te40  1  0.24671347  -0.00195400  0.00373028  1
  Te  Te41  1  0.25250181  0.00761946  0.49594864  1
  Te  Te42  1  0.24559573  0.50159438  0.00188943  1
  Te  Te43  1  0.25105599  0.49318296  0.49813369  1
  Te  Te44  1  0.75323800  0.00437208  0.00580760  1
  Te  Te45  1  0.74731527  -0.00294417  0.49371995  1
  Te  Te46  1  0.75265192  0.49491446  0.00386363  1
  Te  Te47  1  0.74940193  0.50231303  0.49614909  1
  Te  Te48  1  0.00407069  0.25320877  0.00402873  1
  Te  Te49  1  0.00324327  0.25408167  0.49683720  1
  Te  Te50  1  -0.00231931  0.74246099  -0.00031582  1
  Te  Te51  1  0.00246295  0.74593498  0.49968807  1
  Te  Te52  1  0.49412501  0.25192572  0.00124590  1
  Te  Te53  1  0.49506062  0.25064664  0.50149987  1
  Te  Te54  1  0.49833959  0.74843383  0.00367027  1
  Te  Te55  1  0.49582444  0.74921533  0.49600986  1
  Te  Te56  1  0.00202468  0.00345973  0.25382006  1
  Te  Te57  1  -0.00089631  -0.00120385  0.73036242  1
  Te  Te58  1  0.00162975  0.49895597  0.25074553  1
  Te  Te59  1  -0.00100522  0.50016709  0.75041463  1
  Te  Te60  1  0.49996664  -0.00201918  0.24581364  1
  Te  Te61  1  0.50139151  0.00046404  0.77128868  1
  Te  Te62  1  0.50010248  0.50135489  0.24628636  1
  Te  Te63  1  0.50129869  0.49944444  0.77236767  1
