# generated using pymatgen
data_AgSbTe2
_symmetry_space_group_name_H-M   'P 1'
_cell_length_a   12.21154072
_cell_length_b   12.21043198
_cell_length_c   12.20983831
_cell_angle_alpha   90.00695710
_cell_angle_beta   89.99502041
_cell_angle_gamma   90.00498688
_symmetry_Int_Tables_number   1
_chemical_formula_structural   AgSbTe2
_chemical_formula_sum   'Ag16 Sb16 Te32'
_cell_volume   1820.58683160
_cell_formula_units_Z   16
loop_
 _symmetry_equiv_pos_site_id
 _symmetry_equiv_pos_as_xyz
  1  'x, y, z'
loop_
 _atom_site_type_symbol
 _atom_site_label
 _atom_site_symmetry_multiplicity
 _atom_site_fract_x
 _atom_site_fract_y
 _atom_site_fract_z
 _atom_site_occupancy
  Ag  Ag0  1  0.75772262  0.50085872  0.74914535  1
  Ag  Ag1  1  0.49766886  0.50304366  -0.00062164  1
  Ag  Ag2  1  0.00058285  0.00331976  0.49689437  1
  Ag  Ag3  1  0.24607691  0.50254456  0.25086014  1
  Ag  Ag4  1  0.75735407  0.24867816  0.49998353  1
  Ag  Ag5  1  0.24836323  0.74600690  -0.00017052  1
  Ag  Ag6  1  -0.00080432  0.25650023  0.74196398  1
  Ag  Ag7  1  0.49902633  -0.00046194  0.49755084  1
  Ag  Ag8  1  0.00258069  0.49708270  0.50514039  1
  Ag  Ag9  1  0.75193795  0.74775583  -0.00135255  1
  Ag  Ag10  1  0.24232512  0.50365521  0.74870607  1
  Ag  Ag11  1  0.00244513  0.74371379  0.74688097  1
  Ag  Ag12  1  0.00024820  0.24891208  0.25777411  1
  Ag  Ag13  1  0.75404587  0.00054143  0.25445104  1
  Ag  Ag14  1  0.24600826  -0.00201589  0.25465790  1
  Ag  Ag15  1  0.24528956  0.74960638  0.49979367  1
  Sb  Sb16  1  0.75369317  -0.00081900  0.74651395  1
  Sb  Sb17  1  0.49681534  0.50055212  0.49991531  1
  Sb  Sb18  1  0.49771163  0.74814590  0.74953588  1
  Sb  Sb19  1  0.24840610  0.25475821  -0.00002629  1
  Sb  Sb20  1  0.49971781  0.25019167  0.25306164  1
  Sb  Sb21  1  0.75210932  0.25211549  -0.00069606  1
  Sb  Sb22  1  0.49754782  0.74957161  0.25063129  1
  Sb  Sb23  1  0.00076250  -0.00260863  0.00486740  1
  Sb  Sb24  1  0.00281050  0.50300258  -0.00647234  1
  Sb  Sb25  1  0.49894311  -0.00279615  0.00265153  1
  Sb  Sb26  1  0.24094108  0.25022145  0.49979526  1
  Sb  Sb27  1  0.75542016  0.75057883  0.50146592  1
  Sb  Sb28  1  0.49985254  0.25271252  0.74656301  1
  Sb  Sb29  1  0.75608503  0.49963970  0.24990143  1
  Sb  Sb30  1  0.24617229  -0.00403500  0.74497163  1
  Sb  Sb31  1  0.00320664  0.75024302  0.25417633  1
  Te  Te32  1  0.24390777  0.24944242  0.24940570  1
  Te  Te33  1  0.24314950  0.25673022  0.75110682  1
  Te  Te34  1  0.24794758  0.74932362  0.24962399  1
  Te  Te35  1  0.24646720  0.74660000  0.75057914  1
  Te  Te36  1  0.75568786  0.24710657  0.25236530  1
  Te  Te37  1  0.75580906  0.25385487  0.74814001  1
  Te  Te38  1  0.75193929  0.75403833  0.24491088  1
  Te  Te39  1  0.75458498  0.74640208  0.75296991  1
  Te  Te40  1  0.25273074  -0.00802287  0.00731981  1
  Te  Te41  1  0.24703429  -0.00235792  0.49672806  1
  Te  Te42  1  0.25149413  0.50441298  0.00067737  1
  Te  Te43  1  0.24946274  0.50256699  0.50000035  1
  Te  Te44  1  0.74747303  -0.00535289  0.00611132  1
  Te  Te45  1  0.75322888  0.00056857  0.49651607  1
  Te  Te46  1  0.74632361  0.50390175  -0.00183370  1
  Te  Te47  1  0.75112786  0.49913254  0.50235314  1
  Te  Te48  1  -0.00042241  0.24848816  -0.00053266  1
  Te  Te49  1  -0.00158399  0.25063154  0.50049319  1
  Te  Te50  1  0.00091581  0.75087680  -0.00751511  1
  Te  Te51  1  0.00316998  0.74903490  0.50373584  1
  Te  Te52  1  0.50026707  0.25704981  -0.00054809  1
  Te  Te53  1  0.51032338  0.24460592  0.50038723  1
  Te  Te54  1  0.49894694  0.74544172  -0.00046448  1
  Te  Te55  1  0.49270165  0.75483485  0.50059136  1
  Te  Te56  1  0.00137767  0.00209493  0.25417308  1
  Te  Te57  1  0.00032532  0.00089897  0.74310043  1
  Te  Te58  1  0.00368584  0.49666634  0.25610878  1
  Te  Te59  1  0.00057914  0.50013741  0.74846325  1
  Te  Te60  1  0.49862900  0.00080879  0.25481684  1
  Te  Te61  1  0.49976717  0.00086691  0.74256589  1
  Te  Te62  1  0.49234573  0.49887857  0.24673113  1
  Te  Te63  1  0.49953679  0.49912121  0.75240566  1
