# generated using pymatgen
data_AgSbTe2
_symmetry_space_group_name_H-M   'P 1'
_cell_length_a   12.23526991
_cell_length_b   12.25243125
_cell_length_c   12.23447671
_cell_angle_alpha   89.99612205
_cell_angle_beta   90.01173161
_cell_angle_gamma   90.00171083
_symmetry_Int_Tables_number   1
_chemical_formula_structural   AgSbTe2
_chemical_formula_sum   'Ag16 Sb16 Te32'
_cell_volume   1834.09242243
_cell_formula_units_Z   16
loop_
 _symmetry_equiv_pos_site_id
 _symmetry_equiv_pos_as_xyz
  1  'x, y, z'
loop_
 _atom_site_type_symbol
 _atom_site_label
 _atom_site_symmetry_multiplicity
 _atom_site_fract_x
 _atom_site_fract_y
 _atom_site_fract_z
 _atom_site_occupancy
  Ag  Ag0  1  0.24091026  0.50161048  0.24815968  1
  Ag  Ag1  1  0.00614868  0.25354541  0.24850851  1
  Ag  Ag2  1  0.24576632  -0.00465142  0.75391730  1
  Ag  Ag3  1  0.00178800  0.51556059  0.00095770  1
  Ag  Ag4  1  0.24615525  0.25054801  0.50010136  1
  Ag  Ag5  1  0.23539655  0.75268875  -0.00231851  1
  Ag  Ag6  1  0.50176643  0.75177847  0.75447379  1
  Ag  Ag7  1  -0.00245602  0.75106432  0.76481296  1
  Ag  Ag8  1  0.49781721  0.24818993  0.74913402  1
  Ag  Ag9  1  0.00429272  -0.01557290  -0.00328084  1
  Ag  Ag10  1  0.00265776  0.50170087  0.49857701  1
  Ag  Ag11  1  0.75591093  0.50851083  0.75300956  1
  Ag  Ag12  1  0.24214653  -0.00219381  0.24569811  1
  Ag  Ag13  1  0.76595599  0.74987340  -0.00741980  1
  Ag  Ag14  1  0.00534099  0.74644814  0.23493522  1
  Ag  Ag15  1  0.75431216  -0.00829395  0.75474025  1
  Sb  Sb16  1  0.00073153  0.24943597  0.75105235  1
  Sb  Sb17  1  0.24572699  0.24803199  -0.00033953  1
  Sb  Sb18  1  0.24636463  0.75006758  0.50114380  1
  Sb  Sb19  1  0.49395082  0.24993561  0.25106695  1
  Sb  Sb20  1  0.49754754  0.00032720  0.50362411  1
  Sb  Sb21  1  0.49599582  0.74995949  0.24613166  1
  Sb  Sb22  1  0.75438334  0.74859781  0.50805563  1
  Sb  Sb23  1  0.49747669  0.49925672  0.50422014  1
  Sb  Sb24  1  0.75341252  0.25205825  0.50346173  1
  Sb  Sb25  1  0.24556277  0.50305791  0.75122347  1
  Sb  Sb26  1  0.49603846  -0.00248998  -0.00318236  1
  Sb  Sb27  1  0.75451320  0.24993258  -0.00250479  1
  Sb  Sb28  1  0.75850088  -0.00392534  0.24461226  1
  Sb  Sb29  1  0.00256331  -0.00168194  0.50122774  1
  Sb  Sb30  1  0.49845630  0.50292790  -0.00198816  1
  Sb  Sb31  1  0.75964360  0.50294868  0.24790287  1
  Te  Te32  1  0.24762964  0.24891844  0.25092383  1
  Te  Te33  1  0.25278076  0.24799192  0.74795286  1
  Te  Te34  1  0.24894319  0.75163505  0.24939720  1
  Te  Te35  1  0.24657786  0.75161327  0.75136653  1
  Te  Te36  1  0.75346610  0.24937501  0.25075972  1
  Te  Te37  1  0.74590842  0.24845235  0.74861134  1
  Te  Te38  1  0.75088809  0.75095624  0.24310727  1
  Te  Te39  1  0.75418702  0.75050785  0.75202977  1
  Te  Te40  1  0.24651044  -0.00238671  -0.00229741  1
  Te  Te41  1  0.24940150  0.00477304  0.50167724  1
  Te  Te42  1  0.24604922  0.50381242  0.00296351  1
  Te  Te43  1  0.24575248  0.49623412  0.49783789  1
  Te  Te44  1  0.75529455  -0.00302413  -0.00402909  1
  Te  Te45  1  0.74884684  0.00069942  0.50846995  1
  Te  Te46  1  0.75373610  0.50315064  -0.00360690  1
  Te  Te47  1  0.75576885  0.49958408  0.50390674  1
  Te  Te48  1  -0.00052208  0.25057536  0.00532103  1
  Te  Te49  1  0.00446811  0.25416262  0.49606926  1
  Te  Te50  1  0.00254819  0.75059841  -0.00167276  1
  Te  Te51  1  -0.00055584  0.74420990  0.49865590  1
  Te  Te52  1  0.50196193  0.25059383  -0.00760757  1
  Te  Te53  1  0.49350558  0.25043735  0.50442806  1
  Te  Te54  1  0.49924016  0.74939889  -0.00549530  1
  Te  Te55  1  0.50142331  0.74931141  0.50841713  1
  Te  Te56  1  0.00305279  -0.00191872  0.24992751  1
  Te  Te57  1  0.00299169  -0.00013778  0.75116754  1
  Te  Te58  1  0.00143643  0.50240131  0.24780095  1
  Te  Te59  1  -0.00166494  0.49938430  0.75226155  1
  Te  Te60  1  0.49130189  0.00063076  0.25086166  1
  Te  Te61  1  0.49763548  -0.00226057  0.75083944  1
  Te  Te62  1  0.49158276  0.49922548  0.25090156  1
  Te  Te63  1  0.50507533  0.50184690  0.74933945  1
