# generated using pymatgen
data_AgSbTe2
_symmetry_space_group_name_H-M   'P 1'
_cell_length_a   12.21752204
_cell_length_b   12.23326990
_cell_length_c   12.22348473
_cell_angle_alpha   90.00094623
_cell_angle_beta   89.99910609
_cell_angle_gamma   89.99980459
_symmetry_Int_Tables_number   1
_chemical_formula_structural   AgSbTe2
_chemical_formula_sum   'Ag16 Sb16 Te32'
_cell_volume   1826.92501835
_cell_formula_units_Z   16
loop_
 _symmetry_equiv_pos_site_id
 _symmetry_equiv_pos_as_xyz
  1  'x, y, z'
loop_
 _atom_site_type_symbol
 _atom_site_label
 _atom_site_symmetry_multiplicity
 _atom_site_fract_x
 _atom_site_fract_y
 _atom_site_fract_z
 _atom_site_occupancy
  Ag  Ag0  1  0.74180699  0.00066669  0.25251073  1
  Ag  Ag1  1  0.50277377  -0.00026439  0.00366081  1
  Ag  Ag2  1  -0.00085377  0.49812097  -0.00211407  1
  Ag  Ag3  1  -0.00539262  0.25168573  0.24811336  1
  Ag  Ag4  1  0.50295282  0.50238593  0.49411854  1
  Ag  Ag5  1  0.50616791  0.74954935  0.25247678  1
  Ag  Ag6  1  0.50522404  -0.00213526  0.49628276  1
  Ag  Ag7  1  0.25099184  -0.00016371  0.74955793  1
  Ag  Ag8  1  0.50702422  0.25051256  0.24959803  1
  Ag  Ag9  1  -0.00028337  0.25093603  0.75176931  1
  Ag  Ag10  1  -0.00150795  0.74970735  0.75009642  1
  Ag  Ag11  1  0.74824801  -0.00143209  0.74740870  1
  Ag  Ag12  1  0.74297202  0.49880432  0.25020396  1
  Ag  Ag13  1  0.24865181  0.50012806  0.75123056  1
  Ag  Ag14  1  0.50195762  0.50020369  0.00610578  1
  Ag  Ag15  1  0.74555628  0.75218659  0.49836166  1
  Sb  Sb16  1  -0.00486390  -0.00089624  0.50165071  1
  Sb  Sb17  1  -0.00685115  0.74849487  0.24928435  1
  Sb  Sb18  1  0.75086854  0.50079403  0.74917831  1
  Sb  Sb19  1  0.25179502  0.24955088  0.50183464  1
  Sb  Sb20  1  0.25472130  0.75031575  0.50299818  1
  Sb  Sb21  1  0.74833803  0.24801153  0.49787737  1
  Sb  Sb22  1  0.25045416  0.25055446  -0.00171878  1
  Sb  Sb23  1  0.25833631  0.00159193  0.25041829  1
  Sb  Sb24  1  0.25618378  0.49896326  0.24953881  1
  Sb  Sb25  1  0.50241146  0.75167700  0.74835410  1
  Sb  Sb26  1  0.74859525  0.75006193  0.00086214  1
  Sb  Sb27  1  0.74964532  0.25045786  0.00259291  1
  Sb  Sb28  1  -0.00251235  0.50071632  0.50042123  1
  Sb  Sb29  1  0.25146920  0.74948388  -0.00259491  1
  Sb  Sb30  1  -0.00203542  0.00198819  -0.00215747  1
  Sb  Sb31  1  0.50174233  0.24820464  0.75124888  1
  Te  Te32  1  0.24546308  0.24911854  0.25099442  1
  Te  Te33  1  0.24364671  0.24959309  0.74952896  1
  Te  Te34  1  0.25693566  0.75104482  0.25111954  1
  Te  Te35  1  0.24350153  0.75030108  0.74881717  1
  Te  Te36  1  0.74928469  0.25000800  0.25065058  1
  Te  Te37  1  0.75629282  0.24326565  0.74861064  1
  Te  Te38  1  0.74682709  0.75091336  0.25416140  1
  Te  Te39  1  0.75341969  0.75413338  0.74484662  1
  Te  Te40  1  0.25724429  -0.00082537  -0.00730182  1
  Te  Te41  1  0.25851458  -0.00112224  0.50659192  1
  Te  Te42  1  0.25161184  0.50056494  -0.00597513  1
  Te  Te43  1  0.25764251  0.50115032  0.50670829  1
  Te  Te44  1  0.74456144  -0.00062279  0.00026499  1
  Te  Te45  1  0.74603582  -0.00396190  0.49906487  1
  Te  Te46  1  0.74681211  0.50050086  0.00418441  1
  Te  Te47  1  0.74475779  0.50555329  0.49682688  1
  Te  Te48  1  0.00054809  0.25519197  0.00113010  1
  Te  Te49  1  0.00082638  0.25013118  0.49832298  1
  Te  Te50  1  0.00028699  0.74314259  -0.00471262  1
  Te  Te51  1  -0.00675998  0.75007719  0.50434033  1
  Te  Te52  1  0.49962652  0.25185623  0.00473268  1
  Te  Te53  1  0.50002962  0.25033900  0.49483124  1
  Te  Te54  1  0.50005914  0.74807500  0.00438858  1
  Te  Te55  1  0.50382840  0.75015120  0.49838948  1
  Te  Te56  1  -0.00437764  0.00341995  0.24861052  1
  Te  Te57  1  -0.00054607  0.00118785  0.75148374  1
  Te  Te58  1  -0.00143420  0.49795524  0.24802861  1
  Te  Te59  1  0.00002746  0.49803140  0.75122018  1
  Te  Te60  1  0.50079548  0.00167023  0.24945618  1
  Te  Te61  1  0.50179393  0.00089554  0.75083870  1
  Te  Te62  1  0.49947676  0.49834261  0.24829364  1
  Te  Te63  1  0.49867997  0.49905568  0.75238191  1
