# generated using pymatgen
data_AgSbTe2
_symmetry_space_group_name_H-M   'P 1'
_cell_length_a   12.21749836
_cell_length_b   12.21930516
_cell_length_c   12.22217419
_cell_angle_alpha   90.00059586
_cell_angle_beta   90.00538863
_cell_angle_gamma   89.99872345
_symmetry_Int_Tables_number   1
_chemical_formula_structural   AgSbTe2
_chemical_formula_sum   'Ag16 Sb16 Te32'
_cell_volume   1824.64031854
_cell_formula_units_Z   16
loop_
 _symmetry_equiv_pos_site_id
 _symmetry_equiv_pos_as_xyz
  1  'x, y, z'
loop_
 _atom_site_type_symbol
 _atom_site_label
 _atom_site_symmetry_multiplicity
 _atom_site_fract_x
 _atom_site_fract_y
 _atom_site_fract_z
 _atom_site_occupancy
  Ag  Ag0  1  -0.00281567  0.25340290  0.75246540  1
  Ag  Ag1  1  0.49969221  0.76266836  0.24903291  1
  Ag  Ag2  1  0.75270339  0.49596770  0.74838792  1
  Ag  Ag3  1  0.26320142  0.00297802  0.24615897  1
  Ag  Ag4  1  0.50456375  0.49840247  0.49455669  1
  Ag  Ag5  1  -0.00091214  0.25270632  0.24733762  1
  Ag  Ag6  1  0.50100621  0.23711032  0.24911601  1
  Ag  Ag7  1  0.74928590  0.49576644  0.25228289  1
  Ag  Ag8  1  0.73601767  0.00389255  0.24961576  1
  Ag  Ag9  1  0.49859468  0.00148082  0.01401701  1
  Ag  Ag10  1  -0.00121513  0.49513360  0.00200028  1
  Ag  Ag11  1  0.24856587  0.24819437  0.00492590  1
  Ag  Ag12  1  0.50230623  0.00167594  0.48559207  1
  Ag  Ag13  1  0.25184826  0.75229857  0.00453555  1
  Ag  Ag14  1  0.74824413  0.00386031  0.75048085  1
  Ag  Ag15  1  -0.00536710  0.49623758  0.49783707  1
  Sb  Sb16  1  0.25188555  0.00372727  0.75408054  1
  Sb  Sb17  1  0.50394638  0.24986468  0.75212017  1
  Sb  Sb18  1  0.00113190  0.74658318  0.24731531  1
  Sb  Sb19  1  0.75216221  0.24961084  0.00306902  1
  Sb  Sb20  1  0.25304529  0.75161817  0.49371696  1
  Sb  Sb21  1  0.74782761  0.74826774  0.49732165  1
  Sb  Sb22  1  0.74753947  0.75093007  0.00293725  1
  Sb  Sb23  1  0.50161839  0.49831599  0.00703473  1
  Sb  Sb24  1  0.74866008  0.25242665  0.49670564  1
  Sb  Sb25  1  0.50054428  0.74981840  0.75187013  1
  Sb  Sb26  1  0.24704920  0.49687925  0.75167471  1
  Sb  Sb27  1  0.25090066  0.24905804  0.49355081  1
  Sb  Sb28  1  0.00143429  0.00561205  0.00210243  1
  Sb  Sb29  1  0.25088457  0.49610713  0.24846664  1
  Sb  Sb30  1  -0.00152312  0.74634245  0.75247562  1
  Sb  Sb31  1  -0.00379124  0.00457610  0.49668807  1
  Te  Te32  1  0.24950906  0.24669666  0.24594265  1
  Te  Te33  1  0.24167831  0.24882447  0.75952038  1
  Te  Te34  1  0.25341206  0.75645780  0.24488231  1
  Te  Te35  1  0.25013008  0.75075040  0.76117128  1
  Te  Te36  1  0.75009898  0.25011670  0.24882658  1
  Te  Te37  1  0.75507413  0.25039281  0.75172022  1
  Te  Te38  1  0.74504835  0.75090427  0.24847040  1
  Te  Te39  1  0.75001622  0.75088809  0.75188976  1
  Te  Te40  1  0.25167472  0.00145889  0.00243839  1
  Te  Te41  1  0.25673614  -0.00084322  0.49463855  1
  Te  Te42  1  0.24646729  0.49841077  -0.00018687  1
  Te  Te43  1  0.25229590  0.50047870  0.50081253  1
  Te  Te44  1  0.74572214  -0.00077038  0.00127712  1
  Te  Te45  1  0.74511242  -0.00187385  0.49876019  1
  Te  Te46  1  0.75399587  0.50091899  0.00011583  1
  Te  Te47  1  0.74915687  0.50095270  0.49857685  1
  Te  Te48  1  0.00368592  0.25307617  0.00305494  1
  Te  Te49  1  0.00250841  0.25615631  0.49834225  1
  Te  Te50  1  0.00799570  0.74154367  0.00060021  1
  Te  Te51  1  0.00280512  0.73822288  0.50040851  1
  Te  Te52  1  0.49350410  0.24724461  0.00308502  1
  Te  Te53  1  0.49792162  0.25026259  0.49544193  1
  Te  Te54  1  0.49512418  0.75272187  0.00413511  1
  Te  Te55  1  0.49817336  0.74940602  0.49398210  1
  Te  Te56  1  -0.00268567  0.00542179  0.25204068  1
  Te  Te57  1  -0.00760767  0.00573788  0.74842172  1
  Te  Te58  1  -0.00278592  0.49734021  0.25002242  1
  Te  Te59  1  -0.00430001  0.49686356  0.74972441  1
  Te  Te60  1  0.50231153  0.00223654  0.24954371  1
  Te  Te61  1  0.50630103  0.00113376  0.74903294  1
  Te  Te62  1  0.50315466  0.49809579  0.25202415  1
  Te  Te63  1  0.50872994  0.49925829  0.74181118  1
