# generated using pymatgen
data_AgSbTe2
_symmetry_space_group_name_H-M   'P 1'
_cell_length_a   12.29523631
_cell_length_b   12.29930413
_cell_length_c   12.28521473
_cell_angle_alpha   90.01232606
_cell_angle_beta   89.98172147
_cell_angle_gamma   89.99150018
_symmetry_Int_Tables_number   1
_chemical_formula_structural   AgSbTe2
_chemical_formula_sum   'Ag16 Sb16 Te32'
_cell_volume   1857.80503664
_cell_formula_units_Z   16
loop_
 _symmetry_equiv_pos_site_id
 _symmetry_equiv_pos_as_xyz
  1  'x, y, z'
loop_
 _atom_site_type_symbol
 _atom_site_label
 _atom_site_symmetry_multiplicity
 _atom_site_fract_x
 _atom_site_fract_y
 _atom_site_fract_z
 _atom_site_occupancy
  Ag  Ag0  1  0.01813032  0.74641066  0.26027416  1
  Ag  Ag1  1  0.48203428  0.74645777  0.25630356  1
  Ag  Ag2  1  0.25383678  0.74236757  0.02017721  1
  Ag  Ag3  1  0.00809756  0.50519584  0.49158877  1
  Ag  Ag4  1  0.49523910  0.24728140  0.74313528  1
  Ag  Ag5  1  0.24594187  0.74936035  0.48398534  1
  Ag  Ag6  1  0.49660642  0.00063939  0.49735691  1
  Ag  Ag7  1  0.74596897  0.00027721  0.74042070  1
  Ag  Ag8  1  0.49081855  0.49717963  0.00790238  1
  Ag  Ag9  1  0.25125615  0.49990938  0.25222634  1
  Ag  Ag10  1  0.75342932  0.75556559  0.49572523  1
  Ag  Ag11  1  0.01974999  0.25408683  0.25871573  1
  Ag  Ag12  1  0.00426301  -0.00527466  0.49588529  1
  Ag  Ag13  1  0.48233184  0.25436604  0.25335406  1
  Ag  Ag14  1  0.25154744  0.25061909  0.48375841  1
  Ag  Ag15  1  0.25568365  0.25759959  0.01946531  1
  Sb  Sb16  1  0.74973753  0.24771360  0.49933323  1
  Sb  Sb17  1  0.49868367  0.75174560  0.74471100  1
  Sb  Sb18  1  0.74633166  0.49977202  0.74419037  1
  Sb  Sb19  1  0.25046282  0.49981476  0.74605522  1
  Sb  Sb20  1  0.00173306  -0.00059918  0.00674691  1
  Sb  Sb21  1  0.25112066  -0.00002197  0.25239633  1
  Sb  Sb22  1  0.74908055  -0.00076283  0.25459658  1
  Sb  Sb23  1  0.74826614  0.74941808  0.00567209  1
  Sb  Sb24  1  0.74917560  0.50006066  0.25215320  1
  Sb  Sb25  1  0.00879878  0.50066163  0.01009878  1
  Sb  Sb26  1  0.74537169  0.25047220  0.00166217  1
  Sb  Sb27  1  0.49903971  -0.00011138  0.00482489  1
  Sb  Sb28  1  0.49463381  0.49999934  0.49605147  1
  Sb  Sb29  1  0.00149926  0.75113778  0.73874036  1
  Sb  Sb30  1  0.00646259  0.24779918  0.74262412  1
  Sb  Sb31  1  0.25187767  0.00045565  0.74593840  1
  Te  Te32  1  0.25044957  0.24308637  0.25327949  1
  Te  Te33  1  0.25519728  0.25180074  0.74818280  1
  Te  Te34  1  0.25232253  0.75684176  0.25148003  1
  Te  Te35  1  0.24976155  0.74819265  0.75194808  1
  Te  Te36  1  0.74894312  0.25037694  0.24836337  1
  Te  Te37  1  0.74143486  0.24922506  0.75114681  1
  Te  Te38  1  0.74869485  0.74928705  0.25434332  1
  Te  Te39  1  0.75021565  0.75129150  0.74391099  1
  Te  Te40  1  0.24792336  -0.00102606  -0.00765180  1
  Te  Te41  1  0.25200921  0.00028262  0.50078818  1
  Te  Te42  1  0.25329107  0.50007575  0.00643730  1
  Te  Te43  1  0.24808340  0.49940115  0.49520440  1
  Te  Te44  1  0.75147205  -0.00063404  -0.01442542  1
  Te  Te45  1  0.74662105  -0.00271706  0.50080682  1
  Te  Te46  1  0.73895806  0.50100171  -0.00197710  1
  Te  Te47  1  0.76084025  0.51049125  0.49835149  1
  Te  Te48  1  0.00732836  0.25028778  0.00763014  1
  Te  Te49  1  -0.00100817  0.24553901  0.49752564  1
  Te  Te50  1  0.00479191  0.74980377  0.01086998  1
  Te  Te51  1  0.00843267  0.75477495  0.49722603  1
  Te  Te52  1  0.49718073  0.24597559  0.01121242  1
  Te  Te53  1  0.49964851  0.25358626  0.49320728  1
  Te  Te54  1  0.49679565  0.75377433  0.00427314  1
  Te  Te55  1  0.49223267  0.74618048  0.49841184  1
  Te  Te56  1  -0.00462995  0.00091746  0.25458228  1
  Te  Te57  1  -0.00593898  0.00046751  0.73997102  1
  Te  Te58  1  0.00473639  0.49884936  0.25386988  1
  Te  Te59  1  -0.00172212  0.49970049  0.73937776  1
  Te  Te60  1  0.50384873  -0.00027819  0.25668666  1
  Te  Te61  1  0.50088587  0.00266420  0.74143788  1
  Te  Te62  1  0.49570116  0.49912098  0.24939556  1
  Te  Te63  1  0.49828826  0.49206182  0.75806389  1
