# generated using pymatgen
data_AgSbTe2
_symmetry_space_group_name_H-M   'P 1'
_cell_length_a   12.22453848
_cell_length_b   12.22783405
_cell_length_c   12.22508401
_cell_angle_alpha   90.00464309
_cell_angle_beta   89.99931255
_cell_angle_gamma   89.99792895
_symmetry_Int_Tables_number   1
_chemical_formula_structural   AgSbTe2
_chemical_formula_sum   'Ag16 Sb16 Te32'
_cell_volume   1827.40100135
_cell_formula_units_Z   16
loop_
 _symmetry_equiv_pos_site_id
 _symmetry_equiv_pos_as_xyz
  1  'x, y, z'
loop_
 _atom_site_type_symbol
 _atom_site_label
 _atom_site_symmetry_multiplicity
 _atom_site_fract_x
 _atom_site_fract_y
 _atom_site_fract_z
 _atom_site_occupancy
  Ag  Ag0  1  0.74262372  0.25192941  0.00342393  1
  Ag  Ag1  1  -0.00253065  0.75282174  0.74789947  1
  Ag  Ag2  1  0.26338182  0.49725399  0.24851730  1
  Ag  Ag3  1  0.50054706  0.49423825  0.01310826  1
  Ag  Ag4  1  0.25775554  0.25368402  0.00431137  1
  Ag  Ag5  1  -0.00124034  0.74784857  0.25251311  1
  Ag  Ag6  1  0.50121915  0.73604888  0.25228833  1
  Ag  Ag7  1  0.50294813  0.75033041  0.74731306  1
  Ag  Ag8  1  0.50250226  0.00018302  0.50064734  1
  Ag  Ag9  1  0.50087349  0.26310038  0.24553025  1
  Ag  Ag10  1  0.50237022  0.25016066  0.75338580  1
  Ag  Ag11  1  0.74623131  -0.00017645  0.74836403  1
  Ag  Ag12  1  -0.00099122  0.25270964  0.24937956  1
  Ag  Ag13  1  0.50077031  0.49992330  0.48655284  1
  Ag  Ag14  1  -0.00300063  -0.00158293  0.49909064  1
  Ag  Ag15  1  0.73662912  0.49753232  0.24848278  1
  Sb  Sb16  1  -0.00274368  0.24662952  0.75022202  1
  Sb  Sb17  1  0.25259784  0.74863594  0.49779212  1
  Sb  Sb18  1  0.25371136  0.25160857  0.49506906  1
  Sb  Sb19  1  0.25340778  0.74553347  0.00301416  1
  Sb  Sb20  1  0.25355952  0.00063632  0.74916098  1
  Sb  Sb21  1  0.74670654  0.74742667  0.00144058  1
  Sb  Sb22  1  0.74546012  0.49923686  0.75192911  1
  Sb  Sb23  1  -0.00164793  0.50155391  0.49467071  1
  Sb  Sb24  1  0.74779200  0.00254604  0.25156775  1
  Sb  Sb25  1  0.50211736  0.00683866  -0.00147929  1
  Sb  Sb26  1  -0.00095692  0.49842812  0.00364811  1
  Sb  Sb27  1  0.74752673  0.75027796  0.49925560  1
  Sb  Sb28  1  -0.00233055  0.00030767  0.00079116  1
  Sb  Sb29  1  0.25138853  0.00321359  0.25036953  1
  Sb  Sb30  1  0.74634067  0.24968778  0.49610141  1
  Sb  Sb31  1  0.25450574  0.49840556  0.75207930  1
  Te  Te32  1  0.25076480  0.25254397  0.24648998  1
  Te  Te33  1  0.25463959  0.25114281  0.75856937  1
  Te  Te34  1  0.24951908  0.74476427  0.24797240  1
  Te  Te35  1  0.25069762  0.74972420  0.75225887  1
  Te  Te36  1  0.74933482  0.25076780  0.24688700  1
  Te  Te37  1  0.74711301  0.24894254  0.75549912  1
  Te  Te38  1  0.75041825  0.74700134  0.24792556  1
  Te  Te39  1  0.74790790  0.75265282  0.75224914  1
  Te  Te40  1  0.24935909  0.01112714  0.00009408  1
  Te  Te41  1  0.25057827  0.00062601  0.50012986  1
  Te  Te42  1  0.25474682  0.49496478  0.00458563  1
  Te  Te43  1  0.25738984  0.49932536  0.49266204  1
  Te  Te44  1  0.75008716  0.00801067  -0.00736209  1
  Te  Te45  1  0.74882154  0.00055026  0.50523190  1
  Te  Te46  1  0.74585602  0.49488234  0.00412173  1
  Te  Te47  1  0.74344106  0.49967944  0.49283062  1
  Te  Te48  1  -0.00105197  0.25070323  0.00443002  1
  Te  Te49  1  0.00084562  0.24577737  0.49545209  1
  Te  Te50  1  0.00047337  0.75020785  0.00165691  1
  Te  Te51  1  0.00075382  0.75337024  0.49782754  1
  Te  Te52  1  0.50126877  0.25054491  0.00148069  1
  Te  Te53  1  0.49989172  0.24853464  0.50028345  1
  Te  Te54  1  0.49984382  0.74470327  0.00033555  1
  Te  Te55  1  0.49943726  0.75126969  0.50039675  1
  Te  Te56  1  -0.00037889  -0.00267680  0.25439707  1
  Te  Te57  1  -0.00311120  -0.00364504  0.74549466  1
  Te  Te58  1  -0.00088028  0.50108897  0.25167538  1
  Te  Te59  1  -0.00044971  0.50818869  0.74769453  1
  Te  Te60  1  0.50130854  -0.00165766  0.25625191  1
  Te  Te61  1  0.50217911  -0.00156663  0.74707147  1
  Te  Te62  1  0.50109755  0.50022274  0.24987083  1
  Te  Te63  1  0.50057323  0.50125696  0.74909556  1
