# generated using pymatgen
data_AgSbTe2
_symmetry_space_group_name_H-M   'P 1'
_cell_length_a   12.31913492
_cell_length_b   12.29832402
_cell_length_c   12.29903353
_cell_angle_alpha   89.99349143
_cell_angle_beta   90.00052711
_cell_angle_gamma   89.98031473
_symmetry_Int_Tables_number   1
_chemical_formula_structural   AgSbTe2
_chemical_formula_sum   'Ag16 Sb16 Te32'
_cell_volume   1863.36142107
_cell_formula_units_Z   16
loop_
 _symmetry_equiv_pos_site_id
 _symmetry_equiv_pos_as_xyz
  1  'x, y, z'
loop_
 _atom_site_type_symbol
 _atom_site_label
 _atom_site_symmetry_multiplicity
 _atom_site_fract_x
 _atom_site_fract_y
 _atom_site_fract_z
 _atom_site_occupancy
  Ag  Ag0  1  0.74394190  0.24542998  -0.00645395  1
  Ag  Ag1  1  0.49255625  0.75006562  0.74143800  1
  Ag  Ag2  1  0.72977770  0.24404049  0.50624360  1
  Ag  Ag3  1  0.50396179  0.24794266  0.73547014  1
  Ag  Ag4  1  0.26736914  0.24890309  0.50618819  1
  Ag  Ag5  1  0.00917804  0.75388809  0.74668688  1
  Ag  Ag6  1  0.49473700  0.48012006  0.50729580  1
  Ag  Ag7  1  0.50031748  0.01502434  0.50754559  1
  Ag  Ag8  1  0.25373176  0.74782416  -0.01843044  1
  Ag  Ag9  1  0.50361460  0.24926440  0.27118151  1
  Ag  Ag10  1  0.74715474  0.75540623  -0.01223669  1
  Ag  Ag11  1  0.74414605  0.00307541  0.74595401  1
  Ag  Ag12  1  0.00098359  0.00665986  0.50581350  1
  Ag  Ag13  1  -0.00503292  0.24583673  0.26134284  1
  Ag  Ag14  1  0.25847869  0.74933630  0.51227479  1
  Ag  Ag15  1  0.25623807  0.50935143  0.74319408  1
  Sb  Sb16  1  0.25209152  0.49908275  0.25513941  1
  Sb  Sb17  1  0.50077518  0.75224468  0.25618019  1
  Sb  Sb18  1  -0.00290938  0.00015664  -0.00762001  1
  Sb  Sb19  1  0.74792661  0.49873114  0.74824209  1
  Sb  Sb20  1  0.00008862  0.50004737  -0.00347109  1
  Sb  Sb21  1  -0.00104449  0.24721003  0.74455172  1
  Sb  Sb22  1  0.25456748  -0.00138837  0.74579659  1
  Sb  Sb23  1  0.25206414  0.25131364  -0.00428139  1
  Sb  Sb24  1  0.74625465  0.75457677  0.50848246  1
  Sb  Sb25  1  -0.00027053  0.75381801  0.25248799  1
  Sb  Sb26  1  0.00148384  0.49816315  0.50290068  1
  Sb  Sb27  1  0.49944585  0.49983317  -0.00438561  1
  Sb  Sb28  1  0.25025848  0.00030389  0.25415577  1
  Sb  Sb29  1  0.50299619  0.00050208  -0.00578649  1
  Sb  Sb30  1  0.74886191  0.49806543  0.25193079  1
  Sb  Sb31  1  0.74942316  0.00217094  0.25390516  1
  Te  Te32  1  0.25458227  0.25004644  0.24778636  1
  Te  Te33  1  0.24973487  0.24899712  0.74988745  1
  Te  Te34  1  0.24962220  0.74989509  0.25130886  1
  Te  Te35  1  0.25496504  0.75208432  0.74523809  1
  Te  Te36  1  0.74611083  0.24896691  0.24898742  1
  Te  Te37  1  0.75160446  0.25185991  0.74991570  1
  Te  Te38  1  0.75016979  0.74996136  0.23026894  1
  Te  Te39  1  0.74427099  0.74628648  0.75106735  1
  Te  Te40  1  0.24963759  -0.00839439  0.00185563  1
  Te  Te41  1  0.25012219  0.00297233  0.50129616  1
  Te  Te42  1  0.24950972  0.50517814  -0.00903973  1
  Te  Te43  1  0.25144346  0.50077803  0.50295244  1
  Te  Te44  1  0.74936029  0.00278501  -0.00926012  1
  Te  Te45  1  0.74895220  0.00108767  0.50459075  1
  Te  Te46  1  0.75003049  0.49580497  0.00008178  1
  Te  Te47  1  0.74491576  0.49208344  0.49904049  1
  Te  Te48  1  -0.00172739  0.24801926  0.00402325  1
  Te  Te49  1  0.00240688  0.24858431  0.50109780  1
  Te  Te50  1  -0.00075345  0.75038078  0.00078554  1
  Te  Te51  1  -0.00260158  0.74966016  0.49959271  1
  Te  Te52  1  0.50262877  0.24877956  -0.00401143  1
  Te  Te53  1  0.49810225  0.24997685  0.50314413  1
  Te  Te54  1  0.50027338  0.75084940  0.00107368  1
  Te  Te55  1  0.50069545  0.75420432  0.50066890  1
  Te  Te56  1  0.00043955  0.00557740  0.26221891  1
  Te  Te57  1  -0.00826534  -0.00554907  0.74573337  1
  Te  Te58  1  -0.00037984  0.48889654  0.24924123  1
  Te  Te59  1  0.00955013  0.51221018  0.75072079  1
  Te  Te60  1  0.50005578  0.00262379  0.26204950  1
  Te  Te61  1  0.50337181  -0.00010612  0.74742929  1
  Te  Te62  1  0.49997031  0.49617800  0.26002558  1
  Te  Te63  1  0.49803403  0.50232159  0.74849309  1
