# generated using pymatgen
data_AgSbTe2
_symmetry_space_group_name_H-M   'P 1'
_cell_length_a   12.30073820
_cell_length_b   12.30168114
_cell_length_c   12.32959718
_cell_angle_alpha   90.00457694
_cell_angle_beta   90.00962638
_cell_angle_gamma   90.00217358
_symmetry_Int_Tables_number   1
_chemical_formula_structural   AgSbTe2
_chemical_formula_sum   'Ag16 Sb16 Te32'
_cell_volume   1865.71164249
_cell_formula_units_Z   16
loop_
 _symmetry_equiv_pos_site_id
 _symmetry_equiv_pos_as_xyz
  1  'x, y, z'
loop_
 _atom_site_type_symbol
 _atom_site_label
 _atom_site_symmetry_multiplicity
 _atom_site_fract_x
 _atom_site_fract_y
 _atom_site_fract_z
 _atom_site_occupancy
  Ag  Ag0  1  0.74751780  0.00999356  0.25681977  1
  Ag  Ag1  1  0.74332005  0.26527629  0.50812219  1
  Ag  Ag2  1  0.74985836  0.72915696  0.49979140  1
  Ag  Ag3  1  0.25856021  0.25436637  0.49650518  1
  Ag  Ag4  1  0.25698576  0.01318213  0.25185031  1
  Ag  Ag5  1  0.74981553  0.01507135  0.73932794  1
  Ag  Ag6  1  0.24836023  0.25180630  0.00524465  1
  Ag  Ag7  1  -0.01472444  0.25599873  0.74338403  1
  Ag  Ag8  1  0.51392778  0.25422953  0.73642754  1
  Ag  Ag9  1  -0.01661645  0.49152397  0.50347271  1
  Ag  Ag10  1  -0.01022901  0.49375643  -0.00373375  1
  Ag  Ag11  1  0.75306493  0.74278493  0.00058830  1
  Ag  Ag12  1  0.75316105  0.48493955  0.73078003  1
  Ag  Ag13  1  0.51754668  0.49036877  0.50027024  1
  Ag  Ag14  1  0.74914604  0.48848953  0.26888057  1
  Ag  Ag15  1  0.50825941  0.25093501  0.26174611  1
  Sb  Sb16  1  0.50461429  0.74791762  0.25145862  1
  Sb  Sb17  1  0.24823136  0.49524835  0.74852069  1
  Sb  Sb18  1  -0.00378544  0.00598620  -0.00077877  1
  Sb  Sb19  1  0.50530798  0.00796544  0.49923650  1
  Sb  Sb20  1  -0.00582063  0.25165416  0.25461175  1
  Sb  Sb21  1  0.50373202  0.00494659  0.00101516  1
  Sb  Sb22  1  0.50773549  0.49442272  -0.00137844  1
  Sb  Sb23  1  0.75232952  0.25397433  0.00014397  1
  Sb  Sb24  1  0.24613797  0.74778349  0.00394717  1
  Sb  Sb25  1  0.25224765  0.01157158  0.74844557  1
  Sb  Sb26  1  -0.00368578  0.00757021  0.50114126  1
  Sb  Sb27  1  0.25338334  0.49117216  0.25151957  1
  Sb  Sb28  1  0.50669344  0.74366818  0.74711389  1
  Sb  Sb29  1  -0.00563957  0.74375302  0.74857489  1
  Sb  Sb30  1  -0.00346342  0.74843238  0.25095983  1
  Sb  Sb31  1  0.24960744  0.74569831  0.49725024  1
  Te  Te32  1  0.25018448  0.24875421  0.25488422  1
  Te  Te33  1  0.25446064  0.25063969  0.74316181  1
  Te  Te34  1  0.25182757  0.76880623  0.25059839  1
  Te  Te35  1  0.25213966  0.75583806  0.75096325  1
  Te  Te36  1  0.74858366  0.25057356  0.24293047  1
  Te  Te37  1  0.74848278  0.25153146  0.75488233  1
  Te  Te38  1  0.74867302  0.75277543  0.25498326  1
  Te  Te39  1  0.74963712  0.75222457  0.74522283  1
  Te  Te40  1  0.25005697  0.00021276  0.00359394  1
  Te  Te41  1  0.24881606  0.00104078  0.49611810  1
  Te  Te42  1  0.24089051  0.49988854  0.00124518  1
  Te  Te43  1  0.24852727  0.49730852  0.49947259  1
  Te  Te44  1  0.75132733  -0.00796572  0.00624519  1
  Te  Te45  1  0.74903884  0.00254417  0.49811521  1
  Te  Te46  1  0.75295399  0.50216161  0.00071364  1
  Te  Te47  1  0.74972989  0.49889274  0.49915235  1
  Te  Te48  1  0.00580393  0.25385815  -0.00475560  1
  Te  Te49  1  -0.00546193  0.25235827  0.50175416  1
  Te  Te50  1  -0.00351933  0.73923581  0.00009350  1
  Te  Te51  1  -0.00061387  0.73658299  0.50072359  1
  Te  Te52  1  0.48863322  0.25064966  0.00218718  1
  Te  Te53  1  0.50352590  0.25141224  0.49907991  1
  Te  Te54  1  0.50385158  0.75032152  -0.00099630  1
  Te  Te55  1  0.50006829  0.73464187  0.50061264  1
  Te  Te56  1  -0.01158204  -0.00061606  0.24969083  1
  Te  Te57  1  -0.00778544  0.00945799  0.74936458  1
  Te  Te58  1  -0.00518006  0.49980167  0.25202213  1
  Te  Te59  1  0.00000279  0.49610513  0.74720529  1
  Te  Te60  1  0.50832654  0.00717029  0.25062721  1
  Te  Te61  1  0.50724314  0.00870636  0.74915629  1
  Te  Te62  1  0.50358832  0.49545287  0.24861596  1
  Te  Te63  1  0.50218960  0.49599047  0.75107675  1
