# generated using pymatgen
data_AgSbTe2
_symmetry_space_group_name_H-M   'P 1'
_cell_length_a   12.21550868
_cell_length_b   12.21947951
_cell_length_c   12.23114141
_cell_angle_alpha   90.00443383
_cell_angle_beta   90.00337365
_cell_angle_gamma   90.00904092
_symmetry_Int_Tables_number   1
_chemical_formula_structural   AgSbTe2
_chemical_formula_sum   'Ag16 Sb16 Te32'
_cell_volume   1825.70768654
_cell_formula_units_Z   16
loop_
 _symmetry_equiv_pos_site_id
 _symmetry_equiv_pos_as_xyz
  1  'x, y, z'
loop_
 _atom_site_type_symbol
 _atom_site_label
 _atom_site_symmetry_multiplicity
 _atom_site_fract_x
 _atom_site_fract_y
 _atom_site_fract_z
 _atom_site_occupancy
  Ag  Ag0  1  0.75090062  0.00021635  0.75057161  1
  Ag  Ag1  1  0.50383221  0.24514103  0.24743358  1
  Ag  Ag2  1  0.24591531  0.75477240  -0.00047144  1
  Ag  Ag3  1  -0.00722537  0.50453340  0.50331211  1
  Ag  Ag4  1  0.74762782  0.24771677  -0.00301638  1
  Ag  Ag5  1  -0.00231936  -0.00334637  -0.00359694  1
  Ag  Ag6  1  0.75473196  0.75218784  0.50393436  1
  Ag  Ag7  1  0.50484779  0.00101242  0.50103465  1
  Ag  Ag8  1  0.50329053  0.00357262  -0.00063648  1
  Ag  Ag9  1  -0.00623536  -0.00446871  0.50414597  1
  Ag  Ag10  1  0.75460177  0.50032198  0.75056154  1
  Ag  Ag11  1  0.25161329  -0.00008281  0.24653968  1
  Ag  Ag12  1  -0.00501540  0.75165004  0.75025622  1
  Ag  Ag13  1  -0.00567767  0.50253021  -0.00336648  1
  Ag  Ag14  1  0.50737302  0.24479748  0.75299478  1
  Ag  Ag15  1  0.75209382  0.49835399  0.24919661  1
  Sb  Sb16  1  -0.00395972  0.24906728  0.24842183  1
  Sb  Sb17  1  0.24893789  0.49962960  0.24766269  1
  Sb  Sb18  1  0.75330773  0.75118533  -0.00285572  1
  Sb  Sb19  1  0.74881775  0.24865821  0.50349618  1
  Sb  Sb20  1  0.50539363  0.49775451  -0.00096181  1
  Sb  Sb21  1  0.50524315  0.75367626  0.75085797  1
  Sb  Sb22  1  0.50720745  0.50054584  0.50087401  1
  Sb  Sb23  1  -0.00136999  0.75074841  0.24954574  1
  Sb  Sb24  1  0.25179520  0.24704311  0.00138446  1
  Sb  Sb25  1  0.24870166  -0.00123637  0.75255717  1
  Sb  Sb26  1  0.25086571  0.24813427  0.49914311  1
  Sb  Sb27  1  -0.00532812  0.24927971  0.75201320  1
  Sb  Sb28  1  0.74900895  0.00164400  0.24992008  1
  Sb  Sb29  1  0.24549969  0.50160003  0.75200671  1
  Sb  Sb30  1  0.24625293  0.75323570  0.50087720  1
  Sb  Sb31  1  0.50181912  0.75412380  0.24916070  1
  Te  Te32  1  0.25879083  0.24456645  0.24989566  1
  Te  Te33  1  0.26326932  0.25130476  0.74989593  1
  Te  Te34  1  0.25112008  0.75534483  0.24402406  1
  Te  Te35  1  0.24143868  0.74865518  0.75539346  1
  Te  Te36  1  0.74573726  0.25415726  0.24365520  1
  Te  Te37  1  0.74657577  0.24768177  0.75403675  1
  Te  Te38  1  0.74880035  0.74169856  0.25738158  1
  Te  Te39  1  0.75464234  0.75125207  0.74675461  1
  Te  Te40  1  0.24711727  -0.00191498  0.00277519  1
  Te  Te41  1  0.24906751  -0.00114892  0.49484076  1
  Te  Te42  1  0.24153037  0.50513362  0.00108284  1
  Te  Te43  1  0.23952844  0.50077631  0.49895232  1
  Te  Te44  1  0.75122046  0.00054079  -0.00068014  1
  Te  Te45  1  0.75230205  -0.00138644  0.50021797  1
  Te  Te46  1  0.75304985  0.50053065  -0.00219928  1
  Te  Te47  1  0.75344811  0.50095327  0.50256188  1
  Te  Te48  1  -0.00411600  0.24871331  0.00001150  1
  Te  Te49  1  0.00054725  0.24729557  0.49991651  1
  Te  Te50  1  -0.00009146  0.75305144  -0.00261493  1
  Te  Te51  1  -0.00291039  0.75298692  0.50294366  1
  Te  Te52  1  0.50259657  0.24696671  -0.00027245  1
  Te  Te53  1  0.49971097  0.24410210  0.49955728  1
  Te  Te54  1  0.49495113  0.75590945  -0.00101135  1
  Te  Te55  1  0.50366114  0.75610019  0.50065893  1
  Te  Te56  1  0.00252067  0.00159087  0.24926331  1
  Te  Te57  1  -0.00219021  -0.00022910  0.75028940  1
  Te  Te58  1  -0.00367361  0.49892522  0.24965830  1
  Te  Te59  1  -0.00426106  0.49924207  0.75070364  1
  Te  Te60  1  0.49973114  0.00313299  0.24892489  1
  Te  Te61  1  0.50252362  0.00099607  0.75044074  1
  Te  Te62  1  0.50408217  0.49315680  0.25112629  1
  Te  Te63  1  0.50673136  0.49591592  0.74881856  1
