# generated using pymatgen
data_AgSbTe2
_symmetry_space_group_name_H-M   'P 1'
_cell_length_a   12.23098641
_cell_length_b   12.24016412
_cell_length_c   12.23091690
_cell_angle_alpha   90.00124313
_cell_angle_beta   90.00756204
_cell_angle_gamma   90.00162436
_symmetry_Int_Tables_number   1
_chemical_formula_structural   AgSbTe2
_chemical_formula_sum   'Ag16 Sb16 Te32'
_cell_volume   1831.08175731
_cell_formula_units_Z   16
loop_
 _symmetry_equiv_pos_site_id
 _symmetry_equiv_pos_as_xyz
  1  'x, y, z'
loop_
 _atom_site_type_symbol
 _atom_site_label
 _atom_site_symmetry_multiplicity
 _atom_site_fract_x
 _atom_site_fract_y
 _atom_site_fract_z
 _atom_site_occupancy
  Ag  Ag0  1  0.50378206  0.74344312  0.23516408  1
  Ag  Ag1  1  0.74725267  -0.00690589  0.24505117  1
  Ag  Ag2  1  0.49952751  0.50260957  0.49745228  1
  Ag  Ag3  1  -0.00383878  0.75007780  0.24693257  1
  Ag  Ag4  1  0.25780644  0.50113690  0.76000585  1
  Ag  Ag5  1  0.73443725  0.74752701  0.00695478  1
  Ag  Ag6  1  0.49558595  0.51239698  0.00171500  1
  Ag  Ag7  1  0.49840536  0.25776617  0.75806736  1
  Ag  Ag8  1  0.25973321  0.50457297  0.24086723  1
  Ag  Ag9  1  0.49864094  0.74281149  0.76590243  1
  Ag  Ag10  1  0.73886339  0.25246708  0.00221384  1
  Ag  Ag11  1  0.26128711  0.25912423  -0.00048238  1
  Ag  Ag12  1  0.50257055  -0.01311168  0.00252915  1
  Ag  Ag13  1  0.26570005  0.74149170  0.00302189  1
  Ag  Ag14  1  0.74068618  0.50723984  0.24344438  1
  Ag  Ag15  1  -0.00173393  -0.00277035  0.49544326  1
  Sb  Sb16  1  0.73796132  0.50128993  0.76063793  1
  Sb  Sb17  1  0.74558413  0.25185475  0.49705800  1
  Sb  Sb18  1  -0.00032325  0.24890685  0.24831168  1
  Sb  Sb19  1  0.00146204  0.74847634  0.75378151  1
  Sb  Sb20  1  0.00238635  0.25113101  0.75303592  1
  Sb  Sb21  1  0.25433642  0.25385176  0.49939057  1
  Sb  Sb22  1  0.25310164  -0.00194780  0.75417274  1
  Sb  Sb23  1  0.74684369  -0.00096554  0.75647613  1
  Sb  Sb24  1  -0.00397032  -0.00325764  0.00468231  1
  Sb  Sb25  1  0.50213512  -0.00165450  0.49579503  1
  Sb  Sb26  1  -0.00063472  0.50269738  0.49521352  1
  Sb  Sb27  1  0.74762603  0.74940185  0.48973083  1
  Sb  Sb28  1  0.25359767  -0.00534858  0.24539273  1
  Sb  Sb29  1  0.25251945  0.74762915  0.49583728  1
  Sb  Sb30  1  0.50027995  0.26056831  0.23719547  1
  Sb  Sb31  1  0.00475373  0.50202750  0.00275346  1
  Te  Te32  1  0.24899804  0.25793743  0.24336334  1
  Te  Te33  1  0.25320475  0.25417294  0.75592595  1
  Te  Te34  1  0.25212755  0.74677980  0.24629429  1
  Te  Te35  1  0.25266766  0.74664312  0.75665655  1
  Te  Te36  1  0.75059337  0.25044444  0.24371804  1
  Te  Te37  1  0.74574501  0.25037505  0.75867521  1
  Te  Te38  1  0.74783623  0.74842064  0.24719090  1
  Te  Te39  1  0.74619048  0.74915983  0.76076115  1
  Te  Te40  1  0.25568831  0.00026715  0.00103988  1
  Te  Te41  1  0.24463645  0.00148586  0.49882282  1
  Te  Te42  1  0.24924285  0.50087668  0.00177906  1
  Te  Te43  1  0.25600770  0.49862781  0.49755622  1
  Te  Te44  1  0.74626605  -0.00014996  0.00448647  1
  Te  Te45  1  0.75280158  0.00111768  0.49044741  1
  Te  Te46  1  0.74907811  0.50028551  0.00346498  1
  Te  Te47  1  0.74426698  0.49841261  0.48965173  1
  Te  Te48  1  -0.00033224  0.24831875  -0.00103808  1
  Te  Te49  1  -0.00083646  0.24241117  0.50098286  1
  Te  Te50  1  -0.00014495  0.75144534  0.00500191  1
  Te  Te51  1  0.00023162  0.75444087  0.49428372  1
  Te  Te52  1  0.49964791  0.25106033  -0.00079975  1
  Te  Te53  1  0.49999503  0.25409757  0.51386786  1
  Te  Te54  1  0.49958792  0.74916612  0.00020995  1
  Te  Te55  1  0.49987537  0.74525172  0.50184172  1
  Te  Te56  1  -0.00415034  -0.00477066  0.25242782  1
  Te  Te57  1  -0.00068920  -0.00080695  0.74018753  1
  Te  Te58  1  -0.00040509  0.50651621  0.25237228  1
  Te  Te59  1  0.01386064  0.50064763  0.74541265  1
  Te  Te60  1  0.50359148  -0.00795752  0.24869510  1
  Te  Te61  1  0.50002969  -0.00212860  0.75276215  1
  Te  Te62  1  0.49975431  0.50090142  0.24693071  1
  Te  Te63  1  0.49826800  0.50201231  0.75327955  1
