# generated using pymatgen
data_AgSbTe2
_symmetry_space_group_name_H-M   'P 1'
_cell_length_a   12.21876434
_cell_length_b   12.21880740
_cell_length_c   12.22130902
_cell_angle_alpha   89.99909157
_cell_angle_beta   89.99641255
_cell_angle_gamma   89.99725858
_symmetry_Int_Tables_number   1
_chemical_formula_structural   AgSbTe2
_chemical_formula_sum   'Ag16 Sb16 Te32'
_cell_volume   1824.62588760
_cell_formula_units_Z   16
loop_
 _symmetry_equiv_pos_site_id
 _symmetry_equiv_pos_as_xyz
  1  'x, y, z'
loop_
 _atom_site_type_symbol
 _atom_site_label
 _atom_site_symmetry_multiplicity
 _atom_site_fract_x
 _atom_site_fract_y
 _atom_site_fract_z
 _atom_site_occupancy
  Ag  Ag0  1  0.24479240  0.74827985  -0.00120086  1
  Ag  Ag1  1  0.25160557  0.24879495  0.50002691  1
  Ag  Ag2  1  0.50183952  0.74871851  0.75197016  1
  Ag  Ag3  1  0.75033927  0.74953956  0.50028062  1
  Ag  Ag4  1  0.75229589  0.49741034  0.24527510  1
  Ag  Ag5  1  0.50270593  0.25264582  0.24774610  1
  Ag  Ag6  1  -0.00266151  0.49923542  0.00222535  1
  Ag  Ag7  1  -0.00138193  0.25137662  0.75824272  1
  Ag  Ag8  1  -0.00101445  0.74863602  0.75817989  1
  Ag  Ag9  1  0.50296959  0.49685735  0.00017975  1
  Ag  Ag10  1  -0.00071167  0.00039892  -0.00006793  1
  Ag  Ag11  1  0.50059799  0.25103775  0.75172684  1
  Ag  Ag12  1  0.50091746  0.00280005  0.50124203  1
  Ag  Ag13  1  -0.00366762  0.25351288  0.24188122  1
  Ag  Ag14  1  -0.00235051  0.74707974  0.24228658  1
  Ag  Ag15  1  0.75389058  0.25421854  0.00254894  1
  Sb  Sb16  1  -0.00250618  0.49975121  0.49715573  1
  Sb  Sb17  1  0.24906742  0.50010528  0.75208380  1
  Sb  Sb18  1  0.75064548  0.49938996  0.75499545  1
  Sb  Sb19  1  0.24933741  0.00125486  0.24908572  1
  Sb  Sb20  1  0.50252895  0.74707818  0.24749968  1
  Sb  Sb21  1  0.74863649  0.25026668  0.49845842  1
  Sb  Sb22  1  0.50074640  0.00239526  -0.00062261  1
  Sb  Sb23  1  0.75510316  0.74568883  0.00047172  1
  Sb  Sb24  1  0.24976579  0.00057049  0.75126562  1
  Sb  Sb25  1  0.24611948  0.25113887  -0.00033930  1
  Sb  Sb26  1  0.25060760  0.75171252  0.50056242  1
  Sb  Sb27  1  -0.00078987  0.00091990  0.50039725  1
  Sb  Sb28  1  0.75097205  0.00238423  0.24866134  1
  Sb  Sb29  1  0.75008991  -0.00024090  0.75127059  1
  Sb  Sb30  1  0.50261173  0.49794313  0.50005615  1
  Sb  Sb31  1  0.24683057  0.49915521  0.24740813  1
  Te  Te32  1  0.24963305  0.25041606  0.25329495  1
  Te  Te33  1  0.25064882  0.25033086  0.74652447  1
  Te  Te34  1  0.24344501  0.74973579  0.24778532  1
  Te  Te35  1  0.24869926  0.74969267  0.75221266  1
  Te  Te36  1  0.75188528  0.25320633  0.24887543  1
  Te  Te37  1  0.75062050  0.25056869  0.75194916  1
  Te  Te38  1  0.75387664  0.74550040  0.25182337  1
  Te  Te39  1  0.75009610  0.74919330  0.74647422  1
  Te  Te40  1  0.24301052  -0.00905918  0.00048915  1
  Te  Te41  1  0.25706478  0.00542900  0.49904425  1
  Te  Te42  1  0.25029948  0.50637432  0.00061364  1
  Te  Te43  1  0.25010786  0.49166843  0.49895157  1
  Te  Te44  1  0.75641317  0.01011455  0.00051749  1
  Te  Te45  1  0.74388231  -0.00705194  0.49917969  1
  Te  Te46  1  0.75025780  0.49535519  0.00442823  1
  Te  Te47  1  0.75001903  0.50656646  0.49023269  1
  Te  Te48  1  0.00338093  0.25237887  -0.00041943  1
  Te  Te49  1  0.00099719  0.24813327  0.50113961  1
  Te  Te50  1  -0.00258877  0.74790520  -0.00166536  1
  Te  Te51  1  -0.00086772  0.75150854  0.50208334  1
  Te  Te52  1  0.49748272  0.24939917  -0.00128254  1
  Te  Te53  1  0.50084521  0.24875198  0.50211832  1
  Te  Te54  1  0.49976947  0.75041360  -0.00302566  1
  Te  Te55  1  0.49950176  0.75164333  0.50357913  1
  Te  Te56  1  -0.00022309  0.00108652  0.24637457  1
  Te  Te57  1  -0.00022288  0.00044747  0.75375078  1
  Te  Te58  1  -0.00288826  0.49806937  0.24717481  1
  Te  Te59  1  -0.00080861  0.49953974  0.75589297  1
  Te  Te60  1  0.50012396  0.00630458  0.25302489  1
  Te  Te61  1  0.50021516  0.00126059  0.74725102  1
  Te  Te62  1  0.50458674  0.49599558  0.24459182  1
  Te  Te63  1  0.50080368  0.49906521  0.75606187  1
