# generated using pymatgen
data_AgSbTe2
_symmetry_space_group_name_H-M   'P 1'
_cell_length_a   12.21718900
_cell_length_b   12.22939942
_cell_length_c   12.21326911
_cell_angle_alpha   89.99637545
_cell_angle_beta   90.00740751
_cell_angle_gamma   89.99988080
_symmetry_Int_Tables_number   1
_chemical_formula_structural   AgSbTe2
_chemical_formula_sum   'Ag16 Sb16 Te32'
_cell_volume   1824.77089059
_cell_formula_units_Z   16
loop_
 _symmetry_equiv_pos_site_id
 _symmetry_equiv_pos_as_xyz
  1  'x, y, z'
loop_
 _atom_site_type_symbol
 _atom_site_label
 _atom_site_symmetry_multiplicity
 _atom_site_fract_x
 _atom_site_fract_y
 _atom_site_fract_z
 _atom_site_occupancy
  Ag  Ag0  1  0.50001147  0.25637928  0.24973515  1
  Ag  Ag1  1  0.25215910  0.49771317  0.25040104  1
  Ag  Ag2  1  -0.00237316  0.49504727  0.49909658  1
  Ag  Ag3  1  0.00060645  0.00506140  0.50680215  1
  Ag  Ag4  1  0.24227173  0.00202482  0.74970424  1
  Ag  Ag5  1  0.49862617  0.00086089  0.00180848  1
  Ag  Ag6  1  0.00148081  0.24646836  0.74420538  1
  Ag  Ag7  1  0.24267032  0.25106719  0.49934257  1
  Ag  Ag8  1  0.00234707  0.00185028  -0.00670628  1
  Ag  Ag9  1  0.75497487  0.74691961  0.49764989  1
  Ag  Ag10  1  0.50157419  0.74346067  0.24884318  1
  Ag  Ag11  1  0.75783093  0.25287844  0.49759095  1
  Ag  Ag12  1  0.49984870  0.49918343  0.00890289  1
  Ag  Ag13  1  0.74787096  0.49926118  0.25290748  1
  Ag  Ag14  1  0.00003502  0.75304564  0.74707075  1
  Ag  Ag15  1  0.00016717  0.49824853  0.00134425  1
  Sb  Sb16  1  0.24579146  0.49788521  0.74852224  1
  Sb  Sb17  1  -0.00151386  0.74633475  0.25213485  1
  Sb  Sb18  1  0.74932740  0.00103873  0.25205994  1
  Sb  Sb19  1  0.24573888  0.74806218  0.49908956  1
  Sb  Sb20  1  0.24890635  0.74947566  0.00087180  1
  Sb  Sb21  1  0.50044001  0.75115374  0.75043817  1
  Sb  Sb22  1  0.25010800  0.00243763  0.25069740  1
  Sb  Sb23  1  0.50232961  0.49900805  0.49152200  1
  Sb  Sb24  1  0.75184931  0.25211276  0.00332119  1
  Sb  Sb25  1  0.49876277  0.00076632  0.49995843  1
  Sb  Sb26  1  0.24833873  0.25056737  0.00167477  1
  Sb  Sb27  1  -0.00011097  0.25344250  0.25669653  1
  Sb  Sb28  1  0.75293658  0.49927565  0.74605265  1
  Sb  Sb29  1  0.75138271  0.74800643  0.00254662  1
  Sb  Sb30  1  0.75771770  0.00043047  0.74882057  1
  Sb  Sb31  1  0.49925770  0.24892397  0.74997867  1
  Te  Te32  1  0.25503410  0.25430229  0.25512951  1
  Te  Te33  1  0.24662819  0.24678669  0.74363431  1
  Te  Te34  1  0.25774397  0.74254325  0.25113780  1
  Te  Te35  1  0.24389236  0.75619546  0.74858876  1
  Te  Te36  1  0.74500984  0.25456432  0.25495583  1
  Te  Te37  1  0.75475061  0.25042224  0.74076541  1
  Te  Te38  1  0.74606516  0.74544258  0.25493512  1
  Te  Te39  1  0.75555762  0.74989589  0.74134901  1
  Te  Te40  1  0.24623441  0.00045369  -0.00222439  1
  Te  Te41  1  0.24577240  0.00366289  0.50173990  1
  Te  Te42  1  0.24672532  0.49963615  0.00499151  1
  Te  Te43  1  0.24590084  0.49656792  0.49708597  1
  Te  Te44  1  0.75121216  0.00007770  0.00047816  1
  Te  Te45  1  0.75493749  0.00169124  0.49913864  1
  Te  Te46  1  0.75280541  0.49970893  0.00638919  1
  Te  Te47  1  0.75242863  0.49858478  0.49623312  1
  Te  Te48  1  -0.00070904  0.25016153  -0.00526988  1
  Te  Te49  1  -0.00016423  0.25062996  0.49975469  1
  Te  Te50  1  -0.00135944  0.74964790  -0.00415203  1
  Te  Te51  1  -0.00316710  0.74953057  0.50162716  1
  Te  Te52  1  0.50062310  0.25000065  0.00229603  1
  Te  Te53  1  0.50027283  0.24929075  0.49811712  1
  Te  Te54  1  0.50099498  0.75003878  0.00271097  1
  Te  Te55  1  0.50678950  0.75101572  0.49726211  1
  Te  Te56  1  0.00077373  -0.00086024  0.24613592  1
  Te  Te57  1  0.00213076  0.00156782  0.75089213  1
  Te  Te58  1  0.00004833  0.50039084  0.24808343  1
  Te  Te59  1  0.00095923  0.49934380  0.75156999  1
  Te  Te60  1  0.49953313  0.00060724  0.24442310  1
  Te  Te61  1  0.49217324  -0.00060954  0.75733133  1
  Te  Te62  1  0.49995909  0.49902484  0.24836791  1
  Te  Te63  1  0.49907922  0.50129179  0.76343807  1
