# generated using pymatgen
data_AgSbTe2
_symmetry_space_group_name_H-M   'P 1'
_cell_length_a   12.24036333
_cell_length_b   12.24380035
_cell_length_c   12.23219934
_cell_angle_alpha   90.00391026
_cell_angle_beta   89.99892652
_cell_angle_gamma   90.00095695
_symmetry_Int_Tables_number   1
_chemical_formula_structural   AgSbTe2
_chemical_formula_sum   'Ag16 Sb16 Te32'
_cell_volume   1833.22215450
_cell_formula_units_Z   16
loop_
 _symmetry_equiv_pos_site_id
 _symmetry_equiv_pos_as_xyz
  1  'x, y, z'
loop_
 _atom_site_type_symbol
 _atom_site_label
 _atom_site_symmetry_multiplicity
 _atom_site_fract_x
 _atom_site_fract_y
 _atom_site_fract_z
 _atom_site_occupancy
  Ag  Ag0  1  0.24366153  0.74687567  0.50731903  1
  Ag  Ag1  1  0.49785123  0.74915325  0.74529007  1
  Ag  Ag2  1  0.00368040  0.25076874  0.25988446  1
  Ag  Ag3  1  0.24652409  0.50050943  0.25739879  1
  Ag  Ag4  1  0.00266137  0.76317865  0.74278984  1
  Ag  Ag5  1  0.76516281  -0.00595980  0.74697774  1
  Ag  Ag6  1  0.24256326  0.25447472  0.50311380  1
  Ag  Ag7  1  0.24584719  0.75095349  -0.01055777  1
  Ag  Ag8  1  0.75545073  0.50742268  0.74410622  1
  Ag  Ag9  1  0.00333713  -0.00189201  0.51320308  1
  Ag  Ag10  1  0.00481520  0.50158611  0.50540714  1
  Ag  Ag11  1  0.00231766  -0.00221430  -0.01537521  1
  Ag  Ag12  1  0.49440726  0.50435397  0.50346223  1
  Ag  Ag13  1  0.23627198  -0.00639939  0.74615410  1
  Ag  Ag14  1  0.00277040  0.23629544  0.74286224  1
  Ag  Ag15  1  0.75762888  0.74808432  0.50726255  1
  Sb  Sb16  1  0.49626983  0.50468236  -0.00623129  1
  Sb  Sb17  1  0.00223872  0.50309099  -0.00604511  1
  Sb  Sb18  1  0.75955244  0.25140512  0.50309793  1
  Sb  Sb19  1  0.49746018  -0.00438728  0.50426247  1
  Sb  Sb20  1  0.49589660  0.74724750  0.25605505  1
  Sb  Sb21  1  0.24539768  -0.00014508  0.25440219  1
  Sb  Sb22  1  0.49643498  0.25201718  0.74558156  1
  Sb  Sb23  1  0.49458650  0.25381006  0.25642710  1
  Sb  Sb24  1  0.24537970  0.24936604  -0.00374757  1
  Sb  Sb25  1  0.49668166  -0.00412944  -0.00638401  1
  Sb  Sb26  1  0.24411791  0.50806861  0.74140274  1
  Sb  Sb27  1  0.75713422  -0.00102538  0.25493674  1
  Sb  Sb28  1  0.75408352  0.50033045  0.25788753  1
  Sb  Sb29  1  0.75488773  0.24867919  -0.00376881  1
  Sb  Sb30  1  0.75510039  0.75208025  -0.01092052  1
  Sb  Sb31  1  0.00214370  0.74809894  0.25842499  1
  Te  Te32  1  0.24510524  0.25224149  0.25396961  1
  Te  Te33  1  0.24668791  0.24448915  0.74674495  1
  Te  Te34  1  0.25022103  0.74732874  0.25320333  1
  Te  Te35  1  0.24704165  0.74913747  0.74717300  1
  Te  Te36  1  0.75783938  0.25016703  0.24898169  1
  Te  Te37  1  0.75362406  0.24743511  0.74924711  1
  Te  Te38  1  0.74855777  0.74945772  0.25870038  1
  Te  Te39  1  0.75253436  0.75094248  0.74764486  1
  Te  Te40  1  0.24615201  -0.00361810  -0.00307337  1
  Te  Te41  1  0.24781417  -0.00249031  0.50188163  1
  Te  Te42  1  0.25013916  0.50401175  0.01030831  1
  Te  Te43  1  0.24583891  0.50173961  0.50070032  1
  Te  Te44  1  0.75575293  -0.00109765  -0.00578504  1
  Te  Te45  1  0.75213034  -0.00310295  0.50426753  1
  Te  Te46  1  0.74879679  0.50063584  -0.00680562  1
  Te  Te47  1  0.75368526  0.50182716  0.50357247  1
  Te  Te48  1  0.00111052  0.24532781  -0.00409965  1
  Te  Te49  1  0.00203856  0.25027000  0.50311828  1
  Te  Te50  1  0.00428087  0.75326955  -0.00365737  1
  Te  Te51  1  0.00204638  0.74952760  0.50098094  1
  Te  Te52  1  0.50002518  0.25056713  0.00182115  1
  Te  Te53  1  0.48988138  0.25737090  0.49992943  1
  Te  Te54  1  0.49223396  0.74964093  -0.00750235  1
  Te  Te55  1  0.49702195  0.74691917  0.50436816  1
  Te  Te56  1  -0.00061257  0.00583127  0.25166413  1
  Te  Te57  1  0.00125776  -0.00176133  0.74713836  1
  Te  Te58  1  0.00244769  0.49679932  0.25341091  1
  Te  Te59  1  -0.00186683  0.50118090  0.74741132  1
  Te  Te60  1  0.50295847  0.00098395  0.24806943  1
  Te  Te61  1  0.50046052  -0.00433384  0.74961500  1
  Te  Te62  1  0.49635922  0.49974984  0.25728699  1
  Te  Te63  1  0.50611908  0.50317179  0.74503483  1
