# generated using pymatgen
data_AgSbTe2
_symmetry_space_group_name_H-M   'P 1'
_cell_length_a   12.29538426
_cell_length_b   12.28812484
_cell_length_c   12.28988883
_cell_angle_alpha   90.00329873
_cell_angle_beta   89.99570798
_cell_angle_gamma   89.99630014
_symmetry_Int_Tables_number   1
_chemical_formula_structural   AgSbTe2
_chemical_formula_sum   'Ag16 Sb16 Te32'
_cell_volume   1856.84508583
_cell_formula_units_Z   16
loop_
 _symmetry_equiv_pos_site_id
 _symmetry_equiv_pos_as_xyz
  1  'x, y, z'
loop_
 _atom_site_type_symbol
 _atom_site_label
 _atom_site_symmetry_multiplicity
 _atom_site_fract_x
 _atom_site_fract_y
 _atom_site_fract_z
 _atom_site_occupancy
  Ag  Ag0  1  0.25453592  0.50004833  0.25254230  1
  Ag  Ag1  1  0.00977132  -0.00867473  0.49852506  1
  Ag  Ag2  1  0.00387278  0.74438570  0.74664521  1
  Ag  Ag3  1  0.75201403  0.74809886  0.50231642  1
  Ag  Ag4  1  0.48675502  0.50869513  0.00603036  1
  Ag  Ag5  1  0.01417215  0.50686051  0.50228977  1
  Ag  Ag6  1  0.48494831  0.50026063  0.49316199  1
  Ag  Ag7  1  0.24703972  0.50389772  0.74915602  1
  Ag  Ag8  1  0.49219781  -0.00797978  0.00948129  1
  Ag  Ag9  1  0.49171451  0.25122856  0.25428654  1
  Ag  Ag10  1  0.25285929  0.73766442  0.00038099  1
  Ag  Ag11  1  0.49018910  -0.00153345  0.49099161  1
  Ag  Ag12  1  0.25440879  0.25740818  0.49361699  1
  Ag  Ag13  1  0.25668455  0.00039289  0.25709192  1
  Ag  Ag14  1  0.74702004  0.74718281  -0.00114200  1
  Ag  Ag15  1  0.01576014  0.50971003  -0.00114849  1
  Sb  Sb16  1  0.75336843  0.50370517  0.75001559  1
  Sb  Sb17  1  0.49553059  0.74798968  0.75083623  1
  Sb  Sb18  1  0.00801800  -0.01204994  0.00386823  1
  Sb  Sb19  1  0.75020207  -0.00514000  0.74961680  1
  Sb  Sb20  1  0.25017325  0.74731144  0.50032458  1
  Sb  Sb21  1  0.00717123  0.25501266  0.74910289  1
  Sb  Sb22  1  0.49448599  0.25243644  0.74778015  1
  Sb  Sb23  1  0.74850323  0.25148328  0.49842088  1
  Sb  Sb24  1  0.00750531  0.25249218  0.25153304  1
  Sb  Sb25  1  0.25179690  0.25618940  0.00552242  1
  Sb  Sb26  1  0.74625945  0.25348468  0.00201640  1
  Sb  Sb27  1  0.24897427  -0.00452734  0.74704178  1
  Sb  Sb28  1  0.74406108  0.50108719  0.25042723  1
  Sb  Sb29  1  0.49583315  0.74878382  0.25020493  1
  Sb  Sb30  1  0.74235497  -0.00173865  0.25045020  1
  Sb  Sb31  1  0.00231395  0.74748265  0.25302876  1
  Te  Te32  1  0.25478207  0.25100996  0.25502727  1
  Te  Te33  1  0.24949107  0.26166270  0.73522475  1
  Te  Te34  1  0.24931536  0.74894130  0.23971576  1
  Te  Te35  1  0.24547756  0.74446096  0.75881479  1
  Te  Te36  1  0.73356448  0.24979016  0.24886638  1
  Te  Te37  1  0.75147991  0.24945530  0.75079512  1
  Te  Te38  1  0.75287266  0.74947871  0.24833022  1
  Te  Te39  1  0.76023078  0.74824474  0.74941677  1
  Te  Te40  1  0.25231372  0.00245801  -0.00119390  1
  Te  Te41  1  0.25324042  -0.00720958  0.49961342  1
  Te  Te42  1  0.25208292  0.49825026  0.00415909  1
  Te  Te43  1  0.25186018  0.50609930  0.49426307  1
  Te  Te44  1  0.74409480  -0.00764110  0.00106031  1
  Te  Te45  1  0.74798726  -0.00471979  0.49928672  1
  Te  Te46  1  0.74567700  0.50522386  0.00094224  1
  Te  Te47  1  0.74987997  0.50471170  0.49895812  1
  Te  Te48  1  -0.00304372  0.26249907  0.00005482  1
  Te  Te49  1  0.00123500  0.25386005  0.49959595  1
  Te  Te50  1  -0.00071444  0.74710441  -0.00024343  1
  Te  Te51  1  0.00035096  0.74663044  0.50067343  1
  Te  Te52  1  0.50014509  0.24949557  0.00267052  1
  Te  Te53  1  0.49795947  0.25234633  0.49853296  1
  Te  Te54  1  0.50020511  0.74776207  -0.00174287  1
  Te  Te55  1  0.50324673  0.74919793  0.50239359  1
  Te  Te56  1  0.01135054  0.00329821  0.25613207  1
  Te  Te57  1  0.00042954  -0.00512987  0.74256379  1
  Te  Te58  1  0.00831121  0.49784304  0.25216707  1
  Te  Te59  1  0.00290513  0.50264025  0.74704853  1
  Te  Te60  1  0.49477408  -0.00208507  0.25225046  1
  Te  Te61  1  0.49930950  0.00018629  0.74875701  1
  Te  Te62  1  0.49576611  0.50182708  0.25188020  1
  Te  Te63  1  0.49292417  0.50065924  0.74956970  1
