# generated using pymatgen
data_AgSbTe2
_symmetry_space_group_name_H-M   'P 1'
_cell_length_a   12.33549094
_cell_length_b   12.32236185
_cell_length_c   12.34230291
_cell_angle_alpha   89.98762749
_cell_angle_beta   90.00209565
_cell_angle_gamma   90.01938700
_symmetry_Int_Tables_number   1
_chemical_formula_structural   AgSbTe2
_chemical_formula_sum   'Ag16 Sb16 Te32'
_cell_volume   1876.05930131
_cell_formula_units_Z   16
loop_
 _symmetry_equiv_pos_site_id
 _symmetry_equiv_pos_as_xyz
  1  'x, y, z'
loop_
 _atom_site_type_symbol
 _atom_site_label
 _atom_site_symmetry_multiplicity
 _atom_site_fract_x
 _atom_site_fract_y
 _atom_site_fract_z
 _atom_site_occupancy
  Ag  Ag0  1  0.24385211  0.25974210  0.01411234  1
  Ag  Ag1  1  0.75673139  0.50094914  0.75615926  1
  Ag  Ag2  1  0.01036665  0.49435660  0.01379447  1
  Ag  Ag3  1  0.76934076  0.49526140  0.24535151  1
  Ag  Ag4  1  0.23669998  0.01667320  0.24774395  1
  Ag  Ag5  1  0.48057544  0.26464108  0.24690748  1
  Ag  Ag6  1  0.49546092  0.73821087  0.75403898  1
  Ag  Ag7  1  0.00805845  0.00923643  0.01734013  1
  Ag  Ag8  1  0.24493314  0.49582397  0.76093463  1
  Ag  Ag9  1  0.00650209  0.01046871  0.48195516  1
  Ag  Ag10  1  0.23250923  0.48145760  0.24007360  1
  Ag  Ag11  1  0.48627741  0.49530884  0.00609705  1
  Ag  Ag12  1  0.24315800  0.25686800  0.48350257  1
  Ag  Ag13  1  0.01549583  0.26863851  0.24884165  1
  Ag  Ag14  1  0.00638766  0.49372034  0.48266913  1
  Ag  Ag15  1  0.00668070  0.73014726  0.24915392  1
  Sb  Sb16  1  0.00063137  0.74420106  0.75099447  1
  Sb  Sb17  1  0.49720354  0.74317700  0.24996533  1
  Sb  Sb18  1  0.49488869  0.25372360  0.75389687  1
  Sb  Sb19  1  0.76031173  0.00408145  0.25035563  1
  Sb  Sb20  1  0.24649973  0.74457109  0.49766089  1
  Sb  Sb21  1  0.75658629  0.25492015  0.49626951  1
  Sb  Sb22  1  0.24746412  0.00343264  0.75058576  1
  Sb  Sb23  1  0.75243475  0.74574497  0.00122275  1
  Sb  Sb24  1  0.49026758  0.00393055  0.00434978  1
  Sb  Sb25  1  0.49073944  0.00480809  0.49602223  1
  Sb  Sb26  1  0.24913470  0.74255224  0.00137301  1
  Sb  Sb27  1  0.75456694  0.74545014  0.49851684  1
  Sb  Sb28  1  0.75583572  0.25473617  0.00218476  1
  Sb  Sb29  1  0.75385501  -0.00146383  0.74969556  1
  Sb  Sb30  1  0.00154285  0.25397678  0.74984254  1
  Sb  Sb31  1  0.49569276  0.49614541  0.49920494  1
  Te  Te32  1  0.24887533  0.24683573  0.24962839  1
  Te  Te33  1  0.25051870  0.25408414  0.75105439  1
  Te  Te34  1  0.24659734  0.75267303  0.24933392  1
  Te  Te35  1  0.25278123  0.74327171  0.75088122  1
  Te  Te36  1  0.75071535  0.25220323  0.24986633  1
  Te  Te37  1  0.74623419  0.25740195  0.74896187  1
  Te  Te38  1  0.75148418  0.74442390  0.25022763  1
  Te  Te39  1  0.74709416  0.74374378  0.75023736  1
  Te  Te40  1  0.24553466  0.00675565  -0.00175038  1
  Te  Te41  1  0.24512510  0.00428750  0.50361539  1
  Te  Te42  1  0.25034488  0.50020459  0.00129488  1
  Te  Te43  1  0.24773658  0.49957908  0.49664653  1
  Te  Te44  1  0.76244022  -0.00023798  -0.00222284  1
  Te  Te45  1  0.76292636  -0.00026174  0.50196960  1
  Te  Te46  1  0.75370390  0.49945107  0.00028258  1
  Te  Te47  1  0.75789116  0.49952483  0.49843072  1
  Te  Te48  1  0.00275008  0.25458597  -0.00210430  1
  Te  Te49  1  0.00299799  0.25320041  0.50377907  1
  Te  Te50  1  0.00084928  0.74679616  0.00432678  1
  Te  Te51  1  0.00039121  0.74669331  0.49560337  1
  Te  Te52  1  0.49542568  0.25385150  0.00361907  1
  Te  Te53  1  0.49246161  0.24717553  0.49354025  1
  Te  Te54  1  0.50076647  0.74481680  -0.00436438  1
  Te  Te55  1  0.50089968  0.75295676  0.50573790  1
  Te  Te56  1  -0.00030615  0.00608648  0.24888058  1
  Te  Te57  1  -0.00252938  -0.00299604  0.75130997  1
  Te  Te58  1  -0.00100771  0.50075494  0.24975888  1
  Te  Te59  1  0.00245824  0.49952495  0.75536342  1
  Te  Te60  1  0.49953286  -0.00329845  0.24917465  1
  Te  Te61  1  0.50417219  -0.00747629  0.75037176  1
  Te  Te62  1  0.49397715  0.49830304  0.24834473  1
  Te  Te63  1  0.49647250  0.49959289  0.74738393  1
