# generated using pymatgen
data_AgSbTe2
_symmetry_space_group_name_H-M   'P 1'
_cell_length_a   12.21499976
_cell_length_b   12.21079611
_cell_length_c   12.20951715
_cell_angle_alpha   90.00072312
_cell_angle_beta   90.00765856
_cell_angle_gamma   90.00484042
_symmetry_Int_Tables_number   1
_chemical_formula_structural   AgSbTe2
_chemical_formula_sum   'Ag16 Sb16 Te32'
_cell_volume   1821.10893883
_cell_formula_units_Z   16
loop_
 _symmetry_equiv_pos_site_id
 _symmetry_equiv_pos_as_xyz
  1  'x, y, z'
loop_
 _atom_site_type_symbol
 _atom_site_label
 _atom_site_symmetry_multiplicity
 _atom_site_fract_x
 _atom_site_fract_y
 _atom_site_fract_z
 _atom_site_occupancy
  Ag  Ag0  1  0.24728084  0.00277103  0.25119804  1
  Ag  Ag1  1  0.74495782  0.75210773  0.49809624  1
  Ag  Ag2  1  0.25421779  0.75292000  0.49748495  1
  Ag  Ag3  1  0.75508543  0.24707135  0.00484444  1
  Ag  Ag4  1  -0.00176632  0.75370449  0.25226553  1
  Ag  Ag5  1  0.74995870  0.00307320  0.74627850  1
  Ag  Ag6  1  -0.00454168  0.24557929  0.75308288  1
  Ag  Ag7  1  0.50456906  0.50152538  0.49750014  1
  Ag  Ag8  1  -0.00479553  0.24568107  0.24570768  1
  Ag  Ag9  1  0.24500436  0.24594823  0.00437724  1
  Ag  Ag10  1  0.50225241  0.75265955  0.74192865  1
  Ag  Ag11  1  0.50387838  -0.00252956  0.49887187  1
  Ag  Ag12  1  0.50517130  0.24848081  0.25367054  1
  Ag  Ag13  1  0.74812466  0.24836349  0.49473667  1
  Ag  Ag14  1  -0.00123498  0.00712542  0.00381010  1
  Ag  Ag15  1  0.74939294  0.49441984  0.25437262  1
  Sb  Sb16  1  -0.00365084  0.00111760  0.49630692  1
  Sb  Sb17  1  0.25178743  0.49909856  0.74727957  1
  Sb  Sb18  1  0.74794984  0.49739241  0.74571491  1
  Sb  Sb19  1  -0.00264549  0.75501510  0.74832052  1
  Sb  Sb20  1  0.50410851  0.24740956  0.74592052  1
  Sb  Sb21  1  0.50232646  0.75233793  0.25855379  1
  Sb  Sb22  1  0.75244403  0.00701098  0.25347076  1
  Sb  Sb23  1  -0.00206943  0.49075160  0.00246401  1
  Sb  Sb24  1  0.24832544  0.75396589  0.00347076  1
  Sb  Sb25  1  0.25117847  0.49786785  0.25268246  1
  Sb  Sb26  1  0.50300816  0.49747439  0.00364393  1
  Sb  Sb27  1  0.25038888  0.00112390  0.74821197  1
  Sb  Sb28  1  0.75198583  0.75318931  0.00316161  1
  Sb  Sb29  1  -0.00519627  0.49924939  0.49710796  1
  Sb  Sb30  1  0.50176736  0.00272307  0.00228323  1
  Sb  Sb31  1  0.25139075  0.24717597  0.49572948  1
  Te  Te32  1  0.24806121  0.24734427  0.24900362  1
  Te  Te33  1  0.24458361  0.24923395  0.75497426  1
  Te  Te34  1  0.24648806  0.75319528  0.25323004  1
  Te  Te35  1  0.25265074  0.75011079  0.74445251  1
  Te  Te36  1  0.75108864  0.24819612  0.25194578  1
  Te  Te37  1  0.75176135  0.24735296  0.74870819  1
  Te  Te38  1  0.75281337  0.74652963  0.25356027  1
  Te  Te39  1  0.74917889  0.75296481  0.74606125  1
  Te  Te40  1  0.24648793  0.00508613  0.00472081  1
  Te  Te41  1  0.25472295  -0.00379536  0.49633039  1
  Te  Te42  1  0.25059539  0.49177424  -0.00020576  1
  Te  Te43  1  0.25895313  0.50688131  0.49932681  1
  Te  Te44  1  0.75269061  0.00453380  -0.00525320  1
  Te  Te45  1  0.74711834  0.00061017  0.50292746  1
  Te  Te46  1  0.74929822  0.49376559  0.00726520  1
  Te  Te47  1  0.74593749  0.49902474  0.49618093  1
  Te  Te48  1  -0.00237275  0.24698804  0.00353246  1
  Te  Te49  1  -0.00342807  0.24956722  0.49844820  1
  Te  Te50  1  0.00038822  0.75780247  0.00521045  1
  Te  Te51  1  -0.00114186  0.75011171  0.49571046  1
  Te  Te52  1  0.50153774  0.24983254  0.00400582  1
  Te  Te53  1  0.50264014  0.24891146  0.49799687  1
  Te  Te54  1  0.49926339  0.74953460  -0.00936175  1
  Te  Te55  1  0.50289009  0.75224312  0.50000066  1
  Te  Te56  1  0.00238966  0.00239975  0.24779176  1
  Te  Te57  1  -0.00430896  0.00421485  0.75414292  1
  Te  Te58  1  -0.00515672  0.49940973  0.25047318  1
  Te  Te59  1  -0.00043460  0.49247154  0.74998194  1
  Te  Te60  1  0.49527141  0.00353699  0.25382580  1
  Te  Te61  1  0.50407601  -0.00272187  0.74515316  1
  Te  Te62  1  0.50446472  0.49565835  0.25476088  1
  Te  Te63  1  0.50083731  0.50542622  0.74255010  1
