# generated using pymatgen
data_AgSbTe2
_symmetry_space_group_name_H-M   'P 1'
_cell_length_a   12.21823476
_cell_length_b   12.23195629
_cell_length_c   12.21843141
_cell_angle_alpha   90.00364011
_cell_angle_beta   89.99783520
_cell_angle_gamma   90.00182016
_symmetry_Int_Tables_number   1
_chemical_formula_structural   AgSbTe2
_chemical_formula_sum   'Ag16 Sb16 Te32'
_cell_volume   1826.08016757
_cell_formula_units_Z   16
loop_
 _symmetry_equiv_pos_site_id
 _symmetry_equiv_pos_as_xyz
  1  'x, y, z'
loop_
 _atom_site_type_symbol
 _atom_site_label
 _atom_site_symmetry_multiplicity
 _atom_site_fract_x
 _atom_site_fract_y
 _atom_site_fract_z
 _atom_site_occupancy
  Ag  Ag0  1  -0.00398360  0.75012839  0.75618132  1
  Ag  Ag1  1  0.24112642  -0.00033933  0.24972988  1
  Ag  Ag2  1  -0.00427585  0.25004126  0.24759335  1
  Ag  Ag3  1  0.50522868  0.00149393  0.49745918  1
  Ag  Ag4  1  -0.00349211  0.50367342  0.00714912  1
  Ag  Ag5  1  -0.00698529  0.74989473  0.24486372  1
  Ag  Ag6  1  0.75729510  0.74781067  0.00721003  1
  Ag  Ag7  1  0.75720364  -0.00360289  0.25140950  1
  Ag  Ag8  1  -0.00423885  0.24988099  0.75229611  1
  Ag  Ag9  1  0.50576426  0.25008151  0.74899162  1
  Ag  Ag10  1  0.75148735  0.24769475  0.49652585  1
  Ag  Ag11  1  -0.00349955  -0.00323835  0.00693674  1
  Ag  Ag12  1  0.50394105  0.49999808  0.00284685  1
  Ag  Ag13  1  0.24168831  0.50036904  0.24691634  1
  Ag  Ag14  1  0.75734826  0.50373284  0.24649813  1
  Ag  Ag15  1  0.75276044  0.75204032  0.49182208  1
  Sb  Sb16  1  0.50429231  0.49905639  0.49857848  1
  Sb  Sb17  1  -0.00295383  0.49994810  0.49110061  1
  Sb  Sb18  1  0.24642307  0.49925007  0.75288107  1
  Sb  Sb19  1  0.24599236  0.00060642  0.75000879  1
  Sb  Sb20  1  0.50841488  0.74958018  0.24947897  1
  Sb  Sb21  1  0.24695992  0.75237456  0.49509670  1
  Sb  Sb22  1  0.24848702  0.24838765  0.49669172  1
  Sb  Sb23  1  0.75265675  0.00065649  0.74806724  1
  Sb  Sb24  1  0.75270992  0.49954745  0.75449945  1
  Sb  Sb25  1  0.50420999  -0.00003914  0.00133051  1
  Sb  Sb26  1  0.24715458  0.25022628  0.00289728  1
  Sb  Sb27  1  0.24134429  0.74953714  0.00414418  1
  Sb  Sb28  1  0.50405760  0.74940270  0.75077660  1
  Sb  Sb29  1  0.50532612  0.25046492  0.25053424  1
  Sb  Sb30  1  0.75342271  0.25188481  0.00357141  1
  Sb  Sb31  1  -0.00502724  0.00009289  0.49094477  1
  Te  Te32  1  0.24235762  0.24979111  0.25100443  1
  Te  Te33  1  0.24488440  0.25025790  0.74867275  1
  Te  Te34  1  0.24184382  0.75015363  0.25081822  1
  Te  Te35  1  0.23985774  0.74968752  0.74804690  1
  Te  Te36  1  0.75364377  0.24946429  0.25308927  1
  Te  Te37  1  0.75391288  0.25038411  0.74377446  1
  Te  Te38  1  0.75214881  0.75013370  0.25003661  1
  Te  Te39  1  0.75628917  0.74991011  0.74928744  1
  Te  Te40  1  0.24674446  -0.00033265  0.00745806  1
  Te  Te41  1  0.25856761  -0.00059060  0.49305921  1
  Te  Te42  1  0.24896034  0.50035101  0.00622592  1
  Te  Te43  1  0.25245232  0.50064636  0.48982901  1
  Te  Te44  1  0.75269831  -0.00389327  0.00531072  1
  Te  Te45  1  0.74803647  0.00001196  0.49696351  1
  Te  Te46  1  0.75300561  0.50155478  0.00381728  1
  Te  Te47  1  0.74910781  0.50074463  0.49263114  1
  Te  Te48  1  -0.00172183  0.25000015  0.00022429  1
  Te  Te49  1  -0.00548967  0.24991883  0.50168740  1
  Te  Te50  1  -0.00278975  0.74943747  0.00244084  1
  Te  Te51  1  -0.00576913  0.75017016  0.49972195  1
  Te  Te52  1  0.50164377  0.25340077  -0.00596061  1
  Te  Te53  1  0.50522206  0.24784409  0.50346957  1
  Te  Te54  1  0.50854125  0.74601987  -0.00241020  1
  Te  Te55  1  0.50791434  0.75389903  0.50233162  1
  Te  Te56  1  -0.00203122  0.00077210  0.24918014  1
  Te  Te57  1  0.00131169  0.00253755  0.75753902  1
  Te  Te58  1  -0.00219500  0.49939223  0.24826894  1
  Te  Te59  1  0.00132665  0.49753939  0.75807980  1
  Te  Te60  1  0.50100455  0.00038208  0.25169064  1
  Te  Te61  1  0.49847729  0.00554722  0.74825235  1
  Te  Te62  1  0.50061009  0.49936695  0.24510002  1
  Te  Te63  1  0.49859505  0.49486120  0.75532746  1
