# generated using pymatgen
data_AgSbTe2
_symmetry_space_group_name_H-M   'P 1'
_cell_length_a   12.20845172
_cell_length_b   12.21198951
_cell_length_c   12.20787655
_cell_angle_alpha   90.00204865
_cell_angle_beta   89.99346338
_cell_angle_gamma   90.00140972
_symmetry_Int_Tables_number   1
_chemical_formula_structural   AgSbTe2
_chemical_formula_sum   'Ag16 Sb16 Te32'
_cell_volume   1820.06600679
_cell_formula_units_Z   16
loop_
 _symmetry_equiv_pos_site_id
 _symmetry_equiv_pos_as_xyz
  1  'x, y, z'
loop_
 _atom_site_type_symbol
 _atom_site_label
 _atom_site_symmetry_multiplicity
 _atom_site_fract_x
 _atom_site_fract_y
 _atom_site_fract_z
 _atom_site_occupancy
  Ag  Ag0  1  0.50176970  0.75418302  0.25012993  1
  Ag  Ag1  1  -0.00031989  0.50000088  0.00130600  1
  Ag  Ag2  1  -0.00123280  0.74838416  0.25040837  1
  Ag  Ag3  1  0.24961753  0.24997381  0.49886522  1
  Ag  Ag4  1  0.74995915  0.24998764  0.00415847  1
  Ag  Ag5  1  0.00160990  0.25210126  0.74952588  1
  Ag  Ag6  1  0.49853783  0.75079274  0.74993240  1
  Ag  Ag7  1  0.24895839  0.49990100  0.25010231  1
  Ag  Ag8  1  0.74505629  0.00043330  0.24948511  1
  Ag  Ag9  1  0.00186983  0.74748601  0.74976584  1
  Ag  Ag10  1  0.49995079  -0.00004889  0.49366076  1
  Ag  Ag11  1  0.50276713  -0.00008913  0.00662261  1
  Ag  Ag12  1  0.75104583  0.49955476  0.24708798  1
  Ag  Ag13  1  0.00031567  0.00012621  0.49815219  1
  Ag  Ag14  1  0.50198850  0.24621026  0.25000269  1
  Ag  Ag15  1  0.24649906  0.50010909  0.74997509  1
  Sb  Sb16  1  0.24957246  -0.00015053  0.74772488  1
  Sb  Sb17  1  0.75012952  0.75217468  0.49660694  1
  Sb  Sb18  1  0.74971946  0.00045377  0.75141289  1
  Sb  Sb19  1  -0.00317650  -0.00018971  0.00317371  1
  Sb  Sb20  1  0.49788524  0.50019952  0.49761116  1
  Sb  Sb21  1  0.75038706  0.24742780  0.49595978  1
  Sb  Sb22  1  0.50167341  0.49993532  0.00320130  1
  Sb  Sb23  1  0.24968472  0.25278286  0.00190225  1
  Sb  Sb24  1  0.25544115  0.00051132  0.25233836  1
  Sb  Sb25  1  0.49812902  0.24956537  0.74995819  1
  Sb  Sb26  1  -0.00107286  0.25112628  0.25075983  1
  Sb  Sb27  1  0.25009959  0.75017083  0.49909206  1
  Sb  Sb28  1  0.25011906  0.74777465  0.00091934  1
  Sb  Sb29  1  0.75359707  0.49942109  0.75420489  1
  Sb  Sb30  1  0.74973702  0.75019153  0.00405297  1
  Sb  Sb31  1  0.00222502  0.50011480  0.49899001  1
  Te  Te32  1  0.25335724  0.25575780  0.25279454  1
  Te  Te33  1  0.24623048  0.25525008  0.74665196  1
  Te  Te34  1  0.24990476  0.74280207  0.25101256  1
  Te  Te35  1  0.24816497  0.74390694  0.74916842  1
  Te  Te36  1  0.74747568  0.24979529  0.24719951  1
  Te  Te37  1  0.75521617  0.25172006  0.75587362  1
  Te  Te38  1  0.74911945  0.74988122  0.24918344  1
  Te  Te39  1  0.75088130  0.74817978  0.75067382  1
  Te  Te40  1  0.25878693  0.00171954  -0.00022149  1
  Te  Te41  1  0.24945752  0.00680055  0.49963263  1
  Te  Te42  1  0.24352110  0.49904545  0.00052947  1
  Te  Te43  1  0.24992429  0.49316845  0.49935196  1
  Te  Te44  1  0.74569451  0.00575221  0.00588321  1
  Te  Te45  1  0.74971362  0.00119342  0.49322362  1
  Te  Te46  1  0.75474198  0.49423553  0.00552775  1
  Te  Te47  1  0.74969549  0.49810085  0.48933417  1
  Te  Te48  1  -0.00277359  0.25134544  -0.00375048  1
  Te  Te49  1  0.00267303  0.24495014  0.50346260  1
  Te  Te50  1  0.00015723  0.74771188  -0.00076127  1
  Te  Te51  1  0.00063527  0.75616260  0.50058689  1
  Te  Te52  1  0.50374652  0.24700038  0.00271104  1
  Te  Te53  1  0.49720163  0.24467743  0.49744851  1
  Te  Te54  1  0.49982576  0.75434186  0.00123489  1
  Te  Te55  1  0.49944326  0.75632538  0.49880812  1
  Te  Te56  1  -0.00262848  -0.00406937  0.25107163  1
  Te  Te57  1  -0.00070582  -0.00289392  0.74744204  1
  Te  Te58  1  0.00057041  0.50273166  0.24909316  1
  Te  Te59  1  0.00130013  0.50277237  0.75085134  1
  Te  Te60  1  0.49954482  -0.00190379  0.25156217  1
  Te  Te61  1  0.50072823  -0.00541512  0.74804145  1
  Te  Te62  1  0.49950559  0.50191681  0.24891553  1
  Te  Te63  1  0.49634722  0.50642129  0.75037379  1
