# generated using pymatgen
data_AgSbTe2
_symmetry_space_group_name_H-M   'P 1'
_cell_length_a   12.21468642
_cell_length_b   12.21602328
_cell_length_c   12.21953284
_cell_angle_alpha   90.00199036
_cell_angle_beta   89.99929841
_cell_angle_gamma   90.00363995
_symmetry_Int_Tables_number   1
_chemical_formula_structural   AgSbTe2
_chemical_formula_sum   'Ag16 Sb16 Te32'
_cell_volume   1823.33628857
_cell_formula_units_Z   16
loop_
 _symmetry_equiv_pos_site_id
 _symmetry_equiv_pos_as_xyz
  1  'x, y, z'
loop_
 _atom_site_type_symbol
 _atom_site_label
 _atom_site_symmetry_multiplicity
 _atom_site_fract_x
 _atom_site_fract_y
 _atom_site_fract_z
 _atom_site_occupancy
  Ag  Ag0  1  0.75166812  0.00005670  0.74792263  1
  Ag  Ag1  1  -0.00032968  0.00392583  -0.00740042  1
  Ag  Ag2  1  0.74263050  0.75414894  0.50263261  1
  Ag  Ag3  1  0.24820826  0.00017925  0.74785491  1
  Ag  Ag4  1  0.50017361  -0.00571373  0.50182855  1
  Ag  Ag5  1  -0.00014793  0.49656921  -0.00465169  1
  Ag  Ag6  1  0.49968752  0.49922944  -0.00294598  1
  Ag  Ag7  1  -0.00028891  0.24422045  0.75400792  1
  Ag  Ag8  1  0.75138425  0.24867747  -0.00241270  1
  Ag  Ag9  1  0.50013696  0.75130391  0.74440837  1
  Ag  Ag10  1  0.25354103  0.50035923  0.75138330  1
  Ag  Ag11  1  0.25395026  0.00003897  0.25193293  1
  Ag  Ag12  1  0.00015889  -0.00009504  0.50715401  1
  Ag  Ag13  1  0.49991732  0.75242989  0.25639110  1
  Ag  Ag14  1  0.50004561  0.24820699  0.24965578  1
  Ag  Ag15  1  0.49984761  0.50612156  0.50296093  1
  Sb  Sb16  1  0.25210417  0.24667782  0.50069940  1
  Sb  Sb17  1  -0.00046491  0.24660327  0.24651432  1
  Sb  Sb18  1  0.00038845  0.75317061  0.25171934  1
  Sb  Sb19  1  0.25244271  0.75047841  -0.00076389  1
  Sb  Sb20  1  0.50013421  0.24922741  0.75098285  1
  Sb  Sb21  1  0.49975513  0.00179546  -0.00095062  1
  Sb  Sb22  1  0.00025106  0.75636047  0.74893306  1
  Sb  Sb23  1  0.74578310  -0.00021482  0.25228929  1
  Sb  Sb24  1  0.74805255  0.24608022  0.50288648  1
  Sb  Sb25  1  0.25498996  0.50030539  0.24955567  1
  Sb  Sb26  1  0.25831780  0.75343395  0.50089013  1
  Sb  Sb27  1  0.74755704  0.50063101  0.75129865  1
  Sb  Sb28  1  0.74741698  0.75212009  -0.00242914  1
  Sb  Sb29  1  0.74659816  0.50006255  0.24937644  1
  Sb  Sb30  1  0.00044636  0.50044750  0.50642021  1
  Sb  Sb31  1  0.24885187  0.24978013  -0.00085189  1
  Te  Te32  1  0.25695504  0.24319024  0.24978156  1
  Te  Te33  1  0.24520728  0.24762474  0.74989243  1
  Te  Te34  1  0.25735999  0.75693102  0.24948033  1
  Te  Te35  1  0.25602751  0.75135990  0.75024982  1
  Te  Te36  1  0.74415133  0.24975928  0.24298876  1
  Te  Te37  1  0.75375617  0.24482577  0.75393283  1
  Te  Te38  1  0.74255089  0.75035508  0.25546569  1
  Te  Te39  1  0.74449825  0.75529490  0.74690607  1
  Te  Te40  1  0.24537039  -0.00010276  -0.00339824  1
  Te  Te41  1  0.25066000  0.00012532  0.50334715  1
  Te  Te42  1  0.25080940  0.50021851  -0.00493857  1
  Te  Te43  1  0.25447760  0.49980343  0.50607051  1
  Te  Te44  1  0.75370353  0.00291184  -0.00368421  1
  Te  Te45  1  0.74806277  -0.00178565  0.50253342  1
  Te  Te46  1  0.75042801  0.49625168  -0.00077198  1
  Te  Te47  1  0.74523816  0.50503310  0.50022207  1
  Te  Te48  1  -0.00408727  0.24919136  -0.00189590  1
  Te  Te49  1  -0.00304375  0.24568134  0.50400378  1
  Te  Te50  1  -0.00296592  0.74847826  0.00107950  1
  Te  Te51  1  -0.00992826  0.75425616  0.49868733  1
  Te  Te52  1  0.50513903  0.25437550  0.00260629  1
  Te  Te53  1  0.50240726  0.24927083  0.49538906  1
  Te  Te54  1  0.50229127  0.74313488  -0.00077060  1
  Te  Te55  1  0.50271013  0.75157835  0.50109122  1
  Te  Te56  1  0.00621986  0.00003715  0.25034483  1
  Te  Te57  1  0.00247066  -0.00094908  0.74993222  1
  Te  Te58  1  0.00347991  0.49990248  0.24264361  1
  Te  Te59  1  0.00341772  0.49754286  0.75217857  1
  Te  Te60  1  0.49705113  -0.00106639  0.25017963  1
  Te  Te61  1  0.49771142  0.00018634  0.74901889  1
  Te  Te62  1  0.49686764  0.50061853  0.24992912  1
  Te  Te63  1  0.49779475  0.49934646  0.75021226  1
