# generated using pymatgen
data_AgSbTe2
_symmetry_space_group_name_H-M   'P 1'
_cell_length_a   12.19454788
_cell_length_b   12.19973510
_cell_length_c   12.19846121
_cell_angle_alpha   89.99920060
_cell_angle_beta   89.99974653
_cell_angle_gamma   90.00118577
_symmetry_Int_Tables_number   1
_chemical_formula_structural   AgSbTe2
_chemical_formula_sum   'Ag16 Sb16 Te32'
_cell_volume   1814.76816883
_cell_formula_units_Z   16
loop_
 _symmetry_equiv_pos_site_id
 _symmetry_equiv_pos_as_xyz
  1  'x, y, z'
loop_
 _atom_site_type_symbol
 _atom_site_label
 _atom_site_symmetry_multiplicity
 _atom_site_fract_x
 _atom_site_fract_y
 _atom_site_fract_z
 _atom_site_occupancy
  Ag  Ag0  1  0.74440604  -0.00170514  0.75026381  1
  Ag  Ag1  1  0.00152758  0.24937880  0.25036070  1
  Ag  Ag2  1  0.49820635  0.24753779  0.24929100  1
  Ag  Ag3  1  0.50001147  -0.00047727  0.49944736  1
  Ag  Ag4  1  0.25479016  0.24973266  0.00290422  1
  Ag  Ag5  1  0.25541478  0.75018141  0.00005383  1
  Ag  Ag6  1  0.25408657  0.00188674  0.24974640  1
  Ag  Ag7  1  0.00025592  0.49976714  0.49986691  1
  Ag  Ag8  1  0.74570382  0.00095632  0.24988606  1
  Ag  Ag9  1  0.74456749  0.75029270  -0.00252079  1
  Ag  Ag10  1  0.25459044  0.74974154  0.49992410  1
  Ag  Ag11  1  0.49980753  0.50063777  0.50457972  1
  Ag  Ag12  1  0.49989816  0.50061694  -0.00400847  1
  Ag  Ag13  1  0.50087863  0.25256533  0.75054020  1
  Ag  Ag14  1  0.50165612  0.74748131  0.75068597  1
  Ag  Ag15  1  0.74311317  0.50157515  0.74992220  1
  Sb  Sb16  1  0.74137497  0.74972114  0.50464469  1
  Sb  Sb17  1  0.00067441  0.00085604  0.49625243  1
  Sb  Sb18  1  0.25604025  0.25018749  0.49453941  1
  Sb  Sb19  1  0.49845636  0.75525658  0.24840401  1
  Sb  Sb20  1  -0.00337552  0.74796817  0.74813832  1
  Sb  Sb21  1  0.26287350  0.50151469  0.74946891  1
  Sb  Sb22  1  0.25334945  0.49594412  0.25024067  1
  Sb  Sb23  1  0.26042300  -0.00170518  0.74986547  1
  Sb  Sb24  1  0.00146386  0.75002575  0.25212377  1
  Sb  Sb25  1  -0.00079681  0.25296606  0.74871098  1
  Sb  Sb26  1  -0.00017043  0.49824548  0.00045923  1
  Sb  Sb27  1  0.50005311  -0.00159611  0.00173295  1
  Sb  Sb28  1  0.00001534  0.00184273  0.00274623  1
  Sb  Sb29  1  0.74422972  0.25019581  0.49960750  1
  Sb  Sb30  1  0.74595996  0.49865423  0.25020389  1
  Sb  Sb31  1  0.74098697  0.24962140  0.00036155  1
  Te  Te32  1  0.25170711  0.24495150  0.24561660  1
  Te  Te33  1  0.25664582  0.24772806  0.75938950  1
  Te  Te34  1  0.24849240  0.75840029  0.24860554  1
  Te  Te35  1  0.25619194  0.75212858  0.75144182  1
  Te  Te36  1  0.74920709  0.24243695  0.24808571  1
  Te  Te37  1  0.74390739  0.24968834  0.75190185  1
  Te  Te38  1  0.75164863  0.75892567  0.24083218  1
  Te  Te39  1  0.74601560  0.75019683  0.75472759  1
  Te  Te40  1  0.24898555  -0.00139639  0.00650429  1
  Te  Te41  1  0.25450851  -0.00654977  0.49411375  1
  Te  Te42  1  0.25496659  0.50176658  0.00042645  1
  Te  Te43  1  0.25161742  0.50719389  0.49967445  1
  Te  Te44  1  0.75096224  -0.00673734  -0.00000008  1
  Te  Te45  1  0.74470904  -0.00167860  0.49957664  1
  Te  Te46  1  0.74534589  0.50651638  -0.00567484  1
  Te  Te47  1  0.74814413  0.50176486  0.50582138  1
  Te  Te48  1  0.01059019  0.25259862  0.00779843  1
  Te  Te49  1  0.00285554  0.25762066  0.49307952  1
  Te  Te50  1  0.00211542  0.74741294  -0.00006856  1
  Te  Te51  1  0.01077981  0.74177709  0.49984087  1
  Te  Te52  1  0.49614528  0.25533485  0.00020401  1
  Te  Te53  1  0.49765929  0.25051413  0.50017336  1
  Te  Te54  1  0.49886157  0.74569590  -0.00343226  1
  Te  Te55  1  0.49592007  0.74935269  0.50444031  1
  Te  Te56  1  -0.00030677  0.00846933  0.25269812  1
  Te  Te57  1  -0.01367035  0.00188499  0.74771943  1
  Te  Te58  1  -0.00197423  0.49108695  0.25777323  1
  Te  Te59  1  -0.01210502  0.49749441  0.74178153  1
  Te  Te60  1  0.50003089  0.00476808  0.25465167  1
  Te  Te61  1  0.50483996  -0.00008696  0.74404671  1
  Te  Te62  1  0.50215374  0.49084516  0.25050401  1
  Te  Te63  1  0.50257687  0.50002778  0.74930359  1
