# generated using pymatgen
data_AgSbTe2
_symmetry_space_group_name_H-M   'P 1'
_cell_length_a   12.21164532
_cell_length_b   12.21282167
_cell_length_c   12.21026202
_cell_angle_alpha   90.00163842
_cell_angle_beta   89.99737878
_cell_angle_gamma   90.00068427
_symmetry_Int_Tables_number   1
_chemical_formula_structural   AgSbTe2
_chemical_formula_sum   'Ag16 Sb16 Te32'
_cell_volume   1821.02194934
_cell_formula_units_Z   16
loop_
 _symmetry_equiv_pos_site_id
 _symmetry_equiv_pos_as_xyz
  1  'x, y, z'
loop_
 _atom_site_type_symbol
 _atom_site_label
 _atom_site_symmetry_multiplicity
 _atom_site_fract_x
 _atom_site_fract_y
 _atom_site_fract_z
 _atom_site_occupancy
  Ag  Ag0  1  0.24783645  0.00047832  0.74749798  1
  Ag  Ag1  1  0.75156647  0.00216158  0.74930949  1
  Ag  Ag2  1  0.75028296  0.75190277  0.50461664  1
  Ag  Ag3  1  0.49851927  0.24722842  0.75298280  1
  Ag  Ag4  1  0.25328962  0.24982256  0.50386843  1
  Ag  Ag5  1  0.74351568  0.24836796  -0.00454543  1
  Ag  Ag6  1  0.00230718  0.24298591  0.74843768  1
  Ag  Ag7  1  0.24913439  0.75070856  0.50480010  1
  Ag  Ag8  1  0.00262137  -0.00137119  0.50791267  1
  Ag  Ag9  1  0.49890563  0.00519886  -0.00503255  1
  Ag  Ag10  1  0.49724495  0.49472138  0.00018782  1
  Ag  Ag11  1  0.25553846  0.49860271  0.25201112  1
  Ag  Ag12  1  0.25203356  0.75051826  -0.00420237  1
  Ag  Ag13  1  0.49556492  0.49726630  0.49987275  1
  Ag  Ag14  1  0.00365687  0.75715985  0.74621959  1
  Ag  Ag15  1  0.49757572  0.25283718  0.24828604  1
  Sb  Sb16  1  0.00257419  0.24904672  0.25167707  1
  Sb  Sb17  1  0.00291965  0.75110765  0.25350230  1
  Sb  Sb18  1  0.49783986  0.74683115  0.25080381  1
  Sb  Sb19  1  0.49727976  0.00251728  0.50552638  1
  Sb  Sb20  1  0.00259092  0.00167964  -0.00958788  1
  Sb  Sb21  1  0.00426666  0.49858280  -0.00213472  1
  Sb  Sb22  1  0.74424107  0.49759438  0.25077073  1
  Sb  Sb23  1  0.74750519  0.24820243  0.50547974  1
  Sb  Sb24  1  0.25782210  0.24949638  -0.00522203  1
  Sb  Sb25  1  0.00435868  0.50128734  0.50181736  1
  Sb  Sb26  1  0.74696649  0.00185538  0.25082694  1
  Sb  Sb27  1  0.74887737  0.75173521  -0.00612068  1
  Sb  Sb28  1  0.49585412  0.75391666  0.74914375  1
  Sb  Sb29  1  0.25282619  0.00201991  0.25193824  1
  Sb  Sb30  1  0.25319333  0.49994269  0.74779623  1
  Sb  Sb31  1  0.74717948  0.49801064  0.74975258  1
  Te  Te32  1  0.25390439  0.25272123  0.25522714  1
  Te  Te33  1  0.25029091  0.24727883  0.74757260  1
  Te  Te34  1  0.24957082  0.74628147  0.25149549  1
  Te  Te35  1  0.24836636  0.75249224  0.74746210  1
  Te  Te36  1  0.74461175  0.25012691  0.24362916  1
  Te  Te37  1  0.74911321  0.24594691  0.75173392  1
  Te  Te38  1  0.75057035  0.74974708  0.25813543  1
  Te  Te39  1  0.75439767  0.75543745  0.74653789  1
  Te  Te40  1  0.25314820  -0.00385533  -0.00341734  1
  Te  Te41  1  0.24992297  -0.00140621  0.50281962  1
  Te  Te42  1  0.25515639  0.50353381  0.00321683  1
  Te  Te43  1  0.25378047  0.50074602  0.49880757  1
  Te  Te44  1  0.74563512  0.00164326  -0.00458952  1
  Te  Te45  1  0.75170875  -0.00336714  0.50460186  1
  Te  Te46  1  0.74195768  0.49732168  0.00092218  1
  Te  Te47  1  0.74324091  0.50550330  0.49916598  1
  Te  Te48  1  -0.00686812  0.25015246  -0.00551962  1
  Te  Te49  1  0.00225520  0.24828125  0.50408424  1
  Te  Te50  1  0.00466168  0.74981744  -0.00567518  1
  Te  Te51  1  0.00361707  0.75086494  0.50379484  1
  Te  Te52  1  0.49945087  0.25086818  -0.00277320  1
  Te  Te53  1  0.49825032  0.25199579  0.50137839  1
  Te  Te54  1  0.49597404  0.74875645  -0.00022024  1
  Te  Te55  1  0.49719238  0.74636832  0.50071366  1
  Te  Te56  1  -0.00039048  0.00125792  0.26093633  1
  Te  Te57  1  0.00165851  0.00103136  0.74755504  1
  Te  Te58  1  0.00933755  0.49890247  0.24960408  1
  Te  Te59  1  -0.00108823  0.49848939  0.75023078  1
  Te  Te60  1  0.49989258  0.00771846  0.24160117  1
  Te  Te61  1  0.49918780  0.00356518  0.75247604  1
  Te  Te62  1  0.49554783  0.49625408  0.25017611  1
  Te  Te63  1  0.50005645  0.49310914  0.75012406  1
