# generated using pymatgen
data_AgSbTe2
_symmetry_space_group_name_H-M   'P 1'
_cell_length_a   12.21184050
_cell_length_b   12.20739213
_cell_length_c   12.20697827
_cell_angle_alpha   90.00516137
_cell_angle_beta   89.99772517
_cell_angle_gamma   90.00681146
_symmetry_Int_Tables_number   1
_chemical_formula_structural   AgSbTe2
_chemical_formula_sum   'Ag16 Sb16 Te32'
_cell_volume   1819.75191483
_cell_formula_units_Z   16
loop_
 _symmetry_equiv_pos_site_id
 _symmetry_equiv_pos_as_xyz
  1  'x, y, z'
loop_
 _atom_site_type_symbol
 _atom_site_label
 _atom_site_symmetry_multiplicity
 _atom_site_fract_x
 _atom_site_fract_y
 _atom_site_fract_z
 _atom_site_occupancy
  Ag  Ag0  1  0.50429575  0.75282080  0.75018403  1
  Ag  Ag1  1  0.74810971  0.50107712  0.25666087  1
  Ag  Ag2  1  0.50643320  0.49782784  0.50104972  1
  Ag  Ag3  1  0.25092866  -0.00219786  0.75635701  1
  Ag  Ag4  1  0.25231754  0.24263193  -0.00145840  1
  Ag  Ag5  1  0.49519870  -0.00066402  -0.00443661  1
  Ag  Ag6  1  0.74790190  0.50524504  0.74314714  1
  Ag  Ag7  1  -0.00398756  0.75380800  0.75211344  1
  Ag  Ag8  1  0.74880874  0.74599799  0.50589141  1
  Ag  Ag9  1  0.50055886  0.25057629  0.25263031  1
  Ag  Ag10  1  0.74538555  0.25482890  0.50076883  1
  Ag  Ag11  1  0.24851578  0.75768799  -0.00394518  1
  Ag  Ag12  1  0.74903087  -0.00567909  0.74958737  1
  Ag  Ag13  1  0.25419640  0.24901141  0.50095164  1
  Ag  Ag14  1  0.00468182  -0.00393305  -0.00402202  1
  Ag  Ag15  1  -0.00226022  0.75061612  0.24794577  1
  Sb  Sb16  1  -0.00817191  0.50097240  0.50076974  1
  Sb  Sb17  1  0.50291076  0.74922856  0.24929034  1
  Sb  Sb18  1  0.50009816  0.50095985  -0.00193299  1
  Sb  Sb19  1  0.74701006  0.24736649  -0.00046816  1
  Sb  Sb20  1  0.75184569  0.75193942  -0.00765913  1
  Sb  Sb21  1  -0.00048993  0.24586087  0.75133047  1
  Sb  Sb22  1  0.74995678  -0.00200889  0.25129898  1
  Sb  Sb23  1  0.25009434  0.00030903  0.24233411  1
  Sb  Sb24  1  0.50039236  0.00191357  0.50434267  1
  Sb  Sb25  1  0.50017641  0.24703715  0.74790405  1
  Sb  Sb26  1  0.25173092  0.50202944  0.74788456  1
  Sb  Sb27  1  0.25120119  0.75142754  0.50364481  1
  Sb  Sb28  1  0.25144058  0.49988814  0.25208736  1
  Sb  Sb29  1  -0.00148440  0.24958673  0.24832141  1
  Sb  Sb30  1  0.00019286  0.50453484  -0.00130106  1
  Sb  Sb31  1  -0.00011356  -0.00150043  0.50474347  1
  Te  Te32  1  0.25338399  0.25039635  0.25105762  1
  Te  Te33  1  0.24985704  0.24690046  0.75065253  1
  Te  Te34  1  0.24510090  0.74918688  0.24662372  1
  Te  Te35  1  0.24989405  0.75245483  0.75132285  1
  Te  Te36  1  0.74757585  0.25290326  0.25442658  1
  Te  Te37  1  0.75017146  0.25046888  0.74539304  1
  Te  Te38  1  0.75207920  0.74742061  0.25546494  1
  Te  Te39  1  0.74938238  0.75090193  0.74951226  1
  Te  Te40  1  0.25087801  0.00003644  -0.00266819  1
  Te  Te41  1  0.25047273  0.00532862  0.50838433  1
  Te  Te42  1  0.25038621  0.49781422  -0.00033704  1
  Te  Te43  1  0.25858979  0.49325475  0.50079484  1
  Te  Te44  1  0.74921201  0.00158647  -0.00637641  1
  Te  Te45  1  0.74941906  -0.00038303  0.50574107  1
  Te  Te46  1  0.74949360  0.49833981  -0.00039347  1
  Te  Te47  1  0.74760552  0.49986832  0.50159920  1
  Te  Te48  1  0.00752289  0.24319873  0.00165821  1
  Te  Te49  1  0.00093097  0.24995019  0.49850691  1
  Te  Te50  1  0.00317683  0.75346240  -0.00209193  1
  Te  Te51  1  -0.00276423  0.75064959  0.50083555  1
  Te  Te52  1  0.49575869  0.24699440  0.00311235  1
  Te  Te53  1  0.50127640  0.25139097  0.49811869  1
  Te  Te54  1  0.49488139  0.75312035  -0.00240237  1
  Te  Te55  1  0.50278297  0.74744273  0.50205045  1
  Te  Te56  1  -0.00107611  -0.00616434  0.24213515  1
  Te  Te57  1  -0.00043489  -0.00397040  0.75380868  1
  Te  Te58  1  -0.00726945  0.50600619  0.24958301  1
  Te  Te59  1  -0.00660637  0.50838665  0.75077636  1
  Te  Te60  1  0.50119504  0.00465466  0.24232051  1
  Te  Te61  1  0.50040397  -0.00288001  0.75365048  1
  Te  Te62  1  0.50537712  0.49709417  0.25347874  1
  Te  Te63  1  0.50443696  0.50498479  0.74724536  1
