# generated using pymatgen
data_AgSbTe2
_symmetry_space_group_name_H-M   'P 1'
_cell_length_a   12.21596879
_cell_length_b   12.20844895
_cell_length_c   12.21020825
_cell_angle_alpha   89.99928531
_cell_angle_beta   90.00128181
_cell_angle_gamma   90.00506690
_symmetry_Int_Tables_number   1
_chemical_formula_structural   AgSbTe2
_chemical_formula_sum   'Ag16 Sb16 Te32'
_cell_volume   1821.00641277
_cell_formula_units_Z   16
loop_
 _symmetry_equiv_pos_site_id
 _symmetry_equiv_pos_as_xyz
  1  'x, y, z'
loop_
 _atom_site_type_symbol
 _atom_site_label
 _atom_site_symmetry_multiplicity
 _atom_site_fract_x
 _atom_site_fract_y
 _atom_site_fract_z
 _atom_site_occupancy
  Ag  Ag0  1  0.75145112  0.25334293  0.49911210  1
  Ag  Ag1  1  -0.00424470  0.25193701  0.74776373  1
  Ag  Ag2  1  0.74811741  0.74751195  0.00671966  1
  Ag  Ag3  1  -0.00167763  0.74959496  0.25061338  1
  Ag  Ag4  1  0.75013645  0.50236038  0.74823974  1
  Ag  Ag5  1  0.50130674  -0.00542219  0.49521700  1
  Ag  Ag6  1  0.74984352  0.50833253  0.25096511  1
  Ag  Ag7  1  -0.00424963  0.50188192  0.49642582  1
  Ag  Ag8  1  0.50162582  0.74915219  0.25110012  1
  Ag  Ag9  1  0.75025246  -0.00816112  0.25052027  1
  Ag  Ag10  1  0.50319992  0.74812309  0.74921216  1
  Ag  Ag11  1  0.25225552  0.74950868  0.49215820  1
  Ag  Ag12  1  0.24987148  -0.00930238  0.25208431  1
  Ag  Ag13  1  0.25004177  0.50941855  0.25213014  1
  Ag  Ag14  1  -0.00222046  -0.00308877  0.00494416  1
  Ag  Ag15  1  0.50422469  0.50647726  0.00357498  1
  Sb  Sb16  1  0.24819912  0.25021842  0.00155683  1
  Sb  Sb17  1  0.74824739  0.74799718  0.49187757  1
  Sb  Sb18  1  0.24858528  0.25075006  0.49867174  1
  Sb  Sb19  1  0.50202411  0.25113446  0.25154261  1
  Sb  Sb20  1  -0.00254363  0.25113937  0.25175909  1
  Sb  Sb21  1  -0.00114090  -0.00208331  0.49469548  1
  Sb  Sb22  1  -0.00379588  0.74853658  0.74914068  1
  Sb  Sb23  1  0.25029217  -0.00385775  0.74823410  1
  Sb  Sb24  1  0.75148771  0.25185775  0.00038902  1
  Sb  Sb25  1  0.50230047  -0.00689034  0.00552571  1
  Sb  Sb26  1  0.50402208  0.25265196  0.74696149  1
  Sb  Sb27  1  0.25036989  0.50399271  0.74800825  1
  Sb  Sb28  1  0.74971852  -0.00293604  0.74829346  1
  Sb  Sb29  1  0.25119417  0.74936702  0.00943441  1
  Sb  Sb30  1  -0.00372073  0.50311226  0.00389911  1
  Sb  Sb31  1  0.50300976  0.50564683  0.49617977  1
  Te  Te32  1  0.24995755  0.25011466  0.25091371  1
  Te  Te33  1  0.24246452  0.24999763  0.74966658  1
  Te  Te34  1  0.25029307  0.74950751  0.25180511  1
  Te  Te35  1  0.25613981  0.74958166  0.74140903  1
  Te  Te36  1  0.75061569  0.25074742  0.25512660  1
  Te  Te37  1  0.75346779  0.25491765  0.74567994  1
  Te  Te38  1  0.74974428  0.74899783  0.25024085  1
  Te  Te39  1  0.74652212  0.74566677  0.75496592  1
  Te  Te40  1  0.24581464  -0.00009635  0.00756783  1
  Te  Te41  1  0.25254402  -0.00279925  0.49415119  1
  Te  Te42  1  0.25468599  0.50046290  0.00667825  1
  Te  Te43  1  0.24686431  0.50234566  0.49511559  1
  Te  Te44  1  0.75218169  -0.00333027  0.00529099  1
  Te  Te45  1  0.74775969  0.00355451  0.49607895  1
  Te  Te46  1  0.74854790  0.50265628  0.00254153  1
  Te  Te47  1  0.75205043  0.49806580  0.49850341  1
  Te  Te48  1  -0.00065308  0.24408977  -0.00644645  1
  Te  Te49  1  -0.00389357  0.25376904  0.50351372  1
  Te  Te50  1  -0.00446518  0.75337565  0.00294623  1
  Te  Te51  1  0.00450989  0.74628555  0.49679117  1
  Te  Te52  1  0.50002283  0.25854786  -0.00216590  1
  Te  Te53  1  0.50565684  0.24193459  0.50167629  1
  Te  Te54  1  0.50382204  0.74712657  0.00215570  1
  Te  Te55  1  0.49758914  0.75263573  0.49703969  1
  Te  Te56  1  -0.00106317  -0.00270670  0.24859797  1
  Te  Te57  1  -0.00018995  0.00279819  0.75500714  1
  Te  Te58  1  -0.00153896  0.50237417  0.25138142  1
  Te  Te59  1  -0.00344259  0.49873043  0.74781445  1
  Te  Te60  1  0.50079245  -0.00342274  0.25116587  1
  Te  Te61  1  0.49985412  -0.00624221  0.74621413  1
  Te  Te62  1  0.50173545  0.50333161  0.24957065  1
  Te  Te63  1  0.50342623  0.50467795  0.75205227  1
