# generated using pymatgen
data_AgSbTe2
_symmetry_space_group_name_H-M   'P 1'
_cell_length_a   12.20822096
_cell_length_b   12.21847772
_cell_length_c   12.22033381
_cell_angle_alpha   90.00006497
_cell_angle_beta   89.99855664
_cell_angle_gamma   89.99878207
_symmetry_Int_Tables_number   1
_chemical_formula_structural   AgSbTe2
_chemical_formula_sum   'Ag16 Sb16 Te32'
_cell_volume   1822.85679418
_cell_formula_units_Z   16
loop_
 _symmetry_equiv_pos_site_id
 _symmetry_equiv_pos_as_xyz
  1  'x, y, z'
loop_
 _atom_site_type_symbol
 _atom_site_label
 _atom_site_symmetry_multiplicity
 _atom_site_fract_x
 _atom_site_fract_y
 _atom_site_fract_z
 _atom_site_occupancy
  Ag  Ag0  1  -0.00689818  0.75171196  0.25250019  1
  Ag  Ag1  1  0.50765442  0.74997192  0.74719011  1
  Ag  Ag2  1  -0.00547123  0.00102376  -0.00477279  1
  Ag  Ag3  1  0.50518164  0.25052543  0.25073747  1
  Ag  Ag4  1  0.75163467  0.50462590  0.74618751  1
  Ag  Ag5  1  0.75391973  0.24717893  -0.00124553  1
  Ag  Ag6  1  -0.00506109  0.24796442  0.25039162  1
  Ag  Ag7  1  0.50657042  0.74910823  0.25307244  1
  Ag  Ag8  1  0.75085759  0.74831280  0.50309404  1
  Ag  Ag9  1  0.50687737  0.50395711  0.50019117  1
  Ag  Ag10  1  -0.00682773  0.50164224  0.50117207  1
  Ag  Ag11  1  0.75616297  -0.00362551  0.75114850  1
  Ag  Ag12  1  0.24290994  -0.00107103  0.74942024  1
  Ag  Ag13  1  -0.00526107  0.24431880  0.74958487  1
  Ag  Ag14  1  0.75151257  0.75268802  -0.00346359  1
  Ag  Ag15  1  -0.00404137  -0.00082414  0.50440752  1
  Sb  Sb16  1  0.50803825  0.25090838  0.74844131  1
  Sb  Sb17  1  -0.01259118  0.75901018  0.74538533  1
  Sb  Sb18  1  0.24428909  0.24585852  -0.00196678  1
  Sb  Sb19  1  0.24722775  0.24762678  0.50173368  1
  Sb  Sb20  1  0.75353166  0.25217521  0.50122136  1
  Sb  Sb21  1  0.24696613  0.50184473  0.74752439  1
  Sb  Sb22  1  0.24510430  0.75421382  -0.00283158  1
  Sb  Sb23  1  0.50864702  -0.00119809  -0.00108052  1
  Sb  Sb24  1  0.75049506  0.50205118  0.25712935  1
  Sb  Sb25  1  0.50718669  -0.00543325  0.50130847  1
  Sb  Sb26  1  0.24501083  -0.00049229  0.25160670  1
  Sb  Sb27  1  0.24689735  0.75210243  0.50213502  1
  Sb  Sb28  1  -0.00650281  0.49976187  -0.00271243  1
  Sb  Sb29  1  0.24919987  0.50022007  0.25164938  1
  Sb  Sb30  1  0.75449577  -0.00169884  0.24869141  1
  Sb  Sb31  1  0.50645132  0.50142267  -0.00002319  1
  Te  Te32  1  0.24934339  0.24946608  0.24876049  1
  Te  Te33  1  0.24239036  0.24315599  0.75141105  1
  Te  Te34  1  0.25252293  0.75071739  0.24872315  1
  Te  Te35  1  0.26374449  0.75538650  0.75164432  1
  Te  Te36  1  0.75203011  0.24978136  0.24417077  1
  Te  Te37  1  0.75248436  0.24882638  0.75356934  1
  Te  Te38  1  0.74942742  0.75023408  0.24996218  1
  Te  Te39  1  0.74883867  0.75014489  0.75029585  1
  Te  Te40  1  0.23842135  -0.00013346  -0.00975978  1
  Te  Te41  1  0.23929073  -0.00024330  0.50897669  1
  Te  Te42  1  0.25055454  0.49999424  -0.00166847  1
  Te  Te43  1  0.24910567  0.50044593  0.50149946  1
  Te  Te44  1  0.75516555  -0.00082939  -0.00486599  1
  Te  Te45  1  0.75569147  -0.00611013  0.50691573  1
  Te  Te46  1  0.75038428  0.50122259  -0.01142849  1
  Te  Te47  1  0.75136158  0.50350514  0.50513891  1
  Te  Te48  1  -0.00463302  0.24730950  0.00180686  1
  Te  Te49  1  -0.00203953  0.24976989  0.49793071  1
  Te  Te50  1  -0.00528642  0.75314051  0.00853069  1
  Te  Te51  1  -0.00317610  0.74932838  0.49565204  1
  Te  Te52  1  0.50807619  0.25019464  0.00816246  1
  Te  Te53  1  0.50122911  0.25656760  0.49275316  1
  Te  Te54  1  0.50796290  0.75017631  0.00255250  1
  Te  Te55  1  0.50455455  0.74787047  0.49795612  1
  Te  Te56  1  0.00136474  0.00139964  0.25140034  1
  Te  Te57  1  -0.00303763  0.00032917  0.74925012  1
  Te  Te58  1  0.00022672  0.49897871  0.25729906  1
  Te  Te59  1  -0.00274402  0.49287896  0.74489108  1
  Te  Te60  1  0.49721280  -0.00094409  0.25093789  1
  Te  Te61  1  0.50217139  -0.00372409  0.74894130  1
  Te  Te62  1  0.49979872  0.50197535  0.25661955  1
  Te  Te63  1  0.50339495  0.50330257  0.74414322  1
