# generated using pymatgen
data_AgSbTe2
_symmetry_space_group_name_H-M   'P 1'
_cell_length_a   12.21833298
_cell_length_b   12.24112378
_cell_length_c   12.23529859
_cell_angle_alpha   89.99632879
_cell_angle_beta   89.98910999
_cell_angle_gamma   89.99309410
_symmetry_Int_Tables_number   1
_chemical_formula_structural   AgSbTe2
_chemical_formula_sum   'Ag16 Sb16 Te32'
_cell_volume   1829.98616544
_cell_formula_units_Z   16
loop_
 _symmetry_equiv_pos_site_id
 _symmetry_equiv_pos_as_xyz
  1  'x, y, z'
loop_
 _atom_site_type_symbol
 _atom_site_label
 _atom_site_symmetry_multiplicity
 _atom_site_fract_x
 _atom_site_fract_y
 _atom_site_fract_z
 _atom_site_occupancy
  Ag  Ag0  1  0.25732810  0.50515773  0.24361523  1
  Ag  Ag1  1  0.25528146  -0.00388130  0.75251597  1
  Ag  Ag2  1  0.25828975  0.50352487  0.75583621  1
  Ag  Ag3  1  0.01042730  0.50557132  0.00225280  1
  Ag  Ag4  1  0.74130693  0.25192227  0.50001901  1
  Ag  Ag5  1  0.49520837  0.74432555  0.74541554  1
  Ag  Ag6  1  0.49611841  0.74190990  0.25431202  1
  Ag  Ag7  1  0.00576822  -0.00668600  -0.00011618  1
  Ag  Ag8  1  0.49044350  0.50441390  0.00035278  1
  Ag  Ag9  1  0.00467701  0.74623560  0.24591996  1
  Ag  Ag10  1  0.25177897  0.74316057  0.00035920  1
  Ag  Ag11  1  0.49854925  0.25833569  0.25658412  1
  Ag  Ag12  1  0.49865615  0.50150012  0.49962315  1
  Ag  Ag13  1  0.49767474  0.25537989  0.74355327  1
  Ag  Ag14  1  0.74131671  0.74869499  0.49882873  1
  Ag  Ag15  1  0.50005903  -0.00162804  0.50244339  1
  Sb  Sb16  1  0.25824402  0.74884073  0.50010324  1
  Sb  Sb17  1  0.25861648  0.25083514  0.50054491  1
  Sb  Sb18  1  0.00136732  -0.00381584  0.50062437  1
  Sb  Sb19  1  0.25222597  0.25737125  -0.00059289  1
  Sb  Sb20  1  0.00478565  0.74838967  0.75248155  1
  Sb  Sb21  1  0.74788454  -0.00111122  0.25138699  1
  Sb  Sb22  1  0.49515169  -0.00422584  -0.00223357  1
  Sb  Sb23  1  0.74845825  0.74858007  0.00048828  1
  Sb  Sb24  1  0.00201846  0.25206809  0.74962348  1
  Sb  Sb25  1  0.00208667  0.25390714  0.24989545  1
  Sb  Sb26  1  0.74065371  0.50060787  0.74857867  1
  Sb  Sb27  1  0.74112570  0.50076528  0.25102310  1
  Sb  Sb28  1  0.74502361  -0.00128368  0.74802110  1
  Sb  Sb29  1  0.00185590  0.50317426  0.49902905  1
  Sb  Sb30  1  0.74537122  0.25124613  -0.00037786  1
  Sb  Sb31  1  0.25250948  -0.00474858  0.24736020  1
  Te  Te32  1  0.25502564  0.25649580  0.25036710  1
  Te  Te33  1  0.25428897  0.25137873  0.74982507  1
  Te  Te34  1  0.25248467  0.74727983  0.24772710  1
  Te  Te35  1  0.25285223  0.74803626  0.75225224  1
  Te  Te36  1  0.74372357  0.24953559  0.25476097  1
  Te  Te37  1  0.74410434  0.24969824  0.74539476  1
  Te  Te38  1  0.74681127  0.75021584  0.25338794  1
  Te  Te39  1  0.74319450  0.75069860  0.74480389  1
  Te  Te40  1  0.24670598  -0.00649853  -0.00349765  1
  Te  Te41  1  0.25455172  0.00059312  0.50630673  1
  Te  Te42  1  0.25274506  0.50256854  -0.00016812  1
  Te  Te43  1  0.25367114  0.49956220  0.50159995  1
  Te  Te44  1  0.76183202  0.00027850  -0.00050740  1
  Te  Te45  1  0.74478915  -0.00192740  0.50029827  1
  Te  Te46  1  0.75255946  0.49976694  -0.00060854  1
  Te  Te47  1  0.74630813  0.50141457  0.50068120  1
  Te  Te48  1  -0.00170617  0.25265893  0.00094932  1
  Te  Te49  1  -0.01308186  0.24947149  0.49915353  1
  Te  Te50  1  -0.00031225  0.74661154  0.00240611  1
  Te  Te51  1  -0.00996651  0.75053303  0.49390472  1
  Te  Te52  1  0.50123251  0.25352719  0.00024142  1
  Te  Te53  1  0.50121508  0.25151817  0.50007419  1
  Te  Te54  1  0.49876439  0.74842377  0.00107989  1
  Te  Te55  1  0.50038922  0.74845180  0.49899550  1
  Te  Te56  1  0.00206104  -0.00339002  0.24651836  1
  Te  Te57  1  0.00831658  0.00069396  0.75298991  1
  Te  Te58  1  0.00751734  0.50281427  0.24746839  1
  Te  Te59  1  0.01016961  0.49933758  0.75391413  1
  Te  Te60  1  0.49800960  -0.00115900  0.25257161  1
  Te  Te61  1  0.49590474  -0.00068990  0.74953043  1
  Te  Te62  1  0.49796312  0.50217074  0.25001643  1
  Te  Te63  1  0.49761318  0.50139207  0.75009128  1
