# generated using pymatgen
data_AgSbTe2
_symmetry_space_group_name_H-M   'P 1'
_cell_length_a   12.21550520
_cell_length_b   12.21502276
_cell_length_c   12.22191595
_cell_angle_alpha   89.99771052
_cell_angle_beta   89.99910640
_cell_angle_gamma   89.99567250
_symmetry_Int_Tables_number   1
_chemical_formula_structural   AgSbTe2
_chemical_formula_sum   'Ag16 Sb16 Te32'
_cell_volume   1823.66475309
_cell_formula_units_Z   16
loop_
 _symmetry_equiv_pos_site_id
 _symmetry_equiv_pos_as_xyz
  1  'x, y, z'
loop_
 _atom_site_type_symbol
 _atom_site_label
 _atom_site_symmetry_multiplicity
 _atom_site_fract_x
 _atom_site_fract_y
 _atom_site_fract_z
 _atom_site_occupancy
  Ag  Ag0  1  0.24335523  0.49575478  0.24695580  1
  Ag  Ag1  1  0.00219458  0.25589911  0.75508228  1
  Ag  Ag2  1  0.00157835  0.49903279  0.49733395  1
  Ag  Ag3  1  0.75448281  0.74882439  0.50013441  1
  Ag  Ag4  1  0.75088621  0.25114296  0.00020068  1
  Ag  Ag5  1  0.50167900  0.00620893  -0.00113947  1
  Ag  Ag6  1  0.24583115  0.25423610  0.49950139  1
  Ag  Ag7  1  -0.00171601  0.74345753  0.25050441  1
  Ag  Ag8  1  0.49834671  0.49370548  -0.00156382  1
  Ag  Ag9  1  -0.00202329  0.74440606  0.74965412  1
  Ag  Ag10  1  0.00230458  0.49348548  0.00311002  1
  Ag  Ag11  1  0.50130261  0.74769489  0.75231100  1
  Ag  Ag12  1  0.49848025  0.25202323  0.75793176  1
  Ag  Ag13  1  0.24859113  0.25481467  0.00013049  1
  Ag  Ag14  1  0.75189483  0.00127239  0.24740383  1
  Ag  Ag15  1  0.00216013  0.25697257  0.24495922  1
  Sb  Sb16  1  0.24842165  0.74468925  0.00043707  1
  Sb  Sb17  1  0.49760085  0.49816882  0.50162555  1
  Sb  Sb18  1  0.75375426  0.25138375  0.49978353  1
  Sb  Sb19  1  0.25065338  0.00288020  0.75294050  1
  Sb  Sb20  1  -0.00117646  0.00039159  0.49918500  1
  Sb  Sb21  1  0.75821771  0.49836613  0.24795960  1
  Sb  Sb22  1  0.49882339  0.25144570  0.24117438  1
  Sb  Sb23  1  0.24738712  0.49664626  0.75391860  1
  Sb  Sb24  1  0.50231289  0.74773612  0.24808669  1
  Sb  Sb25  1  0.75210193  0.74943313  0.00043047  1
  Sb  Sb26  1  0.24840305  0.00350170  0.24712650  1
  Sb  Sb27  1  0.75242254  0.49942032  0.75161310  1
  Sb  Sb28  1  0.24590947  0.74492405  0.49957350  1
  Sb  Sb29  1  0.74895673  0.00076508  0.75344043  1
  Sb  Sb30  1  -0.00145129  0.00820237  0.00135288  1
  Sb  Sb31  1  0.50171195  0.00138813  0.50035614  1
  Te  Te32  1  0.24687166  0.25216291  0.24833366  1
  Te  Te33  1  0.24798286  0.24970228  0.75192960  1
  Te  Te34  1  0.24298930  0.74648767  0.25133093  1
  Te  Te35  1  0.24845897  0.75187187  0.74860488  1
  Te  Te36  1  0.75397830  0.24657705  0.24820202  1
  Te  Te37  1  0.75100584  0.24839083  0.75268620  1
  Te  Te38  1  0.75445174  0.75369551  0.25203670  1
  Te  Te39  1  0.75277946  0.75185026  0.74670622  1
  Te  Te40  1  0.25793817  0.00901107  0.00146048  1
  Te  Te41  1  0.25099813  0.01073880  0.49790799  1
  Te  Te42  1  0.24798913  0.49565621  0.00451045  1
  Te  Te43  1  0.24584810  0.49448940  0.49219136  1
  Te  Te44  1  0.74552531  0.00485608  0.00411330  1
  Te  Te45  1  0.74897205  -0.00538221  0.49202055  1
  Te  Te46  1  0.74981486  0.49395237  0.00100751  1
  Te  Te47  1  0.75557141  0.50508425  0.49845089  1
  Te  Te48  1  0.00017000  0.25091670  -0.00162027  1
  Te  Te49  1  0.00052098  0.25335792  0.50220060  1
  Te  Te50  1  -0.00006217  0.74493156  -0.00242892  1
  Te  Te51  1  -0.00100381  0.74692634  0.50216242  1
  Te  Te52  1  0.50038392  0.25306266  -0.00207463  1
  Te  Te53  1  0.49748554  0.25132317  0.50957291  1
  Te  Te54  1  0.49990201  0.74723685  -0.00501914  1
  Te  Te55  1  0.50300205  0.74928243  0.50696041  1
  Te  Te56  1  -0.00339468  -0.00127323  0.24855090  1
  Te  Te57  1  -0.00022187  -0.00196796  0.75078638  1
  Te  Te58  1  0.00123339  0.49879393  0.24764308  1
  Te  Te59  1  0.00062819  0.49967344  0.75143210  1
  Te  Te60  1  0.50482241  -0.00115420  0.24454962  1
  Te  Te61  1  0.50021644  0.00012562  0.75530624  1
  Te  Te62  1  0.49213600  0.50147887  0.24501521  1
  Te  Te63  1  0.49960889  0.49986760  0.75395632  1
