# generated using pymatgen
data_AgSbTe2
_symmetry_space_group_name_H-M   'P 1'
_cell_length_a   12.20908825
_cell_length_b   12.20869250
_cell_length_c   12.20963922
_cell_angle_alpha   89.99930958
_cell_angle_beta   89.99895746
_cell_angle_gamma   89.99779131
_symmetry_Int_Tables_number   1
_chemical_formula_structural   AgSbTe2
_chemical_formula_sum   'Ag16 Sb16 Te32'
_cell_volume   1819.93224156
_cell_formula_units_Z   16
loop_
 _symmetry_equiv_pos_site_id
 _symmetry_equiv_pos_as_xyz
  1  'x, y, z'
loop_
 _atom_site_type_symbol
 _atom_site_label
 _atom_site_symmetry_multiplicity
 _atom_site_fract_x
 _atom_site_fract_y
 _atom_site_fract_z
 _atom_site_occupancy
  Ag  Ag0  1  0.49728145  0.50234639  0.50011584  1
  Ag  Ag1  1  0.25285399  0.25281859  -0.00016440  1
  Ag  Ag2  1  0.00570672  0.75064610  0.74796840  1
  Ag  Ag3  1  0.49744839  0.49844330  0.00028922  1
  Ag  Ag4  1  0.00044718  -0.00082663  0.00003378  1
  Ag  Ag5  1  0.74470569  0.49860236  0.24976539  1
  Ag  Ag6  1  0.75059237  0.00099497  0.24978056  1
  Ag  Ag7  1  0.74962697  0.74951696  0.49984834  1
  Ag  Ag8  1  0.49374834  0.74509639  0.74816333  1
  Ag  Ag9  1  0.25071945  0.74689856  0.50673295  1
  Ag  Ag10  1  0.25189790  0.25280846  0.50049905  1
  Ag  Ag11  1  0.50162644  0.25369471  0.24813031  1
  Ag  Ag12  1  0.00040931  -0.00376234  0.50004052  1
  Ag  Ag13  1  0.25076700  0.74705380  -0.00651997  1
  Ag  Ag14  1  0.74757995  0.25069177  0.00438173  1
  Ag  Ag15  1  0.25345817  0.50570395  0.74996561  1
  Sb  Sb16  1  0.49951200  -0.00232065  0.49802660  1
  Sb  Sb17  1  0.00276207  0.50383410  0.50180546  1
  Sb  Sb18  1  -0.00172372  0.24870811  0.24954481  1
  Sb  Sb19  1  0.24965909  0.00111453  0.24997218  1
  Sb  Sb20  1  0.00270007  0.50181921  -0.00160819  1
  Sb  Sb21  1  0.74574243  0.50227946  0.74988590  1
  Sb  Sb22  1  0.74807077  0.25024966  0.49481811  1
  Sb  Sb23  1  0.74950870  0.74984132  0.00031365  1
  Sb  Sb24  1  0.24887009  -0.00796607  0.75016756  1
  Sb  Sb25  1  0.50092274  0.74560677  0.25136412  1
  Sb  Sb26  1  0.49983023  0.00157235  0.00205903  1
  Sb  Sb27  1  0.25512824  0.49835172  0.25007299  1
  Sb  Sb28  1  -0.00032776  0.75143311  0.25217246  1
  Sb  Sb29  1  0.49664695  0.25494789  0.75112234  1
  Sb  Sb30  1  0.00302068  0.24990138  0.75005288  1
  Sb  Sb31  1  0.75174519  -0.00125388  0.74996788  1
  Te  Te32  1  0.25506201  0.25011980  0.24851403  1
  Te  Te33  1  0.25054640  0.25747317  0.75106094  1
  Te  Te34  1  0.25085456  0.75035344  0.25037937  1
  Te  Te35  1  0.25025082  0.74791853  0.74909523  1
  Te  Te36  1  0.74685744  0.25048837  0.24693591  1
  Te  Te37  1  0.75008935  0.25069004  0.75912348  1
  Te  Te38  1  0.74909379  0.75044798  0.25502073  1
  Te  Te39  1  0.75069612  0.74863493  0.74414949  1
  Te  Te40  1  0.24541437  0.00128515  0.00122390  1
  Te  Te41  1  0.24559793  -0.00040223  0.49880966  1
  Te  Te42  1  0.25263890  0.49949667  0.00030954  1
  Te  Te43  1  0.25253907  0.50131296  0.49981217  1
  Te  Te44  1  0.75369929  0.00198553  0.00435055  1
  Te  Te45  1  0.75390937  -0.00202624  0.49625002  1
  Te  Te46  1  0.74637177  0.49765847  0.00228917  1
  Te  Te47  1  0.74633637  0.50214268  0.49818939  1
  Te  Te48  1  0.00266582  0.24523738  -0.00081853  1
  Te  Te49  1  0.00633783  0.24380858  0.50087394  1
  Te  Te50  1  0.00332254  0.75320714  -0.00377183  1
  Te  Te51  1  0.00181725  0.75261504  0.50222808  1
  Te  Te52  1  0.49739433  0.25215192  0.00071890  1
  Te  Te53  1  0.49550731  0.25356945  0.49889128  1
  Te  Te54  1  0.49659013  0.74665884  -0.00203032  1
  Te  Te55  1  0.49788508  0.74721988  0.50107959  1
  Te  Te56  1  -0.00608924  0.00011527  0.24951200  1
  Te  Te57  1  -0.00067410  -0.00631905  0.74997189  1
  Te  Te58  1  -0.01232327  0.49993032  0.25001868  1
  Te  Te59  1  0.00745973  0.50735956  0.74991650  1
  Te  Te60  1  0.50774263  0.00822855  0.25004953  1
  Te  Te61  1  0.50113688  -0.01089926  0.74987757  1
  Te  Te62  1  0.50431425  0.49617096  0.24940436  1
  Te  Te63  1  0.49601818  0.50451983  0.74979630  1
