# generated using pymatgen
data_AgSbTe2
_symmetry_space_group_name_H-M   'P 1'
_cell_length_a   12.27869679
_cell_length_b   12.26449763
_cell_length_c   12.27906233
_cell_angle_alpha   90.00527879
_cell_angle_beta   89.99274430
_cell_angle_gamma   90.00151286
_symmetry_Int_Tables_number   1
_chemical_formula_structural   AgSbTe2
_chemical_formula_sum   'Ag16 Sb16 Te32'
_cell_volume   1849.12911628
_cell_formula_units_Z   16
loop_
 _symmetry_equiv_pos_site_id
 _symmetry_equiv_pos_as_xyz
  1  'x, y, z'
loop_
 _atom_site_type_symbol
 _atom_site_label
 _atom_site_symmetry_multiplicity
 _atom_site_fract_x
 _atom_site_fract_y
 _atom_site_fract_z
 _atom_site_occupancy
  Ag  Ag0  1  0.75793753  -0.00959149  0.74712112  1
  Ag  Ag1  1  0.00004396  0.25015655  0.75381526  1
  Ag  Ag2  1  0.50335103  -0.00984294  0.49946373  1
  Ag  Ag3  1  0.76072674  0.50926966  0.75065123  1
  Ag  Ag4  1  0.23914681  0.51025146  0.75376000  1
  Ag  Ag5  1  0.75744354  0.51558138  0.25065417  1
  Ag  Ag6  1  0.75322823  -0.01680831  0.25484208  1
  Ag  Ag7  1  0.50290475  0.75074770  0.25620963  1
  Ag  Ag8  1  0.00345166  0.50877479  -0.00085103  1
  Ag  Ag9  1  0.24134353  -0.01048799  0.75040700  1
  Ag  Ag10  1  -0.00184110  0.74544026  0.24527035  1
  Ag  Ag11  1  0.74995433  0.75367154  0.49236555  1
  Ag  Ag12  1  0.24161505  0.51180832  0.24649585  1
  Ag  Ag13  1  0.24992932  0.75043657  0.49651108  1
  Ag  Ag14  1  0.00061922  -0.00910410  -0.00438666  1
  Ag  Ag15  1  0.24225744  0.74669352  0.00324561  1
  Sb  Sb16  1  0.75071755  0.24569636  0.50075274  1
  Sb  Sb17  1  0.49566472  0.50777212  0.00107359  1
  Sb  Sb18  1  0.00002422  0.50482236  0.50298896  1
  Sb  Sb19  1  -0.00071572  0.74955575  0.75836184  1
  Sb  Sb20  1  0.49924032  0.24734776  0.25272562  1
  Sb  Sb21  1  0.49867189  -0.00756618  0.00112388  1
  Sb  Sb22  1  0.50009735  0.50858018  0.49808519  1
  Sb  Sb23  1  0.24875023  0.24694850  0.50035799  1
  Sb  Sb24  1  0.24411491  -0.01348419  0.25029796  1
  Sb  Sb25  1  -0.00123645  -0.00564770  0.50462999  1
  Sb  Sb26  1  0.75789959  0.74962435  0.00825324  1
  Sb  Sb27  1  0.75184271  0.25033664  -0.00048931  1
  Sb  Sb28  1  0.00024815  0.25217802  0.24728025  1
  Sb  Sb29  1  0.50013302  0.75159447  0.74313377  1
  Sb  Sb30  1  0.24690434  0.25203343  -0.00029932  1
  Sb  Sb31  1  0.49956895  0.24888126  0.74817018  1
  Te  Te32  1  0.24939568  0.27195416  0.25192904  1
  Te  Te33  1  0.24616172  0.25326560  0.74829119  1
  Te  Te34  1  0.24645932  0.74675413  0.25488613  1
  Te  Te35  1  0.25103180  0.74791892  0.74583419  1
  Te  Te36  1  0.75073624  0.25522558  0.25081224  1
  Te  Te37  1  0.75463800  0.25234204  0.74862713  1
  Te  Te38  1  0.75272574  0.74841528  0.24902905  1
  Te  Te39  1  0.74893781  0.74956967  0.74525778  1
  Te  Te40  1  0.24649645  -0.00299916  -0.00414724  1
  Te  Te41  1  0.24915985  -0.00617728  0.50334567  1
  Te  Te42  1  0.24772881  0.50306349  -0.00465886  1
  Te  Te43  1  0.25082805  0.50867083  0.50443578  1
  Te  Te44  1  0.75460010  -0.00249948  -0.00580428  1
  Te  Te45  1  0.75226832  -0.00528941  0.50216713  1
  Te  Te46  1  0.75601638  0.50283277  -0.00380318  1
  Te  Te47  1  0.74926464  0.50843094  0.50086479  1
  Te  Te48  1  0.00071040  0.24900810  -0.00691196  1
  Te  Te49  1  0.00096728  0.24913318  0.51296426  1
  Te  Te50  1  0.00604912  0.74932289  0.00675801  1
  Te  Te51  1  0.00035878  0.74975044  0.48268692  1
  Te  Te52  1  0.49985388  0.24857619  0.00140154  1
  Te  Te53  1  0.49954164  0.22985105  0.49886196  1
  Te  Te54  1  0.48207303  0.74963473  0.01523256  1
  Te  Te55  1  0.50046324  0.75559982  0.49466001  1
  Te  Te56  1  -0.00379347  0.00426693  0.24369206  1
  Te  Te57  1  -0.00194539  -0.00648508  0.75354120  1
  Te  Te58  1  -0.00292921  0.49680600  0.24627602  1
  Te  Te59  1  -0.00060970  0.50604089  0.75208901  1
  Te  Te60  1  0.50722390  -0.00167860  0.25030503  1
  Te  Te61  1  0.50412760  0.00015146  0.74921507  1
  Te  Te62  1  0.50504690  0.50404106  0.25033100  1
  Te  Te63  1  0.50237527  0.49883280  0.74980916  1
