# generated using pymatgen
data_AgSbTe2
_symmetry_space_group_name_H-M   'P 1'
_cell_length_a   12.22596439
_cell_length_b   12.23143096
_cell_length_c   12.23984277
_cell_angle_alpha   90.00339313
_cell_angle_beta   89.99905709
_cell_angle_gamma   90.00219699
_symmetry_Int_Tables_number   1
_chemical_formula_structural   AgSbTe2
_chemical_formula_sum   'Ag16 Sb16 Te32'
_cell_volume   1830.35880385
_cell_formula_units_Z   16
loop_
 _symmetry_equiv_pos_site_id
 _symmetry_equiv_pos_as_xyz
  1  'x, y, z'
loop_
 _atom_site_type_symbol
 _atom_site_label
 _atom_site_symmetry_multiplicity
 _atom_site_fract_x
 _atom_site_fract_y
 _atom_site_fract_z
 _atom_site_occupancy
  Ag  Ag0  1  0.75081280  0.74730985  0.00206127  1
  Ag  Ag1  1  0.01249284  0.49923577  0.50044144  1
  Ag  Ag2  1  0.24944633  0.49762862  0.76261383  1
  Ag  Ag3  1  0.48719517  0.50075878  0.50211087  1
  Ag  Ag4  1  0.24791697  0.25870099  0.50409744  1
  Ag  Ag5  1  0.24804527  0.26416900  -0.00365505  1
  Ag  Ag6  1  0.00528099  0.74656476  0.24566357  1
  Ag  Ag7  1  0.48465495  0.50435289  -0.00222820  1
  Ag  Ag8  1  0.75391964  -0.00458843  0.24712428  1
  Ag  Ag9  1  0.01463639  0.50252157  0.00011320  1
  Ag  Ag10  1  0.00850847  0.25501555  0.75123956  1
  Ag  Ag11  1  0.49314594  0.74482805  0.75431867  1
  Ag  Ag12  1  0.24743882  -0.00243253  0.24585558  1
  Ag  Ag13  1  0.24686626  0.50185693  0.23658008  1
  Ag  Ag14  1  0.24972438  0.73550847  0.00035131  1
  Ag  Ag15  1  0.24942160  0.00250305  0.75389482  1
  Sb  Sb16  1  0.49093139  0.25490191  0.75116126  1
  Sb  Sb17  1  0.49548278  0.25143221  0.24941834  1
  Sb  Sb18  1  0.00623030  0.74561806  0.75354577  1
  Sb  Sb19  1  0.75310453  0.50298063  0.24730997  1
  Sb  Sb20  1  0.49471496  -0.00079920  0.50120782  1
  Sb  Sb21  1  0.75130386  -0.00327164  0.75227214  1
  Sb  Sb22  1  0.75036768  0.74847089  0.49766494  1
  Sb  Sb23  1  0.49516005  -0.00390465  -0.00076727  1
  Sb  Sb24  1  0.49538631  0.74757169  0.24709473  1
  Sb  Sb25  1  0.24974778  0.74041115  0.49902940  1
  Sb  Sb26  1  0.00440426  -0.00264916  0.00082299  1
  Sb  Sb27  1  0.00498108  0.25311395  0.24872760  1
  Sb  Sb28  1  0.74970790  0.50122778  0.75133069  1
  Sb  Sb29  1  0.75220005  0.25227270  0.50008617  1
  Sb  Sb30  1  0.00518237  -0.00040879  0.49913498  1
  Sb  Sb31  1  0.75156911  0.25232890  -0.00040109  1
  Te  Te32  1  0.24910609  0.24989697  0.24811512  1
  Te  Te33  1  0.24867767  0.25171364  0.75169452  1
  Te  Te34  1  0.24770337  0.74952651  0.24850808  1
  Te  Te35  1  0.25094417  0.74886104  0.75205068  1
  Te  Te36  1  0.75049606  0.23952923  0.24916964  1
  Te  Te37  1  0.76070056  0.24660103  0.75040281  1
  Te  Te38  1  0.75362138  0.75353638  0.24599559  1
  Te  Te39  1  0.74486523  0.75250631  0.75649369  1
  Te  Te40  1  0.25029012  0.00089521  0.00135373  1
  Te  Te41  1  0.25020230  0.00826294  0.49865584  1
  Te  Te42  1  0.24913479  0.50067057  0.00030077  1
  Te  Te43  1  0.24915374  0.49897025  0.50008261  1
  Te  Te44  1  0.74898996  -0.00430240  0.00495241  1
  Te  Te45  1  0.74878973  0.00074213  0.49259645  1
  Te  Te46  1  0.74996675  0.50390665  0.00161466  1
  Te  Te47  1  0.74953440  0.49938313  0.49896653  1
  Te  Te48  1  0.00291909  0.25606572  -0.00211436  1
  Te  Te49  1  0.00329762  0.25561765  0.50246241  1
  Te  Te50  1  0.00293952  0.74660336  0.00196938  1
  Te  Te51  1  -0.00173883  0.74368578  0.49482320  1
  Te  Te52  1  0.49655273  0.25875383  -0.00097406  1
  Te  Te53  1  0.49615945  0.25702416  0.50050406  1
  Te  Te54  1  0.49651983  0.74654934  -0.00197262  1
  Te  Te55  1  0.50128653  0.74333996  0.50608564  1
  Te  Te56  1  0.00616836  -0.00505491  0.25055715  1
  Te  Te57  1  0.00636510  0.00385566  0.74937269  1
  Te  Te58  1  0.00280654  0.50317809  0.24877962  1
  Te  Te59  1  0.00163877  0.49942392  0.75038905  1
  Te  Te60  1  0.49385763  -0.00035337  0.25080635  1
  Te  Te61  1  0.49401869  -0.00552308  0.74887462  1
  Te  Te62  1  0.49642695  0.50085293  0.25018372  1
  Te  Te63  1  0.49862449  0.50205162  0.75107889  1
