# generated using pymatgen
data_AgSbTe2
_symmetry_space_group_name_H-M   'P 1'
_cell_length_a   12.20774831
_cell_length_b   12.21084030
_cell_length_c   12.20614911
_cell_angle_alpha   89.99877572
_cell_angle_beta   89.99374741
_cell_angle_gamma   89.99747424
_symmetry_Int_Tables_number   1
_chemical_formula_structural   AgSbTe2
_chemical_formula_sum   'Ag16 Sb16 Te32'
_cell_volume   1819.53236923
_cell_formula_units_Z   16
loop_
 _symmetry_equiv_pos_site_id
 _symmetry_equiv_pos_as_xyz
  1  'x, y, z'
loop_
 _atom_site_type_symbol
 _atom_site_label
 _atom_site_symmetry_multiplicity
 _atom_site_fract_x
 _atom_site_fract_y
 _atom_site_fract_z
 _atom_site_occupancy
  Ag  Ag0  1  0.24976181  0.00442235  0.24558226  1
  Ag  Ag1  1  0.74898013  0.74762590  0.50098928  1
  Ag  Ag2  1  0.75080912  0.00744378  0.24849412  1
  Ag  Ag3  1  0.00171514  0.25230954  0.75621922  1
  Ag  Ag4  1  0.75597900  0.25015480  0.00436871  1
  Ag  Ag5  1  0.50413510  0.50030610  0.50178182  1
  Ag  Ag6  1  0.49802519  0.00191333  -0.00054351  1
  Ag  Ag7  1  0.00106723  0.74821723  0.75091331  1
  Ag  Ag8  1  0.24488508  0.24731056  -0.00213600  1
  Ag  Ag9  1  0.75140767  0.25230816  0.49506734  1
  Ag  Ag10  1  0.49958009  0.74962266  0.74887408  1
  Ag  Ag11  1  -0.00060162  0.49327647  -0.00299260  1
  Ag  Ag12  1  0.24709631  0.49847579  0.75198024  1
  Ag  Ag13  1  0.24953078  0.00208268  0.75444853  1
  Ag  Ag14  1  0.75178802  0.49309439  0.25158432  1
  Ag  Ag15  1  -0.00571967  0.25012991  0.24468495  1
  Sb  Sb16  1  -0.00236474  0.74997964  0.24883773  1
  Sb  Sb17  1  0.00220281  0.00893305  -0.00023161  1
  Sb  Sb18  1  0.24897392  0.75418539  -0.00281614  1
  Sb  Sb19  1  0.50251069  -0.00070057  0.50190510  1
  Sb  Sb20  1  0.75033397  0.00166745  0.75307869  1
  Sb  Sb21  1  0.24844105  0.25074391  0.50102553  1
  Sb  Sb22  1  0.50145602  0.75095088  0.25111843  1
  Sb  Sb23  1  0.24805588  0.49371208  0.24760069  1
  Sb  Sb24  1  -0.00200879  0.00071133  0.50043253  1
  Sb  Sb25  1  0.50750584  0.24891739  0.24942001  1
  Sb  Sb26  1  0.75160593  0.75099777  -0.00124283  1
  Sb  Sb27  1  0.75255615  0.49883562  0.74860465  1
  Sb  Sb28  1  -0.00433463  0.49869653  0.50278574  1
  Sb  Sb29  1  0.50051743  0.49862428  -0.00212336  1
  Sb  Sb30  1  0.25027683  0.74888667  0.50355417  1
  Sb  Sb31  1  0.49710002  0.25024211  0.75072604  1
  Te  Te32  1  0.24347912  0.24650501  0.24775097  1
  Te  Te33  1  0.24651846  0.24898223  0.75139186  1
  Te  Te34  1  0.24846348  0.75882469  0.25097501  1
  Te  Te35  1  0.24824904  0.75051235  0.74924808  1
  Te  Te36  1  0.75218836  0.24922262  0.24921700  1
  Te  Te37  1  0.75599034  0.24908638  0.75124550  1
  Te  Te38  1  0.75205760  0.75081836  0.25518047  1
  Te  Te39  1  0.75080218  0.75074661  0.74591510  1
  Te  Te40  1  0.25228421  0.00378437  -0.00084576  1
  Te  Te41  1  0.25181582  0.00107035  0.49964581  1
  Te  Te42  1  0.24881571  0.49411487  -0.00291707  1
  Te  Te43  1  0.25710745  0.49909093  0.50432634  1
  Te  Te44  1  0.74596049  0.00336546  0.00437105  1
  Te  Te45  1  0.74832838  0.00164778  0.49359590  1
  Te  Te46  1  0.75111515  0.49565968  0.00391348  1
  Te  Te47  1  0.74726934  0.49861487  0.49787422  1
  Te  Te48  1  -0.00084399  0.25150824  -0.00089780  1
  Te  Te49  1  -0.00589840  0.25103308  0.49988325  1
  Te  Te50  1  -0.00096867  0.74017353  -0.00696367  1
  Te  Te51  1  -0.00691422  0.74897702  0.50698323  1
  Te  Te52  1  0.49972879  0.24615733  -0.00110320  1
  Te  Te53  1  0.50760552  0.25556789  0.50128721  1
  Te  Te54  1  0.50060283  0.75465885  -0.00732178  1
  Te  Te55  1  0.50564792  0.74644650  0.50539263  1
  Te  Te56  1  -0.00076472  0.00305689  0.24995823  1
  Te  Te57  1  0.00549861  -0.00003095  0.75034344  1
  Te  Te58  1  -0.00266791  0.49704095  0.24630363  1
  Te  Te59  1  0.00281491  0.49847566  0.75237709  1
  Te  Te60  1  0.49926702  -0.00133179  0.24559576  1
  Te  Te61  1  0.49529417  -0.00385778  0.75289475  1
  Te  Te62  1  0.50409771  0.50183988  0.25377661  1
  Te  Te63  1  0.49578750  0.50416099  0.74861122  1
