# generated using pymatgen
data_AgSbTe2
_symmetry_space_group_name_H-M   'P 1'
_cell_length_a   12.30817616
_cell_length_b   12.31827938
_cell_length_c   12.29389666
_cell_angle_alpha   89.98538979
_cell_angle_beta   89.98558694
_cell_angle_gamma   89.99234760
_symmetry_Int_Tables_number   1
_chemical_formula_structural   AgSbTe2
_chemical_formula_sum   'Ag16 Sb16 Te32'
_cell_volume   1863.94579920
_cell_formula_units_Z   16
loop_
 _symmetry_equiv_pos_site_id
 _symmetry_equiv_pos_as_xyz
  1  'x, y, z'
loop_
 _atom_site_type_symbol
 _atom_site_label
 _atom_site_symmetry_multiplicity
 _atom_site_fract_x
 _atom_site_fract_y
 _atom_site_fract_z
 _atom_site_occupancy
  Ag  Ag0  1  0.50549011  0.25769085  0.24853439  1
  Ag  Ag1  1  -0.00930934  -0.00006463  0.00817265  1
  Ag  Ag2  1  0.51091208  0.50082333  0.48831696  1
  Ag  Ag3  1  0.74902451  0.50098545  0.75663543  1
  Ag  Ag4  1  0.51450356  0.49496099  0.00986277  1
  Ag  Ag5  1  0.75302765  0.74067981  0.01305748  1
  Ag  Ag6  1  -0.01399887  0.50393847  0.49275237  1
  Ag  Ag7  1  0.74700639  -0.00882351  0.24651563  1
  Ag  Ag8  1  -0.01567634  0.50072566  0.00518154  1
  Ag  Ag9  1  0.51320462  0.74666132  0.25282326  1
  Ag  Ag10  1  0.74454327  0.74051136  0.48476998  1
  Ag  Ag11  1  -0.01704158  0.74692153  0.24562790  1
  Ag  Ag12  1  0.74746453  0.26531243  0.00736917  1
  Ag  Ag13  1  0.50634076  0.00126195  0.48935721  1
  Ag  Ag14  1  0.25827102  0.25355978  0.48910167  1
  Ag  Ag15  1  0.25230160  0.25297119  0.00758249  1
  Sb  Sb16  1  -0.00172962  -0.00106858  0.49304591  1
  Sb  Sb17  1  0.50431815  0.74803118  0.74935654  1
  Sb  Sb18  1  0.25085446  0.49739809  0.75054575  1
  Sb  Sb19  1  0.25180000  0.74693448  0.49579025  1
  Sb  Sb20  1  0.25159033  0.49760291  0.24950474  1
  Sb  Sb21  1  0.74959909  0.00162116  0.75071285  1
  Sb  Sb22  1  0.24984927  0.74620873  0.00399979  1
  Sb  Sb23  1  -0.00796450  0.25297887  0.24669214  1
  Sb  Sb24  1  -0.00479736  0.74799205  0.75330755  1
  Sb  Sb25  1  0.25081571  0.00385722  0.75196940  1
  Sb  Sb26  1  0.25129397  0.00367617  0.24955988  1
  Sb  Sb27  1  0.74790521  0.50615646  0.24665532  1
  Sb  Sb28  1  0.50446455  0.00154826  0.00632656  1
  Sb  Sb29  1  0.50221087  0.25020723  0.75255819  1
  Sb  Sb30  1  0.74634472  0.25762834  0.49046256  1
  Sb  Sb31  1  -0.00223604  0.25121409  0.75078229  1
  Te  Te32  1  0.26076634  0.25029178  0.24896373  1
  Te  Te33  1  0.24971190  0.24985267  0.75421308  1
  Te  Te34  1  0.25367018  0.75177092  0.24953362  1
  Te  Te35  1  0.25002045  0.75210104  0.74999752  1
  Te  Te36  1  0.74383214  0.23556933  0.24422803  1
  Te  Te37  1  0.75080461  0.25367411  0.76597127  1
  Te  Te38  1  0.74863768  0.75249314  0.25049771  1
  Te  Te39  1  0.74956843  0.74587031  0.75114053  1
  Te  Te40  1  0.24509027  0.00797971  -0.00164884  1
  Te  Te41  1  0.25056920  0.00771560  0.50145930  1
  Te  Te42  1  0.25129443  0.49547251  -0.00025945  1
  Te  Te43  1  0.25197304  0.49489759  0.50027800  1
  Te  Te44  1  0.75026240  -0.00746961  -0.00141468  1
  Te  Te45  1  0.74982745  -0.00206984  0.50301082  1
  Te  Te46  1  0.74749139  0.50280412  0.00316823  1
  Te  Te47  1  0.75129545  0.50204730  0.49864842  1
  Te  Te48  1  -0.00153832  0.25980640  0.00173616  1
  Te  Te49  1  0.00259807  0.25405227  0.49869336  1
  Te  Te50  1  0.00166489  0.74071582  0.00253687  1
  Te  Te51  1  0.00179958  0.74732744  0.49659155  1
  Te  Te52  1  0.50208814  0.24889435  0.00105164  1
  Te  Te53  1  0.50204716  0.25943639  0.49798495  1
  Te  Te54  1  0.49831901  0.75183155  0.00341852  1
  Te  Te55  1  0.50024131  0.73956232  0.49798507  1
  Te  Te56  1  -0.00512959  -0.00331480  0.24499981  1
  Te  Te57  1  0.00183386  0.00061242  0.76449047  1
  Te  Te58  1  0.00157059  0.50363540  0.25123101  1
  Te  Te59  1  -0.00516890  0.49943849  0.74994456  1
  Te  Te60  1  0.50206701  -0.00410017  0.25391719  1
  Te  Te61  1  0.49791150  -0.00056075  0.72917010  1
  Te  Te62  1  0.50056946  0.49927306  0.24791633  1
  Te  Te63  1  0.50392810  0.50028645  0.75361448  1
