# generated using pymatgen
data_AgSbTe2
_symmetry_space_group_name_H-M   'P 1'
_cell_length_a   12.21747773
_cell_length_b   12.21538127
_cell_length_c   12.22087630
_cell_angle_alpha   89.99961993
_cell_angle_beta   90.00628748
_cell_angle_gamma   90.00741932
_symmetry_Int_Tables_number   1
_chemical_formula_structural   AgSbTe2
_chemical_formula_sum   'Ag16 Sb16 Te32'
_cell_volume   1823.85758950
_cell_formula_units_Z   16
loop_
 _symmetry_equiv_pos_site_id
 _symmetry_equiv_pos_as_xyz
  1  'x, y, z'
loop_
 _atom_site_type_symbol
 _atom_site_label
 _atom_site_symmetry_multiplicity
 _atom_site_fract_x
 _atom_site_fract_y
 _atom_site_fract_z
 _atom_site_occupancy
  Ag  Ag0  1  -0.00217973  0.75803571  0.74870576  1
  Ag  Ag1  1  0.75759192  0.24148156  -0.00007479  1
  Ag  Ag2  1  0.75766152  0.00069453  0.75240676  1
  Ag  Ag3  1  0.24741462  0.75721695  0.00001343  1
  Ag  Ag4  1  0.50226075  0.00044357  0.00147587  1
  Ag  Ag5  1  0.24165590  0.24901510  0.50003955  1
  Ag  Ag6  1  0.50199227  0.75321119  0.25005939  1
  Ag  Ag7  1  -0.00068061  0.24235680  0.75017744  1
  Ag  Ag8  1  -0.00060847  0.49587447  0.50093814  1
  Ag  Ag9  1  0.24229213  0.24404181  -0.00004036  1
  Ag  Ag10  1  0.50136528  0.50005586  0.49819367  1
  Ag  Ag11  1  -0.00348873  0.00411134  0.50441428  1
  Ag  Ag12  1  -0.00054469  0.24488978  0.24973264  1
  Ag  Ag13  1  0.75325729  0.75366722  0.49996008  1
  Ag  Ag14  1  0.75344049  0.00065432  0.24722032  1
  Ag  Ag15  1  -0.00336167  0.00610003  -0.00392128  1
  Sb  Sb16  1  0.24761463  0.49915453  0.74896510  1
  Sb  Sb17  1  -0.00005777  0.49475248  -0.00007602  1
  Sb  Sb18  1  0.50188976  0.75352961  0.75027165  1
  Sb  Sb19  1  0.75237350  0.75935464  -0.00035912  1
  Sb  Sb20  1  0.24056291  0.00046986  0.75275611  1
  Sb  Sb21  1  0.75335296  0.49942515  0.74828614  1
  Sb  Sb22  1  0.24852840  0.49930870  0.25122820  1
  Sb  Sb23  1  0.50094318  0.24688930  0.74979989  1
  Sb  Sb24  1  0.75164131  0.49970013  0.25204707  1
  Sb  Sb25  1  0.50304272  0.00050167  0.49836090  1
  Sb  Sb26  1  -0.00166618  0.75530967  0.25010261  1
  Sb  Sb27  1  0.49976263  0.50018026  0.00204362  1
  Sb  Sb28  1  0.75843214  0.24630433  0.50026544  1
  Sb  Sb29  1  0.24614880  0.00085755  0.24756378  1
  Sb  Sb30  1  0.50181150  0.24721216  0.25015032  1
  Sb  Sb31  1  0.24653215  0.75137840  0.50037477  1
  Te  Te32  1  0.24551370  0.24985059  0.24845019  1
  Te  Te33  1  0.24451723  0.24981011  0.75149482  1
  Te  Te34  1  0.25492281  0.74991828  0.24424674  1
  Te  Te35  1  0.24399868  0.74978884  0.75582887  1
  Te  Te36  1  0.75314391  0.24442622  0.24716534  1
  Te  Te37  1  0.75475692  0.24488662  0.75279518  1
  Te  Te38  1  0.74750312  0.75470136  0.25270332  1
  Te  Te39  1  0.75494384  0.75438581  0.74701917  1
  Te  Te40  1  0.24881209  0.00236439  0.00040856  1
  Te  Te41  1  0.24613823  0.00508275  0.49950646  1
  Te  Te42  1  0.25146752  0.49681529  0.00012398  1
  Te  Te43  1  0.24768740  0.49583097  0.49996348  1
  Te  Te44  1  0.75339495  0.00173726  0.00045104  1
  Te  Te45  1  0.75210873  -0.00229585  0.49966944  1
  Te  Te46  1  0.74850473  0.48926165  0.00010102  1
  Te  Te47  1  0.75138142  0.50522384  0.49979687  1
  Te  Te48  1  0.00220850  0.25081681  -0.00073657  1
  Te  Te49  1  0.00030359  0.24776259  0.50086901  1
  Te  Te50  1  0.00275745  0.75041263  -0.00137389  1
  Te  Te51  1  0.00044649  0.75208590  0.50079643  1
  Te  Te52  1  0.49639654  0.24698322  0.00064177  1
  Te  Te53  1  0.49281175  0.25312190  0.49916686  1
  Te  Te54  1  0.49695520  0.75254288  0.00173089  1
  Te  Te55  1  0.49972719  0.74892393  0.49855847  1
  Te  Te56  1  -0.00465371  0.00292793  0.24885181  1
  Te  Te57  1  -0.00319167  0.00106287  0.75099297  1
  Te  Te58  1  -0.00124629  0.49282721  0.25689246  1
  Te  Te59  1  -0.00142263  0.49957541  0.74397209  1
  Te  Te60  1  0.50717434  -0.00358177  0.24648862  1
  Te  Te61  1  0.51125193  -0.00002234  0.75573185  1
  Te  Te62  1  0.50135470  0.50640684  0.25553785  1
  Te  Te63  1  0.50135043  0.50018715  0.74107356  1
