# generated using pymatgen
data_AgSbTe2
_symmetry_space_group_name_H-M   'P 1'
_cell_length_a   12.26187373
_cell_length_b   12.26999025
_cell_length_c   12.25745244
_cell_angle_alpha   90.00063273
_cell_angle_beta   89.98688846
_cell_angle_gamma   89.99903896
_symmetry_Int_Tables_number   1
_chemical_formula_structural   AgSbTe2
_chemical_formula_sum   'Ag16 Sb16 Te32'
_cell_volume   1844.17131423
_cell_formula_units_Z   16
loop_
 _symmetry_equiv_pos_site_id
 _symmetry_equiv_pos_as_xyz
  1  'x, y, z'
loop_
 _atom_site_type_symbol
 _atom_site_label
 _atom_site_symmetry_multiplicity
 _atom_site_fract_x
 _atom_site_fract_y
 _atom_site_fract_z
 _atom_site_occupancy
  Ag  Ag0  1  0.75202736  0.76577742  0.00081821  1
  Ag  Ag1  1  0.75673816  0.23650057  0.49611040  1
  Ag  Ag2  1  -0.00735361  0.23786132  0.24806016  1
  Ag  Ag3  1  -0.00898998  0.50126828  0.49824002  1
  Ag  Ag4  1  0.75193430  0.50448449  0.74789006  1
  Ag  Ag5  1  -0.01400673  -0.00077150  0.01140910  1
  Ag  Ag6  1  0.75906183  -0.00054871  0.24930157  1
  Ag  Ag7  1  0.24513447  0.24141052  0.00307042  1
  Ag  Ag8  1  0.75533151  0.23363444  0.00506518  1
  Ag  Ag9  1  0.50791750  0.75450379  0.75343595  1
  Ag  Ag10  1  -0.01794244  -0.00122506  0.48783333  1
  Ag  Ag11  1  0.51764466  -0.00305212  0.49897176  1
  Ag  Ag12  1  0.24759732  0.75842821  0.00093799  1
  Ag  Ag13  1  0.51312553  -0.00384465  0.00059792  1
  Ag  Ag14  1  0.75466551  0.76329233  0.49910571  1
  Ag  Ag15  1  -0.00751666  0.76223496  0.24865240  1
  Sb  Sb16  1  0.50424592  0.24399095  0.75061433  1
  Sb  Sb17  1  -0.00423073  0.24964017  0.75395496  1
  Sb  Sb18  1  0.75245288  0.50106490  0.25321064  1
  Sb  Sb19  1  0.50448923  0.50581943  -0.00227317  1
  Sb  Sb20  1  -0.00358188  0.50011382  0.00169628  1
  Sb  Sb21  1  0.50948180  0.75680725  0.24771664  1
  Sb  Sb22  1  -0.00863965  0.75025672  0.75229871  1
  Sb  Sb23  1  0.51002167  0.24353570  0.24920672  1
  Sb  Sb24  1  0.24618837  0.50284049  0.74946386  1
  Sb  Sb25  1  0.24103098  0.24581948  0.49513690  1
  Sb  Sb26  1  0.24534681  0.75345905  0.49788943  1
  Sb  Sb27  1  0.23570134  -0.00027091  0.24484689  1
  Sb  Sb28  1  0.24998950  -0.00269536  0.75504266  1
  Sb  Sb29  1  0.51207642  0.50502652  0.50452579  1
  Sb  Sb30  1  0.75012065  -0.00673397  0.75016070  1
  Sb  Sb31  1  0.24614262  0.50048478  0.24975869  1
  Te  Te32  1  0.23715220  0.24951132  0.24044858  1
  Te  Te33  1  0.25311403  0.25384506  0.76467485  1
  Te  Te34  1  0.23759009  0.75071650  0.24012292  1
  Te  Te35  1  0.26211482  0.74785573  0.76113960  1
  Te  Te36  1  0.75608714  0.24714235  0.24872865  1
  Te  Te37  1  0.74894627  0.26293023  0.75012842  1
  Te  Te38  1  0.75563719  0.75246760  0.24952706  1
  Te  Te39  1  0.74708100  0.74533120  0.75057420  1
  Te  Te40  1  0.25038201  -0.00100201  0.00197601  1
  Te  Te41  1  0.25141268  0.00114122  0.49934104  1
  Te  Te42  1  0.24959320  0.49990605  -0.00125913  1
  Te  Te43  1  0.23719142  0.49857867  0.50144374  1
  Te  Te44  1  0.75209067  -0.00055184  -0.00647764  1
  Te  Te45  1  0.75256057  -0.00099040  0.50705803  1
  Te  Te46  1  0.75115495  0.49980660  -0.00455892  1
  Te  Te47  1  0.75507598  0.50069884  0.50013907  1
  Te  Te48  1  -0.00596580  0.24987120  0.00214654  1
  Te  Te49  1  -0.00314570  0.24241360  0.49612592  1
  Te  Te50  1  -0.00492535  0.75042115  0.00050307  1
  Te  Te51  1  -0.00150939  0.75733532  0.49898083  1
  Te  Te52  1  0.50379619  0.23988900  0.00099342  1
  Te  Te53  1  0.50618427  0.24081211  0.49938684  1
  Te  Te54  1  0.50480279  0.75581613  0.00140535  1
  Te  Te55  1  0.50241857  0.75536872  0.49911389  1
  Te  Te56  1  -0.00760564  -0.00083429  0.24874268  1
  Te  Te57  1  0.00143628  -0.00107949  0.74865085  1
  Te  Te58  1  -0.00370832  0.50040226  0.25886217  1
  Te  Te59  1  -0.00755839  0.50049292  0.73809716  1
  Te  Te60  1  0.51578105  -0.00134768  0.24972730  1
  Te  Te61  1  0.49932320  -0.00748240  0.75103953  1
  Te  Te62  1  0.49922931  0.49971792  0.25228058  1
  Te  Te63  1  0.50805805  0.51170311  0.74818716  1
