# generated using pymatgen
data_AgSbTe2
_symmetry_space_group_name_H-M   'P 1'
_cell_length_a   12.21806797
_cell_length_b   12.21651317
_cell_length_c   12.21430672
_cell_angle_alpha   89.99272099
_cell_angle_beta   89.99743215
_cell_angle_gamma   89.99862033
_symmetry_Int_Tables_number   1
_chemical_formula_structural   AgSbTe2
_chemical_formula_sum   'Ag16 Sb16 Te32'
_cell_volume   1823.13413198
_cell_formula_units_Z   16
loop_
 _symmetry_equiv_pos_site_id
 _symmetry_equiv_pos_as_xyz
  1  'x, y, z'
loop_
 _atom_site_type_symbol
 _atom_site_label
 _atom_site_symmetry_multiplicity
 _atom_site_fract_x
 _atom_site_fract_y
 _atom_site_fract_z
 _atom_site_occupancy
  Ag  Ag0  1  0.00028653  0.49653699  0.50201008  1
  Ag  Ag1  1  0.24799001  0.50045430  0.25402007  1
  Ag  Ag2  1  0.74983506  0.25428443  0.50789604  1
  Ag  Ag3  1  0.49734830  0.00247963  0.50695468  1
  Ag  Ag4  1  0.25165565  0.74873861  0.50449243  1
  Ag  Ag5  1  0.75137873  0.25259679  -0.00782343  1
  Ag  Ag6  1  0.25041159  0.25135207  0.50507582  1
  Ag  Ag7  1  0.50404585  0.24860591  0.74568989  1
  Ag  Ag8  1  0.75127819  0.49831318  0.25076733  1
  Ag  Ag9  1  0.25223831  -0.00062668  0.74754252  1
  Ag  Ag10  1  -0.00421176  0.25059914  0.74758209  1
  Ag  Ag11  1  0.49772397  0.75155393  0.74894484  1
  Ag  Ag12  1  -0.00006553  0.00073304  -0.00511075  1
  Ag  Ag13  1  0.24999265  0.75019096  -0.00472568  1
  Ag  Ag14  1  0.75017578  0.74758000  -0.00415927  1
  Ag  Ag15  1  0.75050753  0.49401292  0.74935886  1
  Sb  Sb16  1  0.74766505  0.00598272  0.75034230  1
  Sb  Sb17  1  0.49943925  0.49715828  0.50229162  1
  Sb  Sb18  1  0.00215361  0.00355841  0.50537668  1
  Sb  Sb19  1  0.24846354  0.50035680  0.74624603  1
  Sb  Sb20  1  0.50201038  0.49995138  -0.00267399  1
  Sb  Sb21  1  0.50048730  0.25101292  0.25460296  1
  Sb  Sb22  1  0.50006139  0.74896016  0.25153237  1
  Sb  Sb23  1  0.74808928  0.74548296  0.50487598  1
  Sb  Sb24  1  0.00090689  0.75036874  0.75073118  1
  Sb  Sb25  1  0.24901020  0.25046323  -0.00535223  1
  Sb  Sb26  1  -0.00043717  0.25275865  0.25266394  1
  Sb  Sb27  1  0.49902444  -0.00002528  -0.00609790  1
  Sb  Sb28  1  -0.00024076  0.74719396  0.24979231  1
  Sb  Sb29  1  0.24958714  -0.00017997  0.25182141  1
  Sb  Sb30  1  -0.00271335  0.49849846  -0.00324411  1
  Sb  Sb31  1  0.75031854  0.00041844  0.24941916  1
  Te  Te32  1  0.25132116  0.25575250  0.25575321  1
  Te  Te33  1  0.25131216  0.25039597  0.74763628  1
  Te  Te34  1  0.25070802  0.74522120  0.25007560  1
  Te  Te35  1  0.25149483  0.74979541  0.74985540  1
  Te  Te36  1  0.74906197  0.25629733  0.24962190  1
  Te  Te37  1  0.74903620  0.24960564  0.74922773  1
  Te  Te38  1  0.74900374  0.74307422  0.24336951  1
  Te  Te39  1  0.74757745  0.74673089  0.75297601  1
  Te  Te40  1  0.24813503  -0.00313547  -0.00193571  1
  Te  Te41  1  0.24960351  0.00062780  0.50225181  1
  Te  Te42  1  0.24822045  0.50505154  0.00581662  1
  Te  Te43  1  0.24763564  0.49952063  0.49927781  1
  Te  Te44  1  0.75300126  -0.00103881  0.00118478  1
  Te  Te45  1  0.74863988  0.00441623  0.49791922  1
  Te  Te46  1  0.75133431  0.49996334  -0.00025501  1
  Te  Te47  1  0.75252746  0.49815665  0.50060282  1
  Te  Te48  1  -0.00346243  0.24790437  -0.00566095  1
  Te  Te49  1  -0.00015817  0.25116770  0.50411473  1
  Te  Te50  1  -0.00021618  0.75328052  -0.00089399  1
  Te  Te51  1  0.00538819  0.74698160  0.50070398  1
  Te  Te52  1  0.50544634  0.24806311  -0.00769918  1
  Te  Te53  1  0.49960870  0.24772860  0.50406760  1
  Te  Te54  1  0.49982374  0.75120439  -0.00603998  1
  Te  Te55  1  0.49630383  0.75443816  0.50530922  1
  Te  Te56  1  0.00033655  0.00082484  0.23951226  1
  Te  Te57  1  0.00599638  0.00476219  0.75350597  1
  Te  Te58  1  -0.00088335  0.49913455  0.25700638  1
  Te  Te59  1  -0.00462163  0.49482154  0.74551796  1
  Te  Te60  1  0.49948283  0.00005852  0.26096140  1
  Te  Te61  1  0.49615123  0.00025763  0.74561916  1
  Te  Te62  1  0.50149785  0.50000274  0.24992944  1
  Te  Te63  1  0.50627645  0.49956935  0.74982474  1
