# generated using pymatgen
data_AgSbTe2
_symmetry_space_group_name_H-M   'P 1'
_cell_length_a   12.32108611
_cell_length_b   12.31924463
_cell_length_c   12.32144679
_cell_angle_alpha   90.00684470
_cell_angle_beta   90.00513902
_cell_angle_gamma   89.99914840
_symmetry_Int_Tables_number   1
_chemical_formula_structural   AgSbTe2
_chemical_formula_sum   'Ag16 Sb16 Te32'
_cell_volume   1870.22893898
_cell_formula_units_Z   16
loop_
 _symmetry_equiv_pos_site_id
 _symmetry_equiv_pos_as_xyz
  1  'x, y, z'
loop_
 _atom_site_type_symbol
 _atom_site_label
 _atom_site_symmetry_multiplicity
 _atom_site_fract_x
 _atom_site_fract_y
 _atom_site_fract_z
 _atom_site_occupancy
  Ag  Ag0  1  0.52026337  0.75314387  0.75133419  1
  Ag  Ag1  1  -0.00475536  0.50607929  0.49476972  1
  Ag  Ag2  1  0.22962384  -0.00338107  0.25623722  1
  Ag  Ag3  1  0.23962500  0.24135469  0.49670889  1
  Ag  Ag4  1  0.51996031  0.75381200  0.24903517  1
  Ag  Ag5  1  -0.01440782  0.76381131  0.74886933  1
  Ag  Ag6  1  0.76650460  -0.01660912  0.75160257  1
  Ag  Ag7  1  0.00179370  -0.00321079  0.48597795  1
  Ag  Ag8  1  -0.00209061  0.22767891  0.25672103  1
  Ag  Ag9  1  0.75963101  0.51981267  0.25142615  1
  Ag  Ag10  1  -0.01575069  0.76461690  0.25080489  1
  Ag  Ag11  1  0.75530057  0.75399725  0.00099249  1
  Ag  Ag12  1  -0.00412619  -0.00591484  0.02036129  1
  Ag  Ag13  1  0.76820983  -0.01743349  0.24785845  1
  Ag  Ag14  1  0.23108777  -0.00444341  0.74369841  1
  Ag  Ag15  1  0.75759723  0.52028611  0.74846510  1
  Sb  Sb16  1  0.50102346  0.24579834  0.74749021  1
  Sb  Sb17  1  0.50453757  -0.00350782  0.00032537  1
  Sb  Sb18  1  0.24144607  0.50771659  0.74331119  1
  Sb  Sb19  1  0.24279779  0.24304406  0.00002470  1
  Sb  Sb20  1  0.50861109  0.50200722  0.49958688  1
  Sb  Sb21  1  0.24356797  0.75330044  0.00027123  1
  Sb  Sb22  1  0.75221195  0.75407013  0.50020672  1
  Sb  Sb23  1  0.24547307  0.75395865  0.49931928  1
  Sb  Sb24  1  0.50222735  0.24631974  0.25187941  1
  Sb  Sb25  1  -0.00001082  0.23945205  0.74594745  1
  Sb  Sb26  1  0.24082131  0.50495066  0.25477102  1
  Sb  Sb27  1  0.75582199  0.24419899  0.00022380  1
  Sb  Sb28  1  0.75389455  0.24709250  0.49923222  1
  Sb  Sb29  1  -0.00347877  0.50530885  0.00151796  1
  Sb  Sb30  1  0.50579950  0.50624778  0.00036582  1
  Sb  Sb31  1  0.49931273  -0.00060161  0.49907604  1
  Te  Te32  1  0.25143190  0.24653376  0.24905947  1
  Te  Te33  1  0.25151839  0.24095908  0.75228338  1
  Te  Te34  1  0.24811757  0.75388575  0.24750153  1
  Te  Te35  1  0.24625205  0.75543122  0.75272354  1
  Te  Te36  1  0.74992493  0.24784655  0.24846487  1
  Te  Te37  1  0.74861091  0.25122473  0.75108351  1
  Te  Te38  1  0.75120332  0.75089681  0.25819587  1
  Te  Te39  1  0.75288624  0.75081583  0.74014901  1
  Te  Te40  1  0.24179960  -0.00264318  -0.00065110  1
  Te  Te41  1  0.25018902  0.00070464  0.49931668  1
  Te  Te42  1  0.25200046  0.49836415  -0.00145859  1
  Te  Te43  1  0.23764240  0.49061832  0.50020655  1
  Te  Te44  1  0.75384198  -0.00466035  -0.00092431  1
  Te  Te45  1  0.75292681  0.00495848  0.50076515  1
  Te  Te46  1  0.75023879  0.50855765  -0.00092478  1
  Te  Te47  1  0.75608551  0.49349318  0.49979358  1
  Te  Te48  1  -0.00192346  0.24030835  0.01134776  1
  Te  Te49  1  0.00112023  0.24534697  0.49757751  1
  Te  Te50  1  -0.00512178  0.75359815  -0.00147803  1
  Te  Te51  1  0.00174338  0.75121237  0.50041016  1
  Te  Te52  1  0.49987695  0.25134924  -0.00117008  1
  Te  Te53  1  0.48380562  0.25123084  0.50106717  1
  Te  Te54  1  0.51208847  0.75124068  0.00039162  1
  Te  Te55  1  0.49251333  0.74785804  0.49965589  1
  Te  Te56  1  0.00029127  -0.00037107  0.25296920  1
  Te  Te57  1  -0.00201704  0.00129239  0.74243603  1
  Te  Te58  1  -0.00230455  0.51003173  0.24985312  1
  Te  Te59  1  -0.00246076  0.50063028  0.75269695  1
  Te  Te60  1  0.50430647  -0.00494777  0.25067536  1
  Te  Te61  1  0.50591146  -0.00378961  0.74946521  1
  Te  Te62  1  0.50869525  0.50731975  0.25069669  1
  Te  Te63  1  0.50628191  0.50774617  0.74940891  1
