# generated using pymatgen
data_AgSbTe2
_symmetry_space_group_name_H-M   'P 1'
_cell_length_a   12.21905448
_cell_length_b   12.22939158
_cell_length_c   12.21815801
_cell_angle_alpha   89.99431183
_cell_angle_beta   89.98922329
_cell_angle_gamma   89.99968844
_symmetry_Int_Tables_number   1
_chemical_formula_structural   AgSbTe2
_chemical_formula_sum   'Ag16 Sb16 Te32'
_cell_volume   1825.77888337
_cell_formula_units_Z   16
loop_
 _symmetry_equiv_pos_site_id
 _symmetry_equiv_pos_as_xyz
  1  'x, y, z'
loop_
 _atom_site_type_symbol
 _atom_site_label
 _atom_site_symmetry_multiplicity
 _atom_site_fract_x
 _atom_site_fract_y
 _atom_site_fract_z
 _atom_site_occupancy
  Ag  Ag0  1  0.49645283  0.75220575  0.25305425  1
  Ag  Ag1  1  0.49184583  0.50316534  0.50360435  1
  Ag  Ag2  1  0.24885100  0.75431961  0.50318271  1
  Ag  Ag3  1  0.01110136  -0.00535983  0.50512259  1
  Ag  Ag4  1  0.00265514  0.50133333  -0.00606560  1
  Ag  Ag5  1  0.25009290  -0.00245644  0.25476680  1
  Ag  Ag6  1  0.00778808  0.50515374  0.50643955  1
  Ag  Ag7  1  0.49430753  0.24943039  0.75014936  1
  Ag  Ag8  1  0.24661353  0.50031956  0.74627015  1
  Ag  Ag9  1  0.75454256  0.75071759  -0.00154814  1
  Ag  Ag10  1  0.24773014  0.24737689  -0.00535265  1
  Ag  Ag11  1  0.48861827  -0.00343300  0.50157254  1
  Ag  Ag12  1  0.75289574  0.24938120  -0.00366975  1
  Ag  Ag13  1  0.00486357  0.75025722  0.74969644  1
  Ag  Ag14  1  0.00442324  -0.00095577  -0.00411088  1
  Ag  Ag15  1  0.24687553  -0.00053161  0.74537335  1
  Sb  Sb16  1  0.49450998  -0.00000207  -0.00195782  1
  Sb  Sb17  1  0.49539076  0.75018053  0.74735306  1
  Sb  Sb18  1  0.74959321  0.24918620  0.50365258  1
  Sb  Sb19  1  0.75378215  -0.00010050  0.75209672  1
  Sb  Sb20  1  0.74943127  0.50143978  0.24861230  1
  Sb  Sb21  1  0.00260259  0.75196919  0.25062355  1
  Sb  Sb22  1  0.24607554  0.75100657  -0.00295189  1
  Sb  Sb23  1  0.25045798  0.24623688  0.50477340  1
  Sb  Sb24  1  0.25064158  0.50186707  0.25339656  1
  Sb  Sb25  1  0.75066478  0.75053908  0.50124741  1
  Sb  Sb26  1  0.49699166  0.50019468  -0.00334456  1
  Sb  Sb27  1  0.00305005  0.24872818  0.24755127  1
  Sb  Sb28  1  0.49666670  0.24843908  0.25081473  1
  Sb  Sb29  1  0.75427616  0.50005037  0.75178730  1
  Sb  Sb30  1  0.00473231  0.24958913  0.75333759  1
  Sb  Sb31  1  0.74911137  -0.00160694  0.24785932  1
  Te  Te32  1  0.25083833  0.24220569  0.23884039  1
  Te  Te33  1  0.25435051  0.24978332  0.75416576  1
  Te  Te34  1  0.25460875  0.75460015  0.25541387  1
  Te  Te35  1  0.24585912  0.75032898  0.74628384  1
  Te  Te36  1  0.74878873  0.25006301  0.23803820  1
  Te  Te37  1  0.73949965  0.24995673  0.75669262  1
  Te  Te38  1  0.74208742  0.75069180  0.24336131  1
  Te  Te39  1  0.75820347  0.75013603  0.75642800  1
  Te  Te40  1  0.24656077  0.00045264  -0.00315221  1
  Te  Te41  1  0.24840950  0.00137465  0.50288164  1
  Te  Te42  1  0.24556594  0.49900282  -0.00254278  1
  Te  Te43  1  0.24785082  0.49956057  0.50195141  1
  Te  Te44  1  0.75719906  0.00015601  0.00043838  1
  Te  Te45  1  0.75238611  0.00091724  0.49969645  1
  Te  Te46  1  0.75600453  0.49958506  -0.00043852  1
  Te  Te47  1  0.75297323  0.49921250  0.50001490  1
  Te  Te48  1  0.00087588  0.24973784  -0.00090498  1
  Te  Te49  1  -0.00249746  0.25087637  0.50003621  1
  Te  Te50  1  -0.00072808  0.74989862  -0.00074202  1
  Te  Te51  1  0.00113101  0.75058546  0.50128447  1
  Te  Te52  1  0.49932063  0.25106647  -0.00372172  1
  Te  Te53  1  0.50187411  0.25014771  0.50354415  1
  Te  Te54  1  0.50530822  0.74881664  0.00343815  1
  Te  Te55  1  0.50006346  0.75101692  0.49973635  1
  Te  Te56  1  0.00592186  -0.00055352  0.25083817  1
  Te  Te57  1  0.00345915  -0.00097109  0.74948511  1
  Te  Te58  1  0.00051705  0.49983619  0.25175453  1
  Te  Te59  1  0.00397923  0.50097419  0.74928369  1
  Te  Te60  1  0.49509276  -0.00297433  0.25491930  1
  Te  Te61  1  0.49424751  0.00110309  0.74603681  1
  Te  Te62  1  0.49907402  0.50435800  0.25821491  1
  Te  Te63  1  0.49353938  0.49941303  0.74538702  1
