# generated using pymatgen
data_AgSbTe2
_symmetry_space_group_name_H-M   'P 1'
_cell_length_a   12.27685392
_cell_length_b   12.27350419
_cell_length_c   12.28330402
_cell_angle_alpha   90.00620321
_cell_angle_beta   90.00729664
_cell_angle_gamma   89.99230282
_symmetry_Int_Tables_number   1
_chemical_formula_structural   AgSbTe2
_chemical_formula_sum   'Ag16 Sb16 Te32'
_cell_volume   1850.84842921
_cell_formula_units_Z   16
loop_
 _symmetry_equiv_pos_site_id
 _symmetry_equiv_pos_as_xyz
  1  'x, y, z'
loop_
 _atom_site_type_symbol
 _atom_site_label
 _atom_site_symmetry_multiplicity
 _atom_site_fract_x
 _atom_site_fract_y
 _atom_site_fract_z
 _atom_site_occupancy
  Ag  Ag0  1  0.50048772  0.76232814  0.75826776  1
  Ag  Ag1  1  0.74942702  -0.00340557  0.75357461  1
  Ag  Ag2  1  0.49492063  0.76170355  0.24034333  1
  Ag  Ag3  1  0.00805019  0.24087874  0.76416336  1
  Ag  Ag4  1  0.25457688  0.00803917  0.23982171  1
  Ag  Ag5  1  0.00610126  0.49108283  -0.00201634  1
  Ag  Ag6  1  0.01437045  0.24336785  0.23511529  1
  Ag  Ag7  1  0.48856146  0.00246814  -0.00082727  1
  Ag  Ag8  1  0.24469006  0.23693709  0.00450374  1
  Ag  Ag9  1  -0.00016967  0.76025101  0.75867985  1
  Ag  Ag10  1  0.48626978  0.23843183  0.23932921  1
  Ag  Ag11  1  0.01264441  0.00689209  -0.00445251  1
  Ag  Ag12  1  0.49207580  0.23799193  0.76069707  1
  Ag  Ag13  1  0.25162405  0.76344393  -0.00069035  1
  Ag  Ag14  1  0.74809539  0.75579283  0.50581819  1
  Ag  Ag15  1  0.25022196  0.24396615  0.49694470  1
  Sb  Sb16  1  0.49459726  0.49697576  0.00015860  1
  Sb  Sb17  1  0.74613893  0.75205378  -0.00372682  1
  Sb  Sb18  1  0.00063785  0.49799626  0.50036224  1
  Sb  Sb19  1  0.75166156  0.50154013  0.24876608  1
  Sb  Sb20  1  0.75130430  0.50336317  0.75035584  1
  Sb  Sb21  1  0.74717613  -0.00085097  0.24624541  1
  Sb  Sb22  1  0.00251551  0.00086004  0.50802882  1
  Sb  Sb23  1  0.75484323  0.24859450  -0.00219137  1
  Sb  Sb24  1  0.24875171  0.49129305  0.24803122  1
  Sb  Sb25  1  0.24981900  0.75896541  0.49995735  1
  Sb  Sb26  1  0.49935279  0.49904647  0.49983872  1
  Sb  Sb27  1  0.74922746  0.24405620  0.50222192  1
  Sb  Sb28  1  0.49773518  0.00087827  0.50561553  1
  Sb  Sb29  1  0.25123993  0.00175991  0.75968908  1
  Sb  Sb30  1  0.00650740  0.75893712  0.23893498  1
  Sb  Sb31  1  0.24860739  0.49784266  0.75217836  1
  Te  Te32  1  0.25205947  0.24668075  0.24199569  1
  Te  Te33  1  0.25072239  0.24761141  0.75514041  1
  Te  Te34  1  0.25409156  0.75629357  0.25111402  1
  Te  Te35  1  0.25210788  0.75105045  0.74997637  1
  Te  Te36  1  0.74514305  0.24910835  0.25575949  1
  Te  Te37  1  0.74808322  0.24400650  0.74720837  1
  Te  Te38  1  0.74092685  0.75157338  0.25745402  1
  Te  Te39  1  0.74742227  0.75344734  0.74938917  1
  Te  Te40  1  0.25230128  0.00062470  0.00452109  1
  Te  Te41  1  0.24930367  0.00778747  0.47897617  1
  Te  Te42  1  0.24238868  0.50233713  0.00002538  1
  Te  Te43  1  0.24995707  0.48429382  0.49918730  1
  Te  Te44  1  0.74710982  0.00018797  -0.00710547  1
  Te  Te45  1  0.75102013  -0.00598368  0.51083704  1
  Te  Te46  1  0.76728203  0.50168608  0.00042494  1
  Te  Te47  1  0.74965751  0.51484784  0.49886879  1
  Te  Te48  1  -0.00043836  0.24274555  -0.00279132  1
  Te  Te49  1  0.00354636  0.25089707  0.50319167  1
  Te  Te50  1  0.00398412  0.75816731  -0.00207211  1
  Te  Te51  1  0.00296635  0.74845012  0.51014968  1
  Te  Te52  1  0.49840950  0.25266555  -0.00177140  1
  Te  Te53  1  0.49596750  0.24985944  0.50175943  1
  Te  Te54  1  0.49723384  0.74639471  -0.00283721  1
  Te  Te55  1  0.49687217  0.74989038  0.50560829  1
  Te  Te56  1  -0.00282000  0.00343149  0.24106233  1
  Te  Te57  1  0.00146426  0.00089051  0.75449392  1
  Te  Te58  1  -0.00108664  0.49008969  0.24335005  1
  Te  Te59  1  -0.00088970  0.49705667  0.75557668  1
  Te  Te60  1  0.50281082  0.00235670  0.24293040  1
  Te  Te61  1  0.49810864  0.00044120  0.75414344  1
  Te  Te62  1  0.50064752  0.49867071  0.24840094  1
  Te  Te63  1  0.50158369  0.49895835  0.75129410  1
