# generated using pymatgen
data_AgSbTe2
_symmetry_space_group_name_H-M   'P 1'
_cell_length_a   12.25411455
_cell_length_b   12.25477184
_cell_length_c   12.25212728
_cell_angle_alpha   89.98707943
_cell_angle_beta   90.00217227
_cell_angle_gamma   90.00326368
_symmetry_Int_Tables_number   1
_chemical_formula_structural   AgSbTe2
_chemical_formula_sum   'Ag16 Sb16 Te32'
_cell_volume   1839.91878386
_cell_formula_units_Z   16
loop_
 _symmetry_equiv_pos_site_id
 _symmetry_equiv_pos_as_xyz
  1  'x, y, z'
loop_
 _atom_site_type_symbol
 _atom_site_label
 _atom_site_symmetry_multiplicity
 _atom_site_fract_x
 _atom_site_fract_y
 _atom_site_fract_z
 _atom_site_occupancy
  Ag  Ag0  1  0.74713778  0.00208055  0.26452748  1
  Ag  Ag1  1  0.74734171  0.76434793  0.50077551  1
  Ag  Ag2  1  0.51192747  0.00417928  -0.00158229  1
  Ag  Ag3  1  0.51439274  0.24636162  0.74290988  1
  Ag  Ag4  1  0.50546417  0.75488906  0.25526630  1
  Ag  Ag5  1  0.74961671  0.01374098  0.73633670  1
  Ag  Ag6  1  0.74937555  0.48386937  0.74199783  1
  Ag  Ag7  1  0.51076757  0.49217829  0.50292809  1
  Ag  Ag8  1  0.51416610  0.00620640  0.50165346  1
  Ag  Ag9  1  0.74939071  0.23652250  0.51395595  1
  Ag  Ag10  1  -0.01159603  0.49012368  0.50397575  1
  Ag  Ag11  1  -0.01512610  0.00837453  0.50371076  1
  Ag  Ag12  1  -0.01491325  0.24638113  0.74322601  1
  Ag  Ag13  1  0.25102385  0.24783300  0.50336738  1
  Ag  Ag14  1  0.74929941  0.24187984  -0.01520744  1
  Ag  Ag15  1  -0.01271894  0.00521106  -0.00461375  1
  Sb  Sb16  1  0.25221447  0.75221191  0.49921689  1
  Sb  Sb17  1  0.50679146  0.49508837  -0.00276729  1
  Sb  Sb18  1  -0.00455214  0.24795573  0.25909982  1
  Sb  Sb19  1  0.50596784  0.75472902  0.74641337  1
  Sb  Sb20  1  0.25192338  0.49823393  0.25521520  1
  Sb  Sb21  1  0.25241713  0.75388308  0.00068748  1
  Sb  Sb22  1  0.25041368  0.00311814  0.74753506  1
  Sb  Sb23  1  0.74835165  0.76110405  0.00020094  1
  Sb  Sb24  1  0.74855393  0.49735327  0.26163976  1
  Sb  Sb25  1  -0.00736693  0.49203270  -0.00660673  1
  Sb  Sb26  1  0.25111146  0.49475045  0.74534813  1
  Sb  Sb27  1  -0.00569555  0.75412698  0.25332554  1
  Sb  Sb28  1  -0.00627474  0.75494385  0.74835993  1
  Sb  Sb29  1  0.25295218  0.00095231  0.25291533  1
  Sb  Sb30  1  0.50491229  0.24630199  0.25881890  1
  Sb  Sb31  1  0.25061753  0.24699412  -0.00465531  1
  Te  Te32  1  0.24989966  0.25010069  0.25899772  1
  Te  Te33  1  0.25042669  0.25012886  0.74417610  1
  Te  Te34  1  0.26023181  0.74918171  0.24997616  1
  Te  Te35  1  0.24954543  0.74757304  0.75038220  1
  Te  Te36  1  0.75010264  0.24564909  0.24652518  1
  Te  Te37  1  0.74963807  0.24867399  0.75030476  1
  Te  Te38  1  0.74614369  0.75419275  0.25336044  1
  Te  Te39  1  0.75028570  0.75026580  0.74466664  1
  Te  Te40  1  0.24978273  0.00016340  0.00122609  1
  Te  Te41  1  0.24905541  0.00389569  0.49911165  1
  Te  Te42  1  0.24799240  0.50161773  0.00180566  1
  Te  Te43  1  0.25048746  0.49570280  0.50015647  1
  Te  Te44  1  0.74926670  0.00080290  -0.00246071  1
  Te  Te45  1  0.74942580  0.00033922  0.50154907  1
  Te  Te46  1  0.75066519  0.49237593  -0.00787732  1
  Te  Te47  1  0.74911441  0.49788761  0.50046396  1
  Te  Te48  1  0.00032455  0.24577446  -0.00518874  1
  Te  Te49  1  -0.00470218  0.24846715  0.50117431  1
  Te  Te50  1  0.00140724  0.75852010  0.00106215  1
  Te  Te51  1  -0.00192226  0.75199067  0.49963610  1
  Te  Te52  1  0.50020153  0.24633741  -0.00469795  1
  Te  Te53  1  0.50453230  0.24867094  0.50088395  1
  Te  Te54  1  0.49972403  0.75642166  0.00451741  1
  Te  Te55  1  0.50119810  0.75272541  0.49940499  1
  Te  Te56  1  -0.00473064  -0.00027917  0.25152996  1
  Te  Te57  1  -0.00079530  0.00230600  0.74762361  1
  Te  Te58  1  0.00075593  0.50204873  0.25737160  1
  Te  Te59  1  -0.00323854  0.49607146  0.74564017  1
  Te  Te60  1  0.50268832  -0.00042628  0.25173338  1
  Te  Te61  1  0.50072818  0.00207189  0.74797400  1
  Te  Te62  1  0.50092643  0.50633213  0.25460988  1
  Te  Te63  1  0.50295140  0.49645714  0.74638649  1
