# generated using pymatgen
data_AgSbTe2
_symmetry_space_group_name_H-M   'P 1'
_cell_length_a   12.23338708
_cell_length_b   12.23321645
_cell_length_c   12.23842941
_cell_angle_alpha   90.00391020
_cell_angle_beta   90.00493868
_cell_angle_gamma   89.99689462
_symmetry_Int_Tables_number   1
_chemical_formula_structural   AgSbTe2
_chemical_formula_sum   'Ag16 Sb16 Te32'
_cell_volume   1831.52588850
_cell_formula_units_Z   16
loop_
 _symmetry_equiv_pos_site_id
 _symmetry_equiv_pos_as_xyz
  1  'x, y, z'
loop_
 _atom_site_type_symbol
 _atom_site_label
 _atom_site_symmetry_multiplicity
 _atom_site_fract_x
 _atom_site_fract_y
 _atom_site_fract_z
 _atom_site_occupancy
  Ag  Ag0  1  0.75554335  0.75260655  -0.00322624  1
  Ag  Ag1  1  0.24637823  0.25564295  0.50353348  1
  Ag  Ag2  1  0.49261517  0.24768389  0.75018815  1
  Ag  Ag3  1  0.00684082  0.50708417  0.49867727  1
  Ag  Ag4  1  0.00561792  0.74790315  0.25039628  1
  Ag  Ag5  1  0.24462099  0.50478948  0.25629667  1
  Ag  Ag6  1  0.49379197  -0.00506829  -0.00606219  1
  Ag  Ag7  1  0.24560695  0.75288942  -0.01405415  1
  Ag  Ag8  1  0.00462818  -0.00782523  -0.00172828  1
  Ag  Ag9  1  0.01330687  0.75005313  0.75007269  1
  Ag  Ag10  1  0.24830998  0.51417604  0.74515584  1
  Ag  Ag11  1  0.75775617  0.74793994  0.50346886  1
  Ag  Ag12  1  0.25124388  -0.01404810  0.75266728  1
  Ag  Ag13  1  0.24355740  0.74452603  0.51336294  1
  Ag  Ag14  1  0.48564557  0.75191727  0.75257156  1
  Ag  Ag15  1  0.00534062  0.25276719  0.25150407  1
  Sb  Sb16  1  0.49551578  -0.00246157  0.50616789  1
  Sb  Sb17  1  0.75350533  0.50509716  0.74846784  1
  Sb  Sb18  1  0.00358463  0.50847850  0.00109547  1
  Sb  Sb19  1  0.24897997  0.24784422  -0.00227655  1
  Sb  Sb20  1  0.49416323  0.74995145  0.24861114  1
  Sb  Sb21  1  0.49140719  0.50220590  0.50287582  1
  Sb  Sb22  1  0.00309772  -0.00733823  0.50279698  1
  Sb  Sb23  1  0.74925130  -0.00448268  0.75169622  1
  Sb  Sb24  1  0.75403884  0.25263073  0.50146386  1
  Sb  Sb25  1  0.00757945  0.24992170  0.74943532  1
  Sb  Sb26  1  0.75276030  -0.00319128  0.24846499  1
  Sb  Sb27  1  0.49261818  0.24959431  0.25026950  1
  Sb  Sb28  1  0.75662377  0.50408006  0.25179458  1
  Sb  Sb29  1  0.75202442  0.24750100  -0.00114327  1
  Sb  Sb30  1  0.49671622  0.50501342  -0.00304038  1
  Sb  Sb31  1  0.24730812  -0.00439801  0.24746383  1
  Te  Te32  1  0.24603236  0.25347940  0.25376134  1
  Te  Te33  1  0.25257896  0.25048448  0.74725448  1
  Te  Te34  1  0.24707277  0.74796868  0.25146103  1
  Te  Te35  1  0.24927333  0.75043361  0.75060403  1
  Te  Te36  1  0.75824042  0.25135723  0.25109472  1
  Te  Te37  1  0.73879285  0.25112485  0.74942359  1
  Te  Te38  1  0.75543656  0.74892910  0.25036722  1
  Te  Te39  1  0.75070749  0.74935414  0.74996728  1
  Te  Te40  1  0.24840953  -0.00242580  -0.00273308  1
  Te  Te41  1  0.24989184  -0.00039580  0.50533864  1
  Te  Te42  1  0.24968043  0.50412494  -0.00286689  1
  Te  Te43  1  0.24783342  0.50195018  0.50202399  1
  Te  Te44  1  0.75277965  -0.00576389  0.00012470  1
  Te  Te45  1  0.74894093  -0.00799319  0.49925679  1
  Te  Te46  1  0.74869474  0.50851344  0.00047521  1
  Te  Te47  1  0.75899760  0.50575442  0.49935536  1
  Te  Te48  1  -0.00217889  0.24225039  0.00362502  1
  Te  Te49  1  0.00220964  0.25270012  0.49743682  1
  Te  Te50  1  0.00230520  0.75058705  -0.00132037  1
  Te  Te51  1  0.00292297  0.75033978  0.50073687  1
  Te  Te52  1  0.50181824  0.24338997  -0.00381448  1
  Te  Te53  1  0.49736062  0.24936193  0.50322877  1
  Te  Te54  1  0.49768198  0.75263917  -0.00159674  1
  Te  Te55  1  0.49890589  0.75032401  0.50240843  1
  Te  Te56  1  0.00096619  -0.00301182  0.24451350  1
  Te  Te57  1  0.00336164  -0.00200273  0.75343062  1
  Te  Te58  1  0.00489366  0.50329514  0.25077990  1
  Te  Te59  1  0.00431006  0.50161053  0.74742926  1
  Te  Te60  1  0.50061115  0.00125698  0.23881367  1
  Te  Te61  1  0.49759169  -0.00395768  0.75311524  1
  Te  Te62  1  0.49035569  0.49830258  0.24940445  1
  Te  Te63  1  0.49354287  0.50253454  0.74993317  1
