# generated using pymatgen
data_AgSbTe2
_symmetry_space_group_name_H-M   'P 1'
_cell_length_a   12.22236059
_cell_length_b   12.22297119
_cell_length_c   12.23033399
_cell_angle_alpha   90.00753168
_cell_angle_beta   90.00596821
_cell_angle_gamma   89.99791573
_symmetry_Int_Tables_number   1
_chemical_formula_structural   AgSbTe2
_chemical_formula_sum   'Ag16 Sb16 Te32'
_cell_volume   1827.13312353
_cell_formula_units_Z   16
loop_
 _symmetry_equiv_pos_site_id
 _symmetry_equiv_pos_as_xyz
  1  'x, y, z'
loop_
 _atom_site_type_symbol
 _atom_site_label
 _atom_site_symmetry_multiplicity
 _atom_site_fract_x
 _atom_site_fract_y
 _atom_site_fract_z
 _atom_site_occupancy
  Ag  Ag0  1  0.00419987  0.24456553  0.25512471  1
  Ag  Ag1  1  0.00536818  0.75566359  0.24862080  1
  Ag  Ag2  1  0.49647170  0.00615828  0.50051818  1
  Ag  Ag3  1  0.00306701  0.75027408  0.75156781  1
  Ag  Ag4  1  0.75627531  0.24963320  -0.00736883  1
  Ag  Ag5  1  0.00275642  0.00200551  0.00234740  1
  Ag  Ag6  1  0.75666073  0.24836753  0.50646580  1
  Ag  Ag7  1  0.24484927  0.49601615  0.74960301  1
  Ag  Ag8  1  0.50123091  0.25030697  0.74582479  1
  Ag  Ag9  1  0.00284630  0.00728301  0.49721545  1
  Ag  Ag10  1  0.75590413  0.49219623  0.74946559  1
  Ag  Ag11  1  -0.00202968  0.25020850  0.74533017  1
  Ag  Ag12  1  0.24337252  0.75097281  0.00073178  1
  Ag  Ag13  1  0.24469933  0.49795022  0.25058248  1
  Ag  Ag14  1  0.24369421  0.24677979  0.50132647  1
  Ag  Ag15  1  0.24243155  0.00181145  0.25295557  1
  Sb  Sb16  1  0.49360786  0.75265744  0.25076451  1
  Sb  Sb17  1  0.75850869  0.75125929  -0.00350788  1
  Sb  Sb18  1  0.24411803  0.24891607  -0.00053660  1
  Sb  Sb19  1  0.49798541  0.49431426  0.50165149  1
  Sb  Sb20  1  0.00134225  0.49041803  0.50238442  1
  Sb  Sb21  1  0.49887047  0.49653935  -0.00091395  1
  Sb  Sb22  1  0.24530996  0.75262822  0.49963494  1
  Sb  Sb23  1  0.75638654  0.49599826  0.25081027  1
  Sb  Sb24  1  0.24598528  0.00393054  0.74680202  1
  Sb  Sb25  1  0.75436623  0.00858257  0.74914390  1
  Sb  Sb26  1  0.00054122  0.49688251  -0.00229963  1
  Sb  Sb27  1  0.49571934  0.24765684  0.25371386  1
  Sb  Sb28  1  0.75942261  0.00220933  0.25140918  1
  Sb  Sb29  1  0.75527997  0.75077225  0.50248134  1
  Sb  Sb30  1  0.49691376  0.00363034  -0.00068787  1
  Sb  Sb31  1  0.49713951  0.74982069  0.74955004  1
  Te  Te32  1  0.24714477  0.25041406  0.24968635  1
  Te  Te33  1  0.24666595  0.25306275  0.74959266  1
  Te  Te34  1  0.24512966  0.74908935  0.24983392  1
  Te  Te35  1  0.24571323  0.74390514  0.75105926  1
  Te  Te36  1  0.75484740  0.25219707  0.25185233  1
  Te  Te37  1  0.75429638  0.25219254  0.74814755  1
  Te  Te38  1  0.75823542  0.74680905  0.24935381  1
  Te  Te39  1  0.75531758  0.73936051  0.75093877  1
  Te  Te40  1  0.24577161  -0.00230902  0.00452784  1
  Te  Te41  1  0.24598292  0.00333965  0.49798688  1
  Te  Te42  1  0.25046534  0.50350204  -0.00046805  1
  Te  Te43  1  0.25100704  0.49474925  0.50084199  1
  Te  Te44  1  0.75461756  0.00438824  0.00070735  1
  Te  Te45  1  0.75232821  0.00572307  0.49916244  1
  Te  Te46  1  0.74890598  0.49462197  -0.00459948  1
  Te  Te47  1  0.74841498  0.49374491  0.50457467  1
  Te  Te48  1  -0.00210979  0.24596110  -0.00147161  1
  Te  Te49  1  0.00177352  0.24757738  0.50109377  1
  Te  Te50  1  0.00319663  0.75577170  -0.00107618  1
  Te  Te51  1  -0.00101007  0.76058899  0.50081923  1
  Te  Te52  1  0.50875055  0.24823961  -0.00691260  1
  Te  Te53  1  0.49869891  0.24557023  0.50295640  1
  Te  Te54  1  0.49241529  0.75234704  -0.00040850  1
  Te  Te55  1  0.50258132  0.76145929  0.50049888  1
  Te  Te56  1  0.00222278  0.00229155  0.25085200  1
  Te  Te57  1  0.00095695  0.00058139  0.74989001  1
  Te  Te58  1  0.00568708  0.49942622  0.24998054  1
  Te  Te59  1  0.00256574  0.49863038  0.74981220  1
  Te  Te60  1  0.49110043  -0.00056581  0.25437069  1
  Te  Te61  1  0.49895273  0.00412257  0.74586511  1
  Te  Te62  1  0.48953922  0.50100389  0.25015537  1
  Te  Te63  1  0.49653979  0.49579503  0.74966520  1
