# generated using pymatgen
data_AgSbTe2
_symmetry_space_group_name_H-M   'P 1'
_cell_length_a   12.33273297
_cell_length_b   12.32259903
_cell_length_c   12.32787971
_cell_angle_alpha   89.99619525
_cell_angle_beta   89.99527327
_cell_angle_gamma   89.98706204
_symmetry_Int_Tables_number   1
_chemical_formula_structural   AgSbTe2
_chemical_formula_sum   'Ag16 Sb16 Te32'
_cell_volume   1873.48413360
_cell_formula_units_Z   16
loop_
 _symmetry_equiv_pos_site_id
 _symmetry_equiv_pos_as_xyz
  1  'x, y, z'
loop_
 _atom_site_type_symbol
 _atom_site_label
 _atom_site_symmetry_multiplicity
 _atom_site_fract_x
 _atom_site_fract_y
 _atom_site_fract_z
 _atom_site_occupancy
  Ag  Ag0  1  0.24415489  0.50505736  0.25915701  1
  Ag  Ag1  1  0.00144615  0.75997995  0.74473862  1
  Ag  Ag2  1  0.00509576  0.75291472  0.25943405  1
  Ag  Ag3  1  0.75798670  0.25444078  0.50765021  1
  Ag  Ag4  1  0.24273166  0.50782638  0.74192961  1
  Ag  Ag5  1  -0.00247536  0.22940447  0.74434699  1
  Ag  Ag6  1  0.76199736  0.50242827  0.74190475  1
  Ag  Ag7  1  0.76791474  -0.00066022  0.74535210  1
  Ag  Ag8  1  0.23602276  -0.00628049  0.74691150  1
  Ag  Ag9  1  0.00277504  -0.00341066  -0.02273397  1
  Ag  Ag10  1  0.49380689  0.49964147  0.51146384  1
  Ag  Ag11  1  0.23952188  -0.00713081  0.25550827  1
  Ag  Ag12  1  0.49587682  0.50273759  -0.02011211  1
  Ag  Ag13  1  0.00226405  -0.00221072  0.51129589  1
  Ag  Ag14  1  0.00223909  0.50126692  0.51788696  1
  Ag  Ag15  1  0.49553468  0.73999350  0.74829752  1
  Sb  Sb16  1  0.24949823  0.25208079  0.50258873  1
  Sb  Sb17  1  -0.00007204  0.50244847  -0.00854432  1
  Sb  Sb18  1  0.75377786  0.25176223  -0.00468371  1
  Sb  Sb19  1  0.00140124  0.24998466  0.25390444  1
  Sb  Sb20  1  0.24882330  0.25086003  -0.00271030  1
  Sb  Sb21  1  0.49456699  0.74604089  0.25223539  1
  Sb  Sb22  1  0.49696182  0.25306087  0.25327122  1
  Sb  Sb23  1  0.49988578  0.25506072  0.74914022  1
  Sb  Sb24  1  0.24649220  0.74785330  0.50304279  1
  Sb  Sb25  1  0.76014130  -0.00072416  0.25435046  1
  Sb  Sb26  1  0.49852208  -0.00130751  -0.00595014  1
  Sb  Sb27  1  0.75335939  0.50066245  0.25556363  1
  Sb  Sb28  1  0.49827458  0.00052895  0.50392783  1
  Sb  Sb29  1  0.75291471  0.74970248  -0.00576138  1
  Sb  Sb30  1  0.75354375  0.74903587  0.50445901  1
  Sb  Sb31  1  0.24874848  0.74932370  -0.00363537  1
  Te  Te32  1  0.25152953  0.25320716  0.24935295  1
  Te  Te33  1  0.24649495  0.24846418  0.74985897  1
  Te  Te34  1  0.24373037  0.74906962  0.24886050  1
  Te  Te35  1  0.24676691  0.74791786  0.75025742  1
  Te  Te36  1  0.74738915  0.24916366  0.25830630  1
  Te  Te37  1  0.75031804  0.25323428  0.74893294  1
  Te  Te38  1  0.76282874  0.75088604  0.24708991  1
  Te  Te39  1  0.75607038  0.74662708  0.75029115  1
  Te  Te40  1  0.24820047  -0.00038426  -0.00502603  1
  Te  Te41  1  0.24983888  0.00168492  0.50334633  1
  Te  Te42  1  0.25163478  0.50025366  -0.00178948  1
  Te  Te43  1  0.24316822  0.49961656  0.50280282  1
  Te  Te44  1  0.74924696  0.00080344  -0.00380442  1
  Te  Te45  1  0.74800286  0.00194643  0.50335164  1
  Te  Te46  1  0.74751102  0.49853916  -0.00376120  1
  Te  Te47  1  0.76240244  0.50030658  0.50137355  1
  Te  Te48  1  -0.00074685  0.24261331  -0.00760093  1
  Te  Te49  1  0.00079570  0.25475363  0.50320490  1
  Te  Te50  1  0.00104772  0.75431690  -0.00328296  1
  Te  Te51  1  0.00114356  0.74914513  0.50236369  1
  Te  Te52  1  0.50159906  0.25991191  0.00317588  1
  Te  Te53  1  0.50745197  0.25663985  0.49990394  1
  Te  Te54  1  0.49972753  0.74395390  -0.00467582  1
  Te  Te55  1  0.50155074  0.74396327  0.50427072  1
  Te  Te56  1  0.00300860  0.00054347  0.26172237  1
  Te  Te57  1  -0.00155205  -0.00035615  0.74723246  1
  Te  Te58  1  0.00327257  0.49862009  0.24418992  1
  Te  Te59  1  0.00214503  0.50963476  0.75160453  1
  Te  Te60  1  0.48903697  -0.00300625  0.24917581  1
  Te  Te61  1  0.49372449  -0.00554774  0.74886439  1
  Te  Te62  1  0.49559426  0.50221315  0.25902659  1
  Te  Te63  1  0.49333423  0.49889214  0.74715142  1
