# generated using pymatgen
data_AgSbTe2
_symmetry_space_group_name_H-M   'P 1'
_cell_length_a   12.28455858
_cell_length_b   12.28606547
_cell_length_c   12.29784289
_cell_angle_alpha   90.00238289
_cell_angle_beta   89.99736968
_cell_angle_gamma   90.01549241
_symmetry_Int_Tables_number   1
_chemical_formula_structural   AgSbTe2
_chemical_formula_sum   'Ag16 Sb16 Te32'
_cell_volume   1856.09971774
_cell_formula_units_Z   16
loop_
 _symmetry_equiv_pos_site_id
 _symmetry_equiv_pos_as_xyz
  1  'x, y, z'
loop_
 _atom_site_type_symbol
 _atom_site_label
 _atom_site_symmetry_multiplicity
 _atom_site_fract_x
 _atom_site_fract_y
 _atom_site_fract_z
 _atom_site_occupancy
  Ag  Ag0  1  0.24123559  -0.00248341  0.75798958  1
  Ag  Ag1  1  0.74399390  0.51799942  0.24719924  1
  Ag  Ag2  1  -0.00891351  0.75411230  0.76038756  1
  Ag  Ag3  1  0.52073366  0.73772110  0.24643330  1
  Ag  Ag4  1  0.76013277  0.74885297  0.01857496  1
  Ag  Ag5  1  -0.00828116  -0.01377987  -0.00221660  1
  Ag  Ag6  1  0.75388658  0.74450496  0.47844128  1
  Ag  Ag7  1  0.75665543  -0.01102598  0.75953093  1
  Ag  Ag8  1  -0.01848841  0.74306043  0.24034846  1
  Ag  Ag9  1  0.51044785  0.50483893  0.01538356  1
  Ag  Ag10  1  0.75261179  -0.02177679  0.24344624  1
  Ag  Ag11  1  0.51159357  0.50552371  0.48368726  1
  Ag  Ag12  1  -0.01089400  0.50959063  0.48909620  1
  Ag  Ag13  1  0.25021148  0.24948003  0.00164504  1
  Ag  Ag14  1  0.50546536  0.26438333  0.24598909  1
  Ag  Ag15  1  -0.00929072  0.51387172  0.00809417  1
  Sb  Sb16  1  0.24795474  0.74853645  0.49939765  1
  Sb  Sb17  1  0.75258163  0.50853202  0.75175726  1
  Sb  Sb18  1  -0.00058504  0.24636905  0.75056804  1
  Sb  Sb19  1  0.24446410  0.75102421  -0.00009881  1
  Sb  Sb20  1  0.24730876  0.50361487  0.75251199  1
  Sb  Sb21  1  0.74839064  0.25735328  0.49950058  1
  Sb  Sb22  1  0.25269594  0.25038032  0.49862601  1
  Sb  Sb23  1  0.50315247  -0.00711828  0.49674838  1
  Sb  Sb24  1  -0.00552819  0.25627508  0.24840634  1
  Sb  Sb25  1  0.50013240  0.25150591  0.75373596  1
  Sb  Sb26  1  0.24371760  -0.00116434  0.24478767  1
  Sb  Sb27  1  -0.00396100  -0.00934496  0.49943238  1
  Sb  Sb28  1  0.50730991  0.74944762  0.75212584  1
  Sb  Sb29  1  0.50588842  -0.00631568  0.00254371  1
  Sb  Sb30  1  0.74990029  0.25125568  -0.00001257  1
  Sb  Sb31  1  0.25242883  0.50125674  0.24904946  1
  Te  Te32  1  0.25984858  0.24782450  0.24625318  1
  Te  Te33  1  0.25060214  0.24190956  0.75446529  1
  Te  Te34  1  0.25057579  0.75228537  0.25053504  1
  Te  Te35  1  0.24147021  0.75509540  0.75029681  1
  Te  Te36  1  0.74508681  0.25082769  0.25134027  1
  Te  Te37  1  0.74899981  0.22889117  0.74827369  1
  Te  Te38  1  0.75114631  0.74782994  0.24865874  1
  Te  Te39  1  0.75351733  0.75324204  0.75394193  1
  Te  Te40  1  0.24527189  -0.00006293  -0.00227626  1
  Te  Te41  1  0.24971514  0.00168964  0.51174038  1
  Te  Te42  1  0.24707994  0.49774783  -0.00067180  1
  Te  Te43  1  0.24976105  0.49959127  0.50109905  1
  Te  Te44  1  0.75248586  0.00063935  0.00422676  1
  Te  Te45  1  0.75033428  -0.00833248  0.49379969  1
  Te  Te46  1  0.75179914  0.49994179  -0.00063986  1
  Te  Te47  1  0.75045390  0.50419783  0.50255930  1
  Te  Te48  1  0.00263059  0.25303476  -0.00020857  1
  Te  Te49  1  0.00119119  0.26959416  0.50070971  1
  Te  Te50  1  -0.00220582  0.74932644  0.00300101  1
  Te  Te51  1  -0.00055864  0.74586503  0.49540096  1
  Te  Te52  1  0.49947486  0.25693495  0.00195622  1
  Te  Te53  1  0.49993542  0.26215407  0.49361047  1
  Te  Te54  1  0.50431309  0.74526161  0.00088544  1
  Te  Te55  1  0.50226056  0.74530002  0.49990924  1
  Te  Te56  1  -0.00428762  0.00001514  0.24950883  1
  Te  Te57  1  -0.00529213  -0.00285787  0.75028143  1
  Te  Te58  1  0.00017195  0.50073996  0.24520037  1
  Te  Te59  1  -0.00132016  0.50580044  0.75640328  1
  Te  Te60  1  0.50555994  -0.00602771  0.24994176  1
  Te  Te61  1  0.50377271  0.00012893  0.74916938  1
  Te  Te62  1  0.49948886  0.50490178  0.24662223  1
  Te  Te63  1  0.49976534  0.50002886  0.75089586  1
