# generated using pymatgen
data_AgSbTe2
_symmetry_space_group_name_H-M   'P 1'
_cell_length_a   12.22694290
_cell_length_b   12.21769477
_cell_length_c   12.24267175
_cell_angle_alpha   90.00280664
_cell_angle_beta   89.99922515
_cell_angle_gamma   89.98450490
_symmetry_Int_Tables_number   1
_chemical_formula_structural   AgSbTe2
_chemical_formula_sum   'Ag16 Sb16 Te32'
_cell_volume   1828.87213883
_cell_formula_units_Z   16
loop_
 _symmetry_equiv_pos_site_id
 _symmetry_equiv_pos_as_xyz
  1  'x, y, z'
loop_
 _atom_site_type_symbol
 _atom_site_label
 _atom_site_symmetry_multiplicity
 _atom_site_fract_x
 _atom_site_fract_y
 _atom_site_fract_z
 _atom_site_occupancy
  Ag  Ag0  1  0.25417190  0.24901156  0.49604891  1
  Ag  Ag1  1  0.00192452  0.25133030  0.74920165  1
  Ag  Ag2  1  0.49838213  0.24520518  0.74375528  1
  Ag  Ag3  1  0.24890205  0.24701382  0.00467511  1
  Ag  Ag4  1  0.49823970  0.48841275  0.49996127  1
  Ag  Ag5  1  0.00566691  0.24879685  0.25088030  1
  Ag  Ag6  1  0.75153505  0.75492296  -0.00175489  1
  Ag  Ag7  1  -0.00028782  0.49466639  -0.00250221  1
  Ag  Ag8  1  0.49949629  0.01110808  0.49620131  1
  Ag  Ag9  1  0.74781644  0.00208736  0.75246274  1
  Ag  Ag10  1  0.50261328  0.00608484  0.00384000  1
  Ag  Ag11  1  -0.00376073  0.75046733  0.75171951  1
  Ag  Ag12  1  0.00111516  0.49243918  0.50221523  1
  Ag  Ag13  1  0.74453492  0.00372175  0.24792956  1
  Ag  Ag14  1  0.25497634  0.00846845  0.24958233  1
  Ag  Ag15  1  0.49438247  0.24231784  0.25592132  1
  Sb  Sb16  1  0.50180435  0.75785355  0.24998497  1
  Sb  Sb17  1  0.24977902  0.49087245  0.25107952  1
  Sb  Sb18  1  0.24811526  0.49584460  0.74929535  1
  Sb  Sb19  1  0.75144117  0.75319641  0.50099168  1
  Sb  Sb20  1  0.50014893  0.49299481  0.00005848  1
  Sb  Sb21  1  -0.00213090  0.75072810  0.24972159  1
  Sb  Sb22  1  0.75255350  0.49746244  0.75048020  1
  Sb  Sb23  1  0.50337040  0.75376301  0.75022838  1
  Sb  Sb24  1  0.25260878  0.00506321  0.75055522  1
  Sb  Sb25  1  0.24957082  0.75279513  0.00053149  1
  Sb  Sb26  1  0.00131697  0.00826292  0.50050433  1
  Sb  Sb27  1  0.74931455  0.49584807  0.24906208  1
  Sb  Sb28  1  -0.00163246  0.00416145  -0.00036874  1
  Sb  Sb29  1  0.74521506  0.24889245  0.50023866  1
  Sb  Sb30  1  0.75094463  0.24616201  -0.00014945  1
  Sb  Sb31  1  0.24867629  0.75149637  0.49932786  1
  Te  Te32  1  0.24965880  0.24725672  0.25043117  1
  Te  Te33  1  0.24888762  0.24889759  0.74930799  1
  Te  Te34  1  0.24975115  0.76368352  0.24911438  1
  Te  Te35  1  0.23949640  0.75151541  0.75094046  1
  Te  Te36  1  0.75126362  0.24492002  0.24899714  1
  Te  Te37  1  0.75084751  0.24426505  0.75080748  1
  Te  Te38  1  0.75084184  0.75880516  0.24423998  1
  Te  Te39  1  0.75434016  0.75608756  0.75343775  1
  Te  Te40  1  0.25401265  0.00470069  0.00294859  1
  Te  Te41  1  0.25419607  0.00391629  0.49685019  1
  Te  Te42  1  0.24540134  0.49525630  0.00083446  1
  Te  Te43  1  0.25060478  0.49570046  0.49922099  1
  Te  Te44  1  0.74832189  -0.00207014  -0.00050886  1
  Te  Te45  1  0.74462338  -0.00113476  0.49945050  1
  Te  Te46  1  0.75432949  0.50823029  0.00090770  1
  Te  Te47  1  0.75052601  0.50155600  0.49919648  1
  Te  Te48  1  0.00174507  0.25179302  -0.00150576  1
  Te  Te49  1  0.00370498  0.25227178  0.50135910  1
  Te  Te50  1  -0.00133371  0.74574978  -0.00215219  1
  Te  Te51  1  0.00151515  0.74052977  0.50373814  1
  Te  Te52  1  0.49799589  0.24853465  -0.00078205  1
  Te  Te53  1  0.49843315  0.24919008  0.50078212  1
  Te  Te54  1  0.50226472  0.75320812  -0.00139144  1
  Te  Te55  1  0.49905942  0.74681387  0.50158964  1
  Te  Te56  1  -0.00193848  0.00427769  0.25072282  1
  Te  Te57  1  -0.00444447  0.00340912  0.74900601  1
  Te  Te58  1  -0.00046309  0.49495142  0.25157285  1
  Te  Te59  1  -0.00118108  0.49364753  0.74923487  1
  Te  Te60  1  0.50200468  0.00208207  0.25012720  1
  Te  Te61  1  0.50281579  0.00243708  0.74974339  1
  Te  Te62  1  0.50068108  0.49327705  0.25430743  1
  Te  Te63  1  0.50123320  0.49478919  0.74579240  1
