# generated using pymatgen
data_AgSbTe2
_symmetry_space_group_name_H-M   'P 1'
_cell_length_a   12.22237903
_cell_length_b   12.21429062
_cell_length_c   12.22178049
_cell_angle_alpha   90.00433745
_cell_angle_beta   89.99387000
_cell_angle_gamma   89.99534392
_symmetry_Int_Tables_number   1
_chemical_formula_structural   AgSbTe2
_chemical_formula_sum   'Ag16 Sb16 Te32'
_cell_volume   1824.56134949
_cell_formula_units_Z   16
loop_
 _symmetry_equiv_pos_site_id
 _symmetry_equiv_pos_as_xyz
  1  'x, y, z'
loop_
 _atom_site_type_symbol
 _atom_site_label
 _atom_site_symmetry_multiplicity
 _atom_site_fract_x
 _atom_site_fract_y
 _atom_site_fract_z
 _atom_site_occupancy
  Ag  Ag0  1  0.49691767  0.24892749  0.24842588  1
  Ag  Ag1  1  0.24266906  0.74909247  0.50173976  1
  Ag  Ag2  1  0.00135671  0.75332787  0.74199688  1
  Ag  Ag3  1  0.00420013  0.49894954  0.50087613  1
  Ag  Ag4  1  0.24791136  0.49660217  0.25453406  1
  Ag  Ag5  1  0.50261609  0.24510479  0.75246564  1
  Ag  Ag6  1  0.74599370  0.24633350  -0.00632670  1
  Ag  Ag7  1  -0.00245142  0.24678662  0.74302120  1
  Ag  Ag8  1  0.00334814  0.74938718  0.25882860  1
  Ag  Ag9  1  0.75400966  0.24802879  0.50666209  1
  Ag  Ag10  1  0.75009276  0.00629594  0.74909311  1
  Ag  Ag11  1  0.00082266  0.00170368  0.50459171  1
  Ag  Ag12  1  0.24581231  0.25175768  0.50160490  1
  Ag  Ag13  1  0.25423442  0.24940884  -0.00170790  1
  Ag  Ag14  1  0.49934126  0.75419671  0.74821428  1
  Ag  Ag15  1  0.50067667  0.00723801  -0.00479909  1
  Sb  Sb16  1  0.50062098  0.00308574  0.50563433  1
  Sb  Sb17  1  0.75134533  0.49147272  0.74773295  1
  Sb  Sb18  1  0.24935270  0.00303176  0.74920707  1
  Sb  Sb19  1  0.24846843  0.49677990  0.74559788  1
  Sb  Sb20  1  0.75127508  0.00323682  0.25146408  1
  Sb  Sb21  1  0.00201526  0.49742703  -0.00050390  1
  Sb  Sb22  1  0.49538066  0.49680153  0.49995838  1
  Sb  Sb23  1  0.25079783  0.74989837  -0.00197898  1
  Sb  Sb24  1  0.00367973  0.25054776  0.25826357  1
  Sb  Sb25  1  -0.00086575  0.00360220  -0.00462296  1
  Sb  Sb26  1  0.24963180  0.00354005  0.25142906  1
  Sb  Sb27  1  0.75757985  0.75235949  0.50337569  1
  Sb  Sb28  1  0.49829865  0.49125384  -0.00015404  1
  Sb  Sb29  1  0.75254766  0.49668056  0.25329450  1
  Sb  Sb30  1  0.49567328  0.75130170  0.25187858  1
  Sb  Sb31  1  0.74889298  0.75389437  -0.00444884  1
  Te  Te32  1  0.25194119  0.25258986  0.25261059  1
  Te  Te33  1  0.25003217  0.25128935  0.74780398  1
  Te  Te34  1  0.24803444  0.74580983  0.25315309  1
  Te  Te35  1  0.24827238  0.74845602  0.74669743  1
  Te  Te36  1  0.74438128  0.24991373  0.25010240  1
  Te  Te37  1  0.74994016  0.24808909  0.74842818  1
  Te  Te38  1  0.75516222  0.74963627  0.24921221  1
  Te  Te39  1  0.75000839  0.75651195  0.75045340  1
  Te  Te40  1  0.25468680  0.00722475  0.00089962  1
  Te  Te41  1  0.24451966  0.00040880  0.49940804  1
  Te  Te42  1  0.24941362  0.49335672  0.00889858  1
  Te  Te43  1  0.24611482  0.49799103  0.49671271  1
  Te  Te44  1  0.74706523  0.00538041  -0.00470093  1
  Te  Te45  1  0.75426785  0.00530073  0.50457999  1
  Te  Te46  1  0.75020458  0.49048241  0.00141977  1
  Te  Te47  1  0.75836220  0.49235483  0.49927867  1
  Te  Te48  1  0.00099245  0.24896093  -0.00572585  1
  Te  Te49  1  0.00280567  0.24896053  0.50071098  1
  Te  Te50  1  0.00123322  0.75024525  -0.00411418  1
  Te  Te51  1  0.00113128  0.75038227  0.50349612  1
  Te  Te52  1  0.49858740  0.24807465  -0.00359511  1
  Te  Te53  1  0.49758086  0.24893010  0.50232730  1
  Te  Te54  1  0.49913641  0.75668722  -0.00558222  1
  Te  Te55  1  0.49451873  0.75035524  0.50449446  1
  Te  Te56  1  -0.00068605  -0.00620575  0.25590875  1
  Te  Te57  1  -0.00296608  0.00108957  0.74741282  1
  Te  Te58  1  0.00362514  0.50358797  0.25450167  1
  Te  Te59  1  -0.00009081  0.50070201  0.74478024  1
  Te  Te60  1  0.50081420  0.00432740  0.24370096  1
  Te  Te61  1  0.50359455  0.00268841  0.75135565  1
  Te  Te62  1  0.49466323  0.49629982  0.25021775  1
  Te  Te63  1  0.50040712  0.50206347  0.74980501  1
