# generated using pymatgen
data_AgSbTe2
_symmetry_space_group_name_H-M   'P 1'
_cell_length_a   12.31634632
_cell_length_b   12.32165645
_cell_length_c   12.29183956
_cell_angle_alpha   90.00274447
_cell_angle_beta   90.00253751
_cell_angle_gamma   89.98972756
_symmetry_Int_Tables_number   1
_chemical_formula_structural   AgSbTe2
_chemical_formula_sum   'Ag16 Sb16 Te32'
_cell_volume   1865.38234846
_cell_formula_units_Z   16
loop_
 _symmetry_equiv_pos_site_id
 _symmetry_equiv_pos_as_xyz
  1  'x, y, z'
loop_
 _atom_site_type_symbol
 _atom_site_label
 _atom_site_symmetry_multiplicity
 _atom_site_fract_x
 _atom_site_fract_y
 _atom_site_fract_z
 _atom_site_occupancy
  Ag  Ag0  1  0.75602113  0.49831925  0.76080773  1
  Ag  Ag1  1  0.75000802  0.00410393  0.75231442  1
  Ag  Ag2  1  -0.00732579  0.26598652  0.23570215  1
  Ag  Ag3  1  0.23932944  0.49461239  0.76024005  1
  Ag  Ag4  1  -0.00386438  0.26662742  0.76563333  1
  Ag  Ag5  1  0.25526258  0.25687952  -0.00413604  1
  Ag  Ag6  1  0.51413106  0.73566151  0.24456109  1
  Ag  Ag7  1  0.50486984  0.25947226  0.23454674  1
  Ag  Ag8  1  -0.01027089  0.73368360  0.24420393  1
  Ag  Ag9  1  0.50288000  0.49058494  0.00007658  1
  Ag  Ag10  1  -0.00442292  0.49205967  -0.00730940  1
  Ag  Ag11  1  0.50254046  0.01584841  -0.00197417  1
  Ag  Ag12  1  0.75224303  0.74607916  0.49922756  1
  Ag  Ag13  1  -0.00867023  0.73265353  0.75781197  1
  Ag  Ag14  1  0.75340741  0.50329649  0.24146638  1
  Ag  Ag15  1  0.50390535  0.26050137  0.76590304  1
  Sb  Sb16  1  -0.00304388  0.00625963  -0.00192725  1
  Sb  Sb17  1  0.24835012  0.49855773  0.24480531  1
  Sb  Sb18  1  0.74732195  0.25261150  -0.00262404  1
  Sb  Sb19  1  0.74971471  0.25332304  0.50198630  1
  Sb  Sb20  1  0.25017725  0.25194457  0.50104638  1
  Sb  Sb21  1  -0.00025413  0.49952157  0.50447428  1
  Sb  Sb22  1  -0.00404021  -0.00092118  0.50185899  1
  Sb  Sb23  1  0.50738268  0.74164350  0.75607371  1
  Sb  Sb24  1  0.75273529  0.74746588  0.00066106  1
  Sb  Sb25  1  0.25028504  0.74698014  0.50137009  1
  Sb  Sb26  1  0.24972382  0.74503264  -0.00156671  1
  Sb  Sb27  1  0.50176109  0.49992774  0.49617688  1
  Sb  Sb28  1  0.50503541  -0.00039342  0.50277332  1
  Sb  Sb29  1  0.74825221  0.00100427  0.24749259  1
  Sb  Sb30  1  0.24928101  0.00096274  0.75578470  1
  Sb  Sb31  1  0.25126920  0.00105226  0.24412392  1
  Te  Te32  1  0.24952147  0.24972001  0.24981423  1
  Te  Te33  1  0.24936775  0.25093421  0.75100281  1
  Te  Te34  1  0.24271463  0.75048752  0.25017813  1
  Te  Te35  1  0.23816552  0.74874104  0.74949916  1
  Te  Te36  1  0.75289441  0.25035487  0.25318944  1
  Te  Te37  1  0.75083454  0.25659160  0.74907327  1
  Te  Te38  1  0.75164488  0.74962649  0.24805586  1
  Te  Te39  1  0.75206816  0.74048491  0.75186324  1
  Te  Te40  1  0.26139465  0.01266232  0.00128950  1
  Te  Te41  1  0.25030129  -0.00054924  0.49902420  1
  Te  Te42  1  0.24915163  0.49689994  -0.00366464  1
  Te  Te43  1  0.25082871  0.49996371  0.52372380  1
  Te  Te44  1  0.74281677  -0.00175262  -0.00766473  1
  Te  Te45  1  0.75034579  -0.01008657  0.51269996  1
  Te  Te46  1  0.75384336  0.49902277  0.00489884  1
  Te  Te47  1  0.75023841  0.50385464  0.49351148  1
  Te  Te48  1  -0.00124006  0.25262808  -0.00034716  1
  Te  Te49  1  0.00069582  0.24950986  0.49354662  1
  Te  Te50  1  0.00257291  0.74823601  0.00170383  1
  Te  Te51  1  -0.00114315  0.74925689  0.49361701  1
  Te  Te52  1  0.50268161  0.25601871  -0.00192988  1
  Te  Te53  1  0.49978072  0.24893343  0.49515970  1
  Te  Te54  1  0.49687174  0.74110544  0.00515564  1
  Te  Te55  1  0.50006448  0.75047905  0.48631259  1
  Te  Te56  1  -0.00062103  0.00097123  0.24871705  1
  Te  Te57  1  -0.00445564  0.00132422  0.75081691  1
  Te  Te58  1  0.00188045  0.49818492  0.24921266  1
  Te  Te59  1  -0.00818504  0.49822296  0.75025255  1
  Te  Te60  1  0.50008762  0.00819043  0.24522255  1
  Te  Te61  1  0.50236537  -0.00007116  0.75316749  1
  Te  Te62  1  0.49598395  0.49789741  0.24829987  1
  Te  Te63  1  0.51253264  0.50081433  0.75301316  1
