# generated using pymatgen
data_AgSbTe2
_symmetry_space_group_name_H-M   'P 1'
_cell_length_a   12.24514563
_cell_length_b   12.24970203
_cell_length_c   12.25470906
_cell_angle_alpha   89.99635022
_cell_angle_beta   89.99764142
_cell_angle_gamma   90.00243638
_symmetry_Int_Tables_number   1
_chemical_formula_structural   AgSbTe2
_chemical_formula_sum   'Ag16 Sb16 Te32'
_cell_volume   1838.19881944
_cell_formula_units_Z   16
loop_
 _symmetry_equiv_pos_site_id
 _symmetry_equiv_pos_as_xyz
  1  'x, y, z'
loop_
 _atom_site_type_symbol
 _atom_site_label
 _atom_site_symmetry_multiplicity
 _atom_site_fract_x
 _atom_site_fract_y
 _atom_site_fract_z
 _atom_site_occupancy
  Ag  Ag0  1  0.00201630  0.25212796  0.24276071  1
  Ag  Ag1  1  0.26787778  0.75054512  0.00240330  1
  Ag  Ag2  1  0.49766881  0.25457921  0.23742645  1
  Ag  Ag3  1  0.49852142  -0.01400269  0.00085917  1
  Ag  Ag4  1  0.50277741  0.50409482  0.49857622  1
  Ag  Ag5  1  0.49749637  0.25393056  0.76239005  1
  Ag  Ag6  1  -0.00326205  0.50130913  0.49707303  1
  Ag  Ag7  1  0.00146102  0.00075597  0.00244389  1
  Ag  Ag8  1  -0.00277830  0.74767695  0.24483570  1
  Ag  Ag9  1  0.49908388  0.51389945  0.00136934  1
  Ag  Ag10  1  0.74589307  0.74455284  0.49618198  1
  Ag  Ag11  1  0.50111393  0.74684070  0.76864275  1
  Ag  Ag12  1  0.25573150  0.24927683  0.00083271  1
  Ag  Ag13  1  0.00212184  0.25148480  0.75725882  1
  Ag  Ag14  1  0.50240815  0.74603102  0.23130566  1
  Ag  Ag15  1  0.73201725  0.75007065  0.00354568  1
  Sb  Sb16  1  0.25342145  0.49992502  0.24632648  1
  Sb  Sb17  1  -0.00000587  0.74685114  0.75696679  1
  Sb  Sb18  1  0.25415735  0.74647663  0.49601024  1
  Sb  Sb19  1  -0.00284537  -0.00228802  0.49632779  1
  Sb  Sb20  1  0.50287743  -0.00536680  0.49786794  1
  Sb  Sb21  1  0.25076685  0.00068260  0.75672116  1
  Sb  Sb22  1  0.25316928  0.49934901  0.75428188  1
  Sb  Sb23  1  0.25082747  -0.00007994  0.24391880  1
  Sb  Sb24  1  0.74933518  -0.00488460  0.24569064  1
  Sb  Sb25  1  0.74078785  0.25192518  0.00160690  1
  Sb  Sb26  1  0.74682256  0.50468488  0.24844833  1
  Sb  Sb27  1  0.74817512  0.25785918  0.49810604  1
  Sb  Sb28  1  0.25184451  0.25270340  0.49781115  1
  Sb  Sb29  1  0.74957733  -0.00086591  0.75455974  1
  Sb  Sb30  1  -0.00045149  0.49700960  0.00385060  1
  Sb  Sb31  1  0.74674048  0.50142903  0.75169386  1
  Te  Te32  1  0.25009223  0.25012175  0.24120530  1
  Te  Te33  1  0.25319116  0.24993650  0.75978474  1
  Te  Te34  1  0.24996818  0.74988591  0.24212844  1
  Te  Te35  1  0.25829088  0.75028241  0.76031244  1
  Te  Te36  1  0.75127841  0.24943173  0.25108968  1
  Te  Te37  1  0.74831227  0.24915281  0.74885583  1
  Te  Te38  1  0.74976081  0.74994381  0.24832505  1
  Te  Te39  1  0.74275070  0.75024246  0.75115882  1
  Te  Te40  1  0.25092877  0.00068704  0.00024614  1
  Te  Te41  1  0.24901707  -0.00065079  0.50130449  1
  Te  Te42  1  0.25848881  0.49924137  -0.00020392  1
  Te  Te43  1  0.25164978  0.50072508  0.50049369  1
  Te  Te44  1  0.74965612  -0.01312851  0.00005815  1
  Te  Te45  1  0.75030567  -0.01867158  0.50086895  1
  Te  Te46  1  0.74053921  0.51307679  -0.00018550  1
  Te  Te47  1  0.74777129  0.50992079  0.50026359  1
  Te  Te48  1  -0.00034931  0.25340468  0.00312378  1
  Te  Te49  1  0.00017757  0.25459061  0.49679363  1
  Te  Te50  1  0.00128776  0.74861224  0.00081893  1
  Te  Te51  1  -0.00142369  0.74726596  0.49626882  1
  Te  Te52  1  0.50413673  0.24901876  0.00075097  1
  Te  Te53  1  0.49992900  0.25707987  0.49965900  1
  Te  Te54  1  0.49874659  0.75105147  0.00183793  1
  Te  Te55  1  0.50080650  0.74634572  0.49779380  1
  Te  Te56  1  -0.00013365  0.00158746  0.24277559  1
  Te  Te57  1  -0.00067101  0.01039499  0.75897882  1
  Te  Te58  1  -0.00019387  0.49885260  0.25480109  1
  Te  Te59  1  -0.00043349  0.49234226  0.74179119  1
  Te  Te60  1  0.50000000  0.00106838  0.24389423  1
  Te  Te61  1  0.50026191  0.00254459  0.75708246  1
  Te  Te62  1  0.50018284  0.49943649  0.25123445  1
  Te  Te63  1  0.50032631  0.49762266  0.74859561  1
