# generated using pymatgen
data_AgSbTe2
_symmetry_space_group_name_H-M   'P 1'
_cell_length_a   12.22152341
_cell_length_b   12.23090054
_cell_length_c   12.22783556
_cell_angle_alpha   90.00126831
_cell_angle_beta   90.00597911
_cell_angle_gamma   90.00219156
_symmetry_Int_Tables_number   1
_chemical_formula_structural   AgSbTe2
_chemical_formula_sum   'Ag16 Sb16 Te32'
_cell_volume   1827.81974797
_cell_formula_units_Z   16
loop_
 _symmetry_equiv_pos_site_id
 _symmetry_equiv_pos_as_xyz
  1  'x, y, z'
loop_
 _atom_site_type_symbol
 _atom_site_label
 _atom_site_symmetry_multiplicity
 _atom_site_fract_x
 _atom_site_fract_y
 _atom_site_fract_z
 _atom_site_occupancy
  Ag  Ag0  1  -0.00125020  0.74632399  0.25402227  1
  Ag  Ag1  1  0.50543207  0.50899039  0.50161361  1
  Ag  Ag2  1  0.74513371  0.50548983  0.74459464  1
  Ag  Ag3  1  0.50568828  0.24767569  0.74970893  1
  Ag  Ag4  1  0.50706072  0.75245921  0.74376603  1
  Ag  Ag5  1  0.25054114  0.50636457  0.25548702  1
  Ag  Ag6  1  0.74995967  0.50576914  0.25643328  1
  Ag  Ag7  1  0.74266481  -0.00512579  0.75016446  1
  Ag  Ag8  1  0.74556511  0.24986795  -0.00331534  1
  Ag  Ag9  1  0.50471270  -0.00287121  -0.00444055  1
  Ag  Ag10  1  0.50265434  -0.00851338  0.50429488  1
  Ag  Ag11  1  -0.00589188  0.50613034  0.49653471  1
  Ag  Ag12  1  0.74360284  0.74382573  0.50313256  1
  Ag  Ag13  1  0.25617463  0.74760993  0.49594274  1
  Ag  Ag14  1  0.25320653  -0.00691586  0.25284181  1
  Ag  Ag15  1  0.74599447  0.74999818  -0.00333250  1
  Sb  Sb16  1  -0.00880151  0.74777938  0.74659328  1
  Sb  Sb17  1  -0.00207492  -0.00631669  0.49864672  1
  Sb  Sb18  1  0.25574725  0.24845804  0.00058430  1
  Sb  Sb19  1  0.74647314  0.25623958  0.50279354  1
  Sb  Sb20  1  0.25968988  -0.00337798  0.74688905  1
  Sb  Sb21  1  0.50112578  0.74894505  0.25727469  1
  Sb  Sb22  1  0.25541811  0.50374810  0.74351948  1
  Sb  Sb23  1  0.50261796  0.25068397  0.24959064  1
  Sb  Sb24  1  -0.00275068  0.25301987  0.25072618  1
  Sb  Sb25  1  -0.00375015  0.50307901  0.00329247  1
  Sb  Sb26  1  0.25549351  0.75138405  0.00453231  1
  Sb  Sb27  1  0.50359954  0.50343699  -0.00197760  1
  Sb  Sb28  1  -0.00671443  0.25246531  0.74984654  1
  Sb  Sb29  1  0.25359964  0.25164825  0.49936175  1
  Sb  Sb30  1  -0.00467993  -0.00323096  0.00125795  1
  Sb  Sb31  1  0.74743151  -0.00607684  0.25053334  1
  Te  Te32  1  0.24932502  0.25172717  0.24853589  1
  Te  Te33  1  0.25794887  0.24995231  0.75185000  1
  Te  Te34  1  0.24819628  0.74788351  0.25220177  1
  Te  Te35  1  0.25593031  0.74967873  0.74523063  1
  Te  Te36  1  0.75029330  0.25729917  0.24321840  1
  Te  Te37  1  0.74564485  0.25064133  0.75239165  1
  Te  Te38  1  0.75138614  0.74703127  0.25165338  1
  Te  Te39  1  0.74839267  0.74875071  0.74817722  1
  Te  Te40  1  0.25617088  -0.00021997  0.00481533  1
  Te  Te41  1  0.25223051  -0.00390799  0.49655903  1
  Te  Te42  1  0.24922608  0.50002467  0.00971317  1
  Te  Te43  1  0.25346623  0.50307738  0.49687848  1
  Te  Te44  1  0.74594798  -0.00342591  0.00052590  1
  Te  Te45  1  0.74689532  -0.00312395  0.50018865  1
  Te  Te46  1  0.74885255  0.50367354  -0.00025953  1
  Te  Te47  1  0.74604800  0.50069364  0.49947843  1
  Te  Te48  1  -0.00884767  0.24936078  -0.00110706  1
  Te  Te49  1  0.00108640  0.25971429  0.50100403  1
  Te  Te50  1  -0.00652272  0.75060283  0.00587334  1
  Te  Te51  1  -0.00092738  0.74617641  0.49701101  1
  Te  Te52  1  0.50505800  0.24587985  -0.00447849  1
  Te  Te53  1  0.50016803  0.24812569  0.50512744  1
  Te  Te54  1  0.50460599  0.75333986  -0.00690275  1
  Te  Te55  1  0.50216556  0.74958591  0.50109782  1
  Te  Te56  1  0.00699777  -0.00427909  0.25117419  1
  Te  Te57  1  -0.00893565  0.00083999  0.74948547  1
  Te  Te58  1  -0.00175881  0.50275301  0.25305806  1
  Te  Te59  1  -0.00547163  0.49994423  0.74399021  1
  Te  Te60  1  0.49630170  0.00105854  0.25226388  1
  Te  Te61  1  0.50274670  -0.00234801  0.74779551  1
  Te  Te62  1  0.50080060  0.49867770  0.25445125  1
  Te  Te63  1  0.50290449  0.50184854  0.74808449  1
