# generated using pymatgen
data_AgSbTe2
_symmetry_space_group_name_H-M   'P 1'
_cell_length_a   12.21955648
_cell_length_b   12.21245774
_cell_length_c   12.22145964
_cell_angle_alpha   90.00309590
_cell_angle_beta   90.00725712
_cell_angle_gamma   89.99612430
_symmetry_Int_Tables_number   1
_chemical_formula_structural   AgSbTe2
_chemical_formula_sum   'Ag16 Sb16 Te32'
_cell_volume   1823.81838601
_cell_formula_units_Z   16
loop_
 _symmetry_equiv_pos_site_id
 _symmetry_equiv_pos_as_xyz
  1  'x, y, z'
loop_
 _atom_site_type_symbol
 _atom_site_label
 _atom_site_symmetry_multiplicity
 _atom_site_fract_x
 _atom_site_fract_y
 _atom_site_fract_z
 _atom_site_occupancy
  Ag  Ag0  1  0.75214506  -0.00760347  0.24739652  1
  Ag  Ag1  1  0.24345027  0.74846964  0.50593949  1
  Ag  Ag2  1  -0.00533750  0.74991143  0.25349642  1
  Ag  Ag3  1  0.74989199  0.75267758  0.00220893  1
  Ag  Ag4  1  0.50153019  0.25030471  0.75312355  1
  Ag  Ag5  1  0.75576607  0.75108895  0.49817486  1
  Ag  Ag6  1  0.24941437  -0.00962546  0.75084850  1
  Ag  Ag7  1  0.75013709  -0.00531928  0.75310198  1
  Ag  Ag8  1  0.50046621  0.50457589  -0.00211938  1
  Ag  Ag9  1  0.24967757  0.74879072  -0.00575489  1
  Ag  Ag10  1  0.00055962  0.50790964  0.50079552  1
  Ag  Ag11  1  0.74965940  0.24838666  -0.00057100  1
  Ag  Ag12  1  0.24948302  0.50932516  0.75059784  1
  Ag  Ag13  1  -0.00400019  0.25001289  0.24904213  1
  Ag  Ag14  1  0.50521861  0.74993907  0.24649843  1
  Ag  Ag15  1  0.00279205  0.74989800  0.74657734  1
  Sb  Sb16  1  0.75010456  0.50658670  0.75150568  1
  Sb  Sb17  1  0.50041379  -0.00394750  0.50111793  1
  Sb  Sb18  1  0.24784541  -0.00605296  0.24897182  1
  Sb  Sb19  1  0.25085889  0.25113873  -0.00235635  1
  Sb  Sb20  1  0.24690116  0.25072671  0.50227504  1
  Sb  Sb21  1  0.75290230  0.24867329  0.49983051  1
  Sb  Sb22  1  0.00043161  0.50474819  -0.00119275  1
  Sb  Sb23  1  0.50553843  0.25010287  0.24608312  1
  Sb  Sb24  1  0.24855573  0.50443514  0.24979484  1
  Sb  Sb25  1  0.50229613  -0.00473961  -0.00067564  1
  Sb  Sb26  1  -0.00233176  -0.00360689  -0.00017412  1
  Sb  Sb27  1  -0.00034113  -0.00904617  0.50027919  1
  Sb  Sb28  1  0.75124930  0.50921117  0.24918873  1
  Sb  Sb29  1  -0.00240590  0.25014901  0.75096473  1
  Sb  Sb30  1  0.49680949  0.74977821  0.75424515  1
  Sb  Sb31  1  0.49864957  0.50456748  0.50207414  1
  Te  Te32  1  0.24390687  0.24692239  0.24947391  1
  Te  Te33  1  0.25177455  0.24806099  0.75070392  1
  Te  Te34  1  0.24706231  0.75268705  0.24908810  1
  Te  Te35  1  0.25223694  0.75079392  0.75095931  1
  Te  Te36  1  0.75177435  0.24255660  0.24781469  1
  Te  Te37  1  0.74929651  0.24375856  0.75221154  1
  Te  Te38  1  0.75302533  0.75240972  0.24768636  1
  Te  Te39  1  0.74962821  0.75306491  0.75215172  1
  Te  Te40  1  0.25106157  -0.00604682  -0.00641818  1
  Te  Te41  1  0.25056298  -0.00611000  0.50669840  1
  Te  Te42  1  0.25350181  0.50388253  -0.00468012  1
  Te  Te43  1  0.24748687  0.50496733  0.50459066  1
  Te  Te44  1  0.74931591  -0.00290754  -0.00180114  1
  Te  Te45  1  0.74961349  -0.00552774  0.50166147  1
  Te  Te46  1  0.74550413  0.50100278  -0.00089575  1
  Te  Te47  1  0.75450622  0.50651490  0.50088261  1
  Te  Te48  1  -0.00598409  0.25352588  0.00519717  1
  Te  Te49  1  -0.00011234  0.26032383  0.49445246  1
  Te  Te50  1  -0.00110681  0.74710024  -0.00013235  1
  Te  Te51  1  -0.00016501  0.74714468  0.50052452  1
  Te  Te52  1  0.50354206  0.25688219  -0.00186877  1
  Te  Te53  1  0.49971555  0.25259014  0.50551862  1
  Te  Te54  1  0.50166094  0.74553240  0.00329631  1
  Te  Te55  1  0.50139414  0.74775910  0.49211759  1
  Te  Te56  1  -0.00413851  -0.00250471  0.25011479  1
  Te  Te57  1  -0.00093764  -0.00366956  0.75000940  1
  Te  Te58  1  0.00118547  0.50314810  0.25436915  1
  Te  Te59  1  0.00470949  0.50330149  0.74697961  1
  Te  Te60  1  0.50554470  -0.00383591  0.25074142  1
  Te  Te61  1  0.50163633  0.00502711  0.74973738  1
  Te  Te62  1  0.49855836  0.50346751  0.24437300  1
  Te  Te63  1  0.49590789  0.49671142  0.75315395  1
