# generated using pymatgen
data_AgSbTe2
_symmetry_space_group_name_H-M   'P 1'
_cell_length_a   12.29563200
_cell_length_b   12.26586808
_cell_length_c   12.30743171
_cell_angle_alpha   89.99716627
_cell_angle_beta   89.99642834
_cell_angle_gamma   90.00688728
_symmetry_Int_Tables_number   1
_chemical_formula_structural   AgSbTe2
_chemical_formula_sum   'Ag16 Sb16 Te32'
_cell_volume   1856.16498711
_cell_formula_units_Z   16
loop_
 _symmetry_equiv_pos_site_id
 _symmetry_equiv_pos_as_xyz
  1  'x, y, z'
loop_
 _atom_site_type_symbol
 _atom_site_label
 _atom_site_symmetry_multiplicity
 _atom_site_fract_x
 _atom_site_fract_y
 _atom_site_fract_z
 _atom_site_occupancy
  Ag  Ag0  1  0.25560440  0.00489408  0.25062978  1
  Ag  Ag1  1  0.26157930  0.24101798  0.50189856  1
  Ag  Ag2  1  0.00418436  0.75539203  0.25299777  1
  Ag  Ag3  1  0.49892101  0.00928368  0.50747915  1
  Ag  Ag4  1  0.73819582  0.24181387  0.50095973  1
  Ag  Ag5  1  0.24950525  0.76514193  -0.00606931  1
  Ag  Ag6  1  0.00096942  0.49912062  0.50069400  1
  Ag  Ag7  1  0.49361141  0.76719414  0.74825396  1
  Ag  Ag8  1  0.25745817  0.23955759  -0.00149959  1
  Ag  Ag9  1  0.73608457  0.00554348  0.74457105  1
  Ag  Ag10  1  0.74006664  0.24311145  -0.00102404  1
  Ag  Ag11  1  0.26268938  0.00161498  0.74902154  1
  Ag  Ag12  1  0.00662568  0.75553021  0.74849039  1
  Ag  Ag13  1  0.49857386  0.24106085  0.25637288  1
  Ag  Ag14  1  0.74261981  0.00635727  0.25468005  1
  Ag  Ag15  1  0.49800043  0.23679042  0.74273168  1
  Sb  Sb16  1  0.24920799  0.49567087  0.25137102  1
  Sb  Sb17  1  0.49815126  0.00345227  -0.00896796  1
  Sb  Sb18  1  0.24947654  0.49751394  0.74929408  1
  Sb  Sb19  1  0.49941253  0.49259163  0.50097396  1
  Sb  Sb20  1  0.00138694  -0.00040908  -0.00069830  1
  Sb  Sb21  1  0.00133601  0.24299149  0.74857709  1
  Sb  Sb22  1  0.74710789  0.75959496  -0.00246275  1
  Sb  Sb23  1  0.00084266  0.24455112  0.25112430  1
  Sb  Sb24  1  0.49588236  0.76549716  0.25054131  1
  Sb  Sb25  1  0.25063887  0.75959380  0.50323289  1
  Sb  Sb26  1  0.49951884  0.49702392  -0.00071233  1
  Sb  Sb27  1  0.74964377  0.75934877  0.50106022  1
  Sb  Sb28  1  0.75231486  0.49139945  0.25259671  1
  Sb  Sb29  1  0.75093851  0.49235333  0.74823094  1
  Sb  Sb30  1  0.00032166  0.50197893  -0.00058781  1
  Sb  Sb31  1  0.00031871  0.00066593  0.50058566  1
  Te  Te32  1  0.24709373  0.24559728  0.24635474  1
  Te  Te33  1  0.24750008  0.24684433  0.75313944  1
  Te  Te34  1  0.25253347  0.75649137  0.24911622  1
  Te  Te35  1  0.25217076  0.75377148  0.74908999  1
  Te  Te36  1  0.75409123  0.24501985  0.25049938  1
  Te  Te37  1  0.75396250  0.24455093  0.74936943  1
  Te  Te38  1  0.74922053  0.75974179  0.24738237  1
  Te  Te39  1  0.74692082  0.75962034  0.75191065  1
  Te  Te40  1  0.25040061  0.00212651  -0.00038779  1
  Te  Te41  1  0.24903283  0.00402151  0.50128924  1
  Te  Te42  1  0.25017648  0.49291850  0.00057991  1
  Te  Te43  1  0.24791109  0.48400270  0.49954533  1
  Te  Te44  1  0.75144462  0.00668294  0.00083719  1
  Te  Te45  1  0.75096340  0.00330920  0.50121745  1
  Te  Te46  1  0.74944059  0.48103620  0.00076221  1
  Te  Te47  1  0.75192542  0.48620346  0.49948673  1
  Te  Te48  1  0.00667188  0.25084149  -0.00048352  1
  Te  Te49  1  0.00125432  0.25222400  0.50094792  1
  Te  Te50  1  0.00555002  0.75053584  -0.00325122  1
  Te  Te51  1  -0.00031598  0.74791728  0.50136705  1
  Te  Te52  1  0.49602063  0.24786868  -0.00285681  1
  Te  Te53  1  0.49870528  0.24582115  0.50408936  1
  Te  Te54  1  0.49381326  0.74859225  -0.00611925  1
  Te  Te55  1  0.50007007  0.75468769  0.50535906  1
  Te  Te56  1  0.00266547  -0.00562675  0.24992224  1
  Te  Te57  1  0.00178352  -0.00549822  0.75045624  1
  Te  Te58  1  -0.00056323  0.51407931  0.25404287  1
  Te  Te59  1  -0.00114267  0.51513057  0.74590922  1
  Te  Te60  1  0.49890501  0.00447076  0.25858411  1
  Te  Te61  1  0.49809957  0.00327434  0.74692945  1
  Te  Te62  1  0.50134015  0.48476560  0.25128631  1
  Te  Te63  1  0.50116563  0.50173457  0.74927784  1
