# generated using pymatgen
data_AgSbTe2
_symmetry_space_group_name_H-M   'P 1'
_cell_length_a   12.21724757
_cell_length_b   12.22131036
_cell_length_c   12.21324049
_cell_angle_alpha   89.99623433
_cell_angle_beta   90.00090902
_cell_angle_gamma   89.99744615
_symmetry_Int_Tables_number   1
_chemical_formula_structural   AgSbTe2
_chemical_formula_sum   'Ag16 Sb16 Te32'
_cell_volume   1823.56838786
_cell_formula_units_Z   16
loop_
 _symmetry_equiv_pos_site_id
 _symmetry_equiv_pos_as_xyz
  1  'x, y, z'
loop_
 _atom_site_type_symbol
 _atom_site_label
 _atom_site_symmetry_multiplicity
 _atom_site_fract_x
 _atom_site_fract_y
 _atom_site_fract_z
 _atom_site_occupancy
  Ag  Ag0  1  0.74601144  0.75162916  0.50119059  1
  Ag  Ag1  1  0.50337005  0.75101893  0.74922357  1
  Ag  Ag2  1  0.24999537  -0.00221865  0.24601114  1
  Ag  Ag3  1  0.74995543  -0.00267057  0.24609463  1
  Ag  Ag4  1  -0.00651136  0.49696102  -0.00194591  1
  Ag  Ag5  1  0.75120894  0.74756771  -0.00054625  1
  Ag  Ag6  1  0.24898843  0.75378779  -0.00025159  1
  Ag  Ag7  1  0.25382862  0.75377394  0.50084339  1
  Ag  Ag8  1  0.75038829  0.50039833  0.75700383  1
  Ag  Ag9  1  0.50092349  -0.00424893  0.50085811  1
  Ag  Ag10  1  0.24494549  0.24682365  -0.00169313  1
  Ag  Ag11  1  -0.00111716  0.00295291  0.00054180  1
  Ag  Ag12  1  0.75470916  0.25256018  -0.00341973  1
  Ag  Ag13  1  0.75137706  0.50272899  0.24213752  1
  Ag  Ag14  1  0.50319843  0.24916423  0.75308533  1
  Ag  Ag15  1  -0.00350163  0.25062641  0.75764161  1
  Sb  Sb16  1  0.25046403  -0.00103115  0.75485515  1
  Sb  Sb17  1  0.50883067  0.50085887  -0.00208199  1
  Sb  Sb18  1  -0.00131638  0.24913206  0.24047200  1
  Sb  Sb19  1  0.50137781  0.50509635  0.50319549  1
  Sb  Sb20  1  0.50072202  -0.00113547  -0.00082837  1
  Sb  Sb21  1  -0.00307915  0.50054176  0.50196126  1
  Sb  Sb22  1  0.74812521  0.24726368  0.50371142  1
  Sb  Sb23  1  0.24874535  0.50104732  0.75357002  1
  Sb  Sb24  1  0.50188029  0.24705798  0.24510463  1
  Sb  Sb25  1  -0.00044485  -0.00085586  0.49958241  1
  Sb  Sb26  1  0.74915884  -0.00088605  0.75496461  1
  Sb  Sb27  1  0.25236950  0.24525796  0.50156984  1
  Sb  Sb28  1  -0.00427029  0.74899401  0.75463935  1
  Sb  Sb29  1  -0.00262500  0.75047282  0.24596282  1
  Sb  Sb30  1  0.24855866  0.50207133  0.24477045  1
  Sb  Sb31  1  0.50230364  0.75225615  0.25134494  1
  Te  Te32  1  0.25070534  0.24602706  0.24439735  1
  Te  Te33  1  0.25260424  0.25090526  0.75475116  1
  Te  Te34  1  0.25161639  0.75349228  0.24673415  1
  Te  Te35  1  0.25522299  0.74893168  0.75204519  1
  Te  Te36  1  0.74898744  0.24848935  0.24596490  1
  Te  Te37  1  0.74828238  0.25141911  0.75194398  1
  Te  Te38  1  0.74873778  0.75142165  0.24745437  1
  Te  Te39  1  0.74773711  0.74887557  0.75182626  1
  Te  Te40  1  0.24953078  -0.00194561  0.00326263  1
  Te  Te41  1  0.25018552  -0.00519136  0.49375231  1
  Te  Te42  1  0.24173519  0.50136308  0.00249645  1
  Te  Te43  1  0.24918352  0.50972720  0.49702239  1
  Te  Te44  1  0.75059296  -0.00143565  0.00375044  1
  Te  Te45  1  0.74945415  -0.00422018  0.49284928  1
  Te  Te46  1  0.75206341  0.50125453  -0.00050962  1
  Te  Te47  1  0.75159309  0.50622889  0.49952174  1
  Te  Te48  1  -0.00151457  0.24901525  -0.00290135  1
  Te  Te49  1  0.00144610  0.24989806  0.51277765  1
  Te  Te50  1  -0.00012615  0.75118950  -0.00248946  1
  Te  Te51  1  0.00017838  0.75057688  0.50328822  1
  Te  Te52  1  0.50056856  0.24985504  -0.00617413  1
  Te  Te53  1  0.49871672  0.24329597  0.50959490  1
  Te  Te54  1  0.49946918  0.75046595  -0.00637857  1
  Te  Te55  1  0.50151618  0.75348959  0.50395425  1
  Te  Te56  1  -0.00084168  0.00042547  0.24464783  1
  Te  Te57  1  -0.00000009  0.00623559  0.75658039  1
  Te  Te58  1  -0.00755116  0.49917856  0.24396288  1
  Te  Te59  1  -0.00499721  0.49584175  0.75476726  1
  Te  Te60  1  0.50095947  0.00099196  0.25604106  1
  Te  Te61  1  0.50002206  -0.00081474  0.74467453  1
  Te  Te62  1  0.50925807  0.49825514  0.25154750  1
  Te  Te63  1  0.50609344  0.49976033  0.74927510  1
