# generated using pymatgen
data_AgSbTe2
_symmetry_space_group_name_H-M   'P 1'
_cell_length_a   12.22743654
_cell_length_b   12.22652924
_cell_length_c   12.22487615
_cell_angle_alpha   90.00858390
_cell_angle_beta   90.00004482
_cell_angle_gamma   89.99896937
_symmetry_Int_Tables_number   1
_chemical_formula_structural   AgSbTe2
_chemical_formula_sum   'Ag16 Sb16 Te32'
_cell_volume   1827.60808665
_cell_formula_units_Z   16
loop_
 _symmetry_equiv_pos_site_id
 _symmetry_equiv_pos_as_xyz
  1  'x, y, z'
loop_
 _atom_site_type_symbol
 _atom_site_label
 _atom_site_symmetry_multiplicity
 _atom_site_fract_x
 _atom_site_fract_y
 _atom_site_fract_z
 _atom_site_occupancy
  Ag  Ag0  1  0.25528730  0.24700911  0.50173170  1
  Ag  Ag1  1  0.51358174  0.24779229  0.75163718  1
  Ag  Ag2  1  0.74533672  0.01449714  0.75422803  1
  Ag  Ag3  1  0.74591135  0.24968160  0.51490629  1
  Ag  Ag4  1  0.74825579  0.48549574  0.76428627  1
  Ag  Ag5  1  0.50125086  0.75154095  0.24289765  1
  Ag  Ag6  1  0.74700273  0.49816463  0.23526299  1
  Ag  Ag7  1  -0.01472776  0.25131504  0.75212778  1
  Ag  Ag8  1  0.74598568  0.26293332  -0.01332346  1
  Ag  Ag9  1  0.50409384  -0.00233099  -0.00049999  1
  Ag  Ag10  1  0.25609468  -0.00011785  0.24817113  1
  Ag  Ag11  1  0.51354643  0.50163043  -0.00013703  1
  Ag  Ag12  1  0.50142028  0.00513499  0.50131678  1
  Ag  Ag13  1  0.25854193  0.75070848  0.00242581  1
  Ag  Ag14  1  -0.01459109  0.49833611  -0.00184550  1
  Ag  Ag15  1  0.74326915  0.73614084  -0.00048732  1
  Sb  Sb16  1  0.25389902  0.50031949  0.24611569  1
  Sb  Sb17  1  0.25641752  0.75399570  0.49700883  1
  Sb  Sb18  1  -0.00265261  0.74844557  0.24578016  1
  Sb  Sb19  1  0.25585647  0.00297053  0.75127080  1
  Sb  Sb20  1  0.50311839  0.49379710  0.50102621  1
  Sb  Sb21  1  -0.00250687  0.00412566  0.50188487  1
  Sb  Sb22  1  0.25313261  0.49741973  0.75288329  1
  Sb  Sb23  1  0.74531532  0.75118135  0.50015702  1
  Sb  Sb24  1  -0.00450729  0.00199151  -0.00207141  1
  Sb  Sb25  1  -0.00402971  0.74740447  0.75412908  1
  Sb  Sb26  1  0.25439535  0.24953400  -0.00146255  1
  Sb  Sb27  1  0.74441088  0.00103961  0.24594827  1
  Sb  Sb28  1  -0.00254492  0.25160946  0.24684342  1
  Sb  Sb29  1  -0.00371999  0.49582982  0.50338904  1
  Sb  Sb30  1  0.50302741  0.75210867  0.75850980  1
  Sb  Sb31  1  0.50191343  0.24886355  0.24843738  1
  Te  Te32  1  0.24921067  0.24644468  0.25536878  1
  Te  Te33  1  0.25120834  0.24966557  0.74584059  1
  Te  Te34  1  0.25409191  0.75226482  0.24592201  1
  Te  Te35  1  0.24872110  0.74996506  0.75693603  1
  Te  Te36  1  0.75065078  0.25272754  0.24920143  1
  Te  Te37  1  0.74779080  0.24976112  0.75058771  1
  Te  Te38  1  0.74676482  0.74781157  0.24645776  1
  Te  Te39  1  0.74975820  0.74910771  0.75402284  1
  Te  Te40  1  0.25381688  -0.00271072  0.00188694  1
  Te  Te41  1  0.25452644  0.00349470  0.49842725  1
  Te  Te42  1  0.25215373  0.50384974  0.00088733  1
  Te  Te43  1  0.24928385  0.49294396  0.49964341  1
  Te  Te44  1  0.74714049  0.00116844  -0.00047427  1
  Te  Te45  1  0.74637928  0.00348205  0.50158691  1
  Te  Te46  1  0.74766439  0.49972519  -0.00025593  1
  Te  Te47  1  0.74951606  0.49566041  0.50104242  1
  Te  Te48  1  -0.00199595  0.25361726  -0.00421916  1
  Te  Te49  1  -0.00288385  0.25000760  0.50626101  1
  Te  Te50  1  -0.00219247  0.74495167  -0.00026526  1
  Te  Te51  1  0.00217081  0.74970715  0.50022655  1
  Te  Te52  1  0.50074747  0.24933169  -0.00170552  1
  Te  Te53  1  0.50230210  0.24690908  0.50169378  1
  Te  Te54  1  0.50182340  0.75104072  0.00099323  1
  Te  Te55  1  0.49918371  0.75833222  0.49141162  1
  Te  Te56  1  0.01118538  -0.00028882  0.25009222  1
  Te  Te57  1  -0.00825370  0.00615388  0.75040797  1
  Te  Te58  1  -0.00665509  0.50002782  0.24332563  1
  Te  Te59  1  -0.00456120  0.49612754  0.75402469  1
  Te  Te60  1  0.49792025  -0.00139167  0.24696625  1
  Te  Te61  1  0.50354356  0.00172418  0.75204064  1
  Te  Te62  1  0.50378310  0.50347786  0.24625196  1
  Te  Te63  1  0.50342011  0.49634195  0.75286499  1
