# generated using pymatgen
data_AgSbTe2
_symmetry_space_group_name_H-M   'P 1'
_cell_length_a   12.22911604
_cell_length_b   12.24454179
_cell_length_c   12.23077076
_cell_angle_alpha   90.00369142
_cell_angle_beta   89.99450488
_cell_angle_gamma   89.99690325
_symmetry_Int_Tables_number   1
_chemical_formula_structural   AgSbTe2
_chemical_formula_sum   'Ag16 Sb16 Te32'
_cell_volume   1831.43464888
_cell_formula_units_Z   16
loop_
 _symmetry_equiv_pos_site_id
 _symmetry_equiv_pos_as_xyz
  1  'x, y, z'
loop_
 _atom_site_type_symbol
 _atom_site_label
 _atom_site_symmetry_multiplicity
 _atom_site_fract_x
 _atom_site_fract_y
 _atom_site_fract_z
 _atom_site_occupancy
  Ag  Ag0  1  0.74823026  0.74954244  0.00776860  1
  Ag  Ag1  1  0.75081673  0.50308080  0.74718069  1
  Ag  Ag2  1  0.25109593  0.75073326  0.00733343  1
  Ag  Ag3  1  0.75867944  0.50095819  0.25387616  1
  Ag  Ag4  1  0.50365480  -0.00446210  0.00339543  1
  Ag  Ag5  1  0.50469108  0.74937475  0.75392208  1
  Ag  Ag6  1  0.75214536  0.74316805  0.49131431  1
  Ag  Ag7  1  0.24528129  0.25285297  0.49199593  1
  Ag  Ag8  1  0.24775145  -0.00142035  0.24831160  1
  Ag  Ag9  1  0.24135003  0.50078039  0.25208174  1
  Ag  Ag10  1  -0.00611437  0.74478993  0.25020981  1
  Ag  Ag11  1  -0.00604469  0.49854988  0.49242490  1
  Ag  Ag12  1  -0.00579165  0.25598007  0.25392070  1
  Ag  Ag13  1  0.75069365  0.25095339  0.01078874  1
  Ag  Ag14  1  0.75445419  0.25673629  0.49026224  1
  Ag  Ag15  1  0.75276443  -0.00098014  0.24757022  1
  Sb  Sb16  1  0.50813991  0.24945715  0.24966461  1
  Sb  Sb17  1  0.50335332  0.50368702  0.00084423  1
  Sb  Sb18  1  0.50193115  -0.00143319  0.49641013  1
  Sb  Sb19  1  -0.00328736  0.74649514  0.74981081  1
  Sb  Sb20  1  -0.00112578  0.00147117  0.49471205  1
  Sb  Sb21  1  0.50698433  0.50106885  0.49916978  1
  Sb  Sb22  1  -0.00316596  -0.00095468  0.00564253  1
  Sb  Sb23  1  0.24956626  0.24981792  0.00980166  1
  Sb  Sb24  1  0.24870102  0.50260315  0.74776935  1
  Sb  Sb25  1  -0.00326255  0.50043467  0.00855937  1
  Sb  Sb26  1  0.25310048  -0.00197214  0.75186309  1
  Sb  Sb27  1  -0.00306221  0.25335397  0.74610543  1
  Sb  Sb28  1  0.74767840  -0.00163322  0.75192724  1
  Sb  Sb29  1  0.50775805  0.75047697  0.24757870  1
  Sb  Sb30  1  0.24856589  0.74814366  0.49159914  1
  Sb  Sb31  1  0.50289048  0.25075488  0.75102857  1
  Te  Te32  1  0.24518857  0.25073947  0.25168285  1
  Te  Te33  1  0.24967089  0.25080384  0.74179991  1
  Te  Te34  1  0.24717664  0.75014767  0.24792346  1
  Te  Te35  1  0.25284456  0.74979894  0.75740252  1
  Te  Te36  1  0.75185362  0.25056752  0.25017868  1
  Te  Te37  1  0.75017843  0.25403000  0.74881535  1
  Te  Te38  1  0.75048694  0.74977619  0.24903225  1
  Te  Te39  1  0.74946141  0.74776263  0.75245401  1
  Te  Te40  1  0.25327059  -0.00234948  0.00392484  1
  Te  Te41  1  0.25099110  0.00384489  0.49401517  1
  Te  Te42  1  0.25087955  0.50277966  0.00368849  1
  Te  Te43  1  0.24618863  0.49747722  0.49617004  1
  Te  Te44  1  0.74805755  -0.00243855  0.00277054  1
  Te  Te45  1  0.74861827  0.00060751  0.49542783  1
  Te  Te46  1  0.75006059  0.50140879  0.00279967  1
  Te  Te47  1  0.75092694  0.50023932  0.49484232  1
  Te  Te48  1  -0.00580504  0.25022136  0.00565616  1
  Te  Te49  1  -0.00338013  0.25174284  0.49656300  1
  Te  Te50  1  -0.00105915  0.74947651  0.00466386  1
  Te  Te51  1  -0.00384544  0.74689388  0.49585722  1
  Te  Te52  1  0.50583964  0.24283980  -0.00192552  1
  Te  Te53  1  0.50191414  0.24899738  0.50172964  1
  Te  Te54  1  0.50321071  0.75243667  -0.00199839  1
  Te  Te55  1  0.50530126  0.75153903  0.50774308  1
  Te  Te56  1  -0.00157365  -0.00168943  0.25024238  1
  Te  Te57  1  0.00115929  0.00014713  0.74931725  1
  Te  Te58  1  -0.00212322  0.50066493  0.25231737  1
  Te  Te59  1  -0.00597185  0.49972634  0.73893101  1
  Te  Te60  1  0.49993991  -0.00001738  0.24599895  1
  Te  Te61  1  0.49937620  -0.00576149  0.75721955  1
  Te  Te62  1  0.49657005  0.50001101  0.24984687  1
  Te  Te63  1  0.50616966  0.50516669  0.75006638  1
