# generated using pymatgen
data_AgSbTe2
_symmetry_space_group_name_H-M   'P 1'
_cell_length_a   12.28444957
_cell_length_b   12.29574849
_cell_length_c   12.30276203
_cell_angle_alpha   89.99249094
_cell_angle_beta   90.00866099
_cell_angle_gamma   89.99441514
_symmetry_Int_Tables_number   1
_chemical_formula_structural   AgSbTe2
_chemical_formula_sum   'Ag16 Sb16 Te32'
_cell_volume   1858.28912730
_cell_formula_units_Z   16
loop_
 _symmetry_equiv_pos_site_id
 _symmetry_equiv_pos_as_xyz
  1  'x, y, z'
loop_
 _atom_site_type_symbol
 _atom_site_label
 _atom_site_symmetry_multiplicity
 _atom_site_fract_x
 _atom_site_fract_y
 _atom_site_fract_z
 _atom_site_occupancy
  Ag  Ag0  1  0.50402812  0.01370704  0.50570693  1
  Ag  Ag1  1  0.74500360  0.49536933  0.76958825  1
  Ag  Ag2  1  0.74906248  0.48993546  0.22833636  1
  Ag  Ag3  1  0.74950463  0.72975547  -0.00483383  1
  Ag  Ag4  1  0.50748487  0.25113880  0.75869961  1
  Ag  Ag5  1  -0.01111343  0.74621092  0.75704473  1
  Ag  Ag6  1  -0.02135635  0.49394166  -0.00140293  1
  Ag  Ag7  1  -0.00813617  0.25268644  0.24176035  1
  Ag  Ag8  1  0.26031432  0.25053396  0.50240520  1
  Ag  Ag9  1  0.26116054  0.25237496  -0.00137901  1
  Ag  Ag10  1  0.74754330  0.01022509  0.23408100  1
  Ag  Ag11  1  0.50496621  0.48628864  0.50582104  1
  Ag  Ag12  1  0.51106194  0.01565675  -0.00558677  1
  Ag  Ag13  1  0.74061182  0.26716781  -0.00063933  1
  Ag  Ag14  1  0.51892679  0.48486083  -0.00532677  1
  Ag  Ag15  1  0.74328642  0.00542564  0.76489709  1
  Sb  Sb16  1  0.50334658  0.75009328  0.24956568  1
  Sb  Sb17  1  0.50756421  0.24988596  0.24248137  1
  Sb  Sb18  1  0.25702417  0.49786445  0.75122278  1
  Sb  Sb19  1  0.25219414  0.74957338  0.50400696  1
  Sb  Sb20  1  0.50472057  0.74942670  0.75202247  1
  Sb  Sb21  1  -0.00592669  0.00629458  0.50133058  1
  Sb  Sb22  1  0.25918166  0.00262838  0.75134171  1
  Sb  Sb23  1  0.25092234  0.74929109  -0.00175103  1
  Sb  Sb24  1  0.74164276  0.25050322  0.50063551  1
  Sb  Sb25  1  -0.00838681  0.74785976  0.24496612  1
  Sb  Sb26  1  0.25337602  0.49507882  0.24780097  1
  Sb  Sb27  1  0.25510685  0.00643211  0.24759285  1
  Sb  Sb28  1  0.75085643  0.74928041  0.50517816  1
  Sb  Sb29  1  -0.00678952  0.49499979  0.50070492  1
  Sb  Sb30  1  -0.01313797  0.00585682  0.00033770  1
  Sb  Sb31  1  -0.00837419  0.25023715  0.75231114  1
  Te  Te32  1  0.23711106  0.25018131  0.24335312  1
  Te  Te33  1  0.25802018  0.24973295  0.75431621  1
  Te  Te34  1  0.24701063  0.75219474  0.25149487  1
  Te  Te35  1  0.23307001  0.75112186  0.75077506  1
  Te  Te36  1  0.75264217  0.25064178  0.25089154  1
  Te  Te37  1  0.74409703  0.25043979  0.74948488  1
  Te  Te38  1  0.74887804  0.74991086  0.23987884  1
  Te  Te39  1  0.75171988  0.74900528  0.75465991  1
  Te  Te40  1  0.26466616  0.00509175  0.00043027  1
  Te  Te41  1  0.26191770  0.00327505  0.49952646  1
  Te  Te42  1  0.25484963  0.49473571  0.00074465  1
  Te  Te43  1  0.26272056  0.49636867  0.49956639  1
  Te  Te44  1  0.74791198  0.00444133  -0.00090020  1
  Te  Te45  1  0.74455854  -0.00045700  0.50052792  1
  Te  Te46  1  0.74973546  0.49929366  -0.00032113  1
  Te  Te47  1  0.74356021  0.50090610  0.50027516  1
  Te  Te48  1  -0.00181220  0.25241310  0.00037132  1
  Te  Te49  1  0.01426453  0.25034281  0.49691578  1
  Te  Te50  1  0.00067301  0.74336068  -0.00305426  1
  Te  Te51  1  0.00277908  0.74971910  0.50716439  1
  Te  Te52  1  0.50340021  0.25142467  -0.00017675  1
  Te  Te53  1  0.49914957  0.25085466  0.50111147  1
  Te  Te54  1  0.50138005  0.74804361  -0.00023490  1
  Te  Te55  1  0.49885116  0.74954391  0.49963147  1
  Te  Te56  1  -0.01103758  0.00174604  0.25069336  1
  Te  Te57  1  -0.01291918  0.00192082  0.75036527  1
  Te  Te58  1  -0.00697547  0.49814567  0.25048086  1
  Te  Te59  1  -0.00863157  0.49606231  0.75026752  1
  Te  Te60  1  0.50765236  -0.00007326  0.24920747  1
  Te  Te61  1  0.50488488  -0.00121966  0.75285199  1
  Te  Te62  1  0.50602381  0.50001401  0.24740760  1
  Te  Te63  1  0.50417849  0.50023300  0.75337365  1
