# generated using pymatgen
data_AgSbTe2
_symmetry_space_group_name_H-M   'P 1'
_cell_length_a   12.22957119
_cell_length_b   12.22656891
_cell_length_c   12.22149360
_cell_angle_alpha   89.99916914
_cell_angle_beta   90.00714845
_cell_angle_gamma   90.00273329
_symmetry_Int_Tables_number   1
_chemical_formula_structural   AgSbTe2
_chemical_formula_sum   'Ag16 Sb16 Te32'
_cell_volume   1827.42730699
_cell_formula_units_Z   16
loop_
 _symmetry_equiv_pos_site_id
 _symmetry_equiv_pos_as_xyz
  1  'x, y, z'
loop_
 _atom_site_type_symbol
 _atom_site_label
 _atom_site_symmetry_multiplicity
 _atom_site_fract_x
 _atom_site_fract_y
 _atom_site_fract_z
 _atom_site_occupancy
  Ag  Ag0  1  0.25338581  0.49966457  0.75625296  1
  Ag  Ag1  1  -0.00249429  0.00612448  0.00078803  1
  Ag  Ag2  1  0.24873753  0.25593617  0.50362140  1
  Ag  Ag3  1  0.25068580  0.74210312  -0.00346204  1
  Ag  Ag4  1  0.75000738  0.74467920  -0.00295909  1
  Ag  Ag5  1  0.00069382  0.25164658  0.24064303  1
  Ag  Ag6  1  0.25127236  0.74491741  0.50331928  1
  Ag  Ag7  1  0.00134870  0.49530542  -0.00330034  1
  Ag  Ag8  1  0.49805610  0.50070637  -0.00699184  1
  Ag  Ag9  1  0.49812406  0.25964520  0.75463710  1
  Ag  Ag10  1  0.75609456  0.25450400  -0.00311876  1
  Ag  Ag11  1  0.49636539  0.74071259  0.75551529  1
  Ag  Ag12  1  0.74687158  0.49736465  0.75801307  1
  Ag  Ag13  1  0.24795737  0.49906015  0.24361627  1
  Ag  Ag14  1  0.00109389  0.25547327  0.75868638  1
  Ag  Ag15  1  0.75385876  0.00216379  0.24304962  1
  Sb  Sb16  1  0.49566307  0.49970268  0.50885110  1
  Sb  Sb17  1  0.49855718  0.74661312  0.24451790  1
  Sb  Sb18  1  0.00124340  0.00260381  0.50023980  1
  Sb  Sb19  1  0.49843083  0.25378561  0.24430572  1
  Sb  Sb20  1  0.75203805  0.00170172  0.75569471  1
  Sb  Sb21  1  0.00336578  0.49817492  0.50341657  1
  Sb  Sb22  1  0.74800510  0.74854876  0.50390698  1
  Sb  Sb23  1  0.00128819  0.74737155  0.24554292  1
  Sb  Sb24  1  0.00314593  0.74359960  0.75486877  1
  Sb  Sb25  1  0.49857384  0.00033348  0.50150014  1
  Sb  Sb26  1  0.24294402  0.26021570  -0.00384523  1
  Sb  Sb27  1  0.75000619  0.25152956  0.50284225  1
  Sb  Sb28  1  0.75272224  0.49875339  0.23933181  1
  Sb  Sb29  1  0.24659698  0.00196801  0.24584845  1
  Sb  Sb30  1  0.24886610  0.00123839  0.75348086  1
  Sb  Sb31  1  0.50137125  0.00044462  -0.00131096  1
  Te  Te32  1  0.24794697  0.25295622  0.25441485  1
  Te  Te33  1  0.25025785  0.25161232  0.74904220  1
  Te  Te34  1  0.25032962  0.74611047  0.24970350  1
  Te  Te35  1  0.25091550  0.74813918  0.75234372  1
  Te  Te36  1  0.75260978  0.25001072  0.24880275  1
  Te  Te37  1  0.75032245  0.25185342  0.75138706  1
  Te  Te38  1  0.74977826  0.75135775  0.24628104  1
  Te  Te39  1  0.74766542  0.74751384  0.75297264  1
  Te  Te40  1  0.24429113  -0.01256850  0.00157403  1
  Te  Te41  1  0.24947348  -0.00228221  0.49804053  1
  Te  Te42  1  0.24920428  0.50079755  -0.00249927  1
  Te  Te43  1  0.24985191  0.50027503  0.50100395  1
  Te  Te44  1  0.75321674  -0.00005195  0.00208241  1
  Te  Te45  1  0.75034484  -0.00156628  0.49006037  1
  Te  Te46  1  0.75137860  0.50017371  -0.00225468  1
  Te  Te47  1  0.75038231  0.50158130  0.50933301  1
  Te  Te48  1  0.00037251  0.25232535  -0.00067538  1
  Te  Te49  1  0.00410314  0.24943253  0.50072018  1
  Te  Te50  1  -0.00167552  0.74735944  -0.00090403  1
  Te  Te51  1  0.00767342  0.75086321  0.50034430  1
  Te  Te52  1  0.50517197  0.25121089  -0.00437975  1
  Te  Te53  1  0.49490266  0.24991051  0.50736957  1
  Te  Te54  1  0.50041998  0.74854996  -0.00378552  1
  Te  Te55  1  0.49464381  0.75008919  0.50792428  1
  Te  Te56  1  -0.00280443  0.00572187  0.24479093  1
  Te  Te57  1  -0.00065140  0.00993715  0.75580891  1
  Te  Te58  1  0.00382198  0.49536263  0.24470138  1
  Te  Te59  1  0.00191592  0.49616331  0.75351411  1
  Te  Te60  1  0.50721266  0.00082681  0.25005074  1
  Te  Te61  1  0.50052344  0.00119916  0.75018383  1
  Te  Te62  1  0.49404411  0.49953624  0.24052320  1
  Te  Te63  1  0.49747966  0.49900731  0.75402297  1
