# generated using pymatgen
data_AgSbTe2
_symmetry_space_group_name_H-M   'P 1'
_cell_length_a   12.22765273
_cell_length_b   12.22078063
_cell_length_c   12.23544312
_cell_angle_alpha   89.99871796
_cell_angle_beta   89.99972064
_cell_angle_gamma   90.00622276
_symmetry_Int_Tables_number   1
_chemical_formula_structural   AgSbTe2
_chemical_formula_sum   'Ag16 Sb16 Te32'
_cell_volume   1828.36013759
_cell_formula_units_Z   16
loop_
 _symmetry_equiv_pos_site_id
 _symmetry_equiv_pos_as_xyz
  1  'x, y, z'
loop_
 _atom_site_type_symbol
 _atom_site_label
 _atom_site_symmetry_multiplicity
 _atom_site_fract_x
 _atom_site_fract_y
 _atom_site_fract_z
 _atom_site_occupancy
  Ag  Ag0  1  0.50422495  0.50623386  0.50523295  1
  Ag  Ag1  1  0.74808742  -0.01103064  0.74974744  1
  Ag  Ag2  1  0.74433522  0.50918706  0.74691096  1
  Ag  Ag3  1  -0.00668066  0.74564506  0.25229457  1
  Ag  Ag4  1  0.74809837  0.74524910  -0.00064794  1
  Ag  Ag5  1  0.25274357  0.74355257  -0.00276166  1
  Ag  Ag6  1  -0.00460482  0.50498338  0.49702352  1
  Ag  Ag7  1  0.24992544  0.25786667  -0.00001048  1
  Ag  Ag8  1  0.75008830  0.74316407  0.50027637  1
  Ag  Ag9  1  0.25502095  0.50625900  0.75148429  1
  Ag  Ag10  1  0.49999622  0.50523081  -0.00537123  1
  Ag  Ag11  1  0.25003338  0.74350983  0.50190394  1
  Ag  Ag12  1  -0.00173921  0.25555725  0.24972140  1
  Ag  Ag13  1  0.75305766  0.50826808  0.25333404  1
  Ag  Ag14  1  0.75251635  -0.00951115  0.25028093  1
  Ag  Ag15  1  0.50488048  0.74350049  0.75036686  1
  Sb  Sb16  1  0.00032939  0.25519946  0.75105136  1
  Sb  Sb17  1  0.74994982  0.25674400  0.00165668  1
  Sb  Sb18  1  -0.00345837  -0.00641890  0.49799471  1
  Sb  Sb19  1  0.50057065  0.25465932  0.24820406  1
  Sb  Sb20  1  0.50369140  -0.00903846  0.50167712  1
  Sb  Sb21  1  0.50297855  -0.00652482  -0.00129267  1
  Sb  Sb22  1  0.24660521  0.50332618  0.24856988  1
  Sb  Sb23  1  -0.00017175  0.50272043  0.00354130  1
  Sb  Sb24  1  0.24806808  -0.00409395  0.24956421  1
  Sb  Sb25  1  0.50787191  0.74627170  0.24930870  1
  Sb  Sb26  1  0.25213711  -0.00847033  0.75063767  1
  Sb  Sb27  1  -0.00243950  -0.00265795  0.00112172  1
  Sb  Sb28  1  0.24766997  0.25990436  0.49998761  1
  Sb  Sb29  1  -0.00594664  0.74639829  0.74695103  1
  Sb  Sb30  1  0.50003931  0.25941131  0.75140354  1
  Sb  Sb31  1  0.75100283  0.25972735  0.49896805  1
  Te  Te32  1  0.24452642  0.24781956  0.24531753  1
  Te  Te33  1  0.24913811  0.25445510  0.75527021  1
  Te  Te34  1  0.24358550  0.75176756  0.24928326  1
  Te  Te35  1  0.25130102  0.74743642  0.75162065  1
  Te  Te36  1  0.75511569  0.25062769  0.24905749  1
  Te  Te37  1  0.75041921  0.25006469  0.75079797  1
  Te  Te38  1  0.75045200  0.74771884  0.24967086  1
  Te  Te39  1  0.75121195  0.74675400  0.75078245  1
  Te  Te40  1  0.25110065  -0.00409673  -0.00104798  1
  Te  Te41  1  0.25062939  -0.01016295  0.50096224  1
  Te  Te42  1  0.25058625  0.50470384  -0.00115400  1
  Te  Te43  1  0.25115320  0.50465717  0.50171793  1
  Te  Te44  1  0.74897487  -0.00632810  -0.00007938  1
  Te  Te45  1  0.74970811  -0.00804243  0.50003593  1
  Te  Te46  1  0.74907901  0.50290674  -0.00130051  1
  Te  Te47  1  0.74953403  0.50256111  0.50093884  1
  Te  Te48  1  0.00558088  0.25020396  0.00586662  1
  Te  Te49  1  0.00173625  0.25756985  0.49286365  1
  Te  Te50  1  -0.00031932  0.74953814  0.00645339  1
  Te  Te51  1  -0.00137985  0.74595508  0.49730280  1
  Te  Te52  1  0.49360207  0.25887729  0.00019911  1
  Te  Te53  1  0.49807925  0.26035222  0.49977099  1
  Te  Te54  1  0.50011041  0.74520541  -0.00147265  1
  Te  Te55  1  0.50093317  0.74487218  0.50191489  1
  Te  Te56  1  -0.00611995  -0.00180299  0.25028548  1
  Te  Te57  1  -0.00928161  0.00268437  0.74958118  1
  Te  Te58  1  -0.00329575  0.50277932  0.25301200  1
  Te  Te59  1  -0.00037019  0.49937084  0.74265806  1
  Te  Te60  1  0.50999902  0.00246235  0.25039910  1
  Te  Te61  1  0.50675735  -0.00862235  0.74955804  1
  Te  Te62  1  0.50737650  0.49955718  0.25013366  1
  Te  Te63  1  0.50119479  0.50333120  0.75046925  1
