# generated using pymatgen
data_AgSbTe2
_symmetry_space_group_name_H-M   'P 1'
_cell_length_a   12.30024533
_cell_length_b   12.29307651
_cell_length_c   12.31391099
_cell_angle_alpha   90.00105940
_cell_angle_beta   89.99079585
_cell_angle_gamma   89.99586650
_symmetry_Int_Tables_number   1
_chemical_formula_structural   AgSbTe2
_chemical_formula_sum   'Ag16 Sb16 Te32'
_cell_volume   1861.96006025
_cell_formula_units_Z   16
loop_
 _symmetry_equiv_pos_site_id
 _symmetry_equiv_pos_as_xyz
  1  'x, y, z'
loop_
 _atom_site_type_symbol
 _atom_site_label
 _atom_site_symmetry_multiplicity
 _atom_site_fract_x
 _atom_site_fract_y
 _atom_site_fract_z
 _atom_site_occupancy
  Ag  Ag0  1  0.74517392  0.25288983  0.00278799  1
  Ag  Ag1  1  0.73039496  0.49788208  0.24459636  1
  Ag  Ag2  1  0.49317288  0.00181571  0.48213575  1
  Ag  Ag3  1  0.74298072  0.49216856  0.75683438  1
  Ag  Ag4  1  0.49965083  0.26798066  0.24494247  1
  Ag  Ag5  1  0.00937198  0.00108906  0.49139159  1
  Ag  Ag6  1  0.50653203  0.49275914  0.01864195  1
  Ag  Ag7  1  0.24891528  0.00397300  0.75237154  1
  Ag  Ag8  1  0.26268258  -0.00251439  0.24876680  1
  Ag  Ag9  1  0.50239429  0.49757380  0.48003628  1
  Ag  Ag10  1  0.49784334  0.73213706  0.24918936  1
  Ag  Ag11  1  -0.00342538  0.24234997  0.75414532  1
  Ag  Ag12  1  0.26611738  0.50024092  0.24816086  1
  Ag  Ag13  1  0.49535290  0.00473401  0.01728809  1
  Ag  Ag14  1  0.00339496  0.75772322  0.24858929  1
  Ag  Ag15  1  0.00590773  0.00432344  0.00749363  1
  Sb  Sb16  1  0.74904810  0.74955838  0.49654407  1
  Sb  Sb17  1  0.25408585  0.49640143  0.75106962  1
  Sb  Sb18  1  -0.00172920  0.49534935  0.00523097  1
  Sb  Sb19  1  0.50135383  0.75237404  0.75092032  1
  Sb  Sb20  1  0.25014974  0.75160694  0.00202600  1
  Sb  Sb21  1  0.50144935  0.24866152  0.75123235  1
  Sb  Sb22  1  0.74133122  0.00193628  0.24863267  1
  Sb  Sb23  1  0.25346612  0.24805233  0.00169662  1
  Sb  Sb24  1  -0.00008716  0.49793150  0.49390317  1
  Sb  Sb25  1  0.74851020  0.00340872  0.75299934  1
  Sb  Sb26  1  0.25063506  0.75235659  0.49768215  1
  Sb  Sb27  1  0.74888681  0.74860333  0.00304324  1
  Sb  Sb28  1  0.00083094  0.24519748  0.24982613  1
  Sb  Sb29  1  0.25211501  0.24777600  0.49853016  1
  Sb  Sb30  1  -0.00196374  0.75287825  0.75173685  1
  Sb  Sb31  1  0.74729432  0.25096037  0.49674636  1
  Te  Te32  1  0.25381131  0.24827787  0.25043054  1
  Te  Te33  1  0.24132520  0.24335424  0.75066535  1
  Te  Te34  1  0.25160024  0.75382920  0.25031812  1
  Te  Te35  1  0.24983591  0.76181655  0.74947404  1
  Te  Te36  1  0.74773698  0.25298885  0.24700640  1
  Te  Te37  1  0.75231039  0.25486904  0.75407584  1
  Te  Te38  1  0.74767478  0.74201705  0.24966248  1
  Te  Te39  1  0.74972113  0.73253573  0.75007912  1
  Te  Te40  1  0.25384630  0.00012798  0.00765948  1
  Te  Te41  1  0.25374065  -0.00035389  0.49171807  1
  Te  Te42  1  0.25619929  0.49983118  0.00190469  1
  Te  Te43  1  0.25548704  0.49963173  0.49894512  1
  Te  Te44  1  0.74405671  0.00446607  -0.00044631  1
  Te  Te45  1  0.74368258  -0.00019087  0.50158819  1
  Te  Te46  1  0.75008930  0.49796347  0.00226314  1
  Te  Te47  1  0.74779769  0.50049974  0.49724039  1
  Te  Te48  1  -0.00558619  0.24686990  -0.00110116  1
  Te  Te49  1  -0.00079065  0.24359280  0.50347262  1
  Te  Te50  1  0.00020364  0.76079611  0.00521773  1
  Te  Te51  1  0.00064594  0.75897173  0.49383113  1
  Te  Te52  1  0.50207678  0.24707945  0.00177645  1
  Te  Te53  1  0.50009359  0.24610415  0.49635016  1
  Te  Te54  1  0.49958541  0.75644338  0.00242274  1
  Te  Te55  1  0.49945223  0.75461862  0.49630312  1
  Te  Te56  1  -0.00328248  -0.00056977  0.24950029  1
  Te  Te57  1  -0.00017941  0.00008195  0.75167787  1
  Te  Te58  1  0.00749797  0.50315201  0.25078572  1
  Te  Te59  1  0.00462729  0.50100870  0.74955283  1
  Te  Te60  1  0.50196907  0.00008498  0.24940043  1
  Te  Te61  1  0.49807953  -0.00105012  0.74903366  1
  Te  Te62  1  0.49714374  0.49965485  0.24968841  1
  Te  Te63  1  0.49771118  0.50131870  0.75031168  1
