# generated using pymatgen
data_AgSbTe2
_symmetry_space_group_name_H-M   'P 1'
_cell_length_a   12.21964369
_cell_length_b   12.21647028
_cell_length_c   12.21690983
_cell_angle_alpha   89.99725462
_cell_angle_beta   89.99180579
_cell_angle_gamma   89.99450879
_symmetry_Int_Tables_number   1
_chemical_formula_structural   AgSbTe2
_chemical_formula_sum   'Ag16 Sb16 Te32'
_cell_volume   1823.75143608
_cell_formula_units_Z   16
loop_
 _symmetry_equiv_pos_site_id
 _symmetry_equiv_pos_as_xyz
  1  'x, y, z'
loop_
 _atom_site_type_symbol
 _atom_site_label
 _atom_site_symmetry_multiplicity
 _atom_site_fract_x
 _atom_site_fract_y
 _atom_site_fract_z
 _atom_site_occupancy
  Ag  Ag0  1  0.00127719  0.25247331  0.74960768  1
  Ag  Ag1  1  0.74760668  0.25747726  0.50173150  1
  Ag  Ag2  1  0.25372019  0.00083138  0.75068542  1
  Ag  Ag3  1  -0.00552105  0.74424869  0.24903935  1
  Ag  Ag4  1  0.25009826  0.74865556  -0.00135142  1
  Ag  Ag5  1  0.50042114  0.75073517  0.74537979  1
  Ag  Ag6  1  0.75005485  0.74503611  0.00434839  1
  Ag  Ag7  1  0.75133110  0.50676793  0.25571916  1
  Ag  Ag8  1  0.50861227  0.50470550  0.50061482  1
  Ag  Ag9  1  0.50574460  0.74737314  0.25410213  1
  Ag  Ag10  1  -0.00113942  0.50343751  0.00068730  1
  Ag  Ag11  1  0.24917856  0.25133615  -0.00561695  1
  Ag  Ag12  1  0.74446155  0.74241086  0.49592114  1
  Ag  Ag13  1  0.50175205  -0.00411936  0.50415139  1
  Ag  Ag14  1  0.49812307  0.24915280  0.74640410  1
  Ag  Ag15  1  -0.00805835  0.50183319  0.49856659  1
  Sb  Sb16  1  0.00138798  -0.00314874  -0.00169616  1
  Sb  Sb17  1  -0.00187192  -0.00172217  0.50247517  1
  Sb  Sb18  1  0.25146313  0.25041053  0.50557702  1
  Sb  Sb19  1  0.24934705  0.50254735  0.24885755  1
  Sb  Sb20  1  0.49808257  -0.00260363  -0.00433306  1
  Sb  Sb21  1  -0.00185260  0.25622466  0.25091449  1
  Sb  Sb22  1  0.00050091  0.74756267  0.75000564  1
  Sb  Sb23  1  0.74956927  0.50132556  0.74191383  1
  Sb  Sb24  1  0.74588337  -0.00133891  0.74793827  1
  Sb  Sb25  1  0.75091848  0.25685476  -0.00168704  1
  Sb  Sb26  1  0.25052924  0.49913654  0.75156503  1
  Sb  Sb27  1  0.50288186  0.50345491  -0.00029310  1
  Sb  Sb28  1  0.50206692  0.25281364  0.25396571  1
  Sb  Sb29  1  0.74803665  -0.00889066  0.25204191  1
  Sb  Sb30  1  0.25633862  0.74945830  0.50293885  1
  Sb  Sb31  1  0.25249423  -0.00313285  0.25047379  1
  Te  Te32  1  0.25031302  0.24877808  0.23865940  1
  Te  Te33  1  0.25215677  0.24783387  0.75346082  1
  Te  Te34  1  0.25090197  0.75104023  0.24238446  1
  Te  Te35  1  0.25299729  0.75363305  0.75477669  1
  Te  Te36  1  0.74957170  0.25707531  0.25474780  1
  Te  Te37  1  0.74855472  0.24853118  0.74623448  1
  Te  Te38  1  0.74855077  0.74721946  0.25151807  1
  Te  Te39  1  0.74565376  0.75136431  0.74956702  1
  Te  Te40  1  0.25049586  -0.00076554  -0.00504418  1
  Te  Te41  1  0.25565471  0.00059375  0.50575102  1
  Te  Te42  1  0.24460737  0.50160639  0.00087240  1
  Te  Te43  1  0.24772167  0.49952585  0.49912596  1
  Te  Te44  1  0.74989672  -0.00864880  0.00034311  1
  Te  Te45  1  0.74556054  -0.00027968  0.49975915  1
  Te  Te46  1  0.75404560  0.50454827  0.00717675  1
  Te  Te47  1  0.75015684  0.50205085  0.49840791  1
  Te  Te48  1  0.00076982  0.25386256  -0.00227167  1
  Te  Te49  1  -0.00268489  0.25315280  0.50190054  1
  Te  Te50  1  -0.00034397  0.74674922  -0.00045069  1
  Te  Te51  1  -0.00316928  0.74634105  0.49984262  1
  Te  Te52  1  0.49773449  0.25048566  -0.00576058  1
  Te  Te53  1  0.50180425  0.25198922  0.50275675  1
  Te  Te54  1  0.49998666  0.74850143  -0.00097631  1
  Te  Te55  1  0.49956196  0.74725580  0.50160177  1
  Te  Te56  1  0.00040410  -0.00984099  0.25101698  1
  Te  Te57  1  0.00769176  0.00801356  0.74871067  1
  Te  Te58  1  -0.00232708  0.50438360  0.25160386  1
  Te  Te59  1  0.00024654  0.49491707  0.74956078  1
  Te  Te60  1  0.49974536  -0.00591257  0.25819187  1
  Te  Te61  1  0.49678836  -0.00023615  0.74640656  1
  Te  Te62  1  0.50361481  0.50442606  0.25449053  1
  Te  Te63  1  0.49989935  0.50049796  0.74498714  1
