# generated using pymatgen
data_AgSbTe2
_symmetry_space_group_name_H-M   'P 1'
_cell_length_a   12.20696133
_cell_length_b   12.20962949
_cell_length_c   12.20916908
_cell_angle_alpha   90.00356444
_cell_angle_beta   89.99705623
_cell_angle_gamma   89.99839983
_symmetry_Int_Tables_number   1
_chemical_formula_structural   AgSbTe2
_chemical_formula_sum   'Ag16 Sb16 Te32'
_cell_volume   1819.68477078
_cell_formula_units_Z   16
loop_
 _symmetry_equiv_pos_site_id
 _symmetry_equiv_pos_as_xyz
  1  'x, y, z'
loop_
 _atom_site_type_symbol
 _atom_site_label
 _atom_site_symmetry_multiplicity
 _atom_site_fract_x
 _atom_site_fract_y
 _atom_site_fract_z
 _atom_site_occupancy
  Ag  Ag0  1  0.74582549  0.74949169  0.00784553  1
  Ag  Ag1  1  0.50167520  -0.00343265  0.49649762  1
  Ag  Ag2  1  0.74558150  -0.00444747  0.24732042  1
  Ag  Ag3  1  0.50298307  0.25428530  0.24688316  1
  Ag  Ag4  1  0.74403023  0.75090380  0.49195204  1
  Ag  Ag5  1  -0.00310059  0.00033226  0.00074082  1
  Ag  Ag6  1  0.74172446  0.50439300  0.24608049  1
  Ag  Ag7  1  0.50035207  0.25244033  0.75317859  1
  Ag  Ag8  1  0.50360643  0.74608009  0.24925522  1
  Ag  Ag9  1  0.25815404  0.50428474  0.24674258  1
  Ag  Ag10  1  0.49998273  0.50059068  0.00555213  1
  Ag  Ag11  1  -0.00057319  0.25055873  0.75381510  1
  Ag  Ag12  1  0.74671914  0.25028309  0.00260505  1
  Ag  Ag13  1  0.25539442  0.74834186  0.49615533  1
  Ag  Ag14  1  0.25423995  0.74627778  0.00384292  1
  Ag  Ag15  1  0.25340520  0.50016747  0.75268536  1
  Sb  Sb16  1  -0.00033159  0.50053016  0.50072245  1
  Sb  Sb17  1  0.25485074  0.25489017  0.00023218  1
  Sb  Sb18  1  0.49852550  0.74607077  0.75089647  1
  Sb  Sb19  1  0.25206834  0.00019334  0.75149079  1
  Sb  Sb20  1  0.74842854  0.00102089  0.75369262  1
  Sb  Sb21  1  -0.00234835  -0.00072227  0.49883558  1
  Sb  Sb22  1  0.74458432  0.49815524  0.75465240  1
  Sb  Sb23  1  0.50001585  0.50563384  0.49151295  1
  Sb  Sb24  1  -0.00339826  0.24935771  0.24430288  1
  Sb  Sb25  1  0.00139986  0.74924799  0.75340701  1
  Sb  Sb26  1  0.74602126  0.24929220  0.49585260  1
  Sb  Sb27  1  0.25622780  -0.00645994  0.24855438  1
  Sb  Sb28  1  0.25388327  0.25193340  0.49906308  1
  Sb  Sb29  1  0.50419960  -0.00052904  0.00420984  1
  Sb  Sb30  1  -0.00018672  0.49915345  -0.00089788  1
  Sb  Sb31  1  -0.00562310  0.75025628  0.24740356  1
  Te  Te32  1  0.25621852  0.25761463  0.25046892  1
  Te  Te33  1  0.25246790  0.25591149  0.75010509  1
  Te  Te34  1  0.25373366  0.74707731  0.24917103  1
  Te  Te35  1  0.25002908  0.74365606  0.75058966  1
  Te  Te36  1  0.74622208  0.25133493  0.24673472  1
  Te  Te37  1  0.74776947  0.25182619  0.75516506  1
  Te  Te38  1  0.74923325  0.74881252  0.24822307  1
  Te  Te39  1  0.75036671  0.74871703  0.75082792  1
  Te  Te40  1  0.24350319  -0.00884751  0.00059495  1
  Te  Te41  1  0.25390693  -0.00875058  0.49965339  1
  Te  Te42  1  0.25221773  0.50397097  0.00173713  1
  Te  Te43  1  0.25013946  0.50697111  0.49906074  1
  Te  Te44  1  0.75129779  -0.00123815  0.00344063  1
  Te  Te45  1  0.74713147  -0.00531717  0.49411543  1
  Te  Te46  1  0.74758308  0.50119630  0.00314274  1
  Te  Te47  1  0.75025133  0.50709296  0.49294655  1
  Te  Te48  1  -0.00545558  0.24611375  -0.00392355  1
  Te  Te49  1  -0.00032346  0.24805800  0.51028775  1
  Te  Te50  1  -0.00124517  0.75504757  -0.00169009  1
  Te  Te51  1  0.00057066  0.75176644  0.50201026  1
  Te  Te52  1  0.50285637  0.25080603  0.00143043  1
  Te  Te53  1  0.50072271  0.24311670  0.49953963  1
  Te  Te54  1  0.50116154  0.74898527  0.00138977  1
  Te  Te55  1  0.50061913  0.75259755  0.49865607  1
  Te  Te56  1  -0.00854816  0.00257068  0.24520653  1
  Te  Te57  1  0.00030686  0.00770337  0.75515737  1
  Te  Te58  1  0.00103895  0.49760888  0.24968343  1
  Te  Te59  1  0.00808974  0.49264538  0.75056318  1
  Te  Te60  1  0.50393684  -0.00060716  0.25235393  1
  Te  Te61  1  0.49972715  0.00935705  0.74291035  1
  Te  Te62  1  0.50031444  0.50099803  0.24889929  1
  Te  Te63  1  0.49583911  0.49462951  0.75646539  1
