# generated using pymatgen
data_AgSbTe2
_symmetry_space_group_name_H-M   'P 1'
_cell_length_a   12.21338682
_cell_length_b   12.22808905
_cell_length_c   12.22709235
_cell_angle_alpha   89.99815275
_cell_angle_beta   90.00278142
_cell_angle_gamma   89.99943299
_symmetry_Int_Tables_number   1
_chemical_formula_structural   AgSbTe2
_chemical_formula_sum   'Ag16 Sb16 Te32'
_cell_volume   1826.07199731
_cell_formula_units_Z   16
loop_
 _symmetry_equiv_pos_site_id
 _symmetry_equiv_pos_as_xyz
  1  'x, y, z'
loop_
 _atom_site_type_symbol
 _atom_site_label
 _atom_site_symmetry_multiplicity
 _atom_site_fract_x
 _atom_site_fract_y
 _atom_site_fract_z
 _atom_site_occupancy
  Ag  Ag0  1  0.49924663  0.75161397  0.25079813  1
  Ag  Ag1  1  0.00100025  -0.00212998  -0.00293431  1
  Ag  Ag2  1  0.00087105  0.75510827  0.25048572  1
  Ag  Ag3  1  0.00067708  0.75873581  0.74905062  1
  Ag  Ag4  1  0.24957827  0.24859866  0.00088173  1
  Ag  Ag5  1  0.49803639  0.24870473  0.25351474  1
  Ag  Ag6  1  0.50071373  0.00262910  0.49544616  1
  Ag  Ag7  1  0.24750108  0.75191026  0.00232156  1
  Ag  Ag8  1  -0.00161512  0.00037187  0.50329779  1
  Ag  Ag9  1  0.49730880  0.49752218  0.49553422  1
  Ag  Ag10  1  0.49629306  0.49986876  0.00508585  1
  Ag  Ag11  1  0.75678157  0.00020648  0.74745654  1
  Ag  Ag12  1  0.24958211  0.24882775  0.49926037  1
  Ag  Ag13  1  0.00176006  0.24221404  0.74693396  1
  Ag  Ag14  1  0.00259923  0.49913980  0.49968475  1
  Ag  Ag15  1  0.75077175  -0.00104354  0.25279240  1
  Sb  Sb16  1  0.00208643  0.24464034  0.25245815  1
  Sb  Sb17  1  0.75198717  0.75328952  0.49953717  1
  Sb  Sb18  1  0.75034183  0.24737539  0.00038505  1
  Sb  Sb19  1  0.74820966  0.50034283  0.25127069  1
  Sb  Sb20  1  0.25190852  0.49983502  0.25070182  1
  Sb  Sb21  1  0.49746157  0.24735127  0.74764198  1
  Sb  Sb22  1  0.24876071  0.49983217  0.74931051  1
  Sb  Sb23  1  0.49828394  0.00024831  0.00524756  1
  Sb  Sb24  1  0.75227282  0.49986499  0.74866842  1
  Sb  Sb25  1  0.24245397  0.00028058  0.74984063  1
  Sb  Sb26  1  0.75261218  0.75209433  0.00092399  1
  Sb  Sb27  1  0.24898832  -0.00024363  0.25055003  1
  Sb  Sb28  1  0.24764515  0.75113480  0.49798234  1
  Sb  Sb29  1  0.49880439  0.75383648  0.74974080  1
  Sb  Sb30  1  0.75019430  0.24675214  0.49995321  1
  Sb  Sb31  1  0.00421857  0.50165768  0.00144956  1
  Te  Te32  1  0.25522599  0.24993855  0.24925033  1
  Te  Te33  1  0.24485393  0.24999060  0.75080559  1
  Te  Te34  1  0.25009600  0.74983369  0.24492038  1
  Te  Te35  1  0.24353367  0.75007139  0.75810393  1
  Te  Te36  1  0.74202638  0.24288735  0.24862669  1
  Te  Te37  1  0.75851113  0.24391598  0.75131772  1
  Te  Te38  1  0.74900889  0.75645620  0.24977744  1
  Te  Te39  1  0.75756485  0.75629664  0.75063540  1
  Te  Te40  1  0.24502069  0.00147431  -0.00038535  1
  Te  Te41  1  0.25043205  0.00436386  0.50049210  1
  Te  Te42  1  0.25556546  0.49766091  -0.00053760  1
  Te  Te43  1  0.25090241  0.49473917  0.50019776  1
  Te  Te44  1  0.75640736  0.00058282  0.00039245  1
  Te  Te45  1  0.75169204  -0.00006805  0.49886684  1
  Te  Te46  1  0.73871796  0.49929316  -0.00008470  1
  Te  Te47  1  0.74838307  0.49955850  0.50019991  1
  Te  Te48  1  0.00553709  0.25075385  0.00038936  1
  Te  Te49  1  0.00413477  0.24865584  0.49897728  1
  Te  Te50  1  0.00293427  0.74881500  0.00233627  1
  Te  Te51  1  0.00316411  0.75183400  0.49852497  1
  Te  Te52  1  0.49418685  0.25052448  0.00068615  1
  Te  Te53  1  0.49583085  0.24998289  0.49947647  1
  Te  Te54  1  0.49526765  0.74937039  0.00218497  1
  Te  Te55  1  0.49614366  0.74909476  0.49674868  1
  Te  Te56  1  -0.00361113  -0.00201954  0.25177869  1
  Te  Te57  1  -0.00251986  -0.00046665  0.74793028  1
  Te  Te58  1  -0.00384184  0.50703275  0.25554673  1
  Te  Te59  1  -0.00219729  0.50010009  0.74446543  1
  Te  Te60  1  0.50380980  -0.00197140  0.25216453  1
  Te  Te61  1  0.51024832  -0.00153547  0.74200308  1
  Te  Te62  1  0.50260017  0.50170853  0.25362223  1
  Te  Te63  1  0.50303523  0.50055502  0.74531383  1
