# generated using pymatgen
data_AgSbTe2
_symmetry_space_group_name_H-M   'P 1'
_cell_length_a   12.20994828
_cell_length_b   12.21036595
_cell_length_c   12.21367683
_cell_angle_alpha   89.99984654
_cell_angle_beta   89.99628792
_cell_angle_gamma   90.00147159
_symmetry_Int_Tables_number   1
_chemical_formula_structural   AgSbTe2
_chemical_formula_sum   'Ag16 Sb16 Te32'
_cell_volume   1820.91187448
_cell_formula_units_Z   16
loop_
 _symmetry_equiv_pos_site_id
 _symmetry_equiv_pos_as_xyz
  1  'x, y, z'
loop_
 _atom_site_type_symbol
 _atom_site_label
 _atom_site_symmetry_multiplicity
 _atom_site_fract_x
 _atom_site_fract_y
 _atom_site_fract_z
 _atom_site_occupancy
  Ag  Ag0  1  0.25215393  0.24659639  0.00062966  1
  Ag  Ag1  1  0.25183777  0.50443074  0.75158902  1
  Ag  Ag2  1  0.74488535  0.75122041  -0.00066951  1
  Ag  Ag3  1  0.49798875  -0.00362342  0.00488650  1
  Ag  Ag4  1  0.74575602  0.75391610  0.50038296  1
  Ag  Ag5  1  0.50048060  -0.00506889  0.49513437  1
  Ag  Ag6  1  0.25672203  -0.00134561  0.24954633  1
  Ag  Ag7  1  -0.00015693  0.24626618  0.24998419  1
  Ag  Ag8  1  0.50152553  0.75730888  0.24982314  1
  Ag  Ag9  1  0.74863248  0.24657977  0.49825247  1
  Ag  Ag10  1  0.74866518  0.50509834  0.75046055  1
  Ag  Ag11  1  0.00073978  0.75001720  0.74931195  1
  Ag  Ag12  1  0.25271746  -0.00436771  0.75005993  1
  Ag  Ag13  1  0.74390331  -0.00291409  0.25237242  1
  Ag  Ag14  1  0.49986185  0.50317767  -0.00149276  1
  Ag  Ag15  1  0.25340339  0.75478744  0.50305914  1
  Sb  Sb16  1  0.74807872  0.24885762  0.00106203  1
  Sb  Sb17  1  0.50039220  0.50558413  0.50102271  1
  Sb  Sb18  1  0.00088360  0.50151280  -0.00230037  1
  Sb  Sb19  1  0.49960191  0.24971644  0.75020455  1
  Sb  Sb20  1  0.74716372  -0.00548823  0.74800865  1
  Sb  Sb21  1  0.25391809  0.50150731  0.24805432  1
  Sb  Sb22  1  0.25180066  0.24504053  0.49945866  1
  Sb  Sb23  1  0.25624966  0.75291320  -0.00308384  1
  Sb  Sb24  1  0.74677036  0.50229991  0.24890169  1
  Sb  Sb25  1  0.00269356  -0.00100540  0.00043193  1
  Sb  Sb26  1  0.49950187  0.75031384  0.74989232  1
  Sb  Sb27  1  -0.00089344  -0.00077753  0.49945601  1
  Sb  Sb28  1  0.00034868  0.24885920  0.74975698  1
  Sb  Sb29  1  -0.00037296  0.50066937  0.50151708  1
  Sb  Sb30  1  -0.00124324  0.75266464  0.25031183  1
  Sb  Sb31  1  0.50048350  0.24038227  0.24973098  1
  Te  Te32  1  0.24685582  0.24617450  0.24811627  1
  Te  Te33  1  0.24738288  0.25028372  0.75228737  1
  Te  Te34  1  0.25001182  0.75376067  0.25352192  1
  Te  Te35  1  0.24745329  0.75029660  0.74846500  1
  Te  Te36  1  0.75296637  0.24616998  0.25299497  1
  Te  Te37  1  0.75343541  0.25580299  0.74573845  1
  Te  Te38  1  0.75045240  0.75317298  0.25195447  1
  Te  Te39  1  0.75276755  0.74864541  0.74825224  1
  Te  Te40  1  0.25425803  0.00084371  0.00078009  1
  Te  Te41  1  0.25479174  -0.00168204  0.49972927  1
  Te  Te42  1  0.25522969  0.49791653  -0.00405450  1
  Te  Te43  1  0.25234747  0.50403354  0.50686103  1
  Te  Te44  1  0.74386595  -0.00192959  0.00149537  1
  Te  Te45  1  0.74550796  -0.00363905  0.49944987  1
  Te  Te46  1  0.74410527  0.50162574  -0.00408197  1
  Te  Te47  1  0.74787366  0.50266567  0.50549834  1
  Te  Te48  1  0.00560960  0.25025173  0.00476371  1
  Te  Te49  1  -0.00647918  0.25037731  0.49464121  1
  Te  Te50  1  -0.00941637  0.74971304  -0.00393493  1
  Te  Te51  1  -0.00068292  0.74985283  0.50330603  1
  Te  Te52  1  0.49528221  0.24891918  0.00015930  1
  Te  Te53  1  0.50590398  0.24352565  0.49951549  1
  Te  Te54  1  0.50309166  0.75223174  0.00399749  1
  Te  Te55  1  0.50121420  0.75328783  0.49564029  1
  Te  Te56  1  -0.00010201  0.00361172  0.24956652  1
  Te  Te57  1  0.00803988  -0.00587153  0.75053350  1
  Te  Te58  1  0.00048821  0.49229995  0.24963840  1
  Te  Te59  1  0.00061503  0.50581171  0.75053060  1
  Te  Te60  1  0.49987510  -0.00264573  0.24931542  1
  Te  Te61  1  0.49419735  0.00083082  0.75109313  1
  Te  Te62  1  0.49942165  0.50952078  0.24298117  1
  Te  Te63  1  0.49914290  0.49901212  0.75548860  1
