# generated using pymatgen
data_AgSbTe2
_symmetry_space_group_name_H-M   'P 1'
_cell_length_a   12.29768399
_cell_length_b   12.28722485
_cell_length_c   12.31433788
_cell_angle_alpha   90.00479182
_cell_angle_beta   90.00124530
_cell_angle_gamma   89.97505090
_symmetry_Int_Tables_number   1
_chemical_formula_structural   AgSbTe2
_chemical_formula_sum   'Ag16 Sb16 Te32'
_cell_volume   1860.75055471
_cell_formula_units_Z   16
loop_
 _symmetry_equiv_pos_site_id
 _symmetry_equiv_pos_as_xyz
  1  'x, y, z'
loop_
 _atom_site_type_symbol
 _atom_site_label
 _atom_site_symmetry_multiplicity
 _atom_site_fract_x
 _atom_site_fract_y
 _atom_site_fract_z
 _atom_site_occupancy
  Ag  Ag0  1  0.49429320  0.24184678  0.24541925  1
  Ag  Ag1  1  0.25429357  0.74139881  0.00195895  1
  Ag  Ag2  1  0.00720112  0.49878630  0.50375957  1
  Ag  Ag3  1  0.49899520  0.25258854  0.75219889  1
  Ag  Ag4  1  0.50055763  0.00491778  0.01004697  1
  Ag  Ag5  1  0.50117289  0.00875339  0.49032811  1
  Ag  Ag6  1  0.74280644  0.49783272  0.75522597  1
  Ag  Ag7  1  0.01072592  0.50102193  -0.00274374  1
  Ag  Ag8  1  0.74237065  0.75161106  -0.00249342  1
  Ag  Ag9  1  0.26422728  0.00761111  0.24030396  1
  Ag  Ag10  1  0.25650836  0.49648613  0.23886433  1
  Ag  Ag11  1  0.73230875  0.00117512  0.24097636  1
  Ag  Ag12  1  0.25607737  0.49671202  0.75971998  1
  Ag  Ag13  1  0.73872828  0.00120104  0.75856729  1
  Ag  Ag14  1  0.25688080  0.25866973  0.00438575  1
  Ag  Ag15  1  0.49502948  0.49146739  0.50360300  1
  Sb  Sb16  1  0.00442971  0.25302625  0.24602274  1
  Sb  Sb17  1  0.00056037  0.00088807  0.00009950  1
  Sb  Sb18  1  0.00394409  0.25303286  0.75298538  1
  Sb  Sb19  1  0.49759449  0.49552771  -0.00022612  1
  Sb  Sb20  1  0.74623036  0.24982100  -0.00162720  1
  Sb  Sb21  1  -0.00047019  0.74790314  0.75243844  1
  Sb  Sb22  1  0.26176325  0.00326097  0.75537615  1
  Sb  Sb23  1  0.74823226  0.74870031  0.50115249  1
  Sb  Sb24  1  -0.00092448  0.00244742  0.49892548  1
  Sb  Sb25  1  0.50034717  0.74577319  0.75225539  1
  Sb  Sb26  1  0.25201739  0.74666086  0.49808570  1
  Sb  Sb27  1  0.49867981  0.75385908  0.24697861  1
  Sb  Sb28  1  0.00108011  0.74834085  0.24727245  1
  Sb  Sb29  1  0.25443999  0.25178049  0.49787074  1
  Sb  Sb30  1  0.74622922  0.25113896  0.50064694  1
  Sb  Sb31  1  0.74190070  0.49875377  0.24749526  1
  Te  Te32  1  0.25326277  0.25037116  0.24988046  1
  Te  Te33  1  0.25437251  0.25300850  0.75280445  1
  Te  Te34  1  0.25036703  0.74530630  0.24540538  1
  Te  Te35  1  0.24949242  0.74367822  0.75756269  1
  Te  Te36  1  0.74086316  0.24490882  0.25035358  1
  Te  Te37  1  0.74282484  0.25454715  0.74935008  1
  Te  Te38  1  0.74939998  0.75514338  0.24095203  1
  Te  Te39  1  0.75002427  0.74655443  0.75545697  1
  Te  Te40  1  0.24505058  -0.00213605  0.00082732  1
  Te  Te41  1  0.25104410  -0.00234563  0.49598922  1
  Te  Te42  1  0.25399187  0.50142845  0.00096116  1
  Te  Te43  1  0.25679737  0.50139673  0.50165134  1
  Te  Te44  1  0.75460971  0.00288833  -0.00038142  1
  Te  Te45  1  0.74931915  -0.00089642  0.49943691  1
  Te  Te46  1  0.74890902  0.49955537  -0.00206752  1
  Te  Te47  1  0.74248493  0.50175318  0.50270025  1
  Te  Te48  1  0.01363650  0.25628048  -0.00045172  1
  Te  Te49  1  0.00001407  0.25951159  0.50020512  1
  Te  Te50  1  0.00273420  0.74534813  0.00005535  1
  Te  Te51  1  0.00023834  0.73782149  0.50010516  1
  Te  Te52  1  0.49651475  0.24454479  0.00040273  1
  Te  Te53  1  0.50034412  0.24859349  0.50206312  1
  Te  Te54  1  0.50169087  0.76284878  -0.00014279  1
  Te  Te55  1  0.49979843  0.75004273  0.49998334  1
  Te  Te56  1  0.00169074  0.00116314  0.25429854  1
  Te  Te57  1  -0.01803318  0.00122982  0.74444764  1
  Te  Te58  1  0.00463849  0.49868667  0.24881478  1
  Te  Te59  1  -0.00095793  0.49924574  0.75157714  1
  Te  Te60  1  0.49799310  -0.00011593  0.24999624  1
  Te  Te61  1  0.50059567  0.00364650  0.74762501  1
  Te  Te62  1  0.49708174  0.49519326  0.25196286  1
  Te  Te63  1  0.50097522  0.49780259  0.75230138  1
