# generated using pymatgen
data_AgSbTe2
_symmetry_space_group_name_H-M   'P 1'
_cell_length_a   12.20270292
_cell_length_b   12.20408220
_cell_length_c   12.20458452
_cell_angle_alpha   89.99807746
_cell_angle_beta   90.00844021
_cell_angle_gamma   90.00484277
_symmetry_Int_Tables_number   1
_chemical_formula_structural   AgSbTe2
_chemical_formula_sum   'Ag16 Sb16 Te32'
_cell_volume   1817.54074420
_cell_formula_units_Z   16
loop_
 _symmetry_equiv_pos_site_id
 _symmetry_equiv_pos_as_xyz
  1  'x, y, z'
loop_
 _atom_site_type_symbol
 _atom_site_label
 _atom_site_symmetry_multiplicity
 _atom_site_fract_x
 _atom_site_fract_y
 _atom_site_fract_z
 _atom_site_occupancy
  Ag  Ag0  1  0.00136696  0.50324631  0.49495194  1
  Ag  Ag1  1  0.24916511  0.74704378  0.49700782  1
  Ag  Ag2  1  0.75196052  0.25347406  0.00037517  1
  Ag  Ag3  1  -0.00004410  0.74371182  0.25356676  1
  Ag  Ag4  1  0.75524505  0.50308397  0.24836934  1
  Ag  Ag5  1  0.74896819  0.74602621  0.00052782  1
  Ag  Ag6  1  0.24336146  0.50364132  0.25309699  1
  Ag  Ag7  1  0.50261869  0.74890128  0.74783463  1
  Ag  Ag8  1  -0.00196662  0.25312336  0.74977315  1
  Ag  Ag9  1  -0.00090945  0.25654026  0.25051753  1
  Ag  Ag10  1  0.74965201  -0.00296202  0.74866152  1
  Ag  Ag11  1  0.24844359  0.50236426  0.74796919  1
  Ag  Ag12  1  0.24858230  -0.00297438  0.25328310  1
  Ag  Ag13  1  0.50071113  -0.00541600  0.50050429  1
  Ag  Ag14  1  0.75038930  0.74899642  0.49973689  1
  Ag  Ag15  1  0.50331769  0.50243183  0.00027056  1
  Sb  Sb16  1  0.50216641  0.25190836  0.75154584  1
  Sb  Sb17  1  0.75304521  0.25235496  0.49915938  1
  Sb  Sb18  1  -0.00212397  0.74575409  0.74703927  1
  Sb  Sb19  1  0.49905909  0.50591217  0.50070192  1
  Sb  Sb20  1  0.25015958  -0.00284688  0.74585776  1
  Sb  Sb21  1  0.24781445  0.25449047  0.49908537  1
  Sb  Sb22  1  -0.00457214  0.50002134  0.00747700  1
  Sb  Sb23  1  -0.00040831  -0.00443245  0.49871642  1
  Sb  Sb24  1  0.75200753  0.50212083  0.75191417  1
  Sb  Sb25  1  0.25055614  0.74623576  0.00314828  1
  Sb  Sb26  1  -0.00192098  -0.00027149  0.00031394  1
  Sb  Sb27  1  0.50008782  0.74878347  0.25231913  1
  Sb  Sb28  1  0.75154723  -0.00316867  0.25169058  1
  Sb  Sb29  1  0.50215997  0.25190244  0.24886334  1
  Sb  Sb30  1  0.50278989  -0.00315814  -0.00088089  1
  Sb  Sb31  1  0.24765024  0.25320829  0.00119372  1
  Te  Te32  1  0.24311192  0.25244479  0.24921768  1
  Te  Te33  1  0.24401793  0.25476884  0.75060720  1
  Te  Te34  1  0.24756431  0.74666080  0.25246432  1
  Te  Te35  1  0.25157070  0.74696231  0.74679926  1
  Te  Te36  1  0.75522409  0.25227297  0.24650288  1
  Te  Te37  1  0.75384146  0.24738544  0.75349749  1
  Te  Te38  1  0.75223594  0.74899575  0.25068418  1
  Te  Te39  1  0.74916808  0.75181675  0.74915882  1
  Te  Te40  1  0.25202256  0.00002239  0.00764628  1
  Te  Te41  1  0.25304229  -0.00662611  0.49651368  1
  Te  Te42  1  0.25698925  0.50080134  0.00073114  1
  Te  Te43  1  0.24882900  0.50423150  0.49766231  1
  Te  Te44  1  0.74815626  -0.00091838  -0.00405198  1
  Te  Te45  1  0.74716058  -0.00584004  0.50306422  1
  Te  Te46  1  0.74644599  0.50171305  0.00226011  1
  Te  Te47  1  0.75165351  0.50462673  0.49617807  1
  Te  Te48  1  -0.00652915  0.24991562  0.00055736  1
  Te  Te49  1  -0.00105135  0.25629485  0.49869295  1
  Te  Te50  1  -0.00729655  0.75030820  0.00562737  1
  Te  Te51  1  -0.00026059  0.74592676  0.49694486  1
  Te  Te52  1  0.50858089  0.25601652  -0.00108574  1
  Te  Te53  1  0.50035608  0.24027176  0.50116312  1
  Te  Te54  1  0.50579010  0.74595294  -0.00539980  1
  Te  Te55  1  0.50098306  0.75221219  0.50357410  1
  Te  Te56  1  0.00434688  0.00079473  0.25116400  1
  Te  Te57  1  -0.00383600  0.00642717  0.74931246  1
  Te  Te58  1  0.00068754  0.50008209  0.25028721  1
  Te  Te59  1  0.00353448  0.49721710  0.74505640  1
  Te  Te60  1  0.49410489  0.00060658  0.25473736  1
  Te  Te61  1  0.50253888  -0.00405352  0.74720314  1
  Te  Te62  1  0.50005336  0.49941800  0.24688998  1
  Te  Te63  1  0.49608361  0.50324387  0.75174760  1
