# generated using pymatgen
data_AgSbTe2
_symmetry_space_group_name_H-M   'P 1'
_cell_length_a   12.28665726
_cell_length_b   12.29016334
_cell_length_c   12.31023227
_cell_angle_alpha   90.00886263
_cell_angle_beta   90.00158439
_cell_angle_gamma   90.01202042
_symmetry_Int_Tables_number   1
_chemical_formula_structural   AgSbTe2
_chemical_formula_sum   'Ag16 Sb16 Te32'
_cell_volume   1858.90686299
_cell_formula_units_Z   16
loop_
 _symmetry_equiv_pos_site_id
 _symmetry_equiv_pos_as_xyz
  1  'x, y, z'
loop_
 _atom_site_type_symbol
 _atom_site_label
 _atom_site_symmetry_multiplicity
 _atom_site_fract_x
 _atom_site_fract_y
 _atom_site_fract_z
 _atom_site_occupancy
  Ag  Ag0  1  0.25787711  0.25912506  -0.00280418  1
  Ag  Ag1  1  0.49840637  0.50973145  -0.00940498  1
  Ag  Ag2  1  0.26444276  0.50520998  0.74104530  1
  Ag  Ag3  1  0.26026914  0.26637469  0.50125750  1
  Ag  Ag4  1  0.50348469  0.74446217  0.25152579  1
  Ag  Ag5  1  0.50210443  -0.01485892  0.00217536  1
  Ag  Ag6  1  0.49304395  0.51019934  0.50825399  1
  Ag  Ag7  1  0.74024866  0.74545184  -0.00758064  1
  Ag  Ag8  1  0.73626588  0.73996542  0.50788200  1
  Ag  Ag9  1  0.50479607  0.74039653  0.74736154  1
  Ag  Ag10  1  0.73860438  0.26087790  0.50176623  1
  Ag  Ag11  1  0.73646543  0.51054614  0.74278691  1
  Ag  Ag12  1  0.74153695  -0.00854760  0.25006257  1
  Ag  Ag13  1  -0.00549336  0.74547042  0.74850328  1
  Ag  Ag14  1  0.26061724  0.50250410  0.26031862  1
  Ag  Ag15  1  0.26649047  0.73307876  0.50484888  1
  Sb  Sb16  1  0.74591953  -0.00921088  0.74957003  1
  Sb  Sb17  1  -0.00087060  0.74907700  0.25050656  1
  Sb  Sb18  1  0.00545940  0.50103020  0.49995015  1
  Sb  Sb19  1  0.26085743  0.74179888  -0.00513341  1
  Sb  Sb20  1  0.25522893  -0.00510816  0.75049566  1
  Sb  Sb21  1  0.00002996  -0.00415120  -0.00092928  1
  Sb  Sb22  1  0.25697854  -0.00387781  0.24767785  1
  Sb  Sb23  1  -0.00025236  -0.00198556  0.50034666  1
  Sb  Sb24  1  0.74118943  0.50410169  0.25555438  1
  Sb  Sb25  1  0.49986088  0.25950908  0.74775617  1
  Sb  Sb26  1  0.00049626  0.25557489  0.74991481  1
  Sb  Sb27  1  0.74379951  0.25478990  -0.00265351  1
  Sb  Sb28  1  0.49917251  0.25596795  0.25231666  1
  Sb  Sb29  1  0.00151721  0.50356578  -0.00195213  1
  Sb  Sb30  1  0.00048466  0.25165499  0.25069002  1
  Sb  Sb31  1  0.49993696  -0.00902700  0.49767504  1
  Te  Te32  1  0.24968493  0.25171664  0.25885783  1
  Te  Te33  1  0.24993520  0.25599685  0.74257432  1
  Te  Te34  1  0.24950516  0.74924054  0.25404203  1
  Te  Te35  1  0.25669335  0.74743959  0.74877490  1
  Te  Te36  1  0.75054492  0.24923186  0.25587349  1
  Te  Te37  1  0.75043700  0.25889724  0.74427383  1
  Te  Te38  1  0.74932790  0.74775760  0.25319315  1
  Te  Te39  1  0.74324345  0.74655108  0.74668880  1
  Te  Te40  1  0.25468878  0.00954079  0.00034813  1
  Te  Te41  1  0.25149583  0.00693408  0.50030190  1
  Te  Te42  1  0.25459521  0.49993968  -0.00555923  1
  Te  Te43  1  0.25108180  0.50198961  0.50468842  1
  Te  Te44  1  0.74523595  0.00418754  -0.00094961  1
  Te  Te45  1  0.74710798  0.00083778  0.49999589  1
  Te  Te46  1  0.74454607  0.49800911  0.00220866  1
  Te  Te47  1  0.74735480  0.50270624  0.49836543  1
  Te  Te48  1  0.01262445  0.24883255  -0.00064671  1
  Te  Te49  1  0.00088259  0.24972793  0.50015719  1
  Te  Te50  1  -0.01690721  0.75114120  -0.00260246  1
  Te  Te51  1  -0.00332962  0.74980710  0.50308358  1
  Te  Te52  1  0.49611728  0.25658279  -0.00046886  1
  Te  Te53  1  0.49952293  0.25563328  0.50122618  1
  Te  Te54  1  0.50198353  0.74457127  0.00204266  1
  Te  Te55  1  0.49984023  0.74768369  0.49947504  1
  Te  Te56  1  -0.01353449  0.00035735  0.24978629  1
  Te  Te57  1  0.00145523  -0.01464869  0.75038764  1
  Te  Te58  1  0.02083911  0.49922865  0.24778359  1
  Te  Te59  1  -0.00213853  0.50577192  0.75045597  1
  Te  Te60  1  0.50388427  -0.01133034  0.24669057  1
  Te  Te61  1  0.49922334  -0.01542520  0.75989011  1
  Te  Te62  1  0.49487137  0.50461394  0.25166851  1
  Te  Te63  1  0.50021878  0.50277928  0.74760890  1
