# generated using pymatgen
data_AgSbTe2
_symmetry_space_group_name_H-M   'P 1'
_cell_length_a   12.23435834
_cell_length_b   12.21862570
_cell_length_c   12.23988773
_cell_angle_alpha   89.99831767
_cell_angle_beta   90.00671651
_cell_angle_gamma   90.00154150
_symmetry_Int_Tables_number   1
_chemical_formula_structural   AgSbTe2
_chemical_formula_sum   'Ag16 Sb16 Te32'
_cell_volume   1829.70463703
_cell_formula_units_Z   16
loop_
 _symmetry_equiv_pos_site_id
 _symmetry_equiv_pos_as_xyz
  1  'x, y, z'
loop_
 _atom_site_type_symbol
 _atom_site_label
 _atom_site_symmetry_multiplicity
 _atom_site_fract_x
 _atom_site_fract_y
 _atom_site_fract_z
 _atom_site_occupancy
  Ag  Ag0  1  0.00240820  0.25462251  0.25049708  1
  Ag  Ag1  1  -0.00219272  0.49681274  0.50742872  1
  Ag  Ag2  1  0.50159591  0.25841415  0.75039608  1
  Ag  Ag3  1  0.75483726  0.49704375  0.74986338  1
  Ag  Ag4  1  0.74993471  0.25707868  -0.00248604  1
  Ag  Ag5  1  0.49812281  0.74321704  0.24979031  1
  Ag  Ag6  1  0.25021470  0.74610007  0.00149891  1
  Ag  Ag7  1  -0.00144399  0.73752312  0.74982339  1
  Ag  Ag8  1  -0.00209252  0.49632437  -0.00729270  1
  Ag  Ag9  1  0.50217343  0.49649336  0.50002924  1
  Ag  Ag10  1  0.50205067  0.49611554  0.00012703  1
  Ag  Ag11  1  -0.00256120  0.26125821  0.75029626  1
  Ag  Ag12  1  0.49705025  0.25633477  0.25031312  1
  Ag  Ag13  1  0.25119577  0.00334178  0.24979658  1
  Ag  Ag14  1  0.75008431  0.74159885  0.50117639  1
  Ag  Ag15  1  0.25003126  0.25327640  0.49686767  1
  Sb  Sb16  1  0.49844952  0.00317040  0.00151724  1
  Sb  Sb17  1  0.00163198  0.00348838  0.00092804  1
  Sb  Sb18  1  0.74976452  0.00274429  0.25033263  1
  Sb  Sb19  1  0.24939770  0.00209649  0.75040692  1
  Sb  Sb20  1  0.25228028  0.49775445  0.25008412  1
  Sb  Sb21  1  0.24995711  0.25300502  0.00222799  1
  Sb  Sb22  1  0.00133471  0.74457843  0.24989273  1
  Sb  Sb23  1  0.25026124  0.74697692  0.49944388  1
  Sb  Sb24  1  0.00114723  0.00423814  0.49916093  1
  Sb  Sb25  1  0.75066671  0.00285707  0.74996362  1
  Sb  Sb26  1  0.50091639  0.74000261  0.75014737  1
  Sb  Sb27  1  0.24503287  0.49853476  0.75024528  1
  Sb  Sb28  1  0.49895474  0.00422913  0.49850397  1
  Sb  Sb29  1  0.74982374  0.74286705  -0.00043962  1
  Sb  Sb30  1  0.74990805  0.25621467  0.50159171  1
  Sb  Sb31  1  0.74829339  0.49926560  0.25050089  1
  Te  Te32  1  0.25163129  0.24754180  0.25122732  1
  Te  Te33  1  0.24933729  0.24821468  0.74645967  1
  Te  Te34  1  0.25331161  0.75456578  0.24837369  1
  Te  Te35  1  0.24471213  0.75291450  0.75315627  1
  Te  Te36  1  0.74905427  0.24834508  0.24698538  1
  Te  Te37  1  0.75174384  0.25246552  0.75147525  1
  Te  Te38  1  0.74475514  0.75205197  0.25281312  1
  Te  Te39  1  0.75344258  0.74743119  0.74811154  1
  Te  Te40  1  0.25001086  -0.00915489  0.00523760  1
  Te  Te41  1  0.25003513  0.00757151  0.49461265  1
  Te  Te42  1  0.25059105  0.50551996  -0.00020917  1
  Te  Te43  1  0.25052680  0.49375368  0.50041370  1
  Te  Te44  1  0.75007700  0.01133533  0.00011498  1
  Te  Te45  1  0.75006431  -0.01478992  0.50010313  1
  Te  Te46  1  0.74990602  0.49554882  -0.00478505  1
  Te  Te47  1  0.74997965  0.50245489  0.50442794  1
  Te  Te48  1  0.00173838  0.25377843  -0.00135393  1
  Te  Te49  1  -0.00140706  0.25396983  0.50049590  1
  Te  Te50  1  0.00051438  0.74497613  -0.00091449  1
  Te  Te51  1  0.00004079  0.74426891  0.50106287  1
  Te  Te52  1  0.49807569  0.25388513  0.00184051  1
  Te  Te53  1  0.50133178  0.25422723  0.49732153  1
  Te  Te54  1  0.49913413  0.74512731  0.00194050  1
  Te  Te55  1  0.49963743  0.74416226  0.49839506  1
  Te  Te56  1  0.00425122  0.00793947  0.25011378  1
  Te  Te57  1  -0.00033299  0.00206020  0.74996204  1
  Te  Te58  1  -0.00096855  0.49455335  0.24979455  1
  Te  Te59  1  -0.00156000  0.49828143  0.75009082  1
  Te  Te60  1  0.49672859  0.00255770  0.25020128  1
  Te  Te61  1  0.50014622  0.01302076  0.74995632  1
  Te  Te62  1  0.50075747  0.49780155  0.24982435  1
  Te  Te63  1  0.50350451  0.49604171  0.75011780  1
