# generated using pymatgen
data_AgSbTe2
_symmetry_space_group_name_H-M   'P 1'
_cell_length_a   12.30537285
_cell_length_b   12.30278483
_cell_length_c   12.29639992
_cell_angle_alpha   89.98159207
_cell_angle_beta   90.00951541
_cell_angle_gamma   89.99853648
_symmetry_Int_Tables_number   1
_chemical_formula_structural   AgSbTe2
_chemical_formula_sum   'Ag16 Sb16 Te32'
_cell_volume   1861.55622062
_cell_formula_units_Z   16
loop_
 _symmetry_equiv_pos_site_id
 _symmetry_equiv_pos_as_xyz
  1  'x, y, z'
loop_
 _atom_site_type_symbol
 _atom_site_label
 _atom_site_symmetry_multiplicity
 _atom_site_fract_x
 _atom_site_fract_y
 _atom_site_fract_z
 _atom_site_occupancy
  Ag  Ag0  1  0.75284410  0.25075051  0.48914509  1
  Ag  Ag1  1  0.24610597  0.25143880  0.48563405  1
  Ag  Ag2  1  0.50554134  0.49161691  0.49320628  1
  Ag  Ag3  1  0.75284873  0.48319530  0.25641245  1
  Ag  Ag4  1  0.47944920  0.25414528  0.25511335  1
  Ag  Ag5  1  0.01535341  0.25051620  0.25487705  1
  Ag  Ag6  1  0.00496800  0.49655510  0.00758388  1
  Ag  Ag7  1  0.75527691  0.49404897  0.74386525  1
  Ag  Ag8  1  0.75719287  0.00653445  0.73949768  1
  Ag  Ag9  1  -0.00229542  0.74774512  0.75155851  1
  Ag  Ag10  1  0.24175921  0.01957306  0.25249258  1
  Ag  Ag11  1  0.24273801  0.74286789  0.00564898  1
  Ag  Ag12  1  0.75953414  0.01762497  0.25841205  1
  Ag  Ag13  1  -0.00629567  0.00793521  0.49202360  1
  Ag  Ag14  1  0.24483794  0.48214203  0.24685042  1
  Ag  Ag15  1  0.24415951  0.25505715  0.02000087  1
  Sb  Sb16  1  -0.00157487  0.49627795  0.49632975  1
  Sb  Sb17  1  0.00086035  0.74987919  0.25086694  1
  Sb  Sb18  1  0.24448003  0.00171895  0.74681684  1
  Sb  Sb19  1  0.24663936  0.74912954  0.49611003  1
  Sb  Sb20  1  0.50022405  0.74781029  0.75026390  1
  Sb  Sb21  1  0.00180082  0.00319108  0.00282042  1
  Sb  Sb22  1  0.75160873  0.74981070  0.49918717  1
  Sb  Sb23  1  0.75362265  0.25148149  0.00951303  1
  Sb  Sb24  1  0.24647280  0.49856817  0.75053986  1
  Sb  Sb25  1  0.50268281  0.25208184  0.74717107  1
  Sb  Sb26  1  0.49926856  0.74826107  0.25046209  1
  Sb  Sb27  1  -0.00265195  0.25044728  0.74769740  1
  Sb  Sb28  1  0.49957422  0.49684156  0.00113088  1
  Sb  Sb29  1  0.49817906  0.00340411  0.00128262  1
  Sb  Sb30  1  0.50190805  0.00379273  0.49680085  1
  Sb  Sb31  1  0.75297209  0.74832116  0.00008367  1
  Te  Te32  1  0.24785421  0.25076582  0.25363606  1
  Te  Te33  1  0.25142559  0.24797779  0.74573606  1
  Te  Te34  1  0.25100685  0.74908679  0.24734430  1
  Te  Te35  1  0.24728858  0.75108492  0.75464699  1
  Te  Te36  1  0.75635199  0.25092885  0.25085529  1
  Te  Te37  1  0.74872547  0.25093583  0.74463818  1
  Te  Te38  1  0.74852513  0.75161355  0.24744322  1
  Te  Te39  1  0.75308227  0.74880626  0.75109105  1
  Te  Te40  1  0.25073333  0.00646224  0.00260894  1
  Te  Te41  1  0.25273126  0.00107843  0.49669575  1
  Te  Te42  1  0.24756478  0.49561020  -0.00191426  1
  Te  Te43  1  0.24518754  0.49716809  0.49958565  1
  Te  Te44  1  0.74912662  -0.00049511  0.00383633  1
  Te  Te45  1  0.74992993  -0.00060422  0.49438614  1
  Te  Te46  1  0.75235326  0.49909459  0.00266285  1
  Te  Te47  1  0.75527100  0.50030106  0.49351436  1
  Te  Te48  1  0.00150090  0.25491707  0.00540223  1
  Te  Te49  1  -0.00145693  0.24505198  0.49738022  1
  Te  Te50  1  0.00212947  0.74518615  -0.00246278  1
  Te  Te51  1  0.00013969  0.76396578  0.50741932  1
  Te  Te52  1  0.49012449  0.24931773  0.00792168  1
  Te  Te53  1  0.50164811  0.25335393  0.49859671  1
  Te  Te54  1  0.48576199  0.75081007  -0.00027473  1
  Te  Te55  1  0.49865781  0.73404379  0.50110598  1
  Te  Te56  1  -0.00137735  -0.00212432  0.25147041  1
  Te  Te57  1  -0.00419042  0.00139307  0.75055756  1
  Te  Te58  1  -0.00031117  0.50140847  0.24860625  1
  Te  Te59  1  -0.00386672  0.49985950  0.75122382  1
  Te  Te60  1  0.50180458  0.00314721  0.24958110  1
  Te  Te61  1  0.51627287  -0.00079546  0.75057887  1
  Te  Te62  1  0.50391406  0.49808431  0.25144325  1
  Te  Te63  1  0.51200580  0.49980162  0.74528456  1
