# generated using pymatgen
data_AgSbTe2
_symmetry_space_group_name_H-M   'P 1'
_cell_length_a   12.31590342
_cell_length_b   12.31298182
_cell_length_c   12.30898722
_cell_angle_alpha   89.99891598
_cell_angle_beta   90.00271225
_cell_angle_gamma   90.00222518
_symmetry_Int_Tables_number   1
_chemical_formula_structural   AgSbTe2
_chemical_formula_sum   'Ag16 Sb16 Te32'
_cell_volume   1866.60245488
_cell_formula_units_Z   16
loop_
 _symmetry_equiv_pos_site_id
 _symmetry_equiv_pos_as_xyz
  1  'x, y, z'
loop_
 _atom_site_type_symbol
 _atom_site_label
 _atom_site_symmetry_multiplicity
 _atom_site_fract_x
 _atom_site_fract_y
 _atom_site_fract_z
 _atom_site_occupancy
  Ag  Ag0  1  0.49779401  -0.01938022  -0.00142528  1
  Ag  Ag1  1  0.00545015  0.50882670  -0.00435191  1
  Ag  Ag2  1  0.49480958  -0.01112698  0.50262167  1
  Ag  Ag3  1  0.49730905  0.74640789  0.23062666  1
  Ag  Ag4  1  0.25704328  0.73960121  0.51235512  1
  Ag  Ag5  1  0.48980908  0.74593633  0.76711291  1
  Ag  Ag6  1  0.01466076  0.74162600  0.75810585  1
  Ag  Ag7  1  0.26696017  0.73434913  -0.01263853  1
  Ag  Ag8  1  0.73982796  0.26627442  0.00188412  1
  Ag  Ag9  1  0.24793570  0.50774830  0.75994726  1
  Ag  Ag10  1  0.25243298  0.26225406  0.50556971  1
  Ag  Ag11  1  0.49577343  0.51617372  -0.00205145  1
  Ag  Ag12  1  0.74701902  0.50422405  0.23897886  1
  Ag  Ag13  1  0.00979082  0.50673054  0.50825039  1
  Ag  Ag14  1  0.72950180  0.73754718  -0.00071968  1
  Ag  Ag15  1  0.25729574  0.26549964  -0.00573768  1
  Sb  Sb16  1  0.25334042  -0.00140239  0.24932370  1
  Sb  Sb17  1  0.25172392  0.50141181  0.24430340  1
  Sb  Sb18  1  0.75115607  0.50331085  0.75425775  1
  Sb  Sb19  1  0.00038199  0.25652755  0.24837264  1
  Sb  Sb20  1  0.00462930  -0.00449299  0.50403129  1
  Sb  Sb21  1  0.00210308  -0.00541062  -0.00204041  1
  Sb  Sb22  1  0.49330468  0.50537992  0.50194800  1
  Sb  Sb23  1  0.74626246  -0.00346445  0.75177960  1
  Sb  Sb24  1  0.25246322  -0.00802177  0.75081339  1
  Sb  Sb25  1  0.74633648  0.25748008  0.49850527  1
  Sb  Sb26  1  0.50051914  0.25372331  0.24644936  1
  Sb  Sb27  1  0.74692023  0.74635676  0.50121968  1
  Sb  Sb28  1  0.49673980  0.25509820  0.75337120  1
  Sb  Sb29  1  0.00465824  0.25946970  0.75270476  1
  Sb  Sb30  1  0.74313049  -0.00422790  0.24574578  1
  Sb  Sb31  1  0.00280434  0.74576161  0.24631910  1
  Te  Te32  1  0.24982761  0.24915987  0.24985952  1
  Te  Te33  1  0.24975597  0.26142577  0.75275822  1
  Te  Te34  1  0.25282146  0.75016032  0.25129096  1
  Te  Te35  1  0.25134394  0.74603545  0.75065455  1
  Te  Te36  1  0.75013983  0.25649330  0.24323245  1
  Te  Te37  1  0.75099324  0.24868099  0.75873157  1
  Te  Te38  1  0.74788588  0.74692193  0.24828813  1
  Te  Te39  1  0.74502500  0.74940777  0.75238212  1
  Te  Te40  1  0.25346852  0.00381747  -0.00107179  1
  Te  Te41  1  0.25490232  0.00039396  0.50071616  1
  Te  Te42  1  0.24939940  0.50223485  0.00058000  1
  Te  Te43  1  0.24697697  0.50164126  0.49672342  1
  Te  Te44  1  0.74668736  -0.00088769  -0.00038116  1
  Te  Te45  1  0.74195762  0.00448504  0.49977432  1
  Te  Te46  1  0.74955783  0.50161951  -0.00216148  1
  Te  Te47  1  0.75963997  0.49629857  0.49637906  1
  Te  Te48  1  0.00779042  0.25044417  -0.00114766  1
  Te  Te49  1  0.00626473  0.24919524  0.50032888  1
  Te  Te50  1  0.00596900  0.74860367  0.00003546  1
  Te  Te51  1  0.00128936  0.74846597  0.49856519  1
  Te  Te52  1  0.49529156  0.25285563  -0.00012458  1
  Te  Te53  1  0.49561777  0.24692695  0.50021517  1
  Te  Te54  1  0.49980389  0.74893327  0.00043949  1
  Te  Te55  1  0.49883252  0.74906533  0.50350125  1
  Te  Te56  1  -0.00138663  0.00196215  0.25161954  1
  Te  Te57  1  -0.00081382  -0.01830754  0.74895929  1
  Te  Te58  1  -0.00670265  0.50014903  0.24322218  1
  Te  Te59  1  0.00089722  0.50382962  0.75325361  1
  Te  Te60  1  0.49851632  -0.00914512  0.24600872  1
  Te  Te61  1  0.49801424  -0.00862695  0.75268063  1
  Te  Te62  1  0.50324199  0.50403902  0.24764003  1
  Te  Te63  1  0.49710376  0.50352955  0.75141424  1
