# generated using pymatgen
data_AgSbTe2
_symmetry_space_group_name_H-M   'P 1'
_cell_length_a   12.21586699
_cell_length_b   12.21887257
_cell_length_c   12.21755251
_cell_angle_alpha   89.99847191
_cell_angle_beta   89.99910537
_cell_angle_gamma   90.00431545
_symmetry_Int_Tables_number   1
_chemical_formula_structural   AgSbTe2
_chemical_formula_sum   'Ag16 Sb16 Te32'
_cell_volume   1823.64224384
_cell_formula_units_Z   16
loop_
 _symmetry_equiv_pos_site_id
 _symmetry_equiv_pos_as_xyz
  1  'x, y, z'
loop_
 _atom_site_type_symbol
 _atom_site_label
 _atom_site_symmetry_multiplicity
 _atom_site_fract_x
 _atom_site_fract_y
 _atom_site_fract_z
 _atom_site_occupancy
  Ag  Ag0  1  0.74668490  -0.00148914  0.24643867  1
  Ag  Ag1  1  0.50749287  0.74997401  0.25076850  1
  Ag  Ag2  1  -0.00514900  -0.00185814  -0.00335307  1
  Ag  Ag3  1  0.24815685  -0.00483153  0.75146274  1
  Ag  Ag4  1  0.25086209  0.50460202  0.75079943  1
  Ag  Ag5  1  0.74931734  0.50531871  0.75135931  1
  Ag  Ag6  1  0.50541731  -0.00121430  0.00121148  1
  Ag  Ag7  1  -0.00566373  0.50160621  -0.00431646  1
  Ag  Ag8  1  0.50303774  0.74764351  0.74855489  1
  Ag  Ag9  1  0.74902932  0.24915077  0.00274543  1
  Ag  Ag10  1  0.74597937  0.50168823  0.24880604  1
  Ag  Ag11  1  0.50650882  0.24953120  0.24789743  1
  Ag  Ag12  1  0.50460697  0.50446068  0.50134028  1
  Ag  Ag13  1  -0.00337294  -0.00432699  0.50354963  1
  Ag  Ag14  1  -0.00237594  0.75072800  0.75082216  1
  Ag  Ag15  1  0.74735111  0.74859984  0.50098989  1
  Sb  Sb16  1  0.25015692  0.74981764  -0.00382399  1
  Sb  Sb17  1  0.74982333  0.75031056  -0.00092706  1
  Sb  Sb18  1  0.50276081  0.25122088  0.75190467  1
  Sb  Sb19  1  0.74776009  0.25094455  0.49772922  1
  Sb  Sb20  1  0.50332423  -0.00465220  0.49982034  1
  Sb  Sb21  1  0.25241183  -0.00134250  0.24834502  1
  Sb  Sb22  1  -0.00608789  0.24999925  0.24709931  1
  Sb  Sb23  1  0.25217146  0.75006749  0.50409076  1
  Sb  Sb24  1  -0.00457918  0.50458571  0.50451355  1
  Sb  Sb25  1  0.25185940  0.24979769  0.50142257  1
  Sb  Sb26  1  -0.00249620  0.24874787  0.75141582  1
  Sb  Sb27  1  -0.00789237  0.75059558  0.25006687  1
  Sb  Sb28  1  0.50634108  0.50135499  -0.00065920  1
  Sb  Sb29  1  0.25328406  0.50128794  0.24830769  1
  Sb  Sb30  1  0.75097384  -0.00618099  0.75317066  1
  Sb  Sb31  1  0.25180479  0.25032027  -0.00083556  1
  Te  Te32  1  0.26140917  0.25093440  0.25011931  1
  Te  Te33  1  0.25070256  0.25090512  0.75012249  1
  Te  Te34  1  0.26189342  0.74927428  0.25183856  1
  Te  Te35  1  0.25081498  0.74947145  0.74930207  1
  Te  Te36  1  0.74563438  0.25029804  0.24707771  1
  Te  Te37  1  0.74928329  0.25968941  0.75584600  1
  Te  Te38  1  0.74636727  0.74945557  0.25426688  1
  Te  Te39  1  0.74864888  0.74678915  0.74650604  1
  Te  Te40  1  0.24768046  0.00091605  -0.00438367  1
  Te  Te41  1  0.24325163  0.00046764  0.50581332  1
  Te  Te42  1  0.24091806  0.49837033  -0.00621987  1
  Te  Te43  1  0.25394914  0.49935345  0.50626969  1
  Te  Te44  1  0.75053871  0.00208505  0.00175861  1
  Te  Te45  1  0.75265184  -0.00228265  0.49673463  1
  Te  Te46  1  0.75212512  0.49792664  0.00092237  1
  Te  Te47  1  0.74830614  0.50177939  0.49898125  1
  Te  Te48  1  -0.00584436  0.24804022  0.00143804  1
  Te  Te49  1  0.00017010  0.24041226  0.49867725  1
  Te  Te50  1  0.00078090  0.75200430  -0.00485545  1
  Te  Te51  1  -0.00562286  0.75379978  0.50394308  1
  Te  Te52  1  0.50473067  0.24493267  0.00341467  1
  Te  Te53  1  0.50074375  0.25666006  0.49405408  1
  Te  Te54  1  0.49933967  0.75516339  -0.00149406  1
  Te  Te55  1  0.50505581  0.74707365  0.50263739  1
  Te  Te56  1  -0.00264492  -0.00135085  0.24553861  1
  Te  Te57  1  0.00046584  -0.00283856  0.75397438  1
  Te  Te58  1  -0.00401516  0.50108616  0.24614631  1
  Te  Te59  1  -0.00122129  0.50322773  0.75100553  1
  Te  Te60  1  0.50211175  -0.00256324  0.24908254  1
  Te  Te61  1  0.49857933  -0.00343294  0.75140957  1
  Te  Te62  1  0.50267084  0.50319097  0.24919845  1
  Te  Te63  1  0.50102562  0.50270325  0.75015721  1
