# generated using pymatgen
data_AgSbTe2
_symmetry_space_group_name_H-M   'P 1'
_cell_length_a   12.31202862
_cell_length_b   12.30028169
_cell_length_c   12.32710369
_cell_angle_alpha   90.00099925
_cell_angle_beta   89.99491349
_cell_angle_gamma   89.99372017
_symmetry_Int_Tables_number   1
_chemical_formula_structural   AgSbTe2
_chemical_formula_sum   'Ag16 Sb16 Te32'
_cell_volume   1866.83406932
_cell_formula_units_Z   16
loop_
 _symmetry_equiv_pos_site_id
 _symmetry_equiv_pos_as_xyz
  1  'x, y, z'
loop_
 _atom_site_type_symbol
 _atom_site_label
 _atom_site_symmetry_multiplicity
 _atom_site_fract_x
 _atom_site_fract_y
 _atom_site_fract_z
 _atom_site_occupancy
  Ag  Ag0  1  0.74575187  -0.00700208  0.74609816  1
  Ag  Ag1  1  0.49819425  0.24059722  0.24985769  1
  Ag  Ag2  1  0.01199645  0.51615223  0.50157485  1
  Ag  Ag3  1  0.24476959  0.74750186  0.49882774  1
  Ag  Ag4  1  0.49334229  0.51702737  0.00188060  1
  Ag  Ag5  1  0.74003403  -0.00470673  0.25086469  1
  Ag  Ag6  1  0.01474251  0.75100214  0.73420831  1
  Ag  Ag7  1  0.48752655  0.74723368  0.75286081  1
  Ag  Ag8  1  0.01460068  0.75808012  0.26493179  1
  Ag  Ag9  1  0.48751286  0.75434609  0.24512432  1
  Ag  Ag10  1  0.48941542  0.51072098  0.49977832  1
  Ag  Ag11  1  0.49716291  -0.01256765  0.01160997  1
  Ag  Ag12  1  0.00349088  -0.01751708  0.49446396  1
  Ag  Ag13  1  0.25744032  0.75056167  0.00228721  1
  Ag  Ag14  1  0.25718373  0.51008400  0.74470045  1
  Ag  Ag15  1  0.25959799  -0.00916646  0.25094592  1
  Sb  Sb16  1  0.74633869  0.50603520  0.25043487  1
  Sb  Sb17  1  0.74654629  0.24712730  0.49852366  1
  Sb  Sb18  1  0.00178103  0.24390019  0.25444778  1
  Sb  Sb19  1  0.74505745  0.24604298  0.00178698  1
  Sb  Sb20  1  0.00120047  0.24752432  0.74581925  1
  Sb  Sb21  1  0.25454960  0.24936495  0.00156768  1
  Sb  Sb22  1  0.49584712  -0.01220438  0.49646459  1
  Sb  Sb23  1  0.49953403  0.25129708  0.74743186  1
  Sb  Sb24  1  0.00340115  -0.00583775  0.00118196  1
  Sb  Sb25  1  0.25122047  -0.00568169  0.74969414  1
  Sb  Sb26  1  0.00921636  0.51109177  -0.00036418  1
  Sb  Sb27  1  0.25290118  0.25150154  0.49810604  1
  Sb  Sb28  1  0.75359632  0.75014400  0.49992827  1
  Sb  Sb29  1  0.74083588  0.75141670  -0.00010950  1
  Sb  Sb30  1  0.74792158  0.50563363  0.74969702  1
  Sb  Sb31  1  0.25272358  0.50674995  0.25185716  1
  Te  Te32  1  0.25325703  0.23322489  0.24977937  1
  Te  Te33  1  0.24895723  0.26939395  0.75003968  1
  Te  Te34  1  0.24978351  0.75098942  0.25445953  1
  Te  Te35  1  0.25262246  0.74767290  0.74425202  1
  Te  Te36  1  0.74508674  0.23898350  0.24962515  1
  Te  Te37  1  0.75142132  0.23216715  0.75055329  1
  Te  Te38  1  0.75081791  0.75266399  0.24895253  1
  Te  Te39  1  0.74806719  0.75610651  0.75053113  1
  Te  Te40  1  0.25461783  -0.00190229  -0.00062873  1
  Te  Te41  1  0.24590661  -0.00385134  0.50033837  1
  Te  Te42  1  0.25490996  0.50280229  -0.00041067  1
  Te  Te43  1  0.24936076  0.50351740  0.49871876  1
  Te  Te44  1  0.74347703  -0.00187371  0.00396913  1
  Te  Te45  1  0.75675196  -0.00139935  0.49886503  1
  Te  Te46  1  0.73488422  0.49945282  0.00100241  1
  Te  Te47  1  0.75188850  0.49942242  0.49895895  1
  Te  Te48  1  -0.00099401  0.25444052  -0.00095508  1
  Te  Te49  1  0.00045777  0.25673571  0.50105900  1
  Te  Te50  1  0.01392639  0.74843730  0.00111106  1
  Te  Te51  1  0.00000002  0.75032506  0.49964924  1
  Te  Te52  1  0.49905471  0.24658668  0.00598556  1
  Te  Te53  1  0.49848916  0.26792735  0.49538283  1
  Te  Te54  1  0.49546134  0.75209056  -0.00076741  1
  Te  Te55  1  0.49827547  0.74786975  0.50229869  1
  Te  Te56  1  0.00005475  -0.00256120  0.24898049  1
  Te  Te57  1  0.00344646  -0.00322414  0.75118720  1
  Te  Te58  1  -0.00189558  0.50139596  0.25260647  1
  Te  Te59  1  -0.00610941  0.50309993  0.74907199  1
  Te  Te60  1  0.49929078  -0.00756914  0.25393998  1
  Te  Te61  1  0.49887434  0.00003187  0.74697314  1
  Te  Te62  1  0.50038724  0.51062809  0.25079520  1
  Te  Te63  1  0.50403680  0.49996200  0.74719332  1
