# generated using pymatgen
data_AgSbTe2
_symmetry_space_group_name_H-M   'P 1'
_cell_length_a   12.22129399
_cell_length_b   12.22320998
_cell_length_c   12.21780217
_cell_angle_alpha   89.99724527
_cell_angle_beta   89.99851228
_cell_angle_gamma   89.99862167
_symmetry_Int_Tables_number   1
_chemical_formula_structural   AgSbTe2
_chemical_formula_sum   'Ag16 Sb16 Te32'
_cell_volume   1825.13734692
_cell_formula_units_Z   16
loop_
 _symmetry_equiv_pos_site_id
 _symmetry_equiv_pos_as_xyz
  1  'x, y, z'
loop_
 _atom_site_type_symbol
 _atom_site_label
 _atom_site_symmetry_multiplicity
 _atom_site_fract_x
 _atom_site_fract_y
 _atom_site_fract_z
 _atom_site_occupancy
  Ag  Ag0  1  0.00254947  0.50295358  -0.00626172  1
  Ag  Ag1  1  0.24270575  0.50647411  0.74489514  1
  Ag  Ag2  1  0.75597292  -0.00040684  0.74337856  1
  Ag  Ag3  1  0.00213437  0.50142497  0.50626118  1
  Ag  Ag4  1  0.24733442  0.74928885  -0.00487330  1
  Ag  Ag5  1  0.49823218  0.50391568  0.50027695  1
  Ag  Ag6  1  0.00690467  0.74957924  0.74527569  1
  Ag  Ag7  1  0.00064008  0.24964971  0.74476647  1
  Ag  Ag8  1  0.00576459  -0.00187953  0.50760553  1
  Ag  Ag9  1  0.49612496  0.75006635  0.25596853  1
  Ag  Ag10  1  0.75380538  0.25035181  0.50215109  1
  Ag  Ag11  1  0.24418578  -0.00696284  0.74176066  1
  Ag  Ag12  1  0.75083573  0.50139750  0.25554944  1
  Ag  Ag13  1  0.24984043  -0.00596460  0.25919739  1
  Ag  Ag14  1  0.24882368  0.75417752  0.50418347  1
  Ag  Ag15  1  0.49363829  -0.00371968  0.50090265  1
  Sb  Sb16  1  0.24991690  0.50538354  0.25617267  1
  Sb  Sb17  1  -0.00078158  0.25041335  0.25562619  1
  Sb  Sb18  1  0.49117288  0.75039510  0.74272782  1
  Sb  Sb19  1  0.75456598  0.25190068  -0.00327706  1
  Sb  Sb20  1  0.74984566  -0.00141628  0.25769702  1
  Sb  Sb21  1  0.49686238  -0.00388714  -0.00081400  1
  Sb  Sb22  1  0.75123331  0.74949403  0.50129013  1
  Sb  Sb23  1  0.24555355  0.24568304  0.50238973  1
  Sb  Sb24  1  0.50008694  0.25003810  0.74572256  1
  Sb  Sb25  1  0.49737897  0.50471904  -0.00079302  1
  Sb  Sb26  1  0.00297900  -0.00355722  -0.00926281  1
  Sb  Sb27  1  0.75818595  0.50033845  0.74432555  1
  Sb  Sb28  1  0.75397961  0.74789716  -0.00200822  1
  Sb  Sb29  1  0.50023640  0.25046553  0.25509331  1
  Sb  Sb30  1  0.24661496  0.25207956  -0.00354539  1
  Sb  Sb31  1  0.00334778  0.75039631  0.25475724  1
  Te  Te32  1  0.24920210  0.23856773  0.24813533  1
  Te  Te33  1  0.24446621  0.25010066  0.75057176  1
  Te  Te34  1  0.25226176  0.75364370  0.25331061  1
  Te  Te35  1  0.24858326  0.75014096  0.74642307  1
  Te  Te36  1  0.75076693  0.25481365  0.25535979  1
  Te  Te37  1  0.75493010  0.24620408  0.74566628  1
  Te  Te38  1  0.74395896  0.74580638  0.24881563  1
  Te  Te39  1  0.75762503  0.75512912  0.75167586  1
  Te  Te40  1  0.24975500  -0.00574670  -0.00208527  1
  Te  Te41  1  0.24900580  0.00058163  0.50244954  1
  Te  Te42  1  0.24610005  0.50405744  -0.00297709  1
  Te  Te43  1  0.24850642  0.50093989  0.50124873  1
  Te  Te44  1  0.74987035  0.00038152  -0.00719374  1
  Te  Te45  1  0.75120613  0.00110114  0.50248735  1
  Te  Te46  1  0.75431960  0.50022606  0.00599338  1
  Te  Te47  1  0.75099299  0.49913326  0.49865554  1
  Te  Te48  1  -0.00029726  0.25802369  -0.00805499  1
  Te  Te49  1  -0.00384252  0.25109808  0.50455407  1
  Te  Te50  1  0.00510533  0.74545194  -0.00381297  1
  Te  Te51  1  0.00297686  0.74981972  0.50229157  1
  Te  Te52  1  0.50057901  0.25014322  0.00013078  1
  Te  Te53  1  0.50789667  0.25044504  0.50064783  1
  Te  Te54  1  0.49244583  0.74957625  0.00812419  1
  Te  Te55  1  0.49678849  0.74989956  0.49816835  1
  Te  Te56  1  0.00263643  0.00020914  0.25648168  1
  Te  Te57  1  0.00291054  -0.00133207  0.74795518  1
  Te  Te58  1  -0.00202041  0.50028798  0.25339056  1
  Te  Te59  1  0.00070117  0.50179623  0.74551621  1
  Te  Te60  1  0.49823770  -0.00322343  0.25547080  1
  Te  Te61  1  0.49791258  -0.00049851  0.74402103  1
  Te  Te62  1  0.50134329  0.50237969  0.25514832  1
  Te  Te63  1  0.49440420  0.50015385  0.74429116  1
