# generated using pymatgen
data_AgSbTe2
_symmetry_space_group_name_H-M   'P 1'
_cell_length_a   12.21019220
_cell_length_b   12.20989126
_cell_length_c   12.20328949
_cell_angle_alpha   89.99962103
_cell_angle_beta   89.99590085
_cell_angle_gamma   90.00334890
_symmetry_Int_Tables_number   1
_chemical_formula_structural   AgSbTe2
_chemical_formula_sum   'Ag16 Sb16 Te32'
_cell_volume   1819.32885881
_cell_formula_units_Z   16
loop_
 _symmetry_equiv_pos_site_id
 _symmetry_equiv_pos_as_xyz
  1  'x, y, z'
loop_
 _atom_site_type_symbol
 _atom_site_label
 _atom_site_symmetry_multiplicity
 _atom_site_fract_x
 _atom_site_fract_y
 _atom_site_fract_z
 _atom_site_occupancy
  Ag  Ag0  1  0.25256191  0.00088660  0.25284572  1
  Ag  Ag1  1  0.49686741  0.49631927  0.49845389  1
  Ag  Ag2  1  0.49793588  0.24933417  0.25337188  1
  Ag  Ag3  1  0.00290501  0.24759677  0.74302155  1
  Ag  Ag4  1  0.49939185  0.50150398  0.00205084  1
  Ag  Ag5  1  0.24848761  0.00437161  0.74597534  1
  Ag  Ag6  1  0.00087407  0.75180968  0.25206324  1
  Ag  Ag7  1  0.49980977  -0.00132009  0.00237633  1
  Ag  Ag8  1  0.74612405  0.75164992  0.00111395  1
  Ag  Ag9  1  0.75061539  0.00232116  0.74869197  1
  Ag  Ag10  1  0.75157092  0.24866083  0.50145985  1
  Ag  Ag11  1  0.49944053  0.75126449  0.24764349  1
  Ag  Ag12  1  0.00276083  0.00463156  0.50198353  1
  Ag  Ag13  1  0.24791953  0.24962708  0.50252100  1
  Ag  Ag14  1  0.25051419  0.49545700  0.74524628  1
  Ag  Ag15  1  0.00323452  0.49483171  0.50114006  1
  Sb  Sb16  1  0.25177684  0.24938464  -0.00234213  1
  Sb  Sb17  1  0.25051608  0.75065382  0.49879361  1
  Sb  Sb18  1  0.49689923  0.24942794  0.74524519  1
  Sb  Sb19  1  0.00236250  0.24818319  0.25881729  1
  Sb  Sb20  1  0.49656840  0.00347750  0.49739300  1
  Sb  Sb21  1  0.74769642  0.50001994  0.25111170  1
  Sb  Sb22  1  0.00142075  0.50174358  -0.00127407  1
  Sb  Sb23  1  0.25439964  0.75019384  0.00202147  1
  Sb  Sb24  1  0.50083988  0.75054355  0.75273106  1
  Sb  Sb25  1  -0.00062975  0.75186312  0.74733119  1
  Sb  Sb26  1  0.25306703  0.49756445  0.25563129  1
  Sb  Sb27  1  0.74884246  0.75215212  0.49928375  1
  Sb  Sb28  1  0.74796417  -0.00000409  0.25111848  1
  Sb  Sb29  1  0.74675319  0.24842118  -0.00199955  1
  Sb  Sb30  1  0.00019935  -0.00131920  -0.00120374  1
  Sb  Sb31  1  0.75023683  0.49678523  0.74823377  1
  Te  Te32  1  0.25336875  0.24521950  0.25469287  1
  Te  Te33  1  0.24808851  0.24757467  0.74628729  1
  Te  Te34  1  0.25102386  0.75644585  0.24956098  1
  Te  Te35  1  0.24923356  0.75301411  0.75043201  1
  Te  Te36  1  0.74491871  0.24938063  0.25612459  1
  Te  Te37  1  0.75348321  0.24551557  0.74571441  1
  Te  Te38  1  0.74840916  0.75047851  0.24621472  1
  Te  Te39  1  0.75065434  0.75764680  0.75500122  1
  Te  Te40  1  0.25491870  0.00053754  -0.00092674  1
  Te  Te41  1  0.24886119  0.00272396  0.50223814  1
  Te  Te42  1  0.25612811  0.49970822  -0.00770999  1
  Te  Te43  1  0.25036635  0.49693206  0.50320267  1
  Te  Te44  1  0.74575522  -0.00225048  -0.00428194  1
  Te  Te45  1  0.75305960  0.00352102  0.50458452  1
  Te  Te46  1  0.74269724  0.50417127  -0.00190906  1
  Te  Te47  1  0.74992775  0.49494196  0.50172886  1
  Te  Te48  1  -0.00143202  0.25195337  -0.00792026  1
  Te  Te49  1  0.00099342  0.24978310  0.50093482  1
  Te  Te50  1  -0.00729354  0.74852818  0.00763066  1
  Te  Te51  1  -0.00117504  0.74990613  0.49506906  1
  Te  Te52  1  0.50129343  0.25020776  0.00703372  1
  Te  Te53  1  0.49941916  0.25293751  0.49690587  1
  Te  Te54  1  0.50333664  0.74996167  0.00390180  1
  Te  Te55  1  0.50182334  0.74220910  0.49219386  1
  Te  Te56  1  0.00392579  -0.00211708  0.25255142  1
  Te  Te57  1  0.00318714  0.00152289  0.74789973  1
  Te  Te58  1  0.00205976  0.50391386  0.25494334  1
  Te  Te59  1  0.00420742  0.49793186  0.74625674  1
  Te  Te60  1  0.49749780  -0.00136676  0.24856116  1
  Te  Te61  1  0.49797442  0.00056799  0.75324916  1
  Te  Te62  1  0.49793550  0.50068897  0.25007593  1
  Te  Te63  1  0.49542603  0.49977367  0.74890717  1
