# generated using pymatgen
data_AgSbTe2
_symmetry_space_group_name_H-M   'P 1'
_cell_length_a   12.21652082
_cell_length_b   12.21534871
_cell_length_c   12.21972949
_cell_angle_alpha   90.00076534
_cell_angle_beta   90.00770759
_cell_angle_gamma   90.00021580
_symmetry_Int_Tables_number   1
_chemical_formula_structural   AgSbTe2
_chemical_formula_sum   'Ag16 Sb16 Te32'
_cell_volume   1823.53875099
_cell_formula_units_Z   16
loop_
 _symmetry_equiv_pos_site_id
 _symmetry_equiv_pos_as_xyz
  1  'x, y, z'
loop_
 _atom_site_type_symbol
 _atom_site_label
 _atom_site_symmetry_multiplicity
 _atom_site_fract_x
 _atom_site_fract_y
 _atom_site_fract_z
 _atom_site_occupancy
  Ag  Ag0  1  0.50265424  0.75266174  0.25482409  1
  Ag  Ag1  1  0.75040525  -0.00047867  0.24811627  1
  Ag  Ag2  1  0.50269373  0.24347255  0.75208297  1
  Ag  Ag3  1  0.50636348  0.00025392  -0.00604585  1
  Ag  Ag4  1  -0.00411915  0.24470354  0.25081983  1
  Ag  Ag5  1  0.74670425  0.24239527  -0.00050172  1
  Ag  Ag6  1  0.50152905  0.50704626  0.50188071  1
  Ag  Ag7  1  0.25577050  -0.00204629  0.74861097  1
  Ag  Ag8  1  0.74510761  0.75376422  0.50059248  1
  Ag  Ag9  1  0.25504213  0.75206706  0.50197273  1
  Ag  Ag10  1  -0.00720666  0.00181771  0.00055521  1
  Ag  Ag11  1  0.50127518  0.75524809  0.74584138  1
  Ag  Ag12  1  -0.00190676  0.50223885  0.49942083  1
  Ag  Ag13  1  0.50321648  0.50054559  -0.00245931  1
  Ag  Ag14  1  -0.00345837  -0.00176815  0.49961375  1
  Ag  Ag15  1  0.74449692  -0.00050283  0.75276864  1
  Sb  Sb16  1  0.25136548  0.24646240  0.50232828  1
  Sb  Sb17  1  -0.00192924  0.75432350  0.74663394  1
  Sb  Sb18  1  -0.00419491  0.49722566  0.00064677  1
  Sb  Sb19  1  0.74824978  0.50178457  0.25141842  1
  Sb  Sb20  1  0.74596366  0.50152990  0.74853111  1
  Sb  Sb21  1  0.50387494  0.24633988  0.24951567  1
  Sb  Sb22  1  -0.00346687  0.24520966  0.74966341  1
  Sb  Sb23  1  0.74858635  0.24497504  0.50081630  1
  Sb  Sb24  1  -0.00382068  0.75481148  0.25432820  1
  Sb  Sb25  1  0.74559592  0.75852209  -0.00092757  1
  Sb  Sb26  1  0.25397217  0.50277489  0.74693458  1
  Sb  Sb27  1  0.25133205  -0.00259890  0.25254378  1
  Sb  Sb28  1  0.25421102  0.75339148  -0.00282820  1
  Sb  Sb29  1  0.25085794  0.50205422  0.25210881  1
  Sb  Sb30  1  0.25375433  0.24717899  -0.00201303  1
  Sb  Sb31  1  0.50378821  -0.00907407  0.50734511  1
  Te  Te32  1  0.24117588  0.24970481  0.25013273  1
  Te  Te33  1  0.25816142  0.24169416  0.74987196  1
  Te  Te34  1  0.25846369  0.75058830  0.25796792  1
  Te  Te35  1  0.25529220  0.75559626  0.74502083  1
  Te  Te36  1  0.75306387  0.24286884  0.24688694  1
  Te  Te37  1  0.74494123  0.24400172  0.75346007  1
  Te  Te38  1  0.74496661  0.75590842  0.25438574  1
  Te  Te39  1  0.74549066  0.75538625  0.74585708  1
  Te  Te40  1  0.25002252  -0.00084007  -0.00577002  1
  Te  Te41  1  0.24342486  -0.00420070  0.50377339  1
  Te  Te42  1  0.25650269  0.50052003  -0.00046810  1
  Te  Te43  1  0.24987027  0.50636415  0.50108071  1
  Te  Te44  1  0.74942457  0.00051429  -0.00106419  1
  Te  Te45  1  0.75310157  -0.00249234  0.49986067  1
  Te  Te46  1  0.74615377  0.49275718  -0.00013723  1
  Te  Te47  1  0.75020129  0.50535442  0.50040166  1
  Te  Te48  1  -0.00432304  0.24871176  0.00210775  1
  Te  Te49  1  0.00006479  0.24998730  0.49785451  1
  Te  Te50  1  0.00074533  0.75304427  0.00058876  1
  Te  Te51  1  -0.00127211  0.75012366  0.49942727  1
  Te  Te52  1  0.50306929  0.24868485  -0.00121963  1
  Te  Te53  1  0.50021279  0.26098687  0.50195072  1
  Te  Te54  1  0.50116631  0.74987499  -0.00115058  1
  Te  Te55  1  0.50140590  0.74964535  0.50102102  1
  Te  Te56  1  -0.00195940  0.00127915  0.24981015  1
  Te  Te57  1  -0.00207499  0.00043714  0.75028700  1
  Te  Te58  1  -0.00016037  0.49534889  0.25385634  1
  Te  Te59  1  0.00094841  0.49909520  0.74456394  1
  Te  Te60  1  0.50203465  -0.00095826  0.24502114  1
  Te  Te61  1  0.50211177  -0.00091569  0.74900816  1
  Te  Te62  1  0.50090071  0.50286753  0.25045382  1
  Te  Te63  1  0.50016485  0.50173165  0.75002089  1
