# generated using pymatgen
data_AgSbTe2
_symmetry_space_group_name_H-M   'P 1'
_cell_length_a   12.22001920
_cell_length_b   12.21936329
_cell_length_c   12.21574269
_cell_angle_alpha   90.00190549
_cell_angle_beta   90.00306638
_cell_angle_gamma   90.00400875
_symmetry_Int_Tables_number   1
_chemical_formula_structural   AgSbTe2
_chemical_formula_sum   'Ag16 Sb16 Te32'
_cell_volume   1824.06512423
_cell_formula_units_Z   16
loop_
 _symmetry_equiv_pos_site_id
 _symmetry_equiv_pos_as_xyz
  1  'x, y, z'
loop_
 _atom_site_type_symbol
 _atom_site_label
 _atom_site_symmetry_multiplicity
 _atom_site_fract_x
 _atom_site_fract_y
 _atom_site_fract_z
 _atom_site_occupancy
  Ag  Ag0  1  0.24652794  0.75312069  0.49841867  1
  Ag  Ag1  1  0.74968932  0.75416561  0.00526089  1
  Ag  Ag2  1  0.75684847  0.24446755  0.49567950  1
  Ag  Ag3  1  0.75297890  0.49994850  0.25235671  1
  Ag  Ag4  1  -0.00412709  0.24885354  0.25647805  1
  Ag  Ag5  1  0.50527905  -0.00191106  0.00165750  1
  Ag  Ag6  1  0.24689770  0.49996471  0.25269070  1
  Ag  Ag7  1  -0.00495538  0.00057384  0.00131559  1
  Ag  Ag8  1  0.75331129  -0.00028399  0.25427453  1
  Ag  Ag9  1  -0.00109046  0.24564933  0.74403515  1
  Ag  Ag10  1  0.50322498  0.50203387  0.00362854  1
  Ag  Ag11  1  0.50542116  -0.00096567  0.49864433  1
  Ag  Ag12  1  0.75347162  0.75584638  0.49518914  1
  Ag  Ag13  1  0.24645236  0.00015904  0.74672284  1
  Ag  Ag14  1  -0.00556270  0.00362087  0.49877036  1
  Ag  Ag15  1  -0.00297530  0.49671152  0.49519839  1
  Sb  Sb16  1  0.24577731  -0.00009088  0.25358161  1
  Sb  Sb17  1  -0.00297616  0.75215212  0.25313446  1
  Sb  Sb18  1  0.24968037  0.75154572  0.00308733  1
  Sb  Sb19  1  0.24161692  0.24716480  0.49888527  1
  Sb  Sb20  1  -0.00351621  0.50026576  0.00647408  1
  Sb  Sb21  1  0.75183846  0.24525097  0.00470594  1
  Sb  Sb22  1  0.50293487  0.75173686  0.25015384  1
  Sb  Sb23  1  0.75404169  0.00078582  0.74475707  1
  Sb  Sb24  1  0.24915771  0.24856281  0.00116989  1
  Sb  Sb25  1  0.49986012  0.75288635  0.74961015  1
  Sb  Sb26  1  0.50111966  0.24628179  0.74766350  1
  Sb  Sb27  1  0.24698554  0.49992604  0.74755258  1
  Sb  Sb28  1  0.50455235  0.24829230  0.25196779  1
  Sb  Sb29  1  0.75202815  0.49870453  0.74797080  1
  Sb  Sb30  1  0.00036388  0.75529690  0.74675749  1
  Sb  Sb31  1  0.50248400  0.50146698  0.49628013  1
  Te  Te32  1  0.24162488  0.25634860  0.25063501  1
  Te  Te33  1  0.24340363  0.24459008  0.75002672  1
  Te  Te34  1  0.24915898  0.74390548  0.25611644  1
  Te  Te35  1  0.25008305  0.75530100  0.74243136  1
  Te  Te36  1  0.75381349  0.24915570  0.25391994  1
  Te  Te37  1  0.75678043  0.25093645  0.74150329  1
  Te  Te38  1  0.75095176  0.75104152  0.25183607  1
  Te  Te39  1  0.74998374  0.74913146  0.74866015  1
  Te  Te40  1  0.25088803  -0.00276573  -0.00136840  1
  Te  Te41  1  0.24900462  -0.00294626  0.49900415  1
  Te  Te42  1  0.25378013  0.50316204  0.00462032  1
  Te  Te43  1  0.25007617  0.50444826  0.49678715  1
  Te  Te44  1  0.74942010  -0.00155514  0.00231710  1
  Te  Te45  1  0.75184257  -0.00279699  0.49999358  1
  Te  Te46  1  0.74861507  0.50379994  0.00484163  1
  Te  Te47  1  0.75014239  0.50329904  0.49656444  1
  Te  Te48  1  -0.00097560  0.24467377  0.00021287  1
  Te  Te49  1  -0.00156052  0.24856506  0.49795595  1
  Te  Te50  1  -0.00532333  0.75587967  -0.00232009  1
  Te  Te51  1  -0.00295575  0.75080890  0.50111354  1
  Te  Te52  1  0.50010637  0.24625918  -0.00058862  1
  Te  Te53  1  0.50852404  0.24416134  0.50054491  1
  Te  Te54  1  0.50496394  0.75403458  -0.00070095  1
  Te  Te55  1  0.50283226  0.75506424  0.50051088  1
  Te  Te56  1  -0.00139814  0.00372524  0.25142649  1
  Te  Te57  1  0.00334344  0.00410082  0.74854490  1
  Te  Te58  1  -0.00327272  0.49517105  0.25215057  1
  Te  Te59  1  0.00203577  0.49100736  0.74367497  1
  Te  Te60  1  0.50360685  0.00200036  0.24894847  1
  Te  Te61  1  0.49267158  0.00210180  0.75117724  1
  Te  Te62  1  0.50218731  0.49769570  0.24543897  1
  Te  Te63  1  0.49830491  0.49751184  0.75994813  1
