# generated using pymatgen
data_AgSbTe2
_symmetry_space_group_name_H-M   'P 1'
_cell_length_a   12.22088168
_cell_length_b   12.24462836
_cell_length_c   12.22940451
_cell_angle_alpha   90.00000002
_cell_angle_beta   90.00926821
_cell_angle_gamma   89.99999997
_symmetry_Int_Tables_number   1
_chemical_formula_structural   AgSbTe2
_chemical_formula_sum   'Ag16 Sb16 Te32'
_cell_volume   1830.00995705
_cell_formula_units_Z   16
loop_
 _symmetry_equiv_pos_site_id
 _symmetry_equiv_pos_as_xyz
  1  'x, y, z'
loop_
 _atom_site_type_symbol
 _atom_site_label
 _atom_site_symmetry_multiplicity
 _atom_site_fract_x
 _atom_site_fract_y
 _atom_site_fract_z
 _atom_site_occupancy
  Ag  Ag0  1  0.74854344  0.49836555  0.25408449  1
  Ag  Ag1  1  0.50089977  0.24999998  0.74906178  1
  Ag  Ag2  1  0.50420813  0.49701063  0.50793710  1
  Ag  Ag3  1  -0.00227560  0.75000001  0.25215497  1
  Ag  Ag4  1  0.50105441  0.49982359  -0.00821795  1
  Ag  Ag5  1  0.74268944  0.25000000  0.00066708  1
  Ag  Ag6  1  0.25908134  -0.00239403  0.74988160  1
  Ag  Ag7  1  -0.00503386  0.49986636  0.49947803  1
  Ag  Ag8  1  0.25542213  0.75000002  -0.00533363  1
  Ag  Ag9  1  0.49500072  0.75000003  0.75206132  1
  Ag  Ag10  1  -0.00503387  0.00013365  0.49947803  1
  Ag  Ag11  1  0.74854344  0.00163445  0.25408451  1
  Ag  Ag12  1  0.50420813  0.00298937  0.50793705  1
  Ag  Ag13  1  0.25908108  0.50239403  0.74988163  1
  Ag  Ag14  1  0.50105440  0.00017640  -0.00821795  1
  Ag  Ag15  1  0.74531940  0.25000000  0.49910695  1
  Sb  Sb16  1  0.25149509  0.75000003  0.50452887  1
  Sb  Sb17  1  -0.00163248  0.50115205  -0.00034048  1
  Sb  Sb18  1  0.74523509  0.74999999  0.00181071  1
  Sb  Sb19  1  0.50055314  0.75000001  0.24901357  1
  Sb  Sb20  1  0.25713094  0.24999999  -0.00462772  1
  Sb  Sb21  1  0.00427321  0.75000003  0.74897628  1
  Sb  Sb22  1  0.25140572  -0.00333688  0.25034710  1
  Sb  Sb23  1  0.74191186  0.00261015  0.74690724  1
  Sb  Sb24  1  -0.00602336  0.25000000  0.25280294  1
  Sb  Sb25  1  0.74923346  0.75000003  0.49785529  1
  Sb  Sb26  1  0.50457148  0.25000000  0.25080861  1
  Sb  Sb27  1  0.25140571  0.50333688  0.25034712  1
  Sb  Sb28  1  -0.00163247  -0.00115207  -0.00034047  1
  Sb  Sb29  1  0.74191194  0.49738979  0.74690722  1
  Sb  Sb30  1  -0.00089325  0.24999999  0.74680791  1
  Sb  Sb31  1  0.25574139  0.25000000  0.50285976  1
  Te  Te32  1  0.24780119  0.25000000  0.24916024  1
  Te  Te33  1  0.25693230  0.25000001  0.75001973  1
  Te  Te34  1  0.24321036  0.75000000  0.24097687  1
  Te  Te35  1  0.25431792  0.75000000  0.75374860  1
  Te  Te36  1  0.74920522  0.25000000  0.25174453  1
  Te  Te37  1  0.74397025  0.25000000  0.74971473  1
  Te  Te38  1  0.75513492  0.75000000  0.24927838  1
  Te  Te39  1  0.74152757  0.75000004  0.75157715  1
  Te  Te40  1  0.25406969  -0.00032651  -0.00232285  1
  Te  Te41  1  0.25272933  0.00035066  0.50220212  1
  Te  Te42  1  0.25406969  0.50032651  -0.00232285  1
  Te  Te43  1  0.25272932  0.49964931  0.50220211  1
  Te  Te44  1  0.74639707  0.00214804  0.00410907  1
  Te  Te45  1  0.74797332  0.00159276  0.49730861  1
  Te  Te46  1  0.74639708  0.49785195  0.00410910  1
  Te  Te47  1  0.74797331  0.49840721  0.49730861  1
  Te  Te48  1  -0.01182232  0.25000000  -0.00076744  1
  Te  Te49  1  -0.00796185  0.25000000  0.50201940  1
  Te  Te50  1  0.00647526  0.75000002  0.00313924  1
  Te  Te51  1  0.00114659  0.75000001  0.49693442  1
  Te  Te52  1  0.50411394  0.25000000  -0.00240176  1
  Te  Te53  1  0.50439421  0.25000000  0.50232828  1
  Te  Te54  1  0.49622271  0.75000000  -0.00131911  1
  Te  Te55  1  0.49900721  0.74999998  0.50304985  1
  Te  Te56  1  -0.00310768  -0.00333265  0.25437597  1
  Te  Te57  1  0.00885269  -0.00102517  0.74413730  1
  Te  Te58  1  -0.00310765  0.50333266  0.25437596  1
  Te  Te59  1  0.00885269  0.50102517  0.74413730  1
  Te  Te60  1  0.50382179  -0.00113475  0.25218512  1
  Te  Te61  1  0.49870099  0.00005307  0.74904865  1
  Te  Te62  1  0.50382179  0.50113473  0.25218513  1
  Te  Te63  1  0.49870113  0.49994692  0.74904861  1
