# generated using pymatgen
data_AgSbTe2
_symmetry_space_group_name_H-M   'P 1'
_cell_length_a   12.23035034
_cell_length_b   12.24000816
_cell_length_c   12.23244570
_cell_angle_alpha   90.00860876
_cell_angle_beta   89.99770143
_cell_angle_gamma   90.00520689
_symmetry_Int_Tables_number   1
_chemical_formula_structural   AgSbTe2
_chemical_formula_sum   'Ag16 Sb16 Te32'
_cell_volume   1831.19205251
_cell_formula_units_Z   16
loop_
 _symmetry_equiv_pos_site_id
 _symmetry_equiv_pos_as_xyz
  1  'x, y, z'
loop_
 _atom_site_type_symbol
 _atom_site_label
 _atom_site_symmetry_multiplicity
 _atom_site_fract_x
 _atom_site_fract_y
 _atom_site_fract_z
 _atom_site_occupancy
  Ag  Ag0  1  -0.00361972  0.74726553  0.74575099  1
  Ag  Ag1  1  0.24100096  0.24720638  0.50530603  1
  Ag  Ag2  1  0.50494042  0.24594818  0.74398515  1
  Ag  Ag3  1  0.75652763  0.74999893  -0.00368376  1
  Ag  Ag4  1  0.24225228  0.75351048  0.50348090  1
  Ag  Ag5  1  0.75812380  0.49621934  0.74752785  1
  Ag  Ag6  1  -0.00274386  0.75033000  0.25467023  1
  Ag  Ag7  1  0.75348510  0.00498063  0.74478606  1
  Ag  Ag8  1  -0.00211266  0.49552999  0.50536807  1
  Ag  Ag9  1  0.75838944  0.24661104  0.50720187  1
  Ag  Ag10  1  -0.00331573  0.24984124  0.26014998  1
  Ag  Ag11  1  0.50195012  0.00308905  0.50480503  1
  Ag  Ag12  1  0.24590303  0.00286624  0.74269279  1
  Ag  Ag13  1  0.75464820  0.00145170  0.25551272  1
  Ag  Ag14  1  -0.00486788  0.25236707  0.74049258  1
  Ag  Ag15  1  -0.00382089  0.50166901  -0.00723090  1
  Sb  Sb16  1  0.24130637  0.49761728  0.74701191  1
  Sb  Sb17  1  0.24516087  0.00049955  0.25830080  1
  Sb  Sb18  1  0.75843908  0.75302387  0.50260295  1
  Sb  Sb19  1  0.75529842  0.49810564  0.25278639  1
  Sb  Sb20  1  0.50370175  0.75385377  0.25413246  1
  Sb  Sb21  1  -0.00229288  -0.00177136  -0.00324145  1
  Sb  Sb22  1  0.50522789  0.50000002  -0.00583701  1
  Sb  Sb23  1  0.24488012  0.24910238  -0.00508265  1
  Sb  Sb24  1  0.50204789  0.49869857  0.50382969  1
  Sb  Sb25  1  0.50429051  0.00059495  -0.00472646  1
  Sb  Sb26  1  0.24460187  0.49921801  0.25292907  1
  Sb  Sb27  1  0.24334992  0.75041584  -0.00276216  1
  Sb  Sb28  1  0.50332209  0.24599410  0.25681097  1
  Sb  Sb29  1  0.50215959  0.75288954  0.74730728  1
  Sb  Sb30  1  -0.00234995  0.00574887  0.50400899  1
  Sb  Sb31  1  0.75376960  0.25044734  -0.00666085  1
  Te  Te32  1  0.24481146  0.24828154  0.25631417  1
  Te  Te33  1  0.24537673  0.24820615  0.74619740  1
  Te  Te34  1  0.24296311  0.75153099  0.25342998  1
  Te  Te35  1  0.24749173  0.75275721  0.74660450  1
  Te  Te36  1  0.75391943  0.24717370  0.25312613  1
  Te  Te37  1  0.75527805  0.24670647  0.74956594  1
  Te  Te38  1  0.75524850  0.75281336  0.24938472  1
  Te  Te39  1  0.75304630  0.75242345  0.74898055  1
  Te  Te40  1  0.25237402  -0.00064992  -0.00958432  1
  Te  Te41  1  0.25336196  0.00208172  0.50338580  1
  Te  Te42  1  0.24274629  0.50070449  0.00057795  1
  Te  Te43  1  0.24630997  0.49842242  0.50079586  1
  Te  Te44  1  0.74876800  -0.00388012  -0.00190643  1
  Te  Te45  1  0.74791510  0.00192164  0.50310734  1
  Te  Te46  1  0.75523601  0.50358211  -0.00408742  1
  Te  Te47  1  0.75380596  0.49592023  0.50354277  1
  Te  Te48  1  0.00059596  0.25638499  0.00124554  1
  Te  Te49  1  -0.00129766  0.25047371  0.50141293  1
  Te  Te50  1  -0.00346626  0.74671698  -0.00158198  1
  Te  Te51  1  0.00163406  0.74659605  0.50158741  1
  Te  Te52  1  0.49768774  0.25144474  -0.00750580  1
  Te  Te53  1  0.50052163  0.24828778  0.50383082  1
  Te  Te54  1  0.50721784  0.74870455  0.00145962  1
  Te  Te55  1  0.48988825  0.75256468  0.49919293  1
  Te  Te56  1  -0.00485241  0.00006369  0.24630247  1
  Te  Te57  1  -0.00268066  -0.00019235  0.75204133  1
  Te  Te58  1  -0.00150654  0.50004248  0.25378236  1
  Te  Te59  1  -0.00251805  0.50043669  0.74664705  1
  Te  Te60  1  0.50743586  0.00029401  0.25503711  1
  Te  Te61  1  0.50341155  0.00294927  0.74648442  1
  Te  Te62  1  0.49960235  0.49978791  0.24828743  1
  Te  Te63  1  0.51002033  0.49412619  0.75011589  1
