# generated using pymatgen
data_AgSbTe2
_symmetry_space_group_name_H-M   'P 1'
_cell_length_a   12.23008639
_cell_length_b   12.21982397
_cell_length_c   12.22257715
_cell_angle_alpha   90.01356533
_cell_angle_beta   89.99107929
_cell_angle_gamma   90.00418741
_symmetry_Int_Tables_number   1
_chemical_formula_structural   AgSbTe2
_chemical_formula_sum   'Ag16 Sb16 Te32'
_cell_volume   1826.65799954
_cell_formula_units_Z   16
loop_
 _symmetry_equiv_pos_site_id
 _symmetry_equiv_pos_as_xyz
  1  'x, y, z'
loop_
 _atom_site_type_symbol
 _atom_site_label
 _atom_site_symmetry_multiplicity
 _atom_site_fract_x
 _atom_site_fract_y
 _atom_site_fract_z
 _atom_site_occupancy
  Ag  Ag0  1  0.49820074  0.50700343  0.49841320  1
  Ag  Ag1  1  0.00155135  0.50848204  0.49409380  1
  Ag  Ag2  1  0.49944440  0.74800673  0.75150559  1
  Ag  Ag3  1  0.24471650  0.74314795  0.49791864  1
  Ag  Ag4  1  0.25144545  0.74177357  0.00188437  1
  Ag  Ag5  1  0.75098765  -0.00338187  0.74874830  1
  Ag  Ag6  1  0.75398817  0.50490223  0.25258749  1
  Ag  Ag7  1  0.49795921  -0.00575437  -0.00315695  1
  Ag  Ag8  1  0.49136964  0.50519407  0.00155131  1
  Ag  Ag9  1  0.24889155  0.25969423  -0.00016210  1
  Ag  Ag10  1  0.75477902  0.74546250  0.49974152  1
  Ag  Ag11  1  -0.00055209  -0.00788828  0.50140491  1
  Ag  Ag12  1  0.00066269  0.25193932  0.75020469  1
  Ag  Ag13  1  0.00776564  0.50330315  0.00496918  1
  Ag  Ag14  1  0.24597446  0.50489568  0.24576693  1
  Ag  Ag15  1  0.00282765  0.74251559  0.25469947  1
  Sb  Sb16  1  0.24794946  -0.00528259  0.25017586  1
  Sb  Sb17  1  0.74847517  0.74725005  0.00015095  1
  Sb  Sb18  1  0.24858978  0.50162727  0.75529856  1
  Sb  Sb19  1  0.75173231  0.25241889  -0.00158190  1
  Sb  Sb20  1  0.49690278  0.74552992  0.24872174  1
  Sb  Sb21  1  0.00220609  0.25849053  0.24886853  1
  Sb  Sb22  1  0.49822701  0.25382364  0.24835304  1
  Sb  Sb23  1  0.75192928  0.25414788  0.50125657  1
  Sb  Sb24  1  0.24682871  0.25846200  0.49969593  1
  Sb  Sb25  1  0.00020350  0.74894897  0.74565257  1
  Sb  Sb26  1  0.75258142  -0.00562164  0.25102794  1
  Sb  Sb27  1  0.49933704  0.25130842  0.75251101  1
  Sb  Sb28  1  0.00168489  -0.00292518  -0.00091420  1
  Sb  Sb29  1  0.49999978  -0.00843803  0.50253880  1
  Sb  Sb30  1  0.24920182  -0.00222095  0.75011812  1
  Sb  Sb31  1  0.75073776  0.50289086  0.74759411  1
  Te  Te32  1  0.24954446  0.25764276  0.24370274  1
  Te  Te33  1  0.24430345  0.24873281  0.75605777  1
  Te  Te34  1  0.24640818  0.74587636  0.25021572  1
  Te  Te35  1  0.25607414  0.75076108  0.74991405  1
  Te  Te36  1  0.74982975  0.25918520  0.24999868  1
  Te  Te37  1  0.75551027  0.24213437  0.74966684  1
  Te  Te38  1  0.75625838  0.74482617  0.25515319  1
  Te  Te39  1  0.74535845  0.75401503  0.74530510  1
  Te  Te40  1  0.25382405  -0.00389377  0.00092539  1
  Te  Te41  1  0.24682734  -0.00573095  0.49812119  1
  Te  Te42  1  0.25009138  0.50346317  0.00048092  1
  Te  Te43  1  0.24925557  0.50288199  0.49680560  1
  Te  Te44  1  0.74530818  0.00042587  -0.00268539  1
  Te  Te45  1  0.75209606  -0.00407740  0.50193547  1
  Te  Te46  1  0.75014169  0.50032522  0.00366076  1
  Te  Te47  1  0.75071497  0.50359750  0.49776917  1
  Te  Te48  1  0.00399079  0.25194110  -0.00261037  1
  Te  Te49  1  0.00153162  0.25084274  0.50403259  1
  Te  Te50  1  0.00314110  0.74710680  0.00072217  1
  Te  Te51  1  0.00202843  0.74662623  0.50250065  1
  Te  Te52  1  0.49453022  0.25439144  -0.00138880  1
  Te  Te53  1  0.49899951  0.25895568  0.50096919  1
  Te  Te54  1  0.49884769  0.74592419  -0.00166078  1
  Te  Te55  1  0.49849127  0.74665348  0.50189013  1
  Te  Te56  1  -0.00140062  -0.00719815  0.25539167  1
  Te  Te57  1  -0.00425144  0.00214554  0.74681353  1
  Te  Te58  1  0.00152182  0.50241348  0.25027992  1
  Te  Te59  1  -0.00232649  0.49672586  0.75059620  1
  Te  Te60  1  0.50103257  0.00226400  0.24251964  1
  Te  Te61  1  0.50409129  -0.00268143  0.75324979  1
  Te  Te62  1  0.49923611  0.50056066  0.24897638  1
  Te  Te63  1  0.50239097  0.50345695  0.75105292  1
