# generated using pymatgen
data_AgSbTe2
_symmetry_space_group_name_H-M   'P 1'
_cell_length_a   12.21894410
_cell_length_b   12.21905723
_cell_length_c   12.21613524
_cell_angle_alpha   90.00698508
_cell_angle_beta   89.99908822
_cell_angle_gamma   90.00360743
_symmetry_Int_Tables_number   1
_chemical_formula_structural   AgSbTe2
_chemical_formula_sum   'Ag16 Sb16 Te32'
_cell_volume   1823.91756104
_cell_formula_units_Z   16
loop_
 _symmetry_equiv_pos_site_id
 _symmetry_equiv_pos_as_xyz
  1  'x, y, z'
loop_
 _atom_site_type_symbol
 _atom_site_label
 _atom_site_symmetry_multiplicity
 _atom_site_fract_x
 _atom_site_fract_y
 _atom_site_fract_z
 _atom_site_occupancy
  Ag  Ag0  1  0.51335531  0.24776294  0.25284608  1
  Ag  Ag1  1  0.75168817  0.48560719  0.24945053  1
  Ag  Ag2  1  -0.01340478  0.24625091  0.24688994  1
  Ag  Ag3  1  -0.00137155  0.75094646  0.75353031  1
  Ag  Ag4  1  -0.00397310  0.49880478  0.00468578  1
  Ag  Ag5  1  0.24718231  0.00519453  0.24868858  1
  Ag  Ag6  1  0.50353458  0.00458983  0.00309570  1
  Ag  Ag7  1  -0.00336330  0.00132653  0.00712827  1
  Ag  Ag8  1  0.75006753  0.24735817  0.01405553  1
  Ag  Ag9  1  -0.00225192  0.75369706  0.24552817  1
  Ag  Ag10  1  0.50225318  0.24915614  0.74718234  1
  Ag  Ag11  1  0.74494206  0.25091046  0.48545677  1
  Ag  Ag12  1  0.25529023  0.24951607  0.49488567  1
  Ag  Ag13  1  0.50140575  0.75107647  0.75058185  1
  Ag  Ag14  1  0.75288295  0.01422284  0.24612984  1
  Ag  Ag15  1  0.50246167  0.49312672  0.49852389  1
  Sb  Sb16  1  0.50242866  0.75281737  0.24878028  1
  Sb  Sb17  1  -0.00444973  0.49715153  0.49472335  1
  Sb  Sb18  1  0.74998822  0.49775844  0.75091867  1
  Sb  Sb19  1  0.25211153  0.75128130  0.49747711  1
  Sb  Sb20  1  0.25065372  0.00226410  0.75061185  1
  Sb  Sb21  1  0.24773075  0.75187167  0.00177838  1
  Sb  Sb22  1  0.50652761  0.49448231  0.00186006  1
  Sb  Sb23  1  0.25014906  0.49815797  0.74876723  1
  Sb  Sb24  1  0.75252503  0.75396952  0.00208985  1
  Sb  Sb25  1  0.25054258  0.24745138  0.00654139  1
  Sb  Sb26  1  0.74825122  0.74974818  0.49695057  1
  Sb  Sb27  1  0.24787342  0.49316986  0.25167397  1
  Sb  Sb28  1  0.50128354  0.00976091  0.49571321  1
  Sb  Sb29  1  -0.00205769  0.24826309  0.75472019  1
  Sb  Sb30  1  -0.00106056  0.00178410  0.48972518  1
  Sb  Sb31  1  0.74921864  0.00230991  0.75535613  1
  Te  Te32  1  0.25029745  0.24623041  0.25367941  1
  Te  Te33  1  0.25775904  0.24863944  0.74014186  1
  Te  Te34  1  0.24220750  0.75876494  0.25178696  1
  Te  Te35  1  0.25015558  0.75083389  0.74818944  1
  Te  Te36  1  0.75009930  0.24982529  0.24917750  1
  Te  Te37  1  0.74401972  0.24970398  0.74943082  1
  Te  Te38  1  0.75611053  0.75008606  0.25124814  1
  Te  Te39  1  0.74985643  0.75027236  0.74873873  1
  Te  Te40  1  0.24951360  0.00113505  0.00678422  1
  Te  Te41  1  0.25009578  0.00697550  0.49228781  1
  Te  Te42  1  0.23872346  0.49962067  0.00061933  1
  Te  Te43  1  0.25832641  0.49214173  0.49912255  1
  Te  Te44  1  0.75028624  0.00400265  0.00420173  1
  Te  Te45  1  0.74964401  0.00733124  0.49083581  1
  Te  Te46  1  0.75445995  0.49293619  0.00597100  1
  Te  Te47  1  0.74561671  0.49422527  0.49394972  1
  Te  Te48  1  -0.00208842  0.24790788  0.00063875  1
  Te  Te49  1  -0.00169780  0.25171347  0.49744374  1
  Te  Te50  1  -0.00091970  0.75174753  0.00129259  1
  Te  Te51  1  0.00033665  0.74865837  0.50210064  1
  Te  Te52  1  0.50193053  0.24865918  0.00102356  1
  Te  Te53  1  0.50225410  0.25077472  0.49868883  1
  Te  Te54  1  0.50025731  0.75451070  -0.00621980  1
  Te  Te55  1  0.49938802  0.74123541  0.50731190  1
  Te  Te56  1  -0.00190011  0.00167434  0.24733300  1
  Te  Te57  1  0.00053855  -0.00608606  0.76071909  1
  Te  Te58  1  -0.00230757  0.49908611  0.24726110  1
  Te  Te59  1  -0.00030594  0.50675683  0.75715256  1
  Te  Te60  1  0.50147218  0.00043355  0.24606219  1
  Te  Te61  1  0.49960980  0.00012684  0.75742689  1
  Te  Te62  1  0.50345970  0.49883267  0.25127785  1
  Te  Te63  1  0.50038585  0.49945505  0.74797538  1
