# generated using pymatgen
data_AgSbTe2
_symmetry_space_group_name_H-M   'P 1'
_cell_length_a   12.21308544
_cell_length_b   12.21766536
_cell_length_c   12.22199901
_cell_angle_alpha   89.99850155
_cell_angle_beta   89.99537436
_cell_angle_gamma   90.00316004
_symmetry_Int_Tables_number   1
_chemical_formula_structural   AgSbTe2
_chemical_formula_sum   'Ag16 Sb16 Te32'
_cell_volume   1823.71034986
_cell_formula_units_Z   16
loop_
 _symmetry_equiv_pos_site_id
 _symmetry_equiv_pos_as_xyz
  1  'x, y, z'
loop_
 _atom_site_type_symbol
 _atom_site_label
 _atom_site_symmetry_multiplicity
 _atom_site_fract_x
 _atom_site_fract_y
 _atom_site_fract_z
 _atom_site_occupancy
  Ag  Ag0  1  0.25042568  0.74666232  -0.00242210  1
  Ag  Ag1  1  0.00490719  0.49772496  0.49808276  1
  Ag  Ag2  1  0.75387596  0.24746785  0.00133296  1
  Ag  Ag3  1  0.00045134  0.00241368  -0.00086863  1
  Ag  Ag4  1  0.24617832  0.25360278  -0.00232470  1
  Ag  Ag5  1  0.49873022  0.75063795  0.24865404  1
  Ag  Ag6  1  0.24907559  0.49997317  0.75528708  1
  Ag  Ag7  1  0.49872467  -0.00122009  0.50224193  1
  Ag  Ag8  1  0.75199631  0.50003539  0.24613144  1
  Ag  Ag9  1  0.24957357  0.25265418  0.50163960  1
  Ag  Ag10  1  0.25280790  -0.00062809  0.75376074  1
  Ag  Ag11  1  0.49550833  0.75380271  0.75155117  1
  Ag  Ag12  1  0.00639786  0.49759585  0.00241718  1
  Ag  Ag13  1  0.74764789  0.00000403  0.75446991  1
  Ag  Ag14  1  0.74822019  0.00013293  0.24531166  1
  Ag  Ag15  1  0.24763314  0.50027390  0.24501859  1
  Sb  Sb16  1  0.49909676  0.24833633  0.25015119  1
  Sb  Sb17  1  0.75107960  0.25031659  0.49900714  1
  Sb  Sb18  1  0.74982805  0.75122218  0.00115616  1
  Sb  Sb19  1  0.49638462  0.49977329  0.49916693  1
  Sb  Sb20  1  0.25187920  -0.00095734  0.24567531  1
  Sb  Sb21  1  0.00260559  0.74747420  0.24737867  1
  Sb  Sb22  1  0.25263138  0.74764428  0.50238332  1
  Sb  Sb23  1  0.50041718  -0.00130485  -0.00263001  1
  Sb  Sb24  1  0.75013892  0.50004506  0.75550079  1
  Sb  Sb25  1  0.00249699  0.00267376  0.50022754  1
  Sb  Sb26  1  0.00488316  0.75040254  0.75312527  1
  Sb  Sb27  1  0.74801225  0.75002716  0.49946581  1
  Sb  Sb28  1  0.49681004  0.24562099  0.74965998  1
  Sb  Sb29  1  0.49175791  0.50121595  0.00103760  1
  Sb  Sb30  1  0.00119895  0.25227443  0.24708103  1
  Sb  Sb31  1  0.00262171  0.25002394  0.75291077  1
  Te  Te32  1  0.25185645  0.25459720  0.24761037  1
  Te  Te33  1  0.25209534  0.25021201  0.75325873  1
  Te  Te34  1  0.25505358  0.74691145  0.24601361  1
  Te  Te35  1  0.25379402  0.75120897  0.75253389  1
  Te  Te36  1  0.74795067  0.25074798  0.24540357  1
  Te  Te37  1  0.74713015  0.24490429  0.75581269  1
  Te  Te38  1  0.74278143  0.74885792  0.24901902  1
  Te  Te39  1  0.74119736  0.75546072  0.75064067  1
  Te  Te40  1  0.24655085  0.00248533  -0.00097502  1
  Te  Te41  1  0.24891322  0.00410854  0.50283437  1
  Te  Te42  1  0.24808860  0.49754316  -0.00000234  1
  Te  Te43  1  0.24771257  0.49705411  0.49958412  1
  Te  Te44  1  0.75303363  0.00112568  0.00032909  1
  Te  Te45  1  0.74982900  0.00257096  0.50005701  1
  Te  Te46  1  0.75724805  0.49751292  0.00190717  1
  Te  Te47  1  0.75547803  0.49673375  0.49517574  1
  Te  Te48  1  0.00217610  0.25022982  0.00022660  1
  Te  Te49  1  0.00742822  0.25608939  0.49992274  1
  Te  Te50  1  0.00719050  0.74941654  -0.00038422  1
  Te  Te51  1  -0.00031654  0.74120853  0.50020011  1
  Te  Te52  1  0.49887959  0.25036794  0.00030573  1
  Te  Te53  1  0.49330079  0.24322552  0.49962592  1
  Te  Te54  1  0.49354210  0.75017177  0.00041342  1
  Te  Te55  1  0.49938992  0.75628240  0.49924688  1
  Te  Te56  1  -0.00716333  -0.00293108  0.24650778  1
  Te  Te57  1  0.00036734  -0.00185743  0.75294402  1
  Te  Te58  1  0.00048705  0.50203992  0.24686009  1
  Te  Te59  1  0.00393172  0.50176166  0.75219440  1
  Te  Te60  1  0.50350073  -0.00483815  0.25442938  1
  Te  Te61  1  0.49778496  -0.00390657  0.74758288  1
  Te  Te62  1  0.50107709  0.50608198  0.25180256  1
  Te  Te63  1  0.49571433  0.50870070  0.74733789  1
