# generated using pymatgen
data_AgSbTe2
_symmetry_space_group_name_H-M   'P 1'
_cell_length_a   12.23081431
_cell_length_b   12.21458378
_cell_length_c   12.22118028
_cell_angle_alpha   90.01712212
_cell_angle_beta   90.00089537
_cell_angle_gamma   89.99727520
_symmetry_Int_Tables_number   1
_chemical_formula_structural   AgSbTe2
_chemical_formula_sum   'Ag16 Sb16 Te32'
_cell_volume   1825.77466449
_cell_formula_units_Z   16
loop_
 _symmetry_equiv_pos_site_id
 _symmetry_equiv_pos_as_xyz
  1  'x, y, z'
loop_
 _atom_site_type_symbol
 _atom_site_label
 _atom_site_symmetry_multiplicity
 _atom_site_fract_x
 _atom_site_fract_y
 _atom_site_fract_z
 _atom_site_occupancy
  Ag  Ag0  1  0.00300287  0.75864190  0.74563398  1
  Ag  Ag1  1  0.74809389  0.50101135  0.25246207  1
  Ag  Ag2  1  0.00086307  -0.00860497  0.50462340  1
  Ag  Ag3  1  0.24892443  0.24623663  0.00261028  1
  Ag  Ag4  1  0.24499283  0.75416642  0.49876945  1
  Ag  Ag5  1  0.00349177  0.75180315  0.25412328  1
  Ag  Ag6  1  0.24439830  0.75392331  0.00144462  1
  Ag  Ag7  1  0.49928609  0.25241229  0.25039514  1
  Ag  Ag8  1  0.75082992  0.24698413  0.00257588  1
  Ag  Ag9  1  0.75639572  -0.00246803  0.74689260  1
  Ag  Ag10  1  0.49913784  -0.00350829  0.49985087  1
  Ag  Ag11  1  0.24346228  -0.00453973  0.74947221  1
  Ag  Ag12  1  0.75425186  0.75404074  0.49900541  1
  Ag  Ag13  1  0.25156996  0.50329575  0.25125696  1
  Ag  Ag14  1  0.49936145  0.50289921  0.49382361  1
  Ag  Ag15  1  0.00357859  -0.00340587  -0.00428739  1
  Sb  Sb16  1  0.75563580  0.75244869  0.00035069  1
  Sb  Sb17  1  0.24916462  -0.00344252  0.25039639  1
  Sb  Sb18  1  0.49746935  0.75293126  0.74641312  1
  Sb  Sb19  1  0.49928978  0.49869385  0.00513175  1
  Sb  Sb20  1  0.24943407  0.50302536  0.74894678  1
  Sb  Sb21  1  0.49762764  0.00072269  0.00079513  1
  Sb  Sb22  1  0.74892704  0.24753770  0.49856814  1
  Sb  Sb23  1  0.00084664  0.24922901  0.24807879  1
  Sb  Sb24  1  0.00086379  0.50909087  0.49684845  1
  Sb  Sb25  1  0.25108622  0.24696690  0.49789220  1
  Sb  Sb26  1  0.49763270  0.74792230  0.25433324  1
  Sb  Sb27  1  0.75052328  0.50196776  0.74802007  1
  Sb  Sb28  1  0.00102566  0.50361329  0.00172786  1
  Sb  Sb29  1  0.49922289  0.24678935  0.74990336  1
  Sb  Sb30  1  0.75102966  -0.00145345  0.25236864  1
  Sb  Sb31  1  0.00061163  0.24062062  0.75216834  1
  Te  Te32  1  0.25147941  0.25598995  0.24595090  1
  Te  Te33  1  0.24969390  0.24636850  0.75791194  1
  Te  Te34  1  0.24797875  0.74673441  0.25164274  1
  Te  Te35  1  0.24732702  0.75269145  0.74853793  1
  Te  Te36  1  0.74860691  0.25446181  0.24627884  1
  Te  Te37  1  0.75022492  0.24579415  0.75672393  1
  Te  Te38  1  0.75277236  0.74615319  0.25238142  1
  Te  Te39  1  0.75366355  0.75378407  0.74813361  1
  Te  Te40  1  0.24897360  -0.00114508  -0.00131832  1
  Te  Te41  1  0.24975467  -0.00242833  0.50163381  1
  Te  Te42  1  0.25071325  0.49970171  0.00291844  1
  Te  Te43  1  0.25215369  0.50257269  0.49683482  1
  Te  Te44  1  0.75120299  0.00192007  -0.00320405  1
  Te  Te45  1  0.75017335  -0.00288162  0.50224986  1
  Te  Te46  1  0.74913603  0.49561604  0.00440692  1
  Te  Te47  1  0.74756000  0.50284273  0.49650472  1
  Te  Te48  1  0.00142014  0.24364702  0.00044422  1
  Te  Te49  1  0.00021145  0.23882227  0.50011960  1
  Te  Te50  1  0.00338400  0.75402658  0.00174094  1
  Te  Te51  1  0.00120866  0.75287752  0.49826445  1
  Te  Te52  1  0.49897002  0.24966124  0.00590550  1
  Te  Te53  1  0.49964047  0.24884423  0.49422246  1
  Te  Te54  1  0.49021767  0.75001052  0.00021563  1
  Te  Te55  1  0.49985953  0.75275417  0.49913232  1
  Te  Te56  1  -0.00065484  -0.00583092  0.24941272  1
  Te  Te57  1  0.00107636  -0.00320796  0.74997688  1
  Te  Te58  1  0.00086818  0.50546383  0.25039383  1
  Te  Te59  1  -0.00046161  0.51092826  0.74934770  1
  Te  Te60  1  0.50034548  0.00620846  0.25697830  1
  Te  Te61  1  0.50019479  0.00088867  0.74307693  1
  Te  Te62  1  0.49952913  0.49780107  0.25396323  1
  Te  Te63  1  0.50074452  0.49937764  0.73862247  1
