# generated using pymatgen
data_AgSbTe2
_symmetry_space_group_name_H-M   'P 1'
_cell_length_a   12.24070790
_cell_length_b   12.23218132
_cell_length_c   12.22534260
_cell_angle_alpha   90.00097618
_cell_angle_beta   90.00323681
_cell_angle_gamma   90.00683332
_symmetry_Int_Tables_number   1
_chemical_formula_structural   AgSbTe2
_chemical_formula_sum   'Ag16 Sb16 Te32'
_cell_volume   1830.50735914
_cell_formula_units_Z   16
loop_
 _symmetry_equiv_pos_site_id
 _symmetry_equiv_pos_as_xyz
  1  'x, y, z'
loop_
 _atom_site_type_symbol
 _atom_site_label
 _atom_site_symmetry_multiplicity
 _atom_site_fract_x
 _atom_site_fract_y
 _atom_site_fract_z
 _atom_site_occupancy
  Ag  Ag0  1  0.00347727  0.24311145  0.75289295  1
  Ag  Ag1  1  0.49374226  0.24770779  0.24541409  1
  Ag  Ag2  1  0.24828950  0.00516629  0.75805575  1
  Ag  Ag3  1  0.49552324  0.00241857  0.00775242  1
  Ag  Ag4  1  -0.00393874  0.75492540  0.24916269  1
  Ag  Ag5  1  0.25559508  0.00514950  0.24256738  1
  Ag  Ag6  1  0.25060630  0.24671651  0.49267144  1
  Ag  Ag7  1  0.74952909  0.75290237  0.49176925  1
  Ag  Ag8  1  0.74520376  -0.00523363  0.24615491  1
  Ag  Ag9  1  0.49740461  0.49694572  0.00857315  1
  Ag  Ag10  1  0.75161993  0.00065918  0.75426236  1
  Ag  Ag11  1  0.25752584  0.49492086  0.24627692  1
  Ag  Ag12  1  0.00453448  0.00265400  0.00243062  1
  Ag  Ag13  1  0.50374051  0.75246864  0.24769230  1
  Ag  Ag14  1  0.25301510  0.24310133  0.00570265  1
  Ag  Ag15  1  0.74314227  0.50500130  0.24825157  1
  Sb  Sb16  1  -0.00172774  0.75695394  0.75176407  1
  Sb  Sb17  1  0.00023015  0.00011899  0.49657212  1
  Sb  Sb18  1  0.00223609  0.49692142  0.00492795  1
  Sb  Sb19  1  0.49989450  0.00029121  0.48982306  1
  Sb  Sb20  1  0.00064536  0.49941763  0.49583312  1
  Sb  Sb21  1  0.25084984  0.75747937  0.00350133  1
  Sb  Sb22  1  0.74986997  0.24894349  0.49596685  1
  Sb  Sb23  1  0.50130407  0.75474733  0.75187588  1
  Sb  Sb24  1  0.00564722  0.24479925  0.24840997  1
  Sb  Sb25  1  0.25117506  0.49518707  0.75303732  1
  Sb  Sb26  1  0.74726987  0.24661584  0.00292966  1
  Sb  Sb27  1  0.25077989  0.75226616  0.49356060  1
  Sb  Sb28  1  0.74905457  0.49978118  0.75162396  1
  Sb  Sb29  1  0.74915905  0.75345591  0.00766866  1
  Sb  Sb30  1  0.49828738  0.24586156  0.75362093  1
  Sb  Sb31  1  0.49923946  0.49925555  0.48991790  1
  Te  Te32  1  0.24952790  0.24783419  0.24859524  1
  Te  Te33  1  0.24900229  0.24634090  0.75156113  1
  Te  Te34  1  0.25173581  0.75075904  0.25155685  1
  Te  Te35  1  0.24903792  0.75711149  0.74661075  1
  Te  Te36  1  0.74639432  0.24834878  0.25197596  1
  Te  Te37  1  0.75339041  0.24485180  0.74780549  1
  Te  Te38  1  0.74814901  0.75285091  0.25090899  1
  Te  Te39  1  0.75073501  0.75478091  0.74098984  1
  Te  Te40  1  0.25090070  0.00136814  0.00274377  1
  Te  Te41  1  0.25026241  0.00401903  0.49911754  1
  Te  Te42  1  0.25265079  0.49416482  0.00329342  1
  Te  Te43  1  0.25023972  0.49470051  0.49646906  1
  Te  Te44  1  0.74967303  0.00108591  0.00201667  1
  Te  Te45  1  0.74980008  -0.00205184  0.49822475  1
  Te  Te46  1  0.74617843  0.49862933  0.00468815  1
  Te  Te47  1  0.75001568  0.50322046  0.49545027  1
  Te  Te48  1  0.00508846  0.24547166  -0.00247755  1
  Te  Te49  1  0.00562239  0.25032382  0.50537659  1
  Te  Te50  1  -0.00016859  0.75625919  0.00491502  1
  Te  Te51  1  -0.00394197  0.74901956  0.49423081  1
  Te  Te52  1  0.49748375  0.24681314  0.00356573  1
  Te  Te53  1  0.49444139  0.25086417  0.49455458  1
  Te  Te54  1  0.49981890  0.75186025  0.00521498  1
  Te  Te55  1  0.50384461  0.74935745  0.49434622  1
  Te  Te56  1  -0.00098686  -0.00153259  0.24644348  1
  Te  Te57  1  0.00027568  0.00189015  0.75468111  1
  Te  Te58  1  -0.00106695  0.50580391  0.24816306  1
  Te  Te59  1  -0.00095052  0.49427343  0.75145751  1
  Te  Te60  1  0.49972348  0.00043087  0.24736723  1
  Te  Te61  1  0.50048808  -0.00098557  0.76013674  1
  Te  Te62  1  0.49883607  0.49981820  0.24696340  1
  Te  Te63  1  0.50087335  0.50160679  0.76238939  1
