# generated using pymatgen
data_AgSbTe2
_symmetry_space_group_name_H-M   'P 1'
_cell_length_a   12.21440828
_cell_length_b   12.21620765
_cell_length_c   12.22512233
_cell_angle_alpha   90.00059745
_cell_angle_beta   89.99471430
_cell_angle_gamma   89.99904879
_symmetry_Int_Tables_number   1
_chemical_formula_structural   AgSbTe2
_chemical_formula_sum   'Ag16 Sb16 Te32'
_cell_volume   1824.15631230
_cell_formula_units_Z   16
loop_
 _symmetry_equiv_pos_site_id
 _symmetry_equiv_pos_as_xyz
  1  'x, y, z'
loop_
 _atom_site_type_symbol
 _atom_site_label
 _atom_site_symmetry_multiplicity
 _atom_site_fract_x
 _atom_site_fract_y
 _atom_site_fract_z
 _atom_site_occupancy
  Ag  Ag0  1  0.24845496  -0.00457627  0.24922228  1
  Ag  Ag1  1  0.24741656  -0.00373321  0.75075402  1
  Ag  Ag2  1  0.25313445  0.24767086  0.00110088  1
  Ag  Ag3  1  0.25228423  0.50485039  0.24963720  1
  Ag  Ag4  1  0.00294917  0.75043778  0.25247680  1
  Ag  Ag5  1  0.74990318  0.25303693  0.50113348  1
  Ag  Ag6  1  0.74719208  0.50338228  0.25051716  1
  Ag  Ag7  1  0.49699100  -0.00122135  -0.00105174  1
  Ag  Ag8  1  0.75304198  -0.00497699  0.75026174  1
  Ag  Ag9  1  0.74893177  0.50421211  0.74957216  1
  Ag  Ag10  1  0.50181387  0.50173413  0.00283792  1
  Ag  Ag11  1  0.00176895  -0.00533413  0.50262119  1
  Ag  Ag12  1  0.50337953  0.50138619  0.49773495  1
  Ag  Ag13  1  -0.00225816  0.75395510  0.74786823  1
  Ag  Ag14  1  0.74950859  0.74768547  -0.00283214  1
  Ag  Ag15  1  0.24577993  0.75221699  0.49715159  1
  Sb  Sb16  1  0.49830951  -0.00168571  0.50057099  1
  Sb  Sb17  1  0.49945605  0.25243449  0.24968395  1
  Sb  Sb18  1  0.49792457  0.74747986  0.24973097  1
  Sb  Sb19  1  0.74716914  0.25192113  -0.00064065  1
  Sb  Sb20  1  0.00247326  -0.00314339  -0.00238564  1
  Sb  Sb21  1  0.25121143  0.50409663  0.75053376  1
  Sb  Sb22  1  -0.00190697  0.50442424  0.49926814  1
  Sb  Sb23  1  0.75359699  0.74800765  0.50181416  1
  Sb  Sb24  1  -0.00079805  0.24588811  0.74795670  1
  Sb  Sb25  1  0.75132923  -0.00416804  0.24947966  1
  Sb  Sb26  1  0.00034508  0.24861898  0.25193915  1
  Sb  Sb27  1  0.25023062  0.24875376  0.49946748  1
  Sb  Sb28  1  -0.00196201  0.50286468  0.00077411  1
  Sb  Sb29  1  0.25119857  0.75139749  0.00208198  1
  Sb  Sb30  1  0.50313737  0.75021160  0.75092012  1
  Sb  Sb31  1  0.50022532  0.24999438  0.75018918  1
  Te  Te32  1  0.24826408  0.25076385  0.24697298  1
  Te  Te33  1  0.24799017  0.24353682  0.75398732  1
  Te  Te34  1  0.24474257  0.74916233  0.25102461  1
  Te  Te35  1  0.24271770  0.75380351  0.74774167  1
  Te  Te36  1  0.75226018  0.25736778  0.25406017  1
  Te  Te37  1  0.75139835  0.25022159  0.74676892  1
  Te  Te38  1  0.75680674  0.74614099  0.24743680  1
  Te  Te39  1  0.75449185  0.75109972  0.75133796  1
  Te  Te40  1  0.25355286  -0.00088083  -0.00007087  1
  Te  Te41  1  0.25098210  -0.00043753  0.50012785  1
  Te  Te42  1  0.25631747  0.49959267  0.00278896  1
  Te  Te43  1  0.25336068  0.50065033  0.49728147  1
  Te  Te44  1  0.74503624  0.00029028  -0.00311107  1
  Te  Te45  1  0.74973360  0.00134069  0.50296907  1
  Te  Te46  1  0.74553019  0.49917850  0.00016750  1
  Te  Te47  1  0.74764630  0.49964572  0.49976016  1
  Te  Te48  1  0.00959183  0.25067902  0.00018372  1
  Te  Te49  1  -0.00570958  0.24068297  0.49999266  1
  Te  Te50  1  -0.00728657  0.75013337  -0.00023872  1
  Te  Te51  1  0.00393729  0.75433119  0.49994921  1
  Te  Te52  1  0.49447674  0.25027325  -0.00007061  1
  Te  Te53  1  0.50642863  0.25743328  0.49997449  1
  Te  Te54  1  0.50710590  0.74862353  -0.00004992  1
  Te  Te55  1  0.49119000  0.74403614  0.50067538  1
  Te  Te56  1  0.00383080  -0.00578941  0.25430385  1
  Te  Te57  1  -0.00094286  -0.00399633  0.74734030  1
  Te  Te58  1  0.00187833  0.50661429  0.25064902  1
  Te  Te59  1  -0.00626750  0.50775479  0.74920941  1
  Te  Te60  1  0.49378148  -0.00099697  0.24494935  1
  Te  Te61  1  0.50005457  -0.00050211  0.75375158  1
  Te  Te62  1  0.49988300  0.50095708  0.24827144  1
  Te  Te63  1  0.50498465  0.50046733  0.75147560  1
