# generated using pymatgen
data_AgSbTe2
_symmetry_space_group_name_H-M   'P 1'
_cell_length_a   12.20666442
_cell_length_b   12.21243220
_cell_length_c   12.21222435
_cell_angle_alpha   89.99780217
_cell_angle_beta   90.00127309
_cell_angle_gamma   89.99830187
_symmetry_Int_Tables_number   1
_chemical_formula_structural   AgSbTe2
_chemical_formula_sum   'Ag16 Sb16 Te32'
_cell_volume   1820.51367163
_cell_formula_units_Z   16
loop_
 _symmetry_equiv_pos_site_id
 _symmetry_equiv_pos_as_xyz
  1  'x, y, z'
loop_
 _atom_site_type_symbol
 _atom_site_label
 _atom_site_symmetry_multiplicity
 _atom_site_fract_x
 _atom_site_fract_y
 _atom_site_fract_z
 _atom_site_occupancy
  Ag  Ag0  1  0.50166688  0.50233116  0.50017665  1
  Ag  Ag1  1  0.74776049  0.50238692  0.25091300  1
  Ag  Ag2  1  0.25103147  0.24724583  -0.00186060  1
  Ag  Ag3  1  0.25780131  -0.00205877  0.24593601  1
  Ag  Ag4  1  0.00053641  0.50069020  -0.00318000  1
  Ag  Ag5  1  0.00038205  0.25135376  0.75208110  1
  Ag  Ag6  1  0.50024328  0.75561673  0.24930853  1
  Ag  Ag7  1  -0.00143275  0.50061518  0.50250085  1
  Ag  Ag8  1  0.00026733  0.74851381  0.75199003  1
  Ag  Ag9  1  0.74239461  -0.00220344  0.24905656  1
  Ag  Ag10  1  0.50009654  0.75603917  0.75077324  1
  Ag  Ag11  1  0.49810719  -0.00255922  -0.00018636  1
  Ag  Ag12  1  0.50120145  -0.00222287  0.50075162  1
  Ag  Ag13  1  0.25283129  0.75293904  -0.00045098  1
  Ag  Ag14  1  0.49995231  0.24445743  0.75093225  1
  Ag  Ag15  1  0.74359053  -0.00081491  0.75075940  1
  Sb  Sb16  1  0.74889708  0.24894606  -0.00210209  1
  Sb  Sb17  1  0.00266452  -0.00083738  -0.00274771  1
  Sb  Sb18  1  0.49873135  0.24335788  0.24822681  1
  Sb  Sb19  1  0.25141340  0.24802323  0.50276967  1
  Sb  Sb20  1  0.24864625  0.50055715  0.75155442  1
  Sb  Sb21  1  0.25969315  -0.00054014  0.75535806  1
  Sb  Sb22  1  0.25279937  0.75165249  0.50087577  1
  Sb  Sb23  1  0.50016346  0.50168673  -0.00006272  1
  Sb  Sb24  1  0.25370080  0.50290115  0.24844153  1
  Sb  Sb25  1  -0.00128137  -0.00076162  0.50394678  1
  Sb  Sb26  1  0.00028702  0.74867860  0.24719028  1
  Sb  Sb27  1  0.00149478  0.25153681  0.24702950  1
  Sb  Sb28  1  0.74872093  0.24990236  0.50136353  1
  Sb  Sb29  1  0.74667551  0.75104581  -0.00031761  1
  Sb  Sb30  1  0.74762346  0.75008270  0.49993852  1
  Sb  Sb31  1  0.75089738  0.50178020  0.74870743  1
  Te  Te32  1  0.24952894  0.24339733  0.24132906  1
  Te  Te33  1  0.24973353  0.24903181  0.75597377  1
  Te  Te34  1  0.25411307  0.75387416  0.24402522  1
  Te  Te35  1  0.25101954  0.75103547  0.75631803  1
  Te  Te36  1  0.75046835  0.24775375  0.24888502  1
  Te  Te37  1  0.74948417  0.24392573  0.75118699  1
  Te  Te38  1  0.74530177  0.75256046  0.24914002  1
  Te  Te39  1  0.74855625  0.75513760  0.75091263  1
  Te  Te40  1  0.25299944  -0.00088159  0.00358388  1
  Te  Te41  1  0.25619001  0.00044104  0.49003242  1
  Te  Te42  1  0.24484662  0.49996617  0.00186153  1
  Te  Te43  1  0.25088501  0.49950089  0.49742397  1
  Te  Te44  1  0.74450334  0.00031553  0.00139139  1
  Te  Te45  1  0.74470414  0.00048524  0.49848688  1
  Te  Te46  1  0.75629564  0.49961239  0.00686867  1
  Te  Te47  1  0.74872771  0.49935913  0.49441302  1
  Te  Te48  1  0.00523561  0.25308939  -0.00513960  1
  Te  Te49  1  0.00221177  0.25650113  0.50845313  1
  Te  Te50  1  0.00601441  0.74723933  -0.00424695  1
  Te  Te51  1  0.00309176  0.74372797  0.50773191  1
  Te  Te52  1  0.49505582  0.24841109  -0.00551728  1
  Te  Te53  1  0.49833353  0.25068882  0.50743811  1
  Te  Te54  1  0.49639259  0.75119421  -0.00140771  1
  Te  Te55  1  0.49769187  0.74985208  0.50155598  1
  Te  Te56  1  -0.00446523  -0.00083789  0.25124457  1
  Te  Te57  1  -0.00713795  -0.00040185  0.74833826  1
  Te  Te58  1  -0.00518466  0.50092373  0.25183507  1
  Te  Te59  1  -0.00234964  0.50055314  0.74963041  1
  Te  Te60  1  0.50269051  -0.00019322  0.24956117  1
  Te  Te61  1  0.50083267  -0.00182880  0.74992029  1
  Te  Te62  1  0.50377116  0.50382800  0.25302882  1
  Te  Te63  1  0.50290072  0.50139573  0.74606786  1
