# generated using pymatgen
data_AgSbTe2
_symmetry_space_group_name_H-M   'P 1'
_cell_length_a   12.29049782
_cell_length_b   12.29266763
_cell_length_c   12.31018287
_cell_angle_alpha   90.00452722
_cell_angle_beta   89.99137289
_cell_angle_gamma   90.00260965
_symmetry_Int_Tables_number   1
_chemical_formula_structural   AgSbTe2
_chemical_formula_sum   'Ag16 Sb16 Te32'
_cell_volume   1859.85938885
_cell_formula_units_Z   16
loop_
 _symmetry_equiv_pos_site_id
 _symmetry_equiv_pos_as_xyz
  1  'x, y, z'
loop_
 _atom_site_type_symbol
 _atom_site_label
 _atom_site_symmetry_multiplicity
 _atom_site_fract_x
 _atom_site_fract_y
 _atom_site_fract_z
 _atom_site_occupancy
  Ag  Ag0  1  0.00695199  0.75166026  0.25610425  1
  Ag  Ag1  1  0.74827655  0.51246747  0.25852095  1
  Ag  Ag2  1  0.24870607  0.26474120  0.00124855  1
  Ag  Ag3  1  0.75911488  -0.01426839  0.25953690  1
  Ag  Ag4  1  -0.00609659  -0.00723350  0.49439817  1
  Ag  Ag5  1  0.49272138  0.50064507  0.00155002  1
  Ag  Ag6  1  0.23870348  -0.01695580  0.25372875  1
  Ag  Ag7  1  0.74832806  0.50412038  0.74337564  1
  Ag  Ag8  1  0.49911083  0.50505149  0.49876214  1
  Ag  Ag9  1  0.24772988  0.73829278  0.01483565  1
  Ag  Ag10  1  0.75434505  0.74786700  0.49115660  1
  Ag  Ag11  1  0.75755468  -0.00546336  0.73802803  1
  Ag  Ag12  1  0.25273678  0.50375861  0.75589235  1
  Ag  Ag13  1  0.00077536  0.25379671  0.74803470  1
  Ag  Ag14  1  0.24386308  0.74372680  0.48830845  1
  Ag  Ag15  1  0.25152672  0.51230866  0.24568805  1
  Sb  Sb16  1  0.75423658  0.74640806  0.00435218  1
  Sb  Sb17  1  0.00139978  0.25104411  0.25260737  1
  Sb  Sb18  1  0.49830203  0.25238573  0.24988842  1
  Sb  Sb19  1  0.24815582  0.25674160  0.49815029  1
  Sb  Sb20  1  0.00070286  0.50418422  0.49927332  1
  Sb  Sb21  1  0.00418673  0.50008524  -0.00030949  1
  Sb  Sb22  1  0.49889912  0.25376799  0.75073961  1
  Sb  Sb23  1  0.50062205  0.74789071  0.74908175  1
  Sb  Sb24  1  -0.00094682  0.74856679  0.74690196  1
  Sb  Sb25  1  0.00089140  -0.00100055  0.00258835  1
  Sb  Sb26  1  0.75257967  0.25415208  -0.00086233  1
  Sb  Sb27  1  0.75068650  0.25271620  0.50072289  1
  Sb  Sb28  1  0.24530097  -0.00324106  0.74776191  1
  Sb  Sb29  1  0.50053556  -0.00516786  0.49939287  1
  Sb  Sb30  1  0.49752775  -0.00248489  0.00050508  1
  Sb  Sb31  1  0.49601116  0.74909284  0.25007450  1
  Te  Te32  1  0.25065372  0.25429627  0.24824261  1
  Te  Te33  1  0.24671467  0.25060386  0.74978680  1
  Te  Te34  1  0.24863194  0.74879912  0.25476183  1
  Te  Te35  1  0.24966389  0.74722618  0.74409653  1
  Te  Te36  1  0.75096018  0.25198108  0.24892070  1
  Te  Te37  1  0.75526998  0.25642822  0.75034877  1
  Te  Te38  1  0.75200147  0.74759142  0.25160662  1
  Te  Te39  1  0.75049650  0.74462498  0.75011698  1
  Te  Te40  1  0.25133076  -0.00549895  0.00200713  1
  Te  Te41  1  0.25736969  -0.00456899  0.49784771  1
  Te  Te42  1  0.24948674  0.50232916  0.00001112  1
  Te  Te43  1  0.24444774  0.50298927  0.49803065  1
  Te  Te44  1  0.74730553  -0.00040490  0.00442492  1
  Te  Te45  1  0.74587067  -0.00286775  0.49709656  1
  Te  Te46  1  0.74198215  0.50058627  -0.00065520  1
  Te  Te47  1  0.75501705  0.50251758  0.49789330  1
  Te  Te48  1  0.00464347  0.25009250  -0.00716195  1
  Te  Te49  1  -0.00086727  0.23327055  0.50501781  1
  Te  Te50  1  0.00578208  0.74926034  0.01196372  1
  Te  Te51  1  -0.00084464  0.75446627  0.49710192  1
  Te  Te52  1  0.49133198  0.25629639  0.00004023  1
  Te  Te53  1  0.50050145  0.26654491  0.50007839  1
  Te  Te54  1  0.49000223  0.74662275  -0.00017689  1
  Te  Te55  1  0.50222455  0.74402682  0.50063689  1
  Te  Te56  1  0.00092893  -0.00020072  0.25168121  1
  Te  Te57  1  -0.00402516  -0.00204492  0.74753824  1
  Te  Te58  1  -0.00237308  0.50028947  0.24794172  1
  Te  Te59  1  -0.00231231  0.50030068  0.75104623  1
  Te  Te60  1  0.50556890  0.00163440  0.24890633  1
  Te  Te61  1  0.51675004  0.00089445  0.75076904  1
  Te  Te62  1  0.50211197  0.50111954  0.25236392  1
  Te  Te63  1  0.49993483  0.50113716  0.74767827  1
