# generated using pymatgen
data_AgSbTe2
_symmetry_space_group_name_H-M   'P 1'
_cell_length_a   12.22847784
_cell_length_b   12.21974076
_cell_length_c   12.22223664
_cell_angle_alpha   89.99644076
_cell_angle_beta   89.99732547
_cell_angle_gamma   90.00261488
_symmetry_Int_Tables_number   1
_chemical_formula_structural   AgSbTe2
_chemical_formula_sum   'Ag16 Sb16 Te32'
_cell_volume   1826.35450153
_cell_formula_units_Z   16
loop_
 _symmetry_equiv_pos_site_id
 _symmetry_equiv_pos_as_xyz
  1  'x, y, z'
loop_
 _atom_site_type_symbol
 _atom_site_label
 _atom_site_symmetry_multiplicity
 _atom_site_fract_x
 _atom_site_fract_y
 _atom_site_fract_z
 _atom_site_occupancy
  Ag  Ag0  1  -0.00309066  0.73997994  0.75211421  1
  Ag  Ag1  1  0.75212284  -0.00145403  0.24928068  1
  Ag  Ag2  1  0.00169448  0.25928842  0.75358141  1
  Ag  Ag3  1  0.50348559  0.73918958  0.75100778  1
  Ag  Ag4  1  -0.00043969  0.49765375  -0.00435293  1
  Ag  Ag5  1  0.24886546  0.49874608  0.24636892  1
  Ag  Ag6  1  0.74990397  0.50290550  0.75306972  1
  Ag  Ag7  1  -0.00045911  0.25528919  0.24778372  1
  Ag  Ag8  1  0.24618366  0.25752585  -0.00241949  1
  Ag  Ag9  1  0.75041544  0.74423953  -0.00060828  1
  Ag  Ag10  1  0.50094517  0.50121213  0.50475275  1
  Ag  Ag11  1  0.75030732  0.50276103  0.24619797  1
  Ag  Ag12  1  0.24988375  0.49745189  0.75314643  1
  Ag  Ag13  1  0.50419316  0.74295161  0.24864326  1
  Ag  Ag14  1  -0.00256512  0.00119585  0.49963527  1
  Ag  Ag15  1  0.49902708  0.26175516  0.75090899  1
  Sb  Sb16  1  0.24916752  0.25389703  0.50300183  1
  Sb  Sb17  1  0.24856254  0.00249135  0.75089787  1
  Sb  Sb18  1  0.49995860  0.25838845  0.24904346  1
  Sb  Sb19  1  -0.00218148  0.00209319  0.00087494  1
  Sb  Sb20  1  0.75306428  0.25664615  -0.00106551  1
  Sb  Sb21  1  0.74980778  0.74813034  0.50082249  1
  Sb  Sb22  1  0.24844170  0.74287852  -0.00084533  1
  Sb  Sb23  1  0.50154585  0.50033126  -0.00584584  1
  Sb  Sb24  1  0.24995690  0.74639860  0.50112146  1
  Sb  Sb25  1  0.50230916  -0.00099644  0.49887236  1
  Sb  Sb26  1  0.75202708  -0.00294980  0.75129516  1
  Sb  Sb27  1  0.24861409  0.00136216  0.24919504  1
  Sb  Sb28  1  -0.00450234  0.74490948  0.24804354  1
  Sb  Sb29  1  -0.00153741  0.49947122  0.50370430  1
  Sb  Sb30  1  0.75053239  0.25121289  0.50102389  1
  Sb  Sb31  1  0.50219962  -0.00026478  0.00087080  1
  Te  Te32  1  0.24772370  0.25399743  0.24619762  1
  Te  Te33  1  0.24759384  0.25295001  0.75232270  1
  Te  Te34  1  0.25632177  0.74409890  0.24789028  1
  Te  Te35  1  0.25139967  0.74527712  0.75150123  1
  Te  Te36  1  0.75268808  0.25354500  0.24786728  1
  Te  Te37  1  0.75107462  0.25290108  0.75193550  1
  Te  Te38  1  0.74860184  0.74430095  0.24720169  1
  Te  Te39  1  0.74908812  0.74838929  0.75278280  1
  Te  Te40  1  0.25037796  0.01033890  0.00069567  1
  Te  Te41  1  0.24182783  -0.00013624  0.49918201  1
  Te  Te42  1  0.24348081  0.49698204  -0.00094408  1
  Te  Te43  1  0.25649239  0.50009716  0.50025844  1
  Te  Te44  1  0.75012532  -0.00882613  0.00632642  1
  Te  Te45  1  0.75494265  0.00042865  0.49294084  1
  Te  Te46  1  0.75518485  0.50290569  -0.00027661  1
  Te  Te47  1  0.74442866  0.49962293  0.50024988  1
  Te  Te48  1  0.00087650  0.25327967  -0.00144932  1
  Te  Te49  1  -0.00010342  0.24777423  0.49985723  1
  Te  Te50  1  -0.00230841  0.74615874  -0.00426128  1
  Te  Te51  1  0.00071158  0.75419239  0.50695729  1
  Te  Te52  1  0.49524275  0.24909653  -0.00660288  1
  Te  Te53  1  0.50001406  0.25382559  0.50716156  1
  Te  Te54  1  0.50357795  0.75049074  -0.00163565  1
  Te  Te55  1  0.49928748  0.74738847  0.50255133  1
  Te  Te56  1  -0.00277833  0.00271479  0.25190373  1
  Te  Te57  1  -0.00100492  0.00209389  0.74698674  1
  Te  Te58  1  -0.00072622  0.49867777  0.25245748  1
  Te  Te59  1  -0.00070849  0.49882649  0.74703713  1
  Te  Te60  1  0.50479864  -0.00597539  0.25220363  1
  Te  Te61  1  0.50047262  -0.00255451  0.74779931  1
  Te  Te62  1  0.50184312  0.50125923  0.25197784  1
  Te  Te63  1  0.50101336  0.50118750  0.75080333  1
