# generated using pymatgen
data_AgSbTe2
_symmetry_space_group_name_H-M   'P 1'
_cell_length_a   12.24145701
_cell_length_b   12.24606345
_cell_length_c   12.21977072
_cell_angle_alpha   89.99278784
_cell_angle_beta   90.00043009
_cell_angle_gamma   90.00198362
_symmetry_Int_Tables_number   1
_chemical_formula_structural   AgSbTe2
_chemical_formula_sum   'Ag16 Sb16 Te32'
_cell_volume   1831.86164939
_cell_formula_units_Z   16
loop_
 _symmetry_equiv_pos_site_id
 _symmetry_equiv_pos_as_xyz
  1  'x, y, z'
loop_
 _atom_site_type_symbol
 _atom_site_label
 _atom_site_symmetry_multiplicity
 _atom_site_fract_x
 _atom_site_fract_y
 _atom_site_fract_z
 _atom_site_occupancy
  Ag  Ag0  1  0.75160837  0.24619117  -0.00641039  1
  Ag  Ag1  1  0.75422572  0.49235583  0.75661367  1
  Ag  Ag2  1  0.24572232  0.49849630  0.24324189  1
  Ag  Ag3  1  -0.00003202  0.49824987  -0.00000644  1
  Ag  Ag4  1  0.75133060  0.00792997  0.75853525  1
  Ag  Ag5  1  0.50005522  0.00781568  -0.00004545  1
  Ag  Ag6  1  0.24937755  0.24607497  0.00258610  1
  Ag  Ag7  1  0.49696362  0.24844624  0.23779842  1
  Ag  Ag8  1  0.00281641  0.74801063  0.24158624  1
  Ag  Ag9  1  -0.00004111  0.49849204  0.49995202  1
  Ag  Ag10  1  -0.00633589  0.25231682  0.75882667  1
  Ag  Ag11  1  -0.00006382  0.00174427  -0.00008868  1
  Ag  Ag12  1  0.24193743  0.75315228  0.00462110  1
  Ag  Ag13  1  0.50596237  0.24844234  0.76132535  1
  Ag  Ag14  1  0.75733903  0.75332523  -0.00067473  1
  Ag  Ag15  1  0.24871306  0.00206245  0.24129839  1
  Sb  Sb16  1  0.50019839  0.49680247  0.50022524  1
  Sb  Sb17  1  0.75351312  0.49793828  0.24344982  1
  Sb  Sb18  1  0.75170627  0.25118594  0.50639422  1
  Sb  Sb19  1  0.50013160  0.00311539  0.50016025  1
  Sb  Sb20  1  0.24583715  0.74767385  0.49463316  1
  Sb  Sb21  1  0.24635051  0.49668310  0.75676722  1
  Sb  Sb22  1  0.49808934  0.75095363  0.24316677  1
  Sb  Sb23  1  0.50266672  0.75096943  0.75711495  1
  Sb  Sb24  1  0.24865778  0.00246685  0.75950192  1
  Sb  Sb25  1  0.50008735  0.49184103  -0.00012759  1
  Sb  Sb26  1  -0.00008452  0.00214238  0.50014804  1
  Sb  Sb27  1  0.24766600  0.25129155  0.49665758  1
  Sb  Sb28  1  0.75438221  0.74785704  0.49983248  1
  Sb  Sb29  1  0.75121339  0.00196376  0.24039628  1
  Sb  Sb30  1  -0.00196534  0.74837754  0.75885489  1
  Sb  Sb31  1  0.00202758  0.25044372  0.23982072  1
  Te  Te32  1  0.25122273  0.25010042  0.24618967  1
  Te  Te33  1  0.25141536  0.25008601  0.75502610  1
  Te  Te34  1  0.24773322  0.74878695  0.24514990  1
  Te  Te35  1  0.25103676  0.74984989  0.75758239  1
  Te  Te36  1  0.74371449  0.24986049  0.24432422  1
  Te  Te37  1  0.75070589  0.25028594  0.75263284  1
  Te  Te38  1  0.75369719  0.74987856  0.24384331  1
  Te  Te39  1  0.75016589  0.74943112  0.75615255  1
  Te  Te40  1  0.24765188  0.00236572  0.00155961  1
  Te  Te41  1  0.24972617  -0.00106798  0.48811235  1
  Te  Te42  1  0.24884626  0.49870369  0.00253611  1
  Te  Te43  1  0.24411749  0.50080563  0.49294288  1
  Te  Te44  1  0.75241597  0.00226929  -0.00155558  1
  Te  Te45  1  0.75034963  -0.00118036  0.51224115  1
  Te  Te46  1  0.75117972  0.49896389  -0.00230591  1
  Te  Te47  1  0.75584839  0.50127569  0.50702730  1
  Te  Te48  1  -0.00030233  0.24899172  -0.00092766  1
  Te  Te49  1  -0.00009400  0.25490378  0.50986694  1
  Te  Te50  1  0.00017628  0.75119266  0.00146389  1
  Te  Te51  1  -0.00006373  0.74472064  0.49079393  1
  Te  Te52  1  0.49950062  0.24852828  -0.00049499  1
  Te  Te53  1  0.49998206  0.24995504  0.50100643  1
  Te  Te54  1  0.50094576  0.75887755  -0.00025845  1
  Te  Te55  1  0.50024027  0.74973160  0.50055272  1
  Te  Te56  1  0.00170573  -0.00091342  0.24806879  1
  Te  Te57  1  -0.00120187  0.00262143  0.75205240  1
  Te  Te58  1  0.00197261  0.49955575  0.24452060  1
  Te  Te59  1  -0.00167501  0.49902490  0.75556452  1
  Te  Te60  1  0.49794769  0.00320529  0.24774355  1
  Te  Te61  1  0.50140223  0.00404634  0.75245805  1
  Te  Te62  1  0.49420706  0.49556893  0.25152658  1
  Te  Te63  1  0.50537316  0.49476249  0.74844847  1
