# generated using pymatgen
data_AgSbTe2
_symmetry_space_group_name_H-M   'P 1'
_cell_length_a   12.31130290
_cell_length_b   12.31363713
_cell_length_c   12.30590480
_cell_angle_alpha   90.01980368
_cell_angle_beta   90.00245920
_cell_angle_gamma   89.99223563
_symmetry_Int_Tables_number   1
_chemical_formula_structural   AgSbTe2
_chemical_formula_sum   'Ag16 Sb16 Te32'
_cell_volume   1865.53709199
_cell_formula_units_Z   16
loop_
 _symmetry_equiv_pos_site_id
 _symmetry_equiv_pos_as_xyz
  1  'x, y, z'
loop_
 _atom_site_type_symbol
 _atom_site_label
 _atom_site_symmetry_multiplicity
 _atom_site_fract_x
 _atom_site_fract_y
 _atom_site_fract_z
 _atom_site_occupancy
  Ag  Ag0  1  0.49676760  -0.00352502  0.50683776  1
  Ag  Ag1  1  0.00464236  0.49851549  -0.00881244  1
  Ag  Ag2  1  0.01254989  0.25013122  0.73634453  1
  Ag  Ag3  1  0.75853796  0.24668966  0.50529970  1
  Ag  Ag4  1  0.24930589  0.00740729  0.74401408  1
  Ag  Ag5  1  0.24760819  0.25383259  -0.01394817  1
  Ag  Ag6  1  0.00001033  0.50393694  0.51058133  1
  Ag  Ag7  1  0.48570105  0.24552677  0.74107691  1
  Ag  Ag8  1  0.75867580  0.75206958  0.50193854  1
  Ag  Ag9  1  0.24224750  0.24317907  0.51418166  1
  Ag  Ag10  1  0.50163965  0.75044479  0.26454079  1
  Ag  Ag11  1  0.49611308  0.75434321  0.74118589  1
  Ag  Ag12  1  0.00187834  0.74843098  0.73808177  1
  Ag  Ag13  1  -0.00273529  0.74787320  0.26893949  1
  Ag  Ag14  1  0.00171718  -0.00104420  0.50716162  1
  Ag  Ag15  1  0.49143157  0.49913888  -0.00638600  1
  Sb  Sb16  1  0.00518985  -0.00064467  -0.00691475  1
  Sb  Sb17  1  0.24924410  0.74491987  -0.00443006  1
  Sb  Sb18  1  0.75168425  0.49985085  0.74756116  1
  Sb  Sb19  1  0.49589353  0.49966103  0.50285718  1
  Sb  Sb20  1  0.75139500  0.25305322  -0.00897956  1
  Sb  Sb21  1  0.24861659  0.50027607  0.25206245  1
  Sb  Sb22  1  0.75116864  0.00026615  0.74614342  1
  Sb  Sb23  1  0.75050548  0.50145336  0.25256974  1
  Sb  Sb24  1  0.24882323  0.49619447  0.74910276  1
  Sb  Sb25  1  0.75132251  0.74863321  -0.00502476  1
  Sb  Sb26  1  0.49477619  -0.00158460  -0.00714980  1
  Sb  Sb27  1  0.00107223  0.25286204  0.25838606  1
  Sb  Sb28  1  0.49897402  0.24968418  0.25487361  1
  Sb  Sb29  1  0.24807128  0.75315835  0.50372370  1
  Sb  Sb30  1  0.75105376  -0.00189510  0.25770005  1
  Sb  Sb31  1  0.24885133  0.00042264  0.25580819  1
  Te  Te32  1  0.25035629  0.24995651  0.24421872  1
  Te  Te33  1  0.25001939  0.24858117  0.74829976  1
  Te  Te34  1  0.25229132  0.75060668  0.24623357  1
  Te  Te35  1  0.25140722  0.76031971  0.75077710  1
  Te  Te36  1  0.74969026  0.24907324  0.26591089  1
  Te  Te37  1  0.74993340  0.25174926  0.74327867  1
  Te  Te38  1  0.75002343  0.74968930  0.25947451  1
  Te  Te39  1  0.75084920  0.74902001  0.74467668  1
  Te  Te40  1  0.24926286  0.01250098  -0.00860570  1
  Te  Te41  1  0.25226436  0.00037307  0.50317776  1
  Te  Te42  1  0.24782934  0.49533516  -0.00062223  1
  Te  Te43  1  0.24200503  0.48768555  0.49963470  1
  Te  Te44  1  0.74987086  0.00042084  0.00473745  1
  Te  Te45  1  0.74946750  -0.00346859  0.50187191  1
  Te  Te46  1  0.75567663  0.50043791  0.00121416  1
  Te  Te47  1  0.75868500  0.50375701  0.50086038  1
  Te  Te48  1  -0.00345987  0.25204084  0.00016234  1
  Te  Te49  1  0.00024423  0.24678614  0.50014224  1
  Te  Te50  1  -0.00128530  0.74702407  -0.00862572  1
  Te  Te51  1  0.00446875  0.74934068  0.50355706  1
  Te  Te52  1  0.50522341  0.25204770  -0.00053474  1
  Te  Te53  1  0.49897353  0.25789686  0.50136743  1
  Te  Te54  1  0.50130577  0.74831402  -0.00876815  1
  Te  Te55  1  0.49292047  0.74456062  0.50383516  1
  Te  Te56  1  0.00066970  -0.00736246  0.25743243  1
  Te  Te57  1  -0.00119297  0.00034490  0.74752196  1
  Te  Te58  1  -0.00029189  0.50369044  0.24798342  1
  Te  Te59  1  0.00085058  0.50233989  0.74871638  1
  Te  Te60  1  0.49983530  -0.00578119  0.26059874  1
  Te  Te61  1  0.50094208  0.00040550  0.74539210  1
  Te  Te62  1  0.50008735  0.50618986  0.24181603  1
  Te  Te63  1  0.49834366  0.50286281  0.75493818  1
