# generated using pymatgen
data_AgSbTe2
_symmetry_space_group_name_H-M   'P 1'
_cell_length_a   12.29306196
_cell_length_b   12.30215580
_cell_length_c   12.27580896
_cell_angle_alpha   89.98862570
_cell_angle_beta   89.99267615
_cell_angle_gamma   90.01094364
_symmetry_Int_Tables_number   1
_chemical_formula_structural   AgSbTe2
_chemical_formula_sum   'Ag16 Sb16 Te32'
_cell_volume   1856.48478596
_cell_formula_units_Z   16
loop_
 _symmetry_equiv_pos_site_id
 _symmetry_equiv_pos_as_xyz
  1  'x, y, z'
loop_
 _atom_site_type_symbol
 _atom_site_label
 _atom_site_symmetry_multiplicity
 _atom_site_fract_x
 _atom_site_fract_y
 _atom_site_fract_z
 _atom_site_occupancy
  Ag  Ag0  1  0.00747337  0.48199558  -0.00108323  1
  Ag  Ag1  1  0.49957574  0.50221893  0.50443292  1
  Ag  Ag2  1  0.50046942  -0.00140001  0.50041187  1
  Ag  Ag3  1  0.00545566  0.02189393  0.00193915  1
  Ag  Ag4  1  0.00139678  0.49797582  0.50055973  1
  Ag  Ag5  1  0.23870407  0.74972381  0.00044046  1
  Ag  Ag6  1  0.24498890  0.74304525  0.49961481  1
  Ag  Ag7  1  0.22978700  0.25086877  -0.00291393  1
  Ag  Ag8  1  0.49456220  0.00396147  -0.00031106  1
  Ag  Ag9  1  0.75399288  0.74338893  0.49614458  1
  Ag  Ag10  1  0.24235332  0.49913606  0.74939637  1
  Ag  Ag11  1  0.00094456  0.25643535  0.77009920  1
  Ag  Ag12  1  -0.00111120  0.25449805  0.23336663  1
  Ag  Ag13  1  0.75830730  0.25498856  0.49963721  1
  Ag  Ag14  1  0.77049276  0.24942847  0.00038192  1
  Ag  Ag15  1  0.00326521  0.74441016  0.25037360  1
  Sb  Sb16  1  0.75667159  0.49817019  0.74824014  1
  Sb  Sb17  1  0.76061639  0.75056681  0.00526815  1
  Sb  Sb18  1  0.00236903  0.74550069  0.75025305  1
  Sb  Sb19  1  0.49833649  0.25107308  0.74948929  1
  Sb  Sb20  1  0.24910339  0.00039249  0.24896729  1
  Sb  Sb21  1  0.49602738  0.74959716  0.25104377  1
  Sb  Sb22  1  0.75288454  0.49930471  0.25212203  1
  Sb  Sb23  1  0.75071125  0.00123508  0.25077129  1
  Sb  Sb24  1  0.24809851  0.00172728  0.75129802  1
  Sb  Sb25  1  0.49926856  0.25102868  0.25020188  1
  Sb  Sb26  1  0.24186724  0.25535910  0.50140705  1
  Sb  Sb27  1  0.75245456  0.00131735  0.74993144  1
  Sb  Sb28  1  0.24716761  0.50059065  0.25077294  1
  Sb  Sb29  1  0.00125811  0.00064587  0.49954286  1
  Sb  Sb30  1  0.49814304  0.74981385  0.74910953  1
  Sb  Sb31  1  0.49334126  0.49865674  -0.00495897  1
  Te  Te32  1  0.24271063  0.24939021  0.24199002  1
  Te  Te33  1  0.24706980  0.25447136  0.75240281  1
  Te  Te34  1  0.24283608  0.75020915  0.24852078  1
  Te  Te35  1  0.24979617  0.74335915  0.75126610  1
  Te  Te36  1  0.75655365  0.25028971  0.25076114  1
  Te  Te37  1  0.75577253  0.24953991  0.74863992  1
  Te  Te38  1  0.76212273  0.74893517  0.25724945  1
  Te  Te39  1  0.74928417  0.74953407  0.73583652  1
  Te  Te40  1  0.25077968  -0.00402479  -0.00065689  1
  Te  Te41  1  0.25431215  -0.00799261  0.50144722  1
  Te  Te42  1  0.25225163  0.50358964  -0.00089375  1
  Te  Te43  1  0.24252484  0.50002129  0.50000395  1
  Te  Te44  1  0.74704892  0.00023239  -0.00039183  1
  Te  Te45  1  0.74690935  0.00382168  0.50077136  1
  Te  Te46  1  0.74858060  0.49814105  -0.00169648  1
  Te  Te47  1  0.75510855  0.49667112  0.50107237  1
  Te  Te48  1  -0.00050000  0.25212759  0.00129240  1
  Te  Te49  1  0.00017436  0.24733989  0.49567612  1
  Te  Te50  1  -0.00103263  0.74565993  -0.00142092  1
  Te  Te51  1  0.00437980  0.75411677  0.50194784  1
  Te  Te52  1  0.50126449  0.24758429  0.00202655  1
  Te  Te53  1  0.50423053  0.24791029  0.49786257  1
  Te  Te54  1  0.49830894  0.75215795  0.00242080  1
  Te  Te55  1  0.49771967  0.75054105  0.49783528  1
  Te  Te56  1  0.00084679  0.00102740  0.24490629  1
  Te  Te57  1  0.00018442  0.01115176  0.75782849  1
  Te  Te58  1  0.00002142  0.49967856  0.25099590  1
  Te  Te59  1  0.00387161  0.49719385  0.74836350  1
  Te  Te60  1  0.49922303  0.00021320  0.24964200  1
  Te  Te61  1  0.49952710  -0.00019546  0.75102678  1
  Te  Te62  1  0.50092952  0.49971348  0.26422484  1
  Te  Te63  1  0.48821259  0.50004209  0.74309893  1
