# generated using pymatgen
data_AgSbTe2
_symmetry_space_group_name_H-M   'P 1'
_cell_length_a   12.22157420
_cell_length_b   12.22561403
_cell_length_c   12.22992680
_cell_angle_alpha   90.00014650
_cell_angle_beta   89.99203462
_cell_angle_gamma   90.00224920
_symmetry_Int_Tables_number   1
_chemical_formula_structural   AgSbTe2
_chemical_formula_sum   'Ag16 Sb16 Te32'
_cell_volume   1827.34976950
_cell_formula_units_Z   16
loop_
 _symmetry_equiv_pos_site_id
 _symmetry_equiv_pos_as_xyz
  1  'x, y, z'
loop_
 _atom_site_type_symbol
 _atom_site_label
 _atom_site_symmetry_multiplicity
 _atom_site_fract_x
 _atom_site_fract_y
 _atom_site_fract_z
 _atom_site_occupancy
  Ag  Ag0  1  -0.00223052  0.74328851  0.75146439  1
  Ag  Ag1  1  -0.00017922  0.25493293  0.24740807  1
  Ag  Ag2  1  0.24734965  0.25254329  0.49556373  1
  Ag  Ag3  1  -0.00114261  0.49181785  0.50274897  1
  Ag  Ag4  1  0.75344145  0.25276226  0.49976850  1
  Ag  Ag5  1  0.50096475  0.00578450  0.49434916  1
  Ag  Ag6  1  0.49972125  0.25093128  0.24758251  1
  Ag  Ag7  1  0.75628586  0.49494012  0.75236753  1
  Ag  Ag8  1  0.50259625  0.49282168  0.00423733  1
  Ag  Ag9  1  0.50261449  0.00652637  0.00474404  1
  Ag  Ag10  1  -0.00277845  0.01042215  -0.00007854  1
  Ag  Ag11  1  0.75438128  0.25319985  -0.00004632  1
  Ag  Ag12  1  0.49894300  0.74889327  0.24822463  1
  Ag  Ag13  1  -0.00343494  0.49050183  -0.00326205  1
  Ag  Ag14  1  -0.00397597  0.25610188  0.75329108  1
  Ag  Ag15  1  0.24990039  0.49458496  0.24959114  1
  Sb  Sb16  1  0.24557505  0.25136513  0.00404432  1
  Sb  Sb17  1  0.25001921  0.74875974  0.00136593  1
  Sb  Sb18  1  0.24921883  0.00423569  0.74965264  1
  Sb  Sb19  1  0.75061105  0.49514157  0.24721064  1
  Sb  Sb20  1  0.75138607  0.00575969  0.75164013  1
  Sb  Sb21  1  0.75054585  0.74609350  0.50166490  1
  Sb  Sb22  1  0.00137115  0.74518891  0.24882657  1
  Sb  Sb23  1  0.50139315  0.49366822  0.49486143  1
  Sb  Sb24  1  0.25016624  0.74705184  0.49781372  1
  Sb  Sb25  1  0.25220195  0.00586214  0.25081588  1
  Sb  Sb26  1  -0.00133831  0.00922903  0.49958652  1
  Sb  Sb27  1  0.50285837  0.25170709  0.75330256  1
  Sb  Sb28  1  0.74809241  0.00441638  0.24856245  1
  Sb  Sb29  1  0.24379587  0.49651288  0.75021429  1
  Sb  Sb30  1  0.50179868  0.74712938  0.75087610  1
  Sb  Sb31  1  0.75066526  0.74542730  -0.00135287  1
  Te  Te32  1  0.25027974  0.25458209  0.25387941  1
  Te  Te33  1  0.24185641  0.25084188  0.73935587  1
  Te  Te34  1  0.25579466  0.74044635  0.25097570  1
  Te  Te35  1  0.24084265  0.74967410  0.74896339  1
  Te  Te36  1  0.75048970  0.25026723  0.24925318  1
  Te  Te37  1  0.75339166  0.25402792  0.75155199  1
  Te  Te38  1  0.74140280  0.75054363  0.25071630  1
  Te  Te39  1  0.75652208  0.74123545  0.74930393  1
  Te  Te40  1  0.25212732  -0.00013984  -0.00011839  1
  Te  Te41  1  0.25523970  0.00599601  0.50001196  1
  Te  Te42  1  0.25080929  0.49952868  0.00403758  1
  Te  Te43  1  0.24748139  0.49602500  0.49657147  1
  Te  Te44  1  0.74915136  0.00723037  -0.00080305  1
  Te  Te45  1  0.74534777  0.00751480  0.50112375  1
  Te  Te46  1  0.75169717  0.49595979  -0.00224466  1
  Te  Te47  1  0.75284340  0.49527629  0.50481277  1
  Te  Te48  1  0.00077370  0.25117797  0.00234773  1
  Te  Te49  1  -0.00336708  0.25045609  0.49668351  1
  Te  Te50  1  -0.00077193  0.74935373  -0.00190402  1
  Te  Te51  1  -0.00062013  0.74553352  0.50175737  1
  Te  Te52  1  0.50045149  0.25014989  0.00015025  1
  Te  Te53  1  0.50235097  0.24834085  0.49927057  1
  Te  Te54  1  0.50063574  0.75200501  0.00332090  1
  Te  Te55  1  0.50029147  0.75719829  0.49675339  1
  Te  Te56  1  0.00140561  0.00175252  0.24454353  1
  Te  Te57  1  -0.00044026  0.00181849  0.75482492  1
  Te  Te58  1  0.00153400  0.49913959  0.24866339  1
  Te  Te59  1  -0.00045843  0.49637013  0.75200477  1
  Te  Te60  1  0.49897812  0.00447797  0.24672560  1
  Te  Te61  1  0.50003840  -0.00193793  0.75491983  1
  Te  Te62  1  0.49858235  0.49504902  0.24729700  1
  Te  Te63  1  0.50452137  0.50250384  0.75821067  1
