# generated using pymatgen
data_AgSbTe2
_symmetry_space_group_name_H-M   'P 1'
_cell_length_a   12.21994977
_cell_length_b   12.21721492
_cell_length_c   12.21616107
_cell_angle_alpha   89.98919343
_cell_angle_beta   89.99529205
_cell_angle_gamma   89.99541066
_symmetry_Int_Tables_number   1
_chemical_formula_structural   AgSbTe2
_chemical_formula_sum   'Ag16 Sb16 Te32'
_cell_volume   1823.79648508
_cell_formula_units_Z   16
loop_
 _symmetry_equiv_pos_site_id
 _symmetry_equiv_pos_as_xyz
  1  'x, y, z'
loop_
 _atom_site_type_symbol
 _atom_site_label
 _atom_site_symmetry_multiplicity
 _atom_site_fract_x
 _atom_site_fract_y
 _atom_site_fract_z
 _atom_site_occupancy
  Ag  Ag0  1  0.49642635  0.49774051  0.00119690  1
  Ag  Ag1  1  0.25578206  0.25142316  0.00682676  1
  Ag  Ag2  1  0.00344708  0.50072850  0.00259695  1
  Ag  Ag3  1  0.49619671  -0.00353334  0.49906503  1
  Ag  Ag4  1  0.50069804  0.75279609  0.75058333  1
  Ag  Ag5  1  0.74865256  0.75331874  0.50288993  1
  Ag  Ag6  1  0.25312392  0.00421033  0.25132845  1
  Ag  Ag7  1  0.00365124  -0.00439115  0.49789311  1
  Ag  Ag8  1  0.74669736  0.74955433  -0.00298071  1
  Ag  Ag9  1  0.25108592  0.49479512  0.24561367  1
  Ag  Ag10  1  -0.00014342  0.75088367  0.74859668  1
  Ag  Ag11  1  0.49655295  0.24740642  0.75560129  1
  Ag  Ag12  1  0.00888744  0.24949340  0.24757861  1
  Ag  Ag13  1  0.25112093  0.75460961  0.49999492  1
  Ag  Ag14  1  0.49113015  0.24741164  0.24433524  1
  Ag  Ag15  1  0.49685483  0.00245924  0.00066934  1
  Sb  Sb16  1  0.74686424  -0.00382750  0.75029560  1
  Sb  Sb17  1  0.00361097  0.50331605  0.49732853  1
  Sb  Sb18  1  0.00336427  -0.00092451  0.00215574  1
  Sb  Sb19  1  0.49797181  0.75298878  0.24923828  1
  Sb  Sb20  1  0.74783436  0.50019169  0.24757912  1
  Sb  Sb21  1  0.74735313  0.24656584  0.49899331  1
  Sb  Sb22  1  0.74846195  0.50404961  0.75185342  1
  Sb  Sb23  1  0.00243721  0.75085277  0.25093163  1
  Sb  Sb24  1  0.25174863  0.50043813  0.75488313  1
  Sb  Sb25  1  0.49690139  0.50373873  0.49795028  1
  Sb  Sb26  1  0.25327742  -0.00046454  0.74811133  1
  Sb  Sb27  1  0.25313678  0.74942132  -0.00048107  1
  Sb  Sb28  1  0.25158026  0.24508429  0.49156844  1
  Sb  Sb29  1  0.74614700  -0.00025688  0.24984023  1
  Sb  Sb30  1  0.00401437  0.24940097  0.75242945  1
  Sb  Sb31  1  0.74325201  0.24949051  0.00059044  1
  Te  Te32  1  0.25105105  0.24957058  0.24863671  1
  Te  Te33  1  0.25575255  0.25081799  0.75805647  1
  Te  Te34  1  0.24993576  0.75137408  0.25446976  1
  Te  Te35  1  0.25104222  0.74931326  0.74490256  1
  Te  Te36  1  0.75112444  0.25041354  0.25044431  1
  Te  Te37  1  0.74152513  0.25145560  0.74944539  1
  Te  Te38  1  0.75035728  0.74963530  0.25014180  1
  Te  Te39  1  0.74838274  0.74951007  0.75009727  1
  Te  Te40  1  0.25428773  0.00227008  0.00682444  1
  Te  Te41  1  0.25225186  -0.00275677  0.49536751  1
  Te  Te42  1  0.25150701  0.49924574  0.00446056  1
  Te  Te43  1  0.24981653  0.50698924  0.49114327  1
  Te  Te44  1  0.74359838  -0.00724213  0.00081887  1
  Te  Te45  1  0.74869965  -0.00625763  0.49930672  1
  Te  Te46  1  0.74925070  0.50625509  0.00100323  1
  Te  Te47  1  0.75045546  0.51068839  0.49916107  1
  Te  Te48  1  0.00184555  0.25160553  0.00032210  1
  Te  Te49  1  -0.00083556  0.24531008  0.49885988  1
  Te  Te50  1  -0.00156570  0.74844119  -0.00372221  1
  Te  Te51  1  0.00020340  0.75243623  0.50249095  1
  Te  Te52  1  0.50035382  0.24944247  0.00097886  1
  Te  Te53  1  0.50087817  0.24513046  0.50043610  1
  Te  Te54  1  0.50001445  0.75008434  -0.00266591  1
  Te  Te55  1  0.49980624  0.75233930  0.50270362  1
  Te  Te56  1  0.00519906  0.00438365  0.25276203  1
  Te  Te57  1  0.00124231  -0.00434981  0.74469432  1
  Te  Te58  1  0.00436956  0.49519679  0.24586849  1
  Te  Te59  1  0.00116497  0.50333671  0.75596437  1
  Te  Te60  1  0.49661408  0.00293219  0.25053523  1
  Te  Te61  1  0.49867496  -0.00220550  0.74993235  1
  Te  Te62  1  0.49605192  0.49424740  0.24625360  1
  Te  Te63  1  0.49882436  0.50141502  0.75524896  1
