# generated using pymatgen
data_AgSbTe2
_symmetry_space_group_name_H-M   'P 1'
_cell_length_a   12.30812471
_cell_length_b   12.31357551
_cell_length_c   12.31427917
_cell_angle_alpha   89.99323814
_cell_angle_beta   90.00305707
_cell_angle_gamma   89.99772295
_symmetry_Int_Tables_number   1
_chemical_formula_structural   AgSbTe2
_chemical_formula_sum   'Ag16 Sb16 Te32'
_cell_volume   1866.31547328
_cell_formula_units_Z   16
loop_
 _symmetry_equiv_pos_site_id
 _symmetry_equiv_pos_as_xyz
  1  'x, y, z'
loop_
 _atom_site_type_symbol
 _atom_site_label
 _atom_site_symmetry_multiplicity
 _atom_site_fract_x
 _atom_site_fract_y
 _atom_site_fract_z
 _atom_site_occupancy
  Ag  Ag0  1  0.24661011  0.51313714  0.73785904  1
  Ag  Ag1  1  0.24100990  0.26182611  0.51057677  1
  Ag  Ag2  1  0.75809647  0.25545041  -0.00658763  1
  Ag  Ag3  1  0.00858529  0.25541044  0.73961902  1
  Ag  Ag4  1  0.24521864  0.74651438  -0.02200930  1
  Ag  Ag5  1  0.75824681  0.50694990  0.74299314  1
  Ag  Ag6  1  0.24329267  -0.02193036  0.74287434  1
  Ag  Ag7  1  0.24062418  0.74044899  0.51392260  1
  Ag  Ag8  1  0.76469194  0.74455268  0.51121723  1
  Ag  Ag9  1  0.24413626  0.50718410  0.26596048  1
  Ag  Ag10  1  0.49122907  0.50546072  0.50591613  1
  Ag  Ag11  1  0.01352137  0.74693806  0.73619100  1
  Ag  Ag12  1  0.00808891  0.74669288  0.26635855  1
  Ag  Ag13  1  0.00502721  0.25439428  0.26257109  1
  Ag  Ag14  1  0.47772898  0.74338205  0.74302954  1
  Ag  Ag15  1  0.00544007  -0.00764884  0.50494917  1
  Sb  Sb16  1  0.49010326  0.74599330  0.25680333  1
  Sb  Sb17  1  0.75422461  -0.00226565  0.74616271  1
  Sb  Sb18  1  0.49278795  0.25554335  0.25385413  1
  Sb  Sb19  1  0.49698093  0.50158858  -0.00575371  1
  Sb  Sb20  1  0.49720485  -0.00228980  -0.00645210  1
  Sb  Sb21  1  0.75648215  0.50275449  0.25827302  1
  Sb  Sb22  1  0.24793154  0.25206535  -0.00493627  1
  Sb  Sb23  1  0.75615016  -0.00064526  0.25339957  1
  Sb  Sb24  1  0.76254334  0.25793531  0.50185588  1
  Sb  Sb25  1  0.75232911  0.74855893  -0.00572446  1
  Sb  Sb26  1  0.00635883  0.50531074  0.50338231  1
  Sb  Sb27  1  0.49525582  -0.00224763  0.50422057  1
  Sb  Sb28  1  0.00020519  0.50066730  -0.00260570  1
  Sb  Sb29  1  0.24664607  -0.00363737  0.25554779  1
  Sb  Sb30  1  0.00152265  -0.00154870  -0.00500137  1
  Sb  Sb31  1  0.49495919  0.25389230  0.74663434  1
  Te  Te32  1  0.24494706  0.24999887  0.24452297  1
  Te  Te33  1  0.24697815  0.25974177  0.75085385  1
  Te  Te34  1  0.24620218  0.74842104  0.25787521  1
  Te  Te35  1  0.24855579  0.74863575  0.75069321  1
  Te  Te36  1  0.75963212  0.25082885  0.25218635  1
  Te  Te37  1  0.75213018  0.25025215  0.74746600  1
  Te  Te38  1  0.75946950  0.74887486  0.24786263  1
  Te  Te39  1  0.76069945  0.74755449  0.74842964  1
  Te  Te40  1  0.25086252  -0.00445903  -0.00833735  1
  Te  Te41  1  0.24774299  0.00049464  0.50264638  1
  Te  Te42  1  0.25054233  0.50351551  -0.00257848  1
  Te  Te43  1  0.24846349  0.49872325  0.50172065  1
  Te  Te44  1  0.74826604  0.00758137  0.00085001  1
  Te  Te45  1  0.75405845  -0.01090279  0.49957621  1
  Te  Te46  1  0.74868834  0.49558024  -0.00817815  1
  Te  Te47  1  0.73972909  0.50590466  0.50464609  1
  Te  Te48  1  -0.00297739  0.24901811  -0.00206009  1
  Te  Te49  1  0.00608615  0.24757224  0.50303168  1
  Te  Te50  1  0.00402473  0.75095055  0.00000831  1
  Te  Te51  1  0.00099389  0.74834306  0.50165511  1
  Te  Te52  1  0.50930824  0.24888778  0.00120687  1
  Te  Te53  1  0.48871212  0.25020984  0.49920300  1
  Te  Te54  1  0.49846421  0.75102191  -0.00530105  1
  Te  Te55  1  0.49607380  0.74972871  0.50177434  1
  Te  Te56  1  0.00051368  -0.00067805  0.25853717  1
  Te  Te57  1  0.00254062  -0.00033305  0.74625480  1
  Te  Te58  1  0.00537605  0.49974908  0.24812989  1
  Te  Te59  1  0.00062792  0.49909167  0.74804112  1
  Te  Te60  1  0.50255820  0.00096736  0.24833831  1
  Te  Te61  1  0.49207618  -0.00742151  0.74997602  1
  Te  Te62  1  0.49034546  0.50007108  0.25797682  1
  Te  Te63  1  0.49507490  0.50163742  0.74789129  1
