# generated using pymatgen
data_AgSbTe2
_symmetry_space_group_name_H-M   'P 1'
_cell_length_a   12.21895093
_cell_length_b   12.21262342
_cell_length_c   12.21246523
_cell_angle_alpha   90.00171306
_cell_angle_beta   89.99593906
_cell_angle_gamma   90.00018221
_symmetry_Int_Tables_number   1
_chemical_formula_structural   AgSbTe2
_chemical_formula_sum   'Ag16 Sb16 Te32'
_cell_volume   1822.41056862
_cell_formula_units_Z   16
loop_
 _symmetry_equiv_pos_site_id
 _symmetry_equiv_pos_as_xyz
  1  'x, y, z'
loop_
 _atom_site_type_symbol
 _atom_site_label
 _atom_site_symmetry_multiplicity
 _atom_site_fract_x
 _atom_site_fract_y
 _atom_site_fract_z
 _atom_site_occupancy
  Ag  Ag0  1  0.50316214  0.74920643  0.25618745  1
  Ag  Ag1  1  0.50064524  -0.00479142  0.50309684  1
  Ag  Ag2  1  0.50241504  0.25047701  0.25389782  1
  Ag  Ag3  1  -0.00082548  -0.00274307  0.50846565  1
  Ag  Ag4  1  0.74424841  0.75329191  0.49864420  1
  Ag  Ag5  1  0.24843699  0.75260750  -0.00080039  1
  Ag  Ag6  1  0.74590326  0.50426028  0.25050969  1
  Ag  Ag7  1  -0.00185261  0.50432641  -0.00150664  1
  Ag  Ag8  1  0.75294915  -0.00091130  0.74719482  1
  Ag  Ag9  1  0.50202760  0.50436261  0.49727143  1
  Ag  Ag10  1  0.24724224  -0.00129314  0.74729072  1
  Ag  Ag11  1  -0.00090182  0.24223441  0.75023785  1
  Ag  Ag12  1  0.25557768  0.75451288  0.50040607  1
  Ag  Ag13  1  0.75164886  0.75121764  0.00136980  1
  Ag  Ag14  1  0.50068717  0.24563100  0.74637101  1
  Ag  Ag15  1  -0.00065590  -0.00358133  -0.00816784  1
  Sb  Sb16  1  0.25436789  0.50293458  0.25024641  1
  Sb  Sb17  1  0.74710855  0.24560195  0.50082925  1
  Sb  Sb18  1  0.50033391  -0.00307919  -0.00452099  1
  Sb  Sb19  1  0.50048129  0.75473278  0.74146049  1
  Sb  Sb20  1  0.74944941  0.50227963  0.74960269  1
  Sb  Sb21  1  -0.00201894  0.50278626  0.50217059  1
  Sb  Sb22  1  0.74743551  -0.00427824  0.25211624  1
  Sb  Sb23  1  0.25155125  -0.00335646  0.25260172  1
  Sb  Sb24  1  0.25273527  0.24454913  0.50209446  1
  Sb  Sb25  1  0.25044899  0.50261229  0.75013030  1
  Sb  Sb26  1  0.50175075  0.50349257  0.00133368  1
  Sb  Sb27  1  0.24925457  0.24611973  -0.00258745  1
  Sb  Sb28  1  -0.00416325  0.74961571  0.24789786  1
  Sb  Sb29  1  0.75046668  0.24784220  -0.00099571  1
  Sb  Sb30  1  -0.00290013  0.25011387  0.25049691  1
  Sb  Sb31  1  -0.00037766  0.75880941  0.75208667  1
  Te  Te32  1  0.25964176  0.25051775  0.24958625  1
  Te  Te33  1  0.25097756  0.24291903  0.75063496  1
  Te  Te34  1  0.25736075  0.75023277  0.25006488  1
  Te  Te35  1  0.25095467  0.75564385  0.75065858  1
  Te  Te36  1  0.74335275  0.25697847  0.24975394  1
  Te  Te37  1  0.74930171  0.24342407  0.75049116  1
  Te  Te38  1  0.74599629  0.74741302  0.24997803  1
  Te  Te39  1  0.74910782  0.75499539  0.75047051  1
  Te  Te40  1  0.24601729  -0.00536728  -0.00428067  1
  Te  Te41  1  0.25033873  -0.00478707  0.50265021  1
  Te  Te42  1  0.24376786  0.50896561  -0.00049354  1
  Te  Te43  1  0.25310038  0.51019762  0.50033971  1
  Te  Te44  1  0.75366865  -0.00550650  -0.00317438  1
  Te  Te45  1  0.74969444  -0.00424406  0.50207529  1
  Te  Te46  1  0.75344556  0.50684919  0.00149038  1
  Te  Te47  1  0.74793799  0.50762129  0.49798641  1
  Te  Te48  1  0.00023578  0.24750622  -0.00260659  1
  Te  Te49  1  0.00099635  0.24547526  0.50359955  1
  Te  Te50  1  -0.00026798  0.75148643  0.00137327  1
  Te  Te51  1  0.00004598  0.75368160  0.49859760  1
  Te  Te52  1  0.49951699  0.25033186  -0.00025209  1
  Te  Te53  1  0.49976374  0.24916177  0.50052412  1
  Te  Te54  1  0.50031630  0.74977630  0.00597022  1
  Te  Te55  1  0.50082723  0.75174531  0.49981120  1
  Te  Te56  1  -0.00037082  0.00263876  0.25014499  1
  Te  Te57  1  -0.00072183  0.00226796  0.74931587  1
  Te  Te58  1  -0.00682289  0.49724614  0.24564480  1
  Te  Te59  1  -0.00034842  0.48852952  0.75419746  1
  Te  Te60  1  0.50116688  0.00023389  0.25593222  1
  Te  Te61  1  0.50048525  0.00411894  0.74661301  1
  Te  Te62  1  0.50351672  0.50096703  0.25270533  1
  Te  Te63  1  0.50036447  0.48939583  0.74476571  1
