# generated using pymatgen
data_AgSbTe2
_symmetry_space_group_name_H-M   'P 1'
_cell_length_a   12.22094091
_cell_length_b   12.22312967
_cell_length_c   12.23080677
_cell_angle_alpha   90.00085046
_cell_angle_beta   89.99963931
_cell_angle_gamma   89.99830529
_symmetry_Int_Tables_number   1
_chemical_formula_structural   AgSbTe2
_chemical_formula_sum   'Ag16 Sb16 Te32'
_cell_volume   1827.01523274
_cell_formula_units_Z   16
loop_
 _symmetry_equiv_pos_site_id
 _symmetry_equiv_pos_as_xyz
  1  'x, y, z'
loop_
 _atom_site_type_symbol
 _atom_site_label
 _atom_site_symmetry_multiplicity
 _atom_site_fract_x
 _atom_site_fract_y
 _atom_site_fract_z
 _atom_site_occupancy
  Ag  Ag0  1  0.00261688  0.74353100  0.24669460  1
  Ag  Ag1  1  0.00749225  0.25232316  0.75511640  1
  Ag  Ag2  1  0.75888019  0.25065315  -0.00053363  1
  Ag  Ag3  1  0.75573204  0.74924525  0.00061553  1
  Ag  Ag4  1  0.24502958  0.48958936  0.74662864  1
  Ag  Ag5  1  0.75451539  0.00461418  0.75362280  1
  Ag  Ag6  1  0.24587760  0.01093967  0.75117157  1
  Ag  Ag7  1  0.24679868  0.25652973  0.48847348  1
  Ag  Ag8  1  0.49067301  0.49478749  0.49736918  1
  Ag  Ag9  1  0.24335867  0.48424920  0.25342766  1
  Ag  Ag10  1  0.00866945  0.49427934  0.49528900  1
  Ag  Ag11  1  0.48371485  0.25313505  0.25035615  1
  Ag  Ag12  1  0.00360518  0.49289346  0.00470032  1
  Ag  Ag13  1  0.24669033  0.01715113  0.24896827  1
  Ag  Ag14  1  0.01532277  0.25647740  0.24492185  1
  Ag  Ag15  1  0.24210526  0.25263479  0.01179665  1
  Sb  Sb16  1  0.24615828  0.73893527  0.49835929  1
  Sb  Sb17  1  0.75505479  0.74911750  0.49906178  1
  Sb  Sb18  1  0.49356316  0.49541251  0.00432112  1
  Sb  Sb19  1  0.49707389  0.74482551  0.24929332  1
  Sb  Sb20  1  0.00146905  0.01184276  -0.00060716  1
  Sb  Sb21  1  0.75626831  0.49318233  0.75420946  1
  Sb  Sb22  1  0.48887293  0.25228580  0.74843063  1
  Sb  Sb23  1  0.50035133  0.74746822  0.75078156  1
  Sb  Sb24  1  0.24144057  0.74680406  0.00349657  1
  Sb  Sb25  1  -0.00042414  0.74696153  0.75535911  1
  Sb  Sb26  1  0.00504788  0.00805816  0.49988510  1
  Sb  Sb27  1  0.49849209  0.00426017  0.00120797  1
  Sb  Sb28  1  0.76091387  0.49703304  0.24692903  1
  Sb  Sb29  1  0.75409341  0.25120599  0.50200592  1
  Sb  Sb30  1  0.49481620  0.00784087  0.49772741  1
  Sb  Sb31  1  0.75468974  0.00459323  0.24487455  1
  Te  Te32  1  0.24827864  0.25091534  0.24928518  1
  Te  Te33  1  0.24961199  0.24962771  0.75064180  1
  Te  Te34  1  0.24420030  0.75070642  0.24796133  1
  Te  Te35  1  0.24870354  0.75336110  0.75102959  1
  Te  Te36  1  0.75162490  0.24646368  0.24311840  1
  Te  Te37  1  0.75604538  0.24560224  0.75484058  1
  Te  Te38  1  0.75668039  0.75357269  0.24260519  1
  Te  Te39  1  0.75107148  0.75956706  0.75797665  1
  Te  Te40  1  0.25043040  0.00501436  -0.00129536  1
  Te  Te41  1  0.25044820  0.00883792  0.50144648  1
  Te  Te42  1  0.24611797  0.49673687  0.00012963  1
  Te  Te43  1  0.24713037  0.49762913  0.49947372  1
  Te  Te44  1  0.74893816  0.00305305  -0.00659141  1
  Te  Te45  1  0.74808665  -0.00046134  0.51225850  1
  Te  Te46  1  0.75662718  0.49667102  -0.00207095  1
  Te  Te47  1  0.75060155  0.49969423  0.50184566  1
  Te  Te48  1  0.00138915  0.25231531  0.00005932  1
  Te  Te49  1  0.00315364  0.25592386  0.49992412  1
  Te  Te50  1  -0.00538433  0.73959850  0.00527005  1
  Te  Te51  1  -0.00147314  0.73758779  0.49024660  1
  Te  Te52  1  0.50024946  0.25277507  0.00838666  1
  Te  Te53  1  0.49561071  0.25693567  0.49324158  1
  Te  Te54  1  0.51478565  0.74731370  0.00197205  1
  Te  Te55  1  0.50257048  0.73664246  0.49802882  1
  Te  Te56  1  0.00674449  0.00142349  0.25152032  1
  Te  Te57  1  0.00399740  0.00448972  0.74873264  1
  Te  Te58  1  0.00168796  0.49671654  0.24912783  1
  Te  Te59  1  0.00505330  0.49668205  0.75049094  1
  Te  Te60  1  0.49034581  0.00637075  0.25168415  1
  Te  Te61  1  0.49636722  -0.00043757  0.74870242  1
  Te  Te62  1  0.49136214  0.49604635  0.25426212  1
  Te  Te63  1  0.48997947  0.49976456  0.74174123  1
