# generated using pymatgen
data_AgSbTe2
_symmetry_space_group_name_H-M   'P 1'
_cell_length_a   12.21551244
_cell_length_b   12.21379023
_cell_length_c   12.21694574
_cell_angle_alpha   90.00775128
_cell_angle_beta   90.01544371
_cell_angle_gamma   89.99997602
_symmetry_Int_Tables_number   1
_chemical_formula_structural   AgSbTe2
_chemical_formula_sum   'Ag16 Sb16 Te32'
_cell_volume   1822.74020181
_cell_formula_units_Z   16
loop_
 _symmetry_equiv_pos_site_id
 _symmetry_equiv_pos_as_xyz
  1  'x, y, z'
loop_
 _atom_site_type_symbol
 _atom_site_label
 _atom_site_symmetry_multiplicity
 _atom_site_fract_x
 _atom_site_fract_y
 _atom_site_fract_z
 _atom_site_occupancy
  Ag  Ag0  1  0.24125338  0.75434101  0.50122595  1
  Ag  Ag1  1  0.74851181  0.49575560  0.24961305  1
  Ag  Ag2  1  0.50132781  0.01486812  -0.00029949  1
  Ag  Ag3  1  -0.00407178  0.75309929  0.25861276  1
  Ag  Ag4  1  0.26414904  0.24744598  -0.00246182  1
  Ag  Ag5  1  0.75062092  0.24638956  0.49670545  1
  Ag  Ag6  1  -0.00119628  0.24494724  0.74937954  1
  Ag  Ag7  1  0.75020396  0.00405531  0.25242773  1
  Ag  Ag8  1  0.73577800  0.24836850  0.00290786  1
  Ag  Ag9  1  0.75784722  0.75417657  0.49700012  1
  Ag  Ag10  1  0.50655193  0.24871386  0.23606875  1
  Ag  Ag11  1  0.50123575  0.24706647  0.76475318  1
  Ag  Ag12  1  -0.00330878  -0.00476633  0.50238173  1
  Ag  Ag13  1  0.50237035  0.48564967  0.00151775  1
  Ag  Ag14  1  0.24740221  0.00290677  0.74986391  1
  Ag  Ag15  1  0.00016747  0.75545060  0.74197153  1
  Sb  Sb16  1  0.24952963  0.00129648  0.24986319  1
  Sb  Sb17  1  0.50343455  0.75147419  0.25041077  1
  Sb  Sb18  1  -0.00243185  0.50487437  0.49955639  1
  Sb  Sb19  1  0.24800532  0.24593805  0.50247402  1
  Sb  Sb20  1  0.25093604  0.49714973  0.75163377  1
  Sb  Sb21  1  -0.00805634  0.24719853  0.25194534  1
  Sb  Sb22  1  0.75232778  0.00281638  0.74763248  1
  Sb  Sb23  1  0.50338989  0.00309434  0.50020287  1
  Sb  Sb24  1  -0.00322756  0.49652601  0.00131042  1
  Sb  Sb25  1  0.50009979  0.75318031  0.74958594  1
  Sb  Sb26  1  0.25124539  0.49861960  0.24788919  1
  Sb  Sb27  1  0.75056725  0.75186316  0.00193963  1
  Sb  Sb28  1  0.74873899  0.49741774  0.75101863  1
  Sb  Sb29  1  -0.00176300  0.00318854  -0.00209351  1
  Sb  Sb30  1  0.50328793  0.49684605  0.49826038  1
  Sb  Sb31  1  0.24954855  0.75247239  -0.00095485  1
  Te  Te32  1  0.25599281  0.25029949  0.24676834  1
  Te  Te33  1  0.24924797  0.24681952  0.75040665  1
  Te  Te34  1  0.24471560  0.74992095  0.25408236  1
  Te  Te35  1  0.24685329  0.75416276  0.74740552  1
  Te  Te36  1  0.75011047  0.24840543  0.25053779  1
  Te  Te37  1  0.75046050  0.24974562  0.74979629  1
  Te  Te38  1  0.75215201  0.75189967  0.25234527  1
  Te  Te39  1  0.75480902  0.74948931  0.74480410  1
  Te  Te40  1  0.25369023  0.00402145  -0.00334462  1
  Te  Te41  1  0.24556437  -0.00357301  0.50348340  1
  Te  Te42  1  0.25687395  0.49420610  0.00068823  1
  Te  Te43  1  0.25114908  0.50930265  0.49953887  1
  Te  Te44  1  0.74657202  0.00302743  0.00443420  1
  Te  Te45  1  0.75285842  0.00071862  0.49735699  1
  Te  Te46  1  0.74600681  0.49665536  0.00515411  1
  Te  Te47  1  0.74888513  0.49864553  0.49345389  1
  Te  Te48  1  -0.00072984  0.24977751  -0.00499996  1
  Te  Te49  1  -0.00311454  0.24575696  0.50355749  1
  Te  Te50  1  0.00058968  0.74959962  -0.00279331  1
  Te  Te51  1  -0.00258447  0.75153494  0.50137253  1
  Te  Te52  1  0.50229521  0.24772026  -0.00059784  1
  Te  Te53  1  0.50441418  0.24939696  0.50028613  1
  Te  Te54  1  0.49927646  0.75020379  -0.00125235  1
  Te  Te55  1  0.50238854  0.74987338  0.50114153  1
  Te  Te56  1  -0.00392500  -0.00355343  0.25357948  1
  Te  Te57  1  0.00209940  0.00076726  0.74793471  1
  Te  Te58  1  -0.00604523  0.50592193  0.24913314  1
  Te  Te59  1  0.00003099  0.49938764  0.75062268  1
  Te  Te60  1  0.50391162  0.00262277  0.24663306  1
  Te  Te61  1  0.49616555  0.00419542  0.75347146  1
  Te  Te62  1  0.50441081  0.49696099  0.24590612  1
  Te  Te63  1  0.50039964  0.49366301  0.75675105  1
