# generated using pymatgen
data_AgSbTe2
_symmetry_space_group_name_H-M   'P 1'
_cell_length_a   12.22116285
_cell_length_b   12.23428517
_cell_length_c   12.21872296
_cell_angle_alpha   89.99892616
_cell_angle_beta   90.00779379
_cell_angle_gamma   90.00165274
_symmetry_Int_Tables_number   1
_chemical_formula_structural   AgSbTe2
_chemical_formula_sum   'Ag16 Sb16 Te32'
_cell_volume   1826.90912070
_cell_formula_units_Z   16
loop_
 _symmetry_equiv_pos_site_id
 _symmetry_equiv_pos_as_xyz
  1  'x, y, z'
loop_
 _atom_site_type_symbol
 _atom_site_label
 _atom_site_symmetry_multiplicity
 _atom_site_fract_x
 _atom_site_fract_y
 _atom_site_fract_z
 _atom_site_occupancy
  Ag  Ag0  1  0.25121836  0.00475441  0.24320327  1
  Ag  Ag1  1  0.24841658  0.49506788  0.24046730  1
  Ag  Ag2  1  0.24478933  0.50158762  0.75974937  1
  Ag  Ag3  1  0.75463379  0.49931223  0.75241252  1
  Ag  Ag4  1  0.49736646  0.00221865  0.49548550  1
  Ag  Ag5  1  0.00513306  0.74678269  0.75594962  1
  Ag  Ag6  1  0.24612035  0.74873992  0.00062816  1
  Ag  Ag7  1  0.24579728  0.25122073  0.00658589  1
  Ag  Ag8  1  0.74902708  0.25180293  0.49586109  1
  Ag  Ag9  1  0.49456237  0.74968256  0.24886649  1
  Ag  Ag10  1  0.00897390  0.00098367  0.00124686  1
  Ag  Ag11  1  0.00551739  0.25324450  0.24513839  1
  Ag  Ag12  1  0.49481729  0.25019869  0.25032903  1
  Ag  Ag13  1  0.00767079  0.49908874  0.00050149  1
  Ag  Ag14  1  0.24750883  -0.00130969  0.75793472  1
  Ag  Ag15  1  0.75149298  0.49583241  0.24814007  1
  Sb  Sb16  1  0.74896822  0.00319661  0.24956466  1
  Sb  Sb17  1  0.74831521  0.74843240  0.49832846  1
  Sb  Sb18  1  0.48999190  0.00071218  0.00356789  1
  Sb  Sb19  1  0.00000682  0.49814871  0.49922353  1
  Sb  Sb20  1  0.49097099  0.49976251  0.00303638  1
  Sb  Sb21  1  0.00459012  0.74751533  0.24483885  1
  Sb  Sb22  1  0.50027631  0.49739357  0.49614410  1
  Sb  Sb23  1  0.00210610  0.00251521  0.49885897  1
  Sb  Sb24  1  0.75329331  0.25349355  0.00304673  1
  Sb  Sb25  1  0.25054690  0.24913114  0.49274985  1
  Sb  Sb26  1  0.75217896  0.00076030  0.74992837  1
  Sb  Sb27  1  0.25124507  0.75075345  0.49824981  1
  Sb  Sb28  1  0.49572051  0.75028742  0.75185938  1
  Sb  Sb29  1  0.49711121  0.24973509  0.75057188  1
  Sb  Sb30  1  0.75268251  0.74698772  0.00117569  1
  Sb  Sb31  1  0.00253511  0.25254627  0.75456760  1
  Te  Te32  1  0.24970240  0.25121766  0.24904868  1
  Te  Te33  1  0.25071965  0.25128658  0.75456651  1
  Te  Te34  1  0.25152848  0.74877480  0.24773945  1
  Te  Te35  1  0.24890081  0.74828897  0.75283941  1
  Te  Te36  1  0.74900850  0.25389506  0.25099522  1
  Te  Te37  1  0.74934063  0.25605297  0.74628068  1
  Te  Te38  1  0.74460390  0.74248666  0.24993443  1
  Te  Te39  1  0.75272101  0.74323692  0.75007056  1
  Te  Te40  1  0.24714764  0.00073646  0.00116841  1
  Te  Te41  1  0.25354332  0.00085087  0.49914699  1
  Te  Te42  1  0.24725900  0.49931463  0.00100346  1
  Te  Te43  1  0.25019163  0.49930238  0.50167122  1
  Te  Te44  1  0.76186087  -0.00020319  -0.00166021  1
  Te  Te45  1  0.74503119  0.00556610  0.50120603  1
  Te  Te46  1  0.75873925  0.49953980  -0.00004633  1
  Te  Te47  1  0.74995127  0.49562613  0.49883893  1
  Te  Te48  1  0.00342191  0.25158795  0.00442941  1
  Te  Te49  1  -0.00599980  0.24885406  0.49024809  1
  Te  Te50  1  0.00455243  0.74859457  -0.00291213  1
  Te  Te51  1  -0.00087781  0.75134945  0.51113384  1
  Te  Te52  1  0.49391664  0.24899412  0.00659305  1
  Te  Te53  1  0.50329525  0.24616880  0.49480348  1
  Te  Te54  1  0.49298257  0.75087886  0.00621950  1
  Te  Te55  1  0.50058902  0.75736902  0.49296490  1
  Te  Te56  1  0.00287191  0.00016901  0.24715838  1
  Te  Te57  1  0.00471819  -0.00138174  0.75248206  1
  Te  Te58  1  0.00214471  0.50020532  0.24790783  1
  Te  Te59  1  0.00329151  0.50029891  0.75212980  1
  Te  Te60  1  0.49816084  0.00143535  0.25144788  1
  Te  Te61  1  0.49505929  -0.00077524  0.74530951  1
  Te  Te62  1  0.49857435  0.49857904  0.25057265  1
  Te  Te63  1  0.49946438  0.50112030  0.74849637  1
