# generated using pymatgen
data_AgSbTe2
_symmetry_space_group_name_H-M   'P 1'
_cell_length_a   12.21864421
_cell_length_b   12.21715142
_cell_length_c   12.21805075
_cell_angle_alpha   90.00058315
_cell_angle_beta   90.00121757
_cell_angle_gamma   90.00112806
_symmetry_Int_Tables_number   1
_chemical_formula_structural   AgSbTe2
_chemical_formula_sum   'Ag16 Sb16 Te32'
_cell_volume   1823.87428391
_cell_formula_units_Z   16
loop_
 _symmetry_equiv_pos_site_id
 _symmetry_equiv_pos_as_xyz
  1  'x, y, z'
loop_
 _atom_site_type_symbol
 _atom_site_label
 _atom_site_symmetry_multiplicity
 _atom_site_fract_x
 _atom_site_fract_y
 _atom_site_fract_z
 _atom_site_occupancy
  Ag  Ag0  1  0.50588250  0.00630053  0.50071085  1
  Ag  Ag1  1  0.50372056  0.24395712  0.25877469  1
  Ag  Ag2  1  0.74864455  0.75554010  -0.00138708  1
  Ag  Ag3  1  0.50110626  0.24510197  0.74171133  1
  Ag  Ag4  1  0.74608816  0.00055414  0.74573745  1
  Ag  Ag5  1  0.25364129  0.00218471  0.25065307  1
  Ag  Ag6  1  0.25735121  0.24590889  0.50309558  1
  Ag  Ag7  1  -0.00101977  0.24667928  0.74806225  1
  Ag  Ag8  1  0.74572940  0.00126091  0.25458071  1
  Ag  Ag9  1  0.50350715  0.75406702  0.74889381  1
  Ag  Ag10  1  0.25248213  0.49748230  0.74964391  1
  Ag  Ag11  1  0.74703933  0.49903809  0.25187981  1
  Ag  Ag12  1  0.25163813  0.75374916  -0.00206626  1
  Ag  Ag13  1  0.74235763  0.24270406  0.50053896  1
  Ag  Ag14  1  0.74504971  0.75796947  0.50144644  1
  Ag  Ag15  1  -0.00268776  -0.00051147  -0.00122468  1
  Sb  Sb16  1  -0.00267551  0.75349358  0.75191371  1
  Sb  Sb17  1  -0.00118507  0.49793512  0.50175568  1
  Sb  Sb18  1  -0.00269007  0.75316222  0.24866433  1
  Sb  Sb19  1  0.25337362  0.49758685  0.24984533  1
  Sb  Sb20  1  0.25634531  0.75447391  0.50209825  1
  Sb  Sb21  1  0.25380241  0.00192837  0.74934833  1
  Sb  Sb22  1  -0.00676258  0.00256296  0.50266565  1
  Sb  Sb23  1  -0.00154000  0.49945049  -0.00251761  1
  Sb  Sb24  1  -0.00311887  0.24617584  0.25172138  1
  Sb  Sb25  1  0.50354746  0.75605390  0.25299914  1
  Sb  Sb26  1  0.74958899  0.24379193  -0.00038572  1
  Sb  Sb27  1  0.25025949  0.24624999  -0.00196076  1
  Sb  Sb28  1  0.50247018  -0.00133894  -0.00075613  1
  Sb  Sb29  1  0.50141334  0.50130421  -0.00038254  1
  Sb  Sb30  1  0.50090843  0.49240838  0.50036961  1
  Sb  Sb31  1  0.74819871  0.49894636  0.74893882  1
  Te  Te32  1  0.25282931  0.24891111  0.25283402  1
  Te  Te33  1  0.25369428  0.25019652  0.74783138  1
  Te  Te34  1  0.25135219  0.75178660  0.24686810  1
  Te  Te35  1  0.25263918  0.74852477  0.75131117  1
  Te  Te36  1  0.74783001  0.24559734  0.25100460  1
  Te  Te37  1  0.74632114  0.25035180  0.74907224  1
  Te  Te38  1  0.74779088  0.75378222  0.25004677  1
  Te  Te39  1  0.74769531  0.74993674  0.75001458  1
  Te  Te40  1  0.24664707  -0.00438075  0.00360546  1
  Te  Te41  1  0.25376084  0.00260178  0.49614874  1
  Te  Te42  1  0.24854218  0.50800755  -0.00214020  1
  Te  Te43  1  0.24926046  0.49569663  0.50278043  1
  Te  Te44  1  0.75200567  -0.00389815  0.00035678  1
  Te  Te45  1  0.74907017  0.00156315  0.49983739  1
  Te  Te46  1  0.75146894  0.51025358  0.00500043  1
  Te  Te47  1  0.75042139  0.49960525  0.49594153  1
  Te  Te48  1  0.00082046  0.24380057  -0.00704211  1
  Te  Te49  1  -0.00000926  0.24870570  0.50588365  1
  Te  Te50  1  -0.00096282  0.75601817  -0.00056659  1
  Te  Te51  1  -0.00902014  0.74991881  0.50049077  1
  Te  Te52  1  0.49911904  0.25038575  -0.00264430  1
  Te  Te53  1  0.50167449  0.24667756  0.50173285  1
  Te  Te54  1  0.50077279  0.75028825  -0.00616565  1
  Te  Te55  1  0.50457150  0.75719723  0.50446817  1
  Te  Te56  1  -0.00039671  0.00148844  0.24421390  1
  Te  Te57  1  -0.00485085  0.00449537  0.75353886  1
  Te  Te58  1  -0.00736938  0.49889950  0.24951083  1
  Te  Te59  1  0.00597492  0.49184873  0.75082387  1
  Te  Te60  1  0.50209540  0.00344655  0.25239066  1
  Te  Te61  1  0.50311308  0.00147896  0.74774980  1
  Te  Te62  1  0.50504943  0.49131686  0.24963710  1
  Te  Te63  1  0.49562272  0.49932598  0.75009647  1
