# generated using pymatgen
data_AgSbTe2
_symmetry_space_group_name_H-M   'P 1'
_cell_length_a   12.22591745
_cell_length_b   12.24909402
_cell_length_c   12.22499136
_cell_angle_alpha   89.99804826
_cell_angle_beta   90.02070545
_cell_angle_gamma   89.99807103
_symmetry_Int_Tables_number   1
_chemical_formula_structural   AgSbTe2
_chemical_formula_sum   'Ag16 Sb16 Te32'
_cell_volume   1830.77072364
_cell_formula_units_Z   16
loop_
 _symmetry_equiv_pos_site_id
 _symmetry_equiv_pos_as_xyz
  1  'x, y, z'
loop_
 _atom_site_type_symbol
 _atom_site_label
 _atom_site_symmetry_multiplicity
 _atom_site_fract_x
 _atom_site_fract_y
 _atom_site_fract_z
 _atom_site_occupancy
  Ag  Ag0  1  0.73949519  0.49854521  0.75238548  1
  Ag  Ag1  1  0.25875153  0.00120377  0.74486344  1
  Ag  Ag2  1  0.75125461  0.24571044  0.50192128  1
  Ag  Ag3  1  0.24968263  0.24670923  0.50594817  1
  Ag  Ag4  1  0.50507772  0.50119216  -0.00893937  1
  Ag  Ag5  1  0.50512865  -0.00102803  -0.00901520  1
  Ag  Ag6  1  0.26079326  0.49872844  0.74797288  1
  Ag  Ag7  1  0.74969637  0.00439101  0.25250301  1
  Ag  Ag8  1  0.74782604  0.49612061  0.24899802  1
  Ag  Ag9  1  0.74375506  0.75063829  -0.00443628  1
  Ag  Ag10  1  -0.00623870  0.24781041  0.25665581  1
  Ag  Ag11  1  0.50205781  0.24928951  0.74907351  1
  Ag  Ag12  1  0.74051552  0.00177233  0.74962867  1
  Ag  Ag13  1  0.25127391  0.75316210  0.50709579  1
  Ag  Ag14  1  -0.00176162  0.00470245  0.50115604  1
  Ag  Ag15  1  0.50171404  0.75081903  0.75314322  1
  Sb  Sb16  1  0.74897240  0.75280992  0.50383286  1
  Sb  Sb17  1  0.25644900  0.75079830  -0.00691012  1
  Sb  Sb18  1  -0.00299173  0.75168215  0.25305003  1
  Sb  Sb19  1  0.25338356  0.49694029  0.25149139  1
  Sb  Sb20  1  0.50406138  0.24922881  0.25297894  1
  Sb  Sb21  1  -0.00132811  0.49572927  0.49989444  1
  Sb  Sb22  1  0.50253839  0.75077159  0.24827670  1
  Sb  Sb23  1  -0.00150511  0.24818890  0.74613124  1
  Sb  Sb24  1  0.50080843  0.00096444  0.50837054  1
  Sb  Sb25  1  0.50069009  0.49927769  0.50844910  1
  Sb  Sb26  1  0.25391150  0.24958072  -0.00673324  1
  Sb  Sb27  1  0.25236176  0.00279499  0.25393238  1
  Sb  Sb28  1  -0.00036614  0.75118129  0.74827697  1
  Sb  Sb29  1  -0.00390529  0.49956639  -0.00091853  1
  Sb  Sb30  1  0.74730430  0.24946421  -0.00310170  1
  Sb  Sb31  1  -0.00353355  0.00016296  -0.00129858  1
  Te  Te32  1  0.24659536  0.25076523  0.26016163  1
  Te  Te33  1  0.24987462  0.24949229  0.74587815  1
  Te  Te34  1  0.24977731  0.74893294  0.25904777  1
  Te  Te35  1  0.25247633  0.75039267  0.74759598  1
  Te  Te36  1  0.74992747  0.24884190  0.25512446  1
  Te  Te37  1  0.74900883  0.24960554  0.74604122  1
  Te  Te38  1  0.74921502  0.74974046  0.24830885  1
  Te  Te39  1  0.74676567  0.74980343  0.75069268  1
  Te  Te40  1  0.25405385  -0.00161031  -0.00478445  1
  Te  Te41  1  0.24865171  0.00324960  0.50216714  1
  Te  Te42  1  0.25456533  0.50124324  -0.00572581  1
  Te  Te43  1  0.24925322  0.49768180  0.50414033  1
  Te  Te44  1  0.74809480  -0.00104183  -0.00384662  1
  Te  Te45  1  0.75169550  0.00113931  0.50100258  1
  Te  Te46  1  0.74755746  0.50105231  -0.00393578  1
  Te  Te47  1  0.75102242  0.49775716  0.50078647  1
  Te  Te48  1  0.00259440  0.24974567  0.01272280  1
  Te  Te49  1  -0.00315951  0.24651285  0.49714630  1
  Te  Te50  1  -0.01015419  0.74991417  0.00124334  1
  Te  Te51  1  0.00655720  0.75868597  0.50008532  1
  Te  Te52  1  0.49794606  0.24944589  -0.00757682  1
  Te  Te53  1  0.50099588  0.25089273  0.50590197  1
  Te  Te54  1  0.50371171  0.75051749  -0.00444457  1
  Te  Te55  1  0.49385532  0.74957262  0.50695223  1
  Te  Te56  1  -0.00418972  0.00241133  0.25264855  1
  Te  Te57  1  -0.00017607  0.00083841  0.74683755  1
  Te  Te58  1  -0.00682204  0.49562327  0.24888920  1
  Te  Te59  1  -0.00111399  0.49942733  0.75091230  1
  Te  Te60  1  0.50566306  0.00037012  0.23873274  1
  Te  Te61  1  0.50156094  0.00111117  0.75163190  1
  Te  Te62  1  0.50644543  0.50001660  0.23937604  1
  Te  Te63  1  0.50187777  0.49895976  0.75160967  1
