# generated using pymatgen
data_AgSbTe2
_symmetry_space_group_name_H-M   'P 1'
_cell_length_a   12.22792219
_cell_length_b   12.22626936
_cell_length_c   12.21420213
_cell_angle_alpha   89.99050144
_cell_angle_beta   89.99640692
_cell_angle_gamma   90.00412035
_symmetry_Int_Tables_number   1
_chemical_formula_structural   AgSbTe2
_chemical_formula_sum   'Ag16 Sb16 Te32'
_cell_volume   1826.04602991
_cell_formula_units_Z   16
loop_
 _symmetry_equiv_pos_site_id
 _symmetry_equiv_pos_as_xyz
  1  'x, y, z'
loop_
 _atom_site_type_symbol
 _atom_site_label
 _atom_site_symmetry_multiplicity
 _atom_site_fract_x
 _atom_site_fract_y
 _atom_site_fract_z
 _atom_site_occupancy
  Ag  Ag0  1  0.23490966  0.25261096  0.50227478  1
  Ag  Ag1  1  0.49665892  0.25157022  0.25110616  1
  Ag  Ag2  1  0.00321808  0.24673944  0.73506057  1
  Ag  Ag3  1  0.00034847  0.75358598  0.74825133  1
  Ag  Ag4  1  0.49833674  0.50034816  -0.00228695  1
  Ag  Ag5  1  0.24554606  0.00257498  0.74780047  1
  Ag  Ag6  1  0.24701960  0.49703643  0.74686007  1
  Ag  Ag7  1  0.74698524  0.75132872  -0.00682164  1
  Ag  Ag8  1  0.75334335  -0.00078454  0.74966561  1
  Ag  Ag9  1  0.50107856  -0.00090326  -0.00530587  1
  Ag  Ag10  1  0.00295743  0.25137059  0.26527517  1
  Ag  Ag11  1  0.50042305  0.75224258  0.75448884  1
  Ag  Ag12  1  0.00069163  0.01558362  0.50734746  1
  Ag  Ag13  1  0.76587830  0.24906732  0.50265741  1
  Ag  Ag14  1  0.24940503  0.49308863  0.25283524  1
  Ag  Ag15  1  0.00375600  0.48432749  0.50351680  1
  Sb  Sb16  1  0.75060731  0.00307896  0.25065838  1
  Sb  Sb17  1  0.49897035  0.00359317  0.50422251  1
  Sb  Sb18  1  0.49913148  0.74911802  0.24611869  1
  Sb  Sb19  1  0.25058651  0.25050032  -0.00254677  1
  Sb  Sb20  1  0.24925797  0.00711216  0.25241291  1
  Sb  Sb21  1  0.74925901  0.24901031  -0.00279804  1
  Sb  Sb22  1  0.75086288  0.49718996  0.25082905  1
  Sb  Sb23  1  0.49753818  0.24933559  0.74918047  1
  Sb  Sb24  1  0.75324522  0.75174679  0.50560041  1
  Sb  Sb25  1  0.00165629  0.49982026  -0.00300875  1
  Sb  Sb26  1  0.00069687  0.74937501  0.25212585  1
  Sb  Sb27  1  0.75241181  0.50004470  0.74929028  1
  Sb  Sb28  1  0.25257713  0.74978618  -0.00492443  1
  Sb  Sb29  1  0.24794263  0.74831405  0.50400001  1
  Sb  Sb30  1  -0.00040179  0.00003141  -0.00806904  1
  Sb  Sb31  1  0.49627269  0.49635538  0.50122193  1
  Te  Te32  1  0.24874507  0.25285278  0.25272145  1
  Te  Te33  1  0.24843659  0.25075188  0.74765225  1
  Te  Te34  1  0.24969727  0.74001314  0.25037056  1
  Te  Te35  1  0.24840883  0.74992774  0.74961380  1
  Te  Te36  1  0.75150336  0.24935283  0.25503289  1
  Te  Te37  1  0.75242867  0.24639163  0.74548206  1
  Te  Te38  1  0.74976185  0.75006199  0.24165400  1
  Te  Te39  1  0.75004277  0.75252058  0.75219614  1
  Te  Te40  1  0.25542371  -0.00053870  -0.00610491  1
  Te  Te41  1  0.24739527  0.00408839  0.50436291  1
  Te  Te42  1  0.25463463  0.50024489  -0.00267383  1
  Te  Te43  1  0.24700696  0.49676680  0.50365996  1
  Te  Te44  1  0.74622200  -0.00219758  -0.00546205  1
  Te  Te45  1  0.75290603  0.00286996  0.50523552  1
  Te  Te46  1  0.74253479  0.50379019  0.00001961  1
  Te  Te47  1  0.75671060  0.49507906  0.49996115  1
  Te  Te48  1  -0.00168901  0.24991430  0.00164586  1
  Te  Te49  1  0.00107714  0.25024918  0.50194031  1
  Te  Te50  1  -0.00638404  0.75038464  -0.00601602  1
  Te  Te51  1  -0.00143420  0.75040486  0.50474749  1
  Te  Te52  1  0.50074145  0.25134344  0.00475205  1
  Te  Te53  1  0.49969298  0.25015741  0.49433707  1
  Te  Te54  1  0.50233869  0.75007312  -0.00405807  1
  Te  Te55  1  0.50163046  0.74990298  0.50740106  1
  Te  Te56  1  0.00197368  0.00395547  0.25644115  1
  Te  Te57  1  0.00191891  0.00063604  0.74936037  1
  Te  Te58  1  0.00460519  0.49705447  0.25190703  1
  Te  Te59  1  0.00335306  0.49891680  0.74931075  1
  Te  Te60  1  0.49861727  0.00319601  0.24397179  1
  Te  Te61  1  0.49928981  -0.00105055  0.75268969  1
  Te  Te62  1  0.49546975  0.49717423  0.24776120  1
  Te  Te63  1  0.49576979  0.50151245  0.75304786  1
