# generated using pymatgen
data_AgSbTe2
_symmetry_space_group_name_H-M   'P 1'
_cell_length_a   12.31110741
_cell_length_b   12.30805115
_cell_length_c   12.31096603
_cell_angle_alpha   90.00030974
_cell_angle_beta   90.02517360
_cell_angle_gamma   90.00445187
_symmetry_Int_Tables_number   1
_chemical_formula_structural   AgSbTe2
_chemical_formula_sum   'Ag16 Sb16 Te32'
_cell_volume   1865.42804715
_cell_formula_units_Z   16
loop_
 _symmetry_equiv_pos_site_id
 _symmetry_equiv_pos_as_xyz
  1  'x, y, z'
loop_
 _atom_site_type_symbol
 _atom_site_label
 _atom_site_symmetry_multiplicity
 _atom_site_fract_x
 _atom_site_fract_y
 _atom_site_fract_z
 _atom_site_occupancy
  Ag  Ag0  1  -0.00534967  0.51354506  -0.00524814  1
  Ag  Ag1  1  0.50533637  -0.01227686  0.50904587  1
  Ag  Ag2  1  0.73926311  -0.01677542  0.74997121  1
  Ag  Ag3  1  0.74251098  0.51942030  0.75027904  1
  Ag  Ag4  1  0.50446883  0.23682613  0.74539122  1
  Ag  Ag5  1  0.50477400  0.51676800  0.50563330  1
  Ag  Ag6  1  0.51652369  0.75622590  0.73727123  1
  Ag  Ag7  1  0.50637044  0.76041055  0.25927859  1
  Ag  Ag8  1  0.25664992  0.51508672  0.24945843  1
  Ag  Ag9  1  0.73993794  0.75473312  0.51932931  1
  Ag  Ag10  1  -0.00588283  -0.01088673  -0.00622392  1
  Ag  Ag11  1  0.75235793  0.75501362  -0.01721421  1
  Ag  Ag12  1  0.26246313  -0.00631026  0.74989641  1
  Ag  Ag13  1  0.25846917  -0.00707168  0.24937470  1
  Ag  Ag14  1  -0.02007180  0.75650096  0.75697179  1
  Ag  Ag15  1  0.73849188  -0.01108831  0.24974714  1
  Sb  Sb16  1  -0.00234401  0.24631061  0.75272697  1
  Sb  Sb17  1  -0.00419106  0.75275695  0.24853326  1
  Sb  Sb18  1  0.74683889  0.51132160  0.25043209  1
  Sb  Sb19  1  0.25340328  0.24799615  0.50139966  1
  Sb  Sb20  1  0.74669835  0.24490517  0.50152717  1
  Sb  Sb21  1  0.25046881  0.24727999  -0.00144625  1
  Sb  Sb22  1  -0.00193773  -0.00478536  0.50234061  1
  Sb  Sb23  1  0.50231820  -0.00326713  -0.00300409  1
  Sb  Sb24  1  0.25766895  0.75123954  0.49981007  1
  Sb  Sb25  1  0.50016728  0.24543935  0.25351630  1
  Sb  Sb26  1  0.25337022  0.50632826  0.75060397  1
  Sb  Sb27  1  0.50265013  0.50607250  -0.00196002  1
  Sb  Sb28  1  0.74994949  0.24623533  -0.00156323  1
  Sb  Sb29  1  -0.00248753  0.50860288  0.50028677  1
  Sb  Sb30  1  -0.00012014  0.24790527  0.24718796  1
  Sb  Sb31  1  0.24722130  0.75250463  -0.00045444  1
  Te  Te32  1  0.24928670  0.23942416  0.25053997  1
  Te  Te33  1  0.25508047  0.23794435  0.74962764  1
  Te  Te34  1  0.25372369  0.75230795  0.25081655  1
  Te  Te35  1  0.25259337  0.75585618  0.74817055  1
  Te  Te36  1  0.75095353  0.23050017  0.25032396  1
  Te  Te37  1  0.74686449  0.25005762  0.75011123  1
  Te  Te38  1  0.74732510  0.75498300  0.24895310  1
  Te  Te39  1  0.75154962  0.74681066  0.75137202  1
  Te  Te40  1  0.24316490  -0.00086181  0.00115425  1
  Te  Te41  1  0.25370306  -0.00146914  0.49858885  1
  Te  Te42  1  0.24339921  0.50017953  0.00365818  1
  Te  Te43  1  0.25455325  0.50110379  0.49448208  1
  Te  Te44  1  0.75158189  -0.00224675  -0.00350576  1
  Te  Te45  1  0.74775620  -0.00135685  0.50348264  1
  Te  Te46  1  0.75372461  0.50195336  0.00029417  1
  Te  Te47  1  0.74616216  0.50117684  0.49915569  1
  Te  Te48  1  0.00075243  0.25180553  0.00185661  1
  Te  Te49  1  0.00098852  0.25230292  0.49783437  1
  Te  Te50  1  -0.00188645  0.75095322  -0.00151488  1
  Te  Te51  1  -0.01561968  0.75016444  0.51033971  1
  Te  Te52  1  0.50001115  0.25271316  -0.01327860  1
  Te  Te53  1  0.49979628  0.24765321  0.50557585  1
  Te  Te54  1  0.50829319  0.75076193  0.00545316  1
  Te  Te55  1  0.50242934  0.75266577  0.49697132  1
  Te  Te56  1  0.00594371  -0.00058886  0.24881819  1
  Te  Te57  1  -0.00260395  0.00048497  0.75035155  1
  Te  Te58  1  0.00506728  0.49962397  0.24810481  1
  Te  Te59  1  0.00404048  0.49709182  0.75220403  1
  Te  Te60  1  0.49894581  0.00052034  0.24584814  1
  Te  Te61  1  0.50122438  -0.00688305  0.75206647  1
  Te  Te62  1  0.49710925  0.49462332  0.25073481  1
  Te  Te63  1  0.49809850  0.51277741  0.74851058  1
