# generated using pymatgen
data_AgSbTe2
_symmetry_space_group_name_H-M   'P 1'
_cell_length_a   12.24494454
_cell_length_b   12.25771587
_cell_length_c   12.25598071
_cell_angle_alpha   90.00538245
_cell_angle_beta   89.99926803
_cell_angle_gamma   89.99320616
_symmetry_Int_Tables_number   1
_chemical_formula_structural   AgSbTe2
_chemical_formula_sum   'Ag16 Sb16 Te32'
_cell_volume   1839.56202805
_cell_formula_units_Z   16
loop_
 _symmetry_equiv_pos_site_id
 _symmetry_equiv_pos_as_xyz
  1  'x, y, z'
loop_
 _atom_site_type_symbol
 _atom_site_label
 _atom_site_symmetry_multiplicity
 _atom_site_fract_x
 _atom_site_fract_y
 _atom_site_fract_z
 _atom_site_occupancy
  Ag  Ag0  1  0.49590878  0.75606907  0.24674564  1
  Ag  Ag1  1  0.00127077  -0.00416129  0.01248658  1
  Ag  Ag2  1  0.50244615  -0.00231826  0.48984690  1
  Ag  Ag3  1  -0.00221942  -0.00123928  0.48699086  1
  Ag  Ag4  1  -0.00763482  0.50100341  0.49827719  1
  Ag  Ag5  1  0.24532790  -0.00609037  0.24688602  1
  Ag  Ag6  1  0.49840168  -0.00541430  0.01052016  1
  Ag  Ag7  1  -0.00330699  0.24018321  0.25303060  1
  Ag  Ag8  1  0.75095805  0.49990291  0.74663847  1
  Ag  Ag9  1  0.00399054  0.76139589  0.24972117  1
  Ag  Ag10  1  0.75098760  0.24969459  0.00282518  1
  Ag  Ag11  1  0.50430984  0.50392740  0.00370048  1
  Ag  Ag12  1  0.50719279  0.50129014  0.49674426  1
  Ag  Ag13  1  0.24968509  0.75502807  0.00696313  1
  Ag  Ag14  1  -0.00103920  0.75036291  0.74874197  1
  Ag  Ag15  1  0.75371613  0.25282344  0.49743429  1
  Sb  Sb16  1  0.50144581  0.74840046  0.75197492  1
  Sb  Sb17  1  0.75196135  -0.00223300  0.74915972  1
  Sb  Sb18  1  0.50381589  0.24066876  0.25064000  1
  Sb  Sb19  1  0.24454357  0.24812063  0.49519036  1
  Sb  Sb20  1  -0.00742212  0.50273659  0.00196277  1
  Sb  Sb21  1  0.24732468  0.24509047  0.00560260  1
  Sb  Sb22  1  0.74969913  0.74997949  -0.00004840  1
  Sb  Sb23  1  -0.00365783  0.25105731  0.74741458  1
  Sb  Sb24  1  0.75185968  0.74481748  0.50061280  1
  Sb  Sb25  1  0.24798413  -0.00422134  0.75477834  1
  Sb  Sb26  1  0.75810110  0.00020833  0.25105781  1
  Sb  Sb27  1  0.24628986  0.50459871  0.75174918  1
  Sb  Sb28  1  0.25075139  0.50785349  0.24727554  1
  Sb  Sb29  1  0.50245629  0.25157156  0.74965664  1
  Sb  Sb30  1  0.74875581  0.49875620  0.25418789  1
  Sb  Sb31  1  0.24840459  0.75206761  0.49178659  1
  Te  Te32  1  0.23524992  0.23621583  0.24868336  1
  Te  Te33  1  0.24854763  0.25034162  0.75159034  1
  Te  Te34  1  0.24823011  0.75646028  0.24393452  1
  Te  Te35  1  0.23782566  0.75032793  0.76524526  1
  Te  Te36  1  0.75924333  0.25044172  0.24966645  1
  Te  Te37  1  0.75236016  0.26002266  0.74995476  1
  Te  Te38  1  0.75118082  0.74971234  0.24910029  1
  Te  Te39  1  0.76011134  0.74004663  0.75066159  1
  Te  Te40  1  0.25129242  -0.00274728  0.00292806  1
  Te  Te41  1  0.25146034  -0.00007818  0.49309300  1
  Te  Te42  1  0.26302560  0.50599998  0.00002610  1
  Te  Te43  1  0.25477523  0.49964047  0.49994914  1
  Te  Te44  1  0.74806171  0.00785894  -0.00433447  1
  Te  Te45  1  0.74887930  0.00959529  0.50393870  1
  Te  Te46  1  0.74480453  0.49357760  -0.00434261  1
  Te  Te47  1  0.74826192  0.49632643  0.50142232  1
  Te  Te48  1  -0.00281411  0.24743036  0.00254320  1
  Te  Te49  1  -0.00397455  0.24785447  0.49825017  1
  Te  Te50  1  -0.00202043  0.75158628  0.00743524  1
  Te  Te51  1  0.00040181  0.75279629  0.49441369  1
  Te  Te52  1  0.50531948  0.24828315  0.00257202  1
  Te  Te53  1  0.50823814  0.25081426  0.49735845  1
  Te  Te54  1  0.50213212  0.75428312  0.00153151  1
  Te  Te55  1  0.49976661  0.75163794  0.49735917  1
  Te  Te56  1  -0.00155037  -0.00517286  0.25146334  1
  Te  Te57  1  -0.00062702  -0.00796571  0.74831191  1
  Te  Te58  1  0.00224383  0.50345015  0.25655844  1
  Te  Te59  1  -0.00240550  0.50474563  0.74382339  1
  Te  Te60  1  0.49666482  -0.00187009  0.25014266  1
  Te  Te61  1  0.49971778  -0.00396786  0.74791547  1
  Te  Te62  1  0.49797147  0.50660733  0.25311618  1
  Te  Te63  1  0.50531764  0.50381499  0.74513407  1
