# generated using pymatgen
data_AgSbTe2
_symmetry_space_group_name_H-M   'P 1'
_cell_length_a   12.21966232
_cell_length_b   12.20933577
_cell_length_c   12.21592895
_cell_angle_alpha   89.99945042
_cell_angle_beta   89.99503440
_cell_angle_gamma   89.99398389
_symmetry_Int_Tables_number   1
_chemical_formula_structural   AgSbTe2
_chemical_formula_sum   'Ag16 Sb16 Te32'
_cell_volume   1822.54280152
_cell_formula_units_Z   16
loop_
 _symmetry_equiv_pos_site_id
 _symmetry_equiv_pos_as_xyz
  1  'x, y, z'
loop_
 _atom_site_type_symbol
 _atom_site_label
 _atom_site_symmetry_multiplicity
 _atom_site_fract_x
 _atom_site_fract_y
 _atom_site_fract_z
 _atom_site_occupancy
  Ag  Ag0  1  0.75462987  0.24847112  0.49850828  1
  Ag  Ag1  1  0.75421212  0.00042494  0.24997739  1
  Ag  Ag2  1  0.49741040  0.50164087  0.50189814  1
  Ag  Ag3  1  -0.00135937  0.24702929  0.25327420  1
  Ag  Ag4  1  0.00252373  0.50514008  -0.00255943  1
  Ag  Ag5  1  0.24664650  0.50562827  0.74983801  1
  Ag  Ag6  1  0.75096392  0.75237569  -0.00156535  1
  Ag  Ag7  1  0.24546046  0.74718062  0.50177414  1
  Ag  Ag8  1  0.24621669  -0.00242451  0.24977854  1
  Ag  Ag9  1  0.50196037  -0.00583205  0.00086901  1
  Ag  Ag10  1  0.00197931  0.74782919  0.75040781  1
  Ag  Ag11  1  0.24856529  0.74753231  -0.00203012  1
  Ag  Ag12  1  0.00266425  0.50180412  0.50246562  1
  Ag  Ag13  1  0.49783523  0.50516660  -0.00195748  1
  Ag  Ag14  1  -0.00207321  -0.00081864  0.49738557  1
  Ag  Ag15  1  0.75284444  -0.00292574  0.75066527  1
  Sb  Sb16  1  0.50105557  0.24874040  0.25113088  1
  Sb  Sb17  1  0.75433561  0.75137161  0.50197418  1
  Sb  Sb18  1  0.75282098  0.50307275  0.75088750  1
  Sb  Sb19  1  0.75265966  0.50034520  0.24972832  1
  Sb  Sb20  1  0.00040116  0.75278664  0.25038312  1
  Sb  Sb21  1  0.24624745  0.25230421  0.49795959  1
  Sb  Sb22  1  0.49842886  0.74935526  0.75191815  1
  Sb  Sb23  1  0.50168935  0.25065870  0.74939988  1
  Sb  Sb24  1  0.75191727  0.24741542  0.00131900  1
  Sb  Sb25  1  -0.00177942  0.25162630  0.74774331  1
  Sb  Sb26  1  0.50011366  0.75079427  0.24781506  1
  Sb  Sb27  1  0.24725740  -0.00611049  0.75047994  1
  Sb  Sb28  1  0.24763998  0.50324950  0.24979854  1
  Sb  Sb29  1  0.24835904  0.25204921  0.00164696  1
  Sb  Sb30  1  -0.00065805  -0.00573632  0.00177077  1
  Sb  Sb31  1  0.50118800  -0.00209971  0.49941038  1
  Te  Te32  1  0.24355136  0.23961942  0.25051905  1
  Te  Te33  1  0.24995833  0.26004808  0.74974767  1
  Te  Te34  1  0.24993370  0.75636789  0.24932866  1
  Te  Te35  1  0.24434381  0.74639767  0.75098806  1
  Te  Te36  1  0.75463317  0.24423111  0.25378300  1
  Te  Te37  1  0.75083582  0.24158813  0.74411505  1
  Te  Te38  1  0.75012232  0.75741776  0.24313916  1
  Te  Te39  1  0.75710779  0.75448516  0.75398620  1
  Te  Te40  1  0.25209948  -0.00457550  0.00065376  1
  Te  Te41  1  0.24927683  -0.00340675  0.49919513  1
  Te  Te42  1  0.25044625  0.50365340  0.00090712  1
  Te  Te43  1  0.24759695  0.50277265  0.49922035  1
  Te  Te44  1  0.74869622  -0.00232037  0.00060471  1
  Te  Te45  1  0.75013864  -0.00056935  0.49844126  1
  Te  Te46  1  0.74839753  0.50408728  -0.00067397  1
  Te  Te47  1  0.75158206  0.49908406  0.50041662  1
  Te  Te48  1  -0.00074753  0.25926230  0.00493817  1
  Te  Te49  1  -0.00306012  0.25036736  0.49757197  1
  Te  Te50  1  0.00160056  0.74666696  -0.00205946  1
  Te  Te51  1  0.00196482  0.74823547  0.50198601  1
  Te  Te52  1  0.50021865  0.25383492  0.00027843  1
  Te  Te53  1  0.50634985  0.25684345  0.49949756  1
  Te  Te54  1  0.49906644  0.74773773  -0.00069161  1
  Te  Te55  1  0.49401491  0.74341021  0.50084037  1
  Te  Te56  1  -0.00091258  0.00250194  0.25244518  1
  Te  Te57  1  -0.00232582  -0.00269604  0.74634908  1
  Te  Te58  1  -0.00046051  0.49462422  0.25188072  1
  Te  Te59  1  0.00176613  0.50221259  0.74885606  1
  Te  Te60  1  0.50027637  0.00104053  0.24575112  1
  Te  Te61  1  0.50471564  0.00043433  0.75572477  1
  Te  Te62  1  0.50030746  0.49875611  0.24828916  1
  Te  Te63  1  0.49634897  0.49984216  0.75187546  1
