# generated using pymatgen
data_AgSbTe2
_symmetry_space_group_name_H-M   'P 1'
_cell_length_a   12.23733620
_cell_length_b   12.23484117
_cell_length_c   12.23467808
_cell_angle_alpha   90.00302126
_cell_angle_beta   90.01756163
_cell_angle_gamma   90.00263675
_symmetry_Int_Tables_number   1
_chemical_formula_structural   AgSbTe2
_chemical_formula_sum   'Ag16 Sb16 Te32'
_cell_volume   1831.79872593
_cell_formula_units_Z   16
loop_
 _symmetry_equiv_pos_site_id
 _symmetry_equiv_pos_as_xyz
  1  'x, y, z'
loop_
 _atom_site_type_symbol
 _atom_site_label
 _atom_site_symmetry_multiplicity
 _atom_site_fract_x
 _atom_site_fract_y
 _atom_site_fract_z
 _atom_site_occupancy
  Ag  Ag0  1  0.51158165  -0.00403808  0.49587976  1
  Ag  Ag1  1  0.75599233  0.50149836  0.73611104  1
  Ag  Ag2  1  -0.00318190  0.74192280  0.74569592  1
  Ag  Ag3  1  0.50201201  0.50395176  0.00696152  1
  Ag  Ag4  1  0.24917386  0.74364061  0.00241915  1
  Ag  Ag5  1  -0.00259002  0.50297287  -0.00273906  1
  Ag  Ag6  1  0.74694838  0.50340526  0.26357532  1
  Ag  Ag7  1  0.50396552  0.74317255  0.25387434  1
  Ag  Ag8  1  -0.00448510  0.25907907  0.74515917  1
  Ag  Ag9  1  0.74864888  -0.00430229  0.25856357  1
  Ag  Ag10  1  -0.01070566  -0.00230451  0.50004363  1
  Ag  Ag11  1  -0.01393042  0.50187714  0.50385377  1
  Ag  Ag12  1  0.75286700  0.26356903  0.50017180  1
  Ag  Ag13  1  0.25287855  0.50408837  0.24986028  1
  Ag  Ag14  1  0.75076893  0.73745388  0.49716593  1
  Ag  Ag15  1  0.51442127  0.50349272  0.49393810  1
  Sb  Sb16  1  -0.00245395  -0.00286350  -0.00006734  1
  Sb  Sb17  1  0.75212326  -0.00245175  0.73943983  1
  Sb  Sb18  1  0.50257889  -0.00552219  0.00507420  1
  Sb  Sb19  1  0.24949716  0.74665892  0.49852072  1
  Sb  Sb20  1  -0.00379074  0.74624265  0.25388822  1
  Sb  Sb21  1  0.50308592  0.25804292  0.25219309  1
  Sb  Sb22  1  0.50476800  0.25457485  0.74572563  1
  Sb  Sb23  1  0.24833998  -0.00303882  0.74848252  1
  Sb  Sb24  1  0.24759191  0.25717792  0.00048892  1
  Sb  Sb25  1  -0.00355186  0.25413957  0.25452975  1
  Sb  Sb26  1  0.50323196  0.74640059  0.74640415  1
  Sb  Sb27  1  0.24340880  0.50212617  0.75040992  1
  Sb  Sb28  1  0.24712386  0.25333426  0.50038249  1
  Sb  Sb29  1  0.75082198  0.74501869  0.00259855  1
  Sb  Sb30  1  0.25085157  -0.00547523  0.25210368  1
  Sb  Sb31  1  0.75167759  0.25550658  -0.00101479  1
  Te  Te32  1  0.24950227  0.25881355  0.24928040  1
  Te  Te33  1  0.24012911  0.24851131  0.75093863  1
  Te  Te34  1  0.25517636  0.74468779  0.24707136  1
  Te  Te35  1  0.24318031  0.75009343  0.75616879  1
  Te  Te36  1  0.74992999  0.25155790  0.25590846  1
  Te  Te37  1  0.75436016  0.25390815  0.74581344  1
  Te  Te38  1  0.74724545  0.74692037  0.25311695  1
  Te  Te39  1  0.75399537  0.74703508  0.74587401  1
  Te  Te40  1  0.25101126  -0.00713084  0.00099046  1
  Te  Te41  1  0.24954675  0.00127319  0.49866926  1
  Te  Te42  1  0.24945636  0.50320552  0.00215891  1
  Te  Te43  1  0.25090224  0.49954147  0.49538578  1
  Te  Te44  1  0.74903117  0.00144073  0.01208844  1
  Te  Te45  1  0.75074395  -0.00226625  0.49792007  1
  Te  Te46  1  0.75131121  0.49967582  0.00167687  1
  Te  Te47  1  0.75116436  0.50228716  0.49962486  1
  Te  Te48  1  0.00045039  0.25457864  -0.00777503  1
  Te  Te49  1  -0.00272422  0.25170282  0.50238091  1
  Te  Te50  1  0.00099031  0.74660744  -0.00355582  1
  Te  Te51  1  -0.00055163  0.74832655  0.50134572  1
  Te  Te52  1  0.49890313  0.25725893  -0.00199856  1
  Te  Te53  1  0.50466322  0.25070814  0.50085472  1
  Te  Te54  1  0.49838719  0.74582680  0.00185290  1
  Te  Te55  1  0.50020666  0.74787075  0.49880108  1
  Te  Te56  1  -0.00293080  0.00019728  0.25447947  1
  Te  Te57  1  -0.00077971  -0.00208599  0.74646190  1
  Te  Te58  1  -0.00334902  0.50079705  0.25018403  1
  Te  Te59  1  -0.00118074  0.50213538  0.74822317  1
  Te  Te60  1  0.50220978  -0.00489735  0.25363047  1
  Te  Te61  1  0.50001900  0.00062277  0.74332400  1
  Te  Te62  1  0.50389208  0.50143096  0.25135009  1
  Te  Te63  1  0.50543842  0.50001429  0.74806048  1
