# generated using pymatgen
data_AgSbTe2
_symmetry_space_group_name_H-M   'P 1'
_cell_length_a   12.22502730
_cell_length_b   12.22986152
_cell_length_c   12.21750390
_cell_angle_alpha   90.00069774
_cell_angle_beta   90.00644670
_cell_angle_gamma   90.00200839
_symmetry_Int_Tables_number   1
_chemical_formula_structural   AgSbTe2
_chemical_formula_sum   'Ag16 Sb16 Te32'
_cell_volume   1826.64377116
_cell_formula_units_Z   16
loop_
 _symmetry_equiv_pos_site_id
 _symmetry_equiv_pos_as_xyz
  1  'x, y, z'
loop_
 _atom_site_type_symbol
 _atom_site_label
 _atom_site_symmetry_multiplicity
 _atom_site_fract_x
 _atom_site_fract_y
 _atom_site_fract_z
 _atom_site_occupancy
  Ag  Ag0  1  0.50473127  0.74420017  0.24730997  1
  Ag  Ag1  1  0.50387709  0.25571498  0.23475336  1
  Ag  Ag2  1  0.25161332  0.00471241  0.75428528  1
  Ag  Ag3  1  -0.00493092  0.50036070  0.50336838  1
  Ag  Ag4  1  0.50155885  0.25213220  0.76581936  1
  Ag  Ag5  1  0.50163249  0.01617280  0.00146398  1
  Ag  Ag6  1  0.74242004  0.49854747  0.24809941  1
  Ag  Ag7  1  0.73452999  0.25360029  0.00015736  1
  Ag  Ag8  1  0.75048993  0.74496068  0.49880920  1
  Ag  Ag9  1  0.26591417  0.25156512  -0.00227653  1
  Ag  Ag10  1  0.75089107  0.49643973  0.75104104  1
  Ag  Ag11  1  -0.00200446  0.25368129  0.75270661  1
  Ag  Ag12  1  -0.00312580  0.74529085  0.74744167  1
  Ag  Ag13  1  0.74406121  0.00170289  0.24707359  1
  Ag  Ag14  1  0.25871234  0.49719557  0.24705789  1
  Ag  Ag15  1  0.50337761  0.48476626  0.00506989  1
  Sb  Sb16  1  0.24987116  0.49647313  0.75234982  1
  Sb  Sb17  1  0.74985347  0.25378006  0.49969267  1
  Sb  Sb18  1  0.25299151  0.74728610  0.00027585  1
  Sb  Sb19  1  0.24993080  0.74695126  0.49994198  1
  Sb  Sb20  1  0.50356160  0.49966884  0.49442030  1
  Sb  Sb21  1  0.25024910  0.25231013  0.50154109  1
  Sb  Sb22  1  0.25609767  0.00266896  0.24613222  1
  Sb  Sb23  1  0.50230410  0.00060715  0.49856912  1
  Sb  Sb24  1  -0.00260650  0.25303242  0.24731047  1
  Sb  Sb25  1  0.74831809  0.00321680  0.75259119  1
  Sb  Sb26  1  0.74699034  0.74651765  0.00112072  1
  Sb  Sb27  1  0.50197132  0.74797794  0.75206585  1
  Sb  Sb28  1  -0.00295862  0.00044687  0.50268013  1
  Sb  Sb29  1  -0.00368859  0.74577599  0.25217894  1
  Sb  Sb30  1  -0.00162042  0.00314319  -0.00151612  1
  Sb  Sb31  1  -0.00355067  0.49691023  -0.00238320  1
  Te  Te32  1  0.25152649  0.25251263  0.24612003  1
  Te  Te33  1  0.25196071  0.24901840  0.75265450  1
  Te  Te34  1  0.25408335  0.74649769  0.25003947  1
  Te  Te35  1  0.24632596  0.75414891  0.74950785  1
  Te  Te36  1  0.74906535  0.25324613  0.24894639  1
  Te  Te37  1  0.74857050  0.25185130  0.75080607  1
  Te  Te38  1  0.74792863  0.74618561  0.25088052  1
  Te  Te39  1  0.75206616  0.74743192  0.74773568  1
  Te  Te40  1  0.25410104  0.00506983  -0.00311296  1
  Te  Te41  1  0.24948174  -0.00038729  0.50707128  1
  Te  Te42  1  0.25436613  0.49606075  0.00469529  1
  Te  Te43  1  0.24255646  0.50035880  0.49328689  1
  Te  Te44  1  0.74569975  0.00501522  0.00423725  1
  Te  Te45  1  0.75023931  -0.00772189  0.49324343  1
  Te  Te46  1  0.74714650  0.49669583  -0.00002284  1
  Te  Te47  1  0.75294442  0.50323734  0.50090839  1
  Te  Te48  1  -0.00022782  0.24993109  -0.00568133  1
  Te  Te49  1  -0.00003882  0.25503215  0.50800303  1
  Te  Te50  1  0.00059489  0.75069324  -0.00892399  1
  Te  Te51  1  -0.00431316  0.74613869  0.50397323  1
  Te  Te52  1  0.50155974  0.25143815  -0.00018536  1
  Te  Te53  1  0.50000976  0.24982771  0.50120337  1
  Te  Te54  1  0.49968796  0.74936267  0.00478874  1
  Te  Te55  1  0.50584043  0.75022416  0.49437148  1
  Te  Te56  1  -0.00696146  -0.00087820  0.25037892  1
  Te  Te57  1  0.00239614  0.00268376  0.74982298  1
  Te  Te58  1  -0.00307827  0.50057053  0.25338546  1
  Te  Te59  1  -0.00097883  0.49828790  0.74865936  1
  Te  Te60  1  0.50273905  0.00234148  0.24698086  1
  Te  Te61  1  0.49821876  0.00144293  0.75422922  1
  Te  Te62  1  0.50269141  0.49767645  0.25004065  1
  Te  Te63  1  0.50233515  0.49819595  0.75280465  1
