# generated using pymatgen
data_AgSbTe2
_symmetry_space_group_name_H-M   'P 1'
_cell_length_a   12.29420502
_cell_length_b   12.29593878
_cell_length_c   12.28953715
_cell_angle_alpha   90.00068907
_cell_angle_beta   90.00222104
_cell_angle_gamma   89.98844182
_symmetry_Int_Tables_number   1
_chemical_formula_structural   AgSbTe2
_chemical_formula_sum   'Ag16 Sb16 Te32'
_cell_volume   1857.79444911
_cell_formula_units_Z   16
loop_
 _symmetry_equiv_pos_site_id
 _symmetry_equiv_pos_as_xyz
  1  'x, y, z'
loop_
 _atom_site_type_symbol
 _atom_site_label
 _atom_site_symmetry_multiplicity
 _atom_site_fract_x
 _atom_site_fract_y
 _atom_site_fract_z
 _atom_site_occupancy
  Ag  Ag0  1  0.50905389  0.01855360  0.00115294  1
  Ag  Ag1  1  0.00643559  0.74880639  0.24080595  1
  Ag  Ag2  1  0.50227857  0.24999102  0.76992300  1
  Ag  Ag3  1  0.75385905  0.00711740  0.23525409  1
  Ag  Ag4  1  0.24549161  0.50262711  0.23515173  1
  Ag  Ag5  1  0.24515475  0.74151713  0.00295558  1
  Ag  Ag6  1  -0.00206675  0.24986936  0.77056684  1
  Ag  Ag7  1  0.01287278  0.48592829  0.00409118  1
  Ag  Ag8  1  -0.00819816  0.01729804  0.00413617  1
  Ag  Ag9  1  -0.00215967  0.24957880  0.23199630  1
  Ag  Ag10  1  0.75112687  0.00862942  0.76590430  1
  Ag  Ag11  1  0.75104980  0.24093217  0.00093842  1
  Ag  Ag12  1  0.50229544  0.24973906  0.23063357  1
  Ag  Ag13  1  0.24689965  0.74571895  0.49471366  1
  Ag  Ag14  1  0.48705333  0.48394149  0.00102741  1
  Ag  Ag15  1  0.24909013  0.49746244  0.76613040  1
  Sb  Sb16  1  0.24993869  0.25716598  0.00231760  1
  Sb  Sb17  1  0.00075379  0.00029837  0.49681566  1
  Sb  Sb18  1  0.49920589  0.00196665  0.49864623  1
  Sb  Sb19  1  0.00273547  0.74982503  0.75856580  1
  Sb  Sb20  1  0.49585927  0.75015579  0.24521638  1
  Sb  Sb21  1  0.24897534  -0.00004507  0.24282326  1
  Sb  Sb22  1  0.24916684  0.25045122  0.49836254  1
  Sb  Sb23  1  0.49446036  0.49775395  0.49892244  1
  Sb  Sb24  1  0.75091526  0.24828857  0.49878323  1
  Sb  Sb25  1  0.49826410  0.74951945  0.75499517  1
  Sb  Sb26  1  0.24990658  0.00475670  0.75748826  1
  Sb  Sb27  1  0.75081421  0.49206137  0.75836499  1
  Sb  Sb28  1  0.75409658  0.75429160  0.49550732  1
  Sb  Sb29  1  0.75162294  0.49432901  0.24396033  1
  Sb  Sb30  1  0.00344772  0.49979109  0.49621922  1
  Sb  Sb31  1  0.75379293  0.75740672  0.00204013  1
  Te  Te32  1  0.24814871  0.25350327  0.25433142  1
  Te  Te33  1  0.24858438  0.25661178  0.74402739  1
  Te  Te34  1  0.24796536  0.74901927  0.24355485  1
  Te  Te35  1  0.24914049  0.74038850  0.75539801  1
  Te  Te36  1  0.75205889  0.24790415  0.24753458  1
  Te  Te37  1  0.75141266  0.24680776  0.75205417  1
  Te  Te38  1  0.75846709  0.75948220  0.24950952  1
  Te  Te39  1  0.75062326  0.76425945  0.74804751  1
  Te  Te40  1  0.24901521  -0.01806154  -0.00034369  1
  Te  Te41  1  0.25034789  -0.01226167  0.50234013  1
  Te  Te42  1  0.24865066  0.50297469  0.00175883  1
  Te  Te43  1  0.24996331  0.50530778  0.49868244  1
  Te  Te44  1  0.75055658  0.00618888  0.00146588  1
  Te  Te45  1  0.74950959  -0.00148540  0.50016588  1
  Te  Te46  1  0.74909189  0.48963602  0.00040691  1
  Te  Te47  1  0.74892706  0.50430399  0.50142179  1
  Te  Te48  1  0.00863662  0.24872500  0.00009323  1
  Te  Te49  1  -0.00098442  0.25020548  0.49905639  1
  Te  Te50  1  -0.00053102  0.74782887  0.00418361  1
  Te  Te51  1  0.00415922  0.74996569  0.48820923  1
  Te  Te52  1  0.49006619  0.24871786  0.00078400  1
  Te  Te53  1  0.50085406  0.24944402  0.49963739  1
  Te  Te54  1  0.49648738  0.74706478  0.00040747  1
  Te  Te55  1  0.49214662  0.74982768  0.49950372  1
  Te  Te56  1  0.00157856  0.00922527  0.24714003  1
  Te  Te57  1  0.00182054  0.00359117  0.75426681  1
  Te  Te58  1  0.00095879  0.49402117  0.24676384  1
  Te  Te59  1  -0.00037776  0.49798499  0.75489534  1
  Te  Te60  1  0.49968119  0.00409580  0.24644845  1
  Te  Te61  1  0.49813638  0.00489462  0.75366524  1
  Te  Te62  1  0.49994927  0.49731900  0.24617085  1
  Te  Te63  1  0.50076247  0.49678241  0.75400867  1
