# generated using pymatgen
data_AgSbTe2
_symmetry_space_group_name_H-M   'P 1'
_cell_length_a   12.21008798
_cell_length_b   12.20795870
_cell_length_c   12.21167328
_cell_angle_alpha   89.99935749
_cell_angle_beta   90.00092215
_cell_angle_gamma   90.00012184
_symmetry_Int_Tables_number   1
_chemical_formula_structural   AgSbTe2
_chemical_formula_sum   'Ag16 Sb16 Te32'
_cell_volume   1820.27506927
_cell_formula_units_Z   16
loop_
 _symmetry_equiv_pos_site_id
 _symmetry_equiv_pos_as_xyz
  1  'x, y, z'
loop_
 _atom_site_type_symbol
 _atom_site_label
 _atom_site_symmetry_multiplicity
 _atom_site_fract_x
 _atom_site_fract_y
 _atom_site_fract_z
 _atom_site_occupancy
  Ag  Ag0  1  0.49481073  0.49823640  0.50221940  1
  Ag  Ag1  1  0.25220601  0.00552427  0.74623836  1
  Ag  Ag2  1  0.74950691  -0.00316717  0.25020501  1
  Ag  Ag3  1  0.25118300  0.75277880  0.00122438  1
  Ag  Ag4  1  0.74787051  0.00036264  0.74964743  1
  Ag  Ag5  1  0.25039119  -0.00280968  0.25353950  1
  Ag  Ag6  1  0.25236208  0.24623074  0.50640272  1
  Ag  Ag7  1  0.00600571  0.49980741  0.50086384  1
  Ag  Ag8  1  0.49268478  0.24684050  0.74756810  1
  Ag  Ag9  1  0.74878886  0.75266625  0.00104270  1
  Ag  Ag10  1  0.00326947  0.75225672  0.25091026  1
  Ag  Ag11  1  0.00796583  0.24795549  0.74793344  1
  Ag  Ag12  1  0.49356603  0.00155911  0.50280350  1
  Ag  Ag13  1  0.49681800  0.49993867  -0.00267474  1
  Ag  Ag14  1  0.25039559  0.75381754  0.49884658  1
  Ag  Ag15  1  0.25212130  0.24743883  -0.00674345  1
  Sb  Sb16  1  0.75043798  0.50473046  0.24916865  1
  Sb  Sb17  1  0.25174626  0.49183367  0.74759168  1
  Sb  Sb18  1  0.00358268  0.75163311  0.74796977  1
  Sb  Sb19  1  0.74703241  0.24732303  -0.00240558  1
  Sb  Sb20  1  0.49729038  0.75425027  0.74964209  1
  Sb  Sb21  1  0.00950611  0.00078805  0.50063296  1
  Sb  Sb22  1  0.24974121  0.50528337  0.25230436  1
  Sb  Sb23  1  0.75042670  0.75374085  0.49837061  1
  Sb  Sb24  1  0.74734456  0.24745728  0.50146298  1
  Sb  Sb25  1  0.74797211  0.50142661  0.75050315  1
  Sb  Sb26  1  0.00418410  0.24797656  0.25251941  1
  Sb  Sb27  1  0.00273395  -0.00052239  -0.00040796  1
  Sb  Sb28  1  0.00345422  0.50065032  -0.00137610  1
  Sb  Sb29  1  0.49672813  0.00101933  -0.00410478  1
  Sb  Sb30  1  0.49644833  0.24767661  0.25326375  1
  Sb  Sb31  1  0.49612446  0.75314129  0.24987417  1
  Te  Te32  1  0.24832176  0.24052945  0.24971872  1
  Te  Te33  1  0.25086856  0.24765377  0.74934011  1
  Te  Te34  1  0.24709538  0.75511302  0.24925595  1
  Te  Te35  1  0.24858674  0.75905051  0.75115140  1
  Te  Te36  1  0.75225404  0.23865938  0.24837047  1
  Te  Te37  1  0.74964956  0.24190657  0.75157765  1
  Te  Te38  1  0.75507034  0.75574564  0.24643233  1
  Te  Te39  1  0.75128642  0.75801454  0.75577652  1
  Te  Te40  1  0.25211522  -0.00141657  -0.00003401  1
  Te  Te41  1  0.25114322  -0.00014960  0.50069160  1
  Te  Te42  1  0.25492841  0.50173206  0.00133729  1
  Te  Te43  1  0.25314122  0.50052106  0.49921640  1
  Te  Te44  1  0.74777869  -0.00465825  0.00025910  1
  Te  Te45  1  0.74240074  -0.00166758  0.50053890  1
  Te  Te46  1  0.74350762  0.50630473  0.00084565  1
  Te  Te47  1  0.74579213  0.50091435  0.49926588  1
  Te  Te48  1  0.00684885  0.25323472  -0.00546980  1
  Te  Te49  1  0.00521754  0.25472847  0.50333874  1
  Te  Te50  1  0.00310033  0.74736651  0.00383521  1
  Te  Te51  1  0.00471272  0.74506564  0.49764437  1
  Te  Te52  1  0.49554068  0.25409134  -0.00467598  1
  Te  Te53  1  0.49668702  0.25083086  0.50271592  1
  Te  Te54  1  0.49703120  0.74460992  -0.00052844  1
  Te  Te55  1  0.49443408  0.74831497  0.50052310  1
  Te  Te56  1  0.00023841  -0.00408157  0.25050725  1
  Te  Te57  1  0.00015400  0.00524206  0.74947619  1
  Te  Te58  1  -0.00133478  0.50524969  0.25653724  1
  Te  Te59  1  -0.00201377  0.49342902  0.74370680  1
  Te  Te60  1  0.49938708  0.00016458  0.25678206  1
  Te  Te61  1  0.49835796  0.00335245  0.74652593  1
  Te  Te62  1  0.50135493  0.49894570  0.25285065  1
  Te  Te63  1  0.50164406  0.49335763  0.74745063  1
