# generated using pymatgen
data_AgSbTe2
_symmetry_space_group_name_H-M   'P 1'
_cell_length_a   12.31945263
_cell_length_b   12.33342493
_cell_length_c   12.32136091
_cell_angle_alpha   90.01330525
_cell_angle_beta   90.00062384
_cell_angle_gamma   89.99599672
_symmetry_Int_Tables_number   1
_chemical_formula_structural   AgSbTe2
_chemical_formula_sum   'Ag16 Sb16 Te32'
_cell_volume   1872.12038733
_cell_formula_units_Z   16
loop_
 _symmetry_equiv_pos_site_id
 _symmetry_equiv_pos_as_xyz
  1  'x, y, z'
loop_
 _atom_site_type_symbol
 _atom_site_label
 _atom_site_symmetry_multiplicity
 _atom_site_fract_x
 _atom_site_fract_y
 _atom_site_fract_z
 _atom_site_occupancy
  Ag  Ag0  1  -0.00802497  0.49852364  0.01919771  1
  Ag  Ag1  1  0.75441813  0.75537197  0.49253188  1
  Ag  Ag2  1  0.75894284  0.49866572  0.74265182  1
  Ag  Ag3  1  -0.01294807  -0.00027538  0.48989224  1
  Ag  Ag4  1  -0.00771555  0.25747748  0.73996142  1
  Ag  Ag5  1  -0.00920105  0.49832021  0.48300657  1
  Ag  Ag6  1  0.51991858  -0.00267797  0.49039696  1
  Ag  Ag7  1  -0.01017064  0.26632364  0.25564197  1
  Ag  Ag8  1  0.51040574  0.50032859  0.01218135  1
  Ag  Ag9  1  0.51511078  0.73758671  0.25377452  1
  Ag  Ag10  1  0.76371835  0.50606567  0.25611595  1
  Ag  Ag11  1  0.22764738  0.50029451  0.25077704  1
  Ag  Ag12  1  0.51403091  0.26284292  0.25258548  1
  Ag  Ag13  1  0.75389772  0.00008951  0.73249361  1
  Ag  Ag14  1  -0.01437974  0.72917342  0.25671155  1
  Ag  Ag15  1  0.75524036  -0.00900176  0.26543693  1
  Sb  Sb16  1  0.50797182  0.74827576  0.74453859  1
  Sb  Sb17  1  0.51023171  0.25318859  0.74538170  1
  Sb  Sb18  1  0.24925081  0.74560105  0.00593279  1
  Sb  Sb19  1  0.24703381  0.25300547  0.49775908  1
  Sb  Sb20  1  0.24264088  0.49811752  0.74911854  1
  Sb  Sb21  1  0.24865714  0.25265286  0.00258721  1
  Sb  Sb22  1  0.75328744  0.24621289  0.49532429  1
  Sb  Sb23  1  0.75018104  0.25305588  0.00393264  1
  Sb  Sb24  1  -0.00390889  0.00111524  0.00752580  1
  Sb  Sb25  1  -0.00536347  0.74692479  0.74531240  1
  Sb  Sb26  1  0.51546313  0.50227817  0.48985950  1
  Sb  Sb27  1  0.24811136  0.00165274  0.25210720  1
  Sb  Sb28  1  0.50582385  -0.00066209  0.00744972  1
  Sb  Sb29  1  0.24570348  0.74716445  0.49587129  1
  Sb  Sb30  1  0.74986448  0.74763195  0.00960512  1
  Sb  Sb31  1  0.24333647  0.00253424  0.74255186  1
  Te  Te32  1  0.24607793  0.25405089  0.24987429  1
  Te  Te33  1  0.23335887  0.24935359  0.75086330  1
  Te  Te34  1  0.25051402  0.74557020  0.25104629  1
  Te  Te35  1  0.25318879  0.75128116  0.75154662  1
  Te  Te36  1  0.75066245  0.25127334  0.24962399  1
  Te  Te37  1  0.75549004  0.25369436  0.75166072  1
  Te  Te38  1  0.75089347  0.75177368  0.25432094  1
  Te  Te39  1  0.74961199  0.74969276  0.73571987  1
  Te  Te40  1  0.25133983  -0.00113990  -0.00411591  1
  Te  Te41  1  0.24576283  -0.00070917  0.50159178  1
  Te  Te42  1  0.24768908  0.49981090  0.00364049  1
  Te  Te43  1  0.23448843  0.50043020  0.49853907  1
  Te  Te44  1  0.75030592  -0.00306570  -0.00646761  1
  Te  Te45  1  0.75218665  0.00130042  0.49574852  1
  Te  Te46  1  0.75173594  0.50120748  -0.00038304  1
  Te  Te47  1  0.75241861  0.50174595  0.49973030  1
  Te  Te48  1  -0.00084178  0.25263069  0.00850954  1
  Te  Te49  1  -0.00043034  0.24928866  0.49496611  1
  Te  Te50  1  0.00019440  0.74578113  0.00923410  1
  Te  Te51  1  -0.00089140  0.75353425  0.49703588  1
  Te  Te52  1  0.50059268  0.25408878  0.00859659  1
  Te  Te53  1  0.49734730  0.24386075  0.49460264  1
  Te  Te54  1  0.50000748  0.74605455  0.00946893  1
  Te  Te55  1  0.50322098  0.75086726  0.49590733  1
  Te  Te56  1  -0.00117129  0.00406106  0.25043793  1
  Te  Te57  1  -0.00383134  -0.00198134  0.75124635  1
  Te  Te58  1  -0.00131767  0.49979683  0.24990707  1
  Te  Te59  1  -0.00347657  0.50011567  0.74927719  1
  Te  Te60  1  0.49772742  0.00126129  0.25190981  1
  Te  Te61  1  0.50472237  0.00223098  0.74850648  1
  Te  Te62  1  0.51116684  0.49808005  0.25245241  1
  Te  Te63  1  0.50208024  0.49620086  0.75678726  1
