# generated using pymatgen
data_AgSbTe2
_symmetry_space_group_name_H-M   'P 1'
_cell_length_a   12.21401454
_cell_length_b   12.22121728
_cell_length_c   12.22047206
_cell_angle_alpha   90.00143268
_cell_angle_beta   89.99902027
_cell_angle_gamma   90.00646723
_symmetry_Int_Tables_number   1
_chemical_formula_structural   AgSbTe2
_chemical_formula_sum   'Ag16 Sb16 Te32'
_cell_volume   1824.15138532
_cell_formula_units_Z   16
loop_
 _symmetry_equiv_pos_site_id
 _symmetry_equiv_pos_as_xyz
  1  'x, y, z'
loop_
 _atom_site_type_symbol
 _atom_site_label
 _atom_site_symmetry_multiplicity
 _atom_site_fract_x
 _atom_site_fract_y
 _atom_site_fract_z
 _atom_site_occupancy
  Ag  Ag0  1  0.49849159  0.25586042  0.74633085  1
  Ag  Ag1  1  0.50094947  0.74394078  0.74723333  1
  Ag  Ag2  1  0.00373243  0.23646798  0.25307087  1
  Ag  Ag3  1  0.76405137  0.00079202  0.25218068  1
  Ag  Ag4  1  0.49698725  0.00295863  0.50025694  1
  Ag  Ag5  1  0.00050646  0.76411533  0.25392157  1
  Ag  Ag6  1  0.00256268  0.00084409  0.48643562  1
  Ag  Ag7  1  0.00121059  0.49966286  0.50105951  1
  Ag  Ag8  1  -0.00053653  0.75005917  0.74591755  1
  Ag  Ag9  1  0.49907473  0.49768563  -0.00822308  1
  Ag  Ag10  1  0.23659556  0.00395040  0.25294606  1
  Ag  Ag11  1  0.00220680  0.00110998  0.01316609  1
  Ag  Ag12  1  0.74530917  0.50072629  0.74785026  1
  Ag  Ag13  1  0.49934921  0.49726044  0.50779078  1
  Ag  Ag14  1  0.24954229  0.24802506  0.00204239  1
  Ag  Ag15  1  0.24961043  0.24720956  0.49814611  1
  Sb  Sb16  1  0.75026827  0.24950061  0.49980630  1
  Sb  Sb17  1  0.24948041  0.75297573  0.00134549  1
  Sb  Sb18  1  0.75020051  0.24928954  0.00031266  1
  Sb  Sb19  1  0.25607135  0.49898037  0.74773885  1
  Sb  Sb20  1  0.75062842  0.75048476  -0.00065271  1
  Sb  Sb21  1  0.24780345  0.49521204  0.25261148  1
  Sb  Sb22  1  0.75258837  0.75036001  0.50057545  1
  Sb  Sb23  1  0.49682877  0.00245885  -0.00081355  1
  Sb  Sb24  1  0.00197570  0.25080897  0.74611250  1
  Sb  Sb25  1  0.75149498  -0.00070878  0.74750662  1
  Sb  Sb26  1  0.49965552  0.75231365  0.25354742  1
  Sb  Sb27  1  0.49582666  0.24835785  0.25396691  1
  Sb  Sb28  1  0.24779756  0.75420857  0.49921048  1
  Sb  Sb29  1  0.00167982  0.49881199  -0.00288559  1
  Sb  Sb30  1  0.24884719  0.00167229  0.74561010  1
  Sb  Sb31  1  0.75281123  0.49924620  0.25215615  1
  Te  Te32  1  0.24640699  0.24661976  0.25142611  1
  Te  Te33  1  0.25498035  0.24909476  0.74933265  1
  Te  Te34  1  0.24349144  0.75860211  0.24907375  1
  Te  Te35  1  0.24867962  0.75044469  0.75072905  1
  Te  Te36  1  0.75875954  0.24517043  0.24944458  1
  Te  Te37  1  0.74189239  0.25549268  0.75042951  1
  Te  Te38  1  0.75693233  0.75557129  0.24921688  1
  Te  Te39  1  0.75000606  0.74557105  0.75048104  1
  Te  Te40  1  0.24689349  0.00527944  0.00565465  1
  Te  Te41  1  0.24936427  0.00435031  0.49716265  1
  Te  Te42  1  0.25532421  0.49168138  0.00206328  1
  Te  Te43  1  0.24985326  0.49192103  0.49831272  1
  Te  Te44  1  0.75588210  0.00067258  0.00639008  1
  Te  Te45  1  0.75064569  0.00042324  0.49596373  1
  Te  Te46  1  0.74325220  0.49947745  -0.00517948  1
  Te  Te47  1  0.74875965  0.49936308  0.50363956  1
  Te  Te48  1  0.00516856  0.24818252  0.00096448  1
  Te  Te49  1  0.00365306  0.24950419  0.50039852  1
  Te  Te50  1  0.00118988  0.75258639  -0.00175214  1
  Te  Te51  1  0.00200503  0.74983918  0.50135030  1
  Te  Te52  1  0.49519111  0.25181155  -0.00280493  1
  Te  Te53  1  0.49645903  0.25017654  0.50085828  1
  Te  Te54  1  0.49827397  0.74519256  -0.00686699  1
  Te  Te55  1  0.49773457  0.74878796  0.50462456  1
  Te  Te56  1  0.00026048  0.00018635  0.25212315  1
  Te  Te57  1  -0.00235495  -0.00470284  0.74822623  1
  Te  Te58  1  -0.00237348  0.50085805  0.25532503  1
  Te  Te59  1  -0.00468419  0.50347977  0.74654462  1
  Te  Te60  1  0.50009735  -0.00191731  0.25509351  1
  Te  Te61  1  0.50197475  -0.00136260  0.74539419  1
  Te  Te62  1  0.50212910  0.50196450  0.25335563  1
  Te  Te63  1  0.50055043  0.50103662  0.74675070  1
