# generated using pymatgen
data_AgSbTe2
_symmetry_space_group_name_H-M   'P 1'
_cell_length_a   12.34447489
_cell_length_b   12.31917351
_cell_length_c   12.30126816
_cell_angle_alpha   89.99962212
_cell_angle_beta   90.00794259
_cell_angle_gamma   89.99657425
_symmetry_Int_Tables_number   1
_chemical_formula_structural   AgSbTe2
_chemical_formula_sum   'Ag16 Sb16 Te32'
_cell_volume   1870.69968849
_cell_formula_units_Z   16
loop_
 _symmetry_equiv_pos_site_id
 _symmetry_equiv_pos_as_xyz
  1  'x, y, z'
loop_
 _atom_site_type_symbol
 _atom_site_label
 _atom_site_symmetry_multiplicity
 _atom_site_fract_x
 _atom_site_fract_y
 _atom_site_fract_z
 _atom_site_occupancy
  Ag  Ag0  1  0.00221851  -0.00092954  -0.00344349  1
  Ag  Ag1  1  0.26101851  -0.00731584  0.74614989  1
  Ag  Ag2  1  0.00547499  0.23710114  0.25097349  1
  Ag  Ag3  1  0.25275009  -0.00624802  0.25194616  1
  Ag  Ag4  1  0.73850108  -0.00891718  0.75208233  1
  Ag  Ag5  1  0.25584667  0.51703933  0.74513007  1
  Ag  Ag6  1  0.74357759  0.52061727  0.74644593  1
  Ag  Ag7  1  0.49860983  -0.00194504  -0.00818809  1
  Ag  Ag8  1  0.00263624  0.75996234  0.74638245  1
  Ag  Ag9  1  0.49832353  0.75806173  0.74505356  1
  Ag  Ag10  1  0.25073116  0.23303804  0.50600452  1
  Ag  Ag11  1  0.74521999  -0.00783202  0.24659013  1
  Ag  Ag12  1  0.49678664  0.75871952  0.25524433  1
  Ag  Ag13  1  0.74213790  0.75586958  0.51058382  1
  Ag  Ag14  1  0.25375739  0.75768640  0.50898067  1
  Ag  Ag15  1  0.49272261  0.23304770  0.75055907  1
  Sb  Sb16  1  0.25087526  0.24429306  -0.00355923  1
  Sb  Sb17  1  0.74848093  0.75410911  -0.00761789  1
  Sb  Sb18  1  0.00131084  0.50181232  0.50253833  1
  Sb  Sb19  1  0.25110263  0.50333156  0.25685572  1
  Sb  Sb20  1  0.00152961  -0.00166425  0.50265126  1
  Sb  Sb21  1  0.49887586  0.50410601  0.50234135  1
  Sb  Sb22  1  0.00030547  0.24630218  0.75128004  1
  Sb  Sb23  1  0.00072910  0.50268060  -0.00605590  1
  Sb  Sb24  1  0.74990939  0.24435344  -0.00147700  1
  Sb  Sb25  1  0.49953476  0.50377791  -0.00658047  1
  Sb  Sb26  1  0.49806501  0.23756402  0.24903074  1
  Sb  Sb27  1  0.49763490  -0.00212143  0.50460352  1
  Sb  Sb28  1  0.74805230  0.24517938  0.50263348  1
  Sb  Sb29  1  0.75018960  0.50917855  0.25438482  1
  Sb  Sb30  1  0.00266531  0.75436840  0.25307109  1
  Sb  Sb31  1  0.25150840  0.75451065  -0.00809067  1
  Te  Te32  1  0.25252908  0.25497869  0.25534560  1
  Te  Te33  1  0.25074565  0.23781230  0.74803039  1
  Te  Te34  1  0.24763537  0.74911594  0.25687232  1
  Te  Te35  1  0.25443056  0.75475892  0.75137097  1
  Te  Te36  1  0.74767576  0.24760104  0.25222462  1
  Te  Te37  1  0.74942204  0.23954265  0.74841193  1
  Te  Te38  1  0.75333943  0.75336763  0.25670970  1
  Te  Te39  1  0.74482025  0.75394710  0.75037550  1
  Te  Te40  1  0.25106781  -0.00151802  0.00440657  1
  Te  Te41  1  0.25115621  -0.00098057  0.49876748  1
  Te  Te42  1  0.24925309  0.49968798  -0.01192649  1
  Te  Te43  1  0.25041082  0.50824600  0.50456835  1
  Te  Te44  1  0.74852933  -0.00183924  0.00111779  1
  Te  Te45  1  0.75050436  -0.00329960  0.50010927  1
  Te  Te46  1  0.75073807  0.49899153  -0.01060348  1
  Te  Te47  1  0.74967932  0.50791936  0.50552402  1
  Te  Te48  1  -0.00032235  0.24290980  0.00425472  1
  Te  Te49  1  0.00657329  0.25157782  0.49606312  1
  Te  Te50  1  -0.00028468  0.75342254  -0.00566517  1
  Te  Te51  1  0.00541664  0.74816294  0.50494441  1
  Te  Te52  1  0.50095088  0.24402257  -0.00715351  1
  Te  Te53  1  0.49440074  0.25202427  0.50726196  1
  Te  Te54  1  0.50020599  0.75226590  0.00176196  1
  Te  Te55  1  0.49849526  0.75000946  0.50151917  1
  Te  Te56  1  0.00335032  0.00178300  0.24770871  1
  Te  Te57  1  -0.00027045  -0.00452198  0.75119803  1
  Te  Te58  1  -0.00127728  0.48674004  0.24678278  1
  Te  Te59  1  0.00057791  0.50527835  0.75072282  1
  Te  Te60  1  0.49891314  -0.00550614  0.24572801  1
  Te  Te61  1  0.49951633  -0.00015238  0.75039239  1
  Te  Te62  1  0.50185613  0.51652060  0.24671751  1
  Te  Te63  1  0.49887886  0.50739457  0.74995451  1
