# generated using pymatgen
data_AgSbTe2
_symmetry_space_group_name_H-M   'P 1'
_cell_length_a   12.31363672
_cell_length_b   12.35156356
_cell_length_c   12.35403702
_cell_angle_alpha   90.01679051
_cell_angle_beta   89.99086416
_cell_angle_gamma   90.00596175
_symmetry_Int_Tables_number   1
_chemical_formula_structural   AgSbTe2
_chemical_formula_sum   'Ag16 Sb16 Te32'
_cell_volume   1878.95831957
_cell_formula_units_Z   16
loop_
 _symmetry_equiv_pos_site_id
 _symmetry_equiv_pos_as_xyz
  1  'x, y, z'
loop_
 _atom_site_type_symbol
 _atom_site_label
 _atom_site_symmetry_multiplicity
 _atom_site_fract_x
 _atom_site_fract_y
 _atom_site_fract_z
 _atom_site_occupancy
  Ag  Ag0  1  0.24198608  -0.00446601  0.75220339  1
  Ag  Ag1  1  0.23770557  0.50585171  0.24046225  1
  Ag  Ag2  1  0.77283568  0.50103287  0.75388371  1
  Ag  Ag3  1  0.00581608  0.00323481  -0.01105823  1
  Ag  Ag4  1  0.24367865  0.26031724  -0.00458926  1
  Ag  Ag5  1  0.24228166  0.74292660  0.49986295  1
  Ag  Ag6  1  0.24239716  0.50068268  0.76137203  1
  Ag  Ag7  1  0.00456480  -0.00937965  0.51216672  1
  Ag  Ag8  1  0.48204970  0.50150100  -0.00024552  1
  Ag  Ag9  1  0.00932587  0.49485321  -0.01673277  1
  Ag  Ag10  1  0.00743058  0.73454819  0.74544986  1
  Ag  Ag11  1  0.00546137  0.73701831  0.25478208  1
  Ag  Ag12  1  0.00523917  0.26845089  0.75908305  1
  Ag  Ag13  1  0.00539499  0.26623814  0.24086035  1
  Ag  Ag14  1  0.48240268  0.74087725  0.24837622  1
  Ag  Ag15  1  0.00712116  0.50806398  0.51898381  1
  Sb  Sb16  1  0.48654187  -0.00075590  -0.00022334  1
  Sb  Sb17  1  0.75697158  0.74909460  0.00049681  1
  Sb  Sb18  1  0.48718377  -0.00652797  0.50038658  1
  Sb  Sb19  1  0.75991581  -0.00106452  0.25005889  1
  Sb  Sb20  1  0.49261451  0.50214029  0.50155051  1
  Sb  Sb21  1  0.76210449  0.74865124  0.50010989  1
  Sb  Sb22  1  0.24402443  0.25248190  0.50017083  1
  Sb  Sb23  1  0.24370889  0.74533474  0.00122575  1
  Sb  Sb24  1  0.76653142  -0.00030881  0.75008102  1
  Sb  Sb25  1  0.48677652  0.25755950  0.24497076  1
  Sb  Sb26  1  0.76127746  0.50005538  0.24823300  1
  Sb  Sb27  1  0.49054754  0.74593781  0.75139227  1
  Sb  Sb28  1  0.49184348  0.25371725  0.75268386  1
  Sb  Sb29  1  0.76290119  0.25226569  0.50039515  1
  Sb  Sb30  1  0.24361545  -0.00372854  0.24876344  1
  Sb  Sb31  1  0.76289320  0.25314212  0.00012698  1
  Te  Te32  1  0.24491756  0.25447131  0.25022036  1
  Te  Te33  1  0.24818032  0.25667938  0.74919668  1
  Te  Te34  1  0.24640432  0.74794467  0.24837834  1
  Te  Te35  1  0.24677809  0.74666621  0.75178955  1
  Te  Te36  1  0.76038838  0.24805070  0.24971892  1
  Te  Te37  1  0.75568747  0.25050297  0.75087128  1
  Te  Te38  1  0.75383133  0.75016549  0.25016905  1
  Te  Te39  1  0.75408347  0.74963485  0.74899771  1
  Te  Te40  1  0.24419302  0.00859884  -0.00198969  1
  Te  Te41  1  0.24489210  -0.00260231  0.50175285  1
  Te  Te42  1  0.24802452  0.49964397  0.00189694  1
  Te  Te43  1  0.24893822  0.50173243  0.49774530  1
  Te  Te44  1  0.75775764  0.00115194  -0.00017612  1
  Te  Te45  1  0.75926735  -0.00063060  0.50015965  1
  Te  Te46  1  0.75168879  0.49956858  -0.00118093  1
  Te  Te47  1  0.75483093  0.50156802  0.50469221  1
  Te  Te48  1  0.00182365  0.25405410  -0.00042536  1
  Te  Te49  1  0.00157793  0.25193908  0.49893067  1
  Te  Te50  1  -0.00019751  0.74880984  0.00076218  1
  Te  Te51  1  0.00188625  0.74767102  0.49948131  1
  Te  Te52  1  0.49067085  0.25289080  0.00009317  1
  Te  Te53  1  0.50574218  0.24541362  0.49753979  1
  Te  Te54  1  0.50359981  0.74596429  0.00455873  1
  Te  Te55  1  0.48942202  0.75060225  0.49470150  1
  Te  Te56  1  0.00098665  -0.00445901  0.24776303  1
  Te  Te57  1  0.00404570  -0.00349101  0.75132124  1
  Te  Te58  1  0.00032291  0.50086564  0.24653780  1
  Te  Te59  1  0.00141685  0.50032934  0.74934189  1
  Te  Te60  1  0.50313149  -0.00679004  0.24971396  1
  Te  Te61  1  0.49147175  0.00094085  0.75051043  1
  Te  Te62  1  0.49870702  0.50258713  0.24888473  1
  Te  Te63  1  0.49038614  0.49977965  0.75275981  1
