# generated using pymatgen
data_AgSbTe2
_symmetry_space_group_name_H-M   'P 1'
_cell_length_a   12.24310208
_cell_length_b   12.24994260
_cell_length_c   12.23400174
_cell_angle_alpha   90.00321797
_cell_angle_beta   89.99817536
_cell_angle_gamma   89.99832889
_symmetry_Int_Tables_number   1
_chemical_formula_structural   AgSbTe2
_chemical_formula_sum   'Ag16 Sb16 Te32'
_cell_volume   1834.82251805
_cell_formula_units_Z   16
loop_
 _symmetry_equiv_pos_site_id
 _symmetry_equiv_pos_as_xyz
  1  'x, y, z'
loop_
 _atom_site_type_symbol
 _atom_site_label
 _atom_site_symmetry_multiplicity
 _atom_site_fract_x
 _atom_site_fract_y
 _atom_site_fract_z
 _atom_site_occupancy
  Ag  Ag0  1  0.25590617  -0.00080318  0.24208685  1
  Ag  Ag1  1  0.74312967  0.00113949  0.24143568  1
  Ag  Ag2  1  0.73546663  0.24641045  0.00471035  1
  Ag  Ag3  1  0.00194310  0.75164124  0.75637613  1
  Ag  Ag4  1  0.26439080  0.24624215  0.00495553  1
  Ag  Ag5  1  0.26088041  0.50079989  0.24459216  1
  Ag  Ag6  1  0.49915934  0.01295696  0.00611727  1
  Ag  Ag7  1  0.49769492  0.49951531  0.48890866  1
  Ag  Ag8  1  0.73852800  0.49827758  0.24399600  1
  Ag  Ag9  1  0.49954677  0.25432408  0.23770288  1
  Ag  Ag10  1  0.49899007  0.48525899  0.00819973  1
  Ag  Ag11  1  0.49951870  0.25066898  0.76677509  1
  Ag  Ag12  1  0.74636189  0.75450000  0.00354635  1
  Ag  Ag13  1  0.25255836  0.74851084  0.49428441  1
  Ag  Ag14  1  0.25297042  0.75430012  0.00468735  1
  Ag  Ag15  1  0.00071095  -0.00310838  0.00251056  1
  Sb  Sb16  1  0.49797614  -0.00081105  0.49244475  1
  Sb  Sb17  1  0.00198249  0.75120761  0.24540209  1
  Sb  Sb18  1  0.00277281  -0.00335411  0.49700465  1
  Sb  Sb19  1  0.00260052  0.50351041  0.49681695  1
  Sb  Sb20  1  0.25456556  0.25111112  0.49339704  1
  Sb  Sb21  1  0.00078219  0.24821024  0.75897401  1
  Sb  Sb22  1  0.49826724  0.74569559  0.24476847  1
  Sb  Sb23  1  0.74523585  0.25102202  0.49375167  1
  Sb  Sb24  1  0.25303720  0.50041469  0.75609629  1
  Sb  Sb25  1  0.00013103  0.24875236  0.24563051  1
  Sb  Sb26  1  0.74822218  0.00026631  0.76123037  1
  Sb  Sb27  1  0.49923704  0.75092160  0.75660817  1
  Sb  Sb28  1  0.74803401  0.74828242  0.49735735  1
  Sb  Sb29  1  0.00017960  0.50280405  0.00170973  1
  Sb  Sb30  1  0.74634445  0.49930236  0.75712478  1
  Sb  Sb31  1  0.25152799  -0.00068052  0.76029443  1
  Te  Te32  1  0.25077908  0.25097054  0.24648697  1
  Te  Te33  1  0.25318175  0.24955345  0.75612027  1
  Te  Te34  1  0.24894419  0.74944798  0.24567078  1
  Te  Te35  1  0.24828411  0.75010057  0.75377913  1
  Te  Te36  1  0.74921595  0.25116732  0.24643424  1
  Te  Te37  1  0.74635839  0.24992605  0.75588761  1
  Te  Te38  1  0.75199763  0.74997535  0.24553394  1
  Te  Te39  1  0.75366994  0.75022606  0.75424445  1
  Te  Te40  1  0.25300489  -0.00230531  0.00230100  1
  Te  Te41  1  0.24960544  -0.00520816  0.48904703  1
  Te  Te42  1  0.25017030  0.50185854  0.00333337  1
  Te  Te43  1  0.25362075  0.50304141  0.49315260  1
  Te  Te44  1  0.74700739  -0.00203435  0.00293524  1
  Te  Te45  1  0.75086066  -0.00149683  0.48686401  1
  Te  Te46  1  0.75067553  0.50108687  0.00386247  1
  Te  Te47  1  0.74510527  0.50157331  0.49066575  1
  Te  Te48  1  0.00023335  0.24325730  -0.00094755  1
  Te  Te49  1  -0.00061084  0.25000012  0.50472231  1
  Te  Te50  1  0.00169033  0.75321458  -0.00200475  1
  Te  Te51  1  0.00553233  0.75024061  0.50848434  1
  Te  Te52  1  0.49960811  0.25115207  0.00302309  1
  Te  Te53  1  0.49989857  0.25448961  0.49893175  1
  Te  Te54  1  0.49938184  0.75060530  -0.00164353  1
  Te  Te55  1  0.49491193  0.74546982  0.50446235  1
  Te  Te56  1  0.00137008  0.00014308  0.24552448  1
  Te  Te57  1  -0.00037205  -0.00362970  0.75426368  1
  Te  Te58  1  -0.00008929  0.50009291  0.25082886  1
  Te  Te59  1  -0.00106464  0.50597234  0.74811237  1
  Te  Te60  1  0.49885776  0.00332404  0.24780127  1
  Te  Te61  1  0.50031175  0.00632696  0.75309534  1
  Te  Te62  1  0.49893509  0.49904639  0.24674979  1
  Te  Te63  1  0.50027196  0.49512217  0.75278101  1
