# generated using pymatgen
data_AgSbTe2
_symmetry_space_group_name_H-M   'P 1'
_cell_length_a   12.21917998
_cell_length_b   12.21976506
_cell_length_c   12.21307618
_cell_angle_alpha   89.99764957
_cell_angle_beta   89.99489837
_cell_angle_gamma   89.99743345
_symmetry_Int_Tables_number   1
_chemical_formula_structural   AgSbTe2
_chemical_formula_sum   'Ag16 Sb16 Te32'
_cell_volume   1823.60167162
_cell_formula_units_Z   16
loop_
 _symmetry_equiv_pos_site_id
 _symmetry_equiv_pos_as_xyz
  1  'x, y, z'
loop_
 _atom_site_type_symbol
 _atom_site_label
 _atom_site_symmetry_multiplicity
 _atom_site_fract_x
 _atom_site_fract_y
 _atom_site_fract_z
 _atom_site_occupancy
  Ag  Ag0  1  0.49779915  0.25208756  0.25540134  1
  Ag  Ag1  1  0.00125603  0.00330257  0.49592848  1
  Ag  Ag2  1  0.24922938  0.75152519  0.00762475  1
  Ag  Ag3  1  0.24587977  0.25210094  0.49512431  1
  Ag  Ag4  1  0.49849009  0.74798607  0.74447746  1
  Ag  Ag5  1  0.75286428  0.24833194  0.00313219  1
  Ag  Ag6  1  0.24621314  -0.00369656  0.25169278  1
  Ag  Ag7  1  0.75472276  0.25169440  0.49746770  1
  Ag  Ag8  1  -0.00031614  0.24921142  0.74380326  1
  Ag  Ag9  1  0.00619635  0.75222838  0.25408909  1
  Ag  Ag10  1  0.49868647  0.50132211  0.49477612  1
  Ag  Ag11  1  0.25133246  0.50267734  0.25475248  1
  Ag  Ag12  1  0.74980119  0.74869607  0.49687815  1
  Ag  Ag13  1  0.00147905  0.49619793  0.49639580  1
  Ag  Ag14  1  0.00220312  0.00087738  0.00481415  1
  Ag  Ag15  1  0.49350240  0.74714533  0.25460192  1
  Sb  Sb16  1  0.75151491  0.75183557  0.00224580  1
  Sb  Sb17  1  0.24979572  0.50107732  0.74389246  1
  Sb  Sb18  1  0.00239159  0.24816228  0.25697712  1
  Sb  Sb19  1  0.00228925  0.49892689  0.00503130  1
  Sb  Sb20  1  0.49833213  -0.00107751  0.49597601  1
  Sb  Sb21  1  0.74922896  0.49941487  0.25459251  1
  Sb  Sb22  1  0.49788607  0.49997460  0.00620305  1
  Sb  Sb23  1  0.75160865  0.00033024  0.74831398  1
  Sb  Sb24  1  0.24750207  -0.00089198  0.74618012  1
  Sb  Sb25  1  0.49736246  0.00037783  0.00394987  1
  Sb  Sb26  1  0.75497135  0.00052642  0.25134882  1
  Sb  Sb27  1  0.75059689  0.50007945  0.74606667  1
  Sb  Sb28  1  0.24736446  0.24833809  0.00509472  1
  Sb  Sb29  1  0.00154745  0.75002513  0.74519529  1
  Sb  Sb30  1  0.25037198  0.74755835  0.49180387  1
  Sb  Sb31  1  0.50037528  0.25234421  0.74449707  1
  Te  Te32  1  0.25292908  0.25023000  0.25268240  1
  Te  Te33  1  0.24726808  0.25017999  0.74511352  1
  Te  Te34  1  0.25019023  0.75091251  0.24983446  1
  Te  Te35  1  0.25403090  0.74985238  0.75930664  1
  Te  Te36  1  0.74380510  0.24945325  0.25362189  1
  Te  Te37  1  0.75257599  0.24996552  0.74636608  1
  Te  Te38  1  0.74891022  0.75047860  0.25403418  1
  Te  Te39  1  0.74474068  0.75008944  0.74553449  1
  Te  Te40  1  0.24471966  -0.00289290  0.00556006  1
  Te  Te41  1  0.24497716  0.00474144  0.49570192  1
  Te  Te42  1  0.24926512  0.50463101  0.00891570  1
  Te  Te43  1  0.24975187  0.49769670  0.49502971  1
  Te  Te44  1  0.75823312  0.00541184  0.00066689  1
  Te  Te45  1  0.75671441  0.00108345  0.49915878  1
  Te  Te46  1  0.75053589  0.49167597  -0.00057433  1
  Te  Te47  1  0.75062713  0.49864427  0.49890898  1
  Te  Te48  1  -0.00210376  0.24784557  -0.00303151  1
  Te  Te49  1  -0.00211756  0.25042529  0.49832510  1
  Te  Te50  1  -0.00035605  0.75195015  0.00136255  1
  Te  Te51  1  -0.00152870  0.75012433  0.49956948  1
  Te  Te52  1  0.50424062  0.25009986  0.00204389  1
  Te  Te53  1  0.50185587  0.25080860  0.49903084  1
  Te  Te54  1  0.49948857  0.74963200  0.00462074  1
  Te  Te55  1  0.50098679  0.74903401  0.49554296  1
  Te  Te56  1  0.00428234  -0.00205931  0.25162993  1
  Te  Te57  1  0.00078165  0.00388815  0.74826309  1
  Te  Te58  1  0.00517323  0.50489067  0.25522675  1
  Te  Te59  1  0.00109977  0.49503831  0.74204560  1
  Te  Te60  1  0.49204237  -0.00070070  0.25005439  1
  Te  Te61  1  0.49937553  -0.00800675  0.75098323  1
  Te  Te62  1  0.49623705  0.50097251  0.25466386  1
  Te  Te63  1  0.49878892  0.50521399  0.74147909  1
