# generated using pymatgen
data_AgSbTe2
_symmetry_space_group_name_H-M   'P 1'
_cell_length_a   12.24824968
_cell_length_b   12.22562542
_cell_length_c   12.24096008
_cell_angle_alpha   90.00277926
_cell_angle_beta   89.99864533
_cell_angle_gamma   89.99400650
_symmetry_Int_Tables_number   1
_chemical_formula_structural   AgSbTe2
_chemical_formula_sum   'Ag16 Sb16 Te32'
_cell_volume   1832.99210741
_cell_formula_units_Z   16
loop_
 _symmetry_equiv_pos_site_id
 _symmetry_equiv_pos_as_xyz
  1  'x, y, z'
loop_
 _atom_site_type_symbol
 _atom_site_label
 _atom_site_symmetry_multiplicity
 _atom_site_fract_x
 _atom_site_fract_y
 _atom_site_fract_z
 _atom_site_occupancy
  Ag  Ag0  1  0.00522292  0.75213216  0.75292669  1
  Ag  Ag1  1  0.24749896  0.51270149  0.75252382  1
  Ag  Ag2  1  0.49508593  0.74847732  0.24204584  1
  Ag  Ag3  1  0.24942968  0.50868140  0.24689212  1
  Ag  Ag4  1  0.24697533  -0.01215564  0.75533490  1
  Ag  Ag5  1  0.50292782  -0.01049545  -0.00159623  1
  Ag  Ag6  1  0.75224630  -0.00785036  0.75779993  1
  Ag  Ag7  1  -0.00269675  -0.00886732  -0.00404540  1
  Ag  Ag8  1  0.75655341  0.75062005  0.50253190  1
  Ag  Ag9  1  0.74977668  0.75498209  -0.00278164  1
  Ag  Ag10  1  0.00466268  0.74888834  0.24778511  1
  Ag  Ag11  1  0.24345482  0.74685796  0.50339321  1
  Ag  Ag12  1  0.74993276  0.24491369  -0.00219454  1
  Ag  Ag13  1  0.49681425  0.51162241  0.00102714  1
  Ag  Ag14  1  0.24984092  0.74987489  -0.00266276  1
  Ag  Ag15  1  0.00339799  0.50873803  0.50069417  1
  Sb  Sb16  1  0.24929293  0.24983201  -0.00098637  1
  Sb  Sb17  1  0.75023982  0.50566196  0.24827568  1
  Sb  Sb18  1  0.75230937  0.50969334  0.75301658  1
  Sb  Sb19  1  0.24825204  0.25222281  0.50181441  1
  Sb  Sb20  1  0.75041725  -0.00566595  0.24168658  1
  Sb  Sb21  1  0.49350412  0.75013512  0.75959461  1
  Sb  Sb22  1  0.49886796  -0.00783305  0.50104426  1
  Sb  Sb23  1  0.50059243  0.24959684  0.75371782  1
  Sb  Sb24  1  0.49902708  0.25170170  0.24413704  1
  Sb  Sb25  1  0.49722848  0.50757824  0.50011988  1
  Sb  Sb26  1  -0.00063292  0.24867290  0.75268687  1
  Sb  Sb27  1  0.00095077  -0.00973288  0.50366510  1
  Sb  Sb28  1  0.00324553  0.50953683  -0.00025627  1
  Sb  Sb29  1  0.24903854  -0.01052512  0.24424411  1
  Sb  Sb30  1  0.00081801  0.25127015  0.24585684  1
  Sb  Sb31  1  0.75273131  0.24831078  0.50346575  1
  Te  Te32  1  0.24949072  0.26261727  0.25140143  1
  Te  Te33  1  0.25006759  0.24947722  0.74941140  1
  Te  Te34  1  0.24758773  0.74903515  0.24789663  1
  Te  Te35  1  0.24927707  0.74997116  0.75217465  1
  Te  Te36  1  0.75038814  0.25013274  0.24399128  1
  Te  Te37  1  0.75009228  0.24185684  0.75477684  1
  Te  Te38  1  0.75287072  0.75018591  0.24959226  1
  Te  Te39  1  0.75394868  0.75190814  0.75138146  1
  Te  Te40  1  0.25041281  -0.00084859  -0.00239690  1
  Te  Te41  1  0.25011699  -0.00364510  0.50767560  1
  Te  Te42  1  0.25111943  0.50025220  -0.00208488  1
  Te  Te43  1  0.24863361  0.50296820  0.50316749  1
  Te  Te44  1  0.74917248  -0.00658078  -0.00193862  1
  Te  Te45  1  0.74989542  -0.00382890  0.50854903  1
  Te  Te46  1  0.74567393  0.50382989  -0.00156886  1
  Te  Te47  1  0.75297089  0.50398250  0.50099396  1
  Te  Te48  1  -0.00587336  0.24023485  0.00062779  1
  Te  Te49  1  -0.00111513  0.26148611  0.49839806  1
  Te  Te50  1  0.00143036  0.75064640  -0.00132730  1
  Te  Te51  1  0.00120266  0.74892540  0.49985125  1
  Te  Te52  1  0.50517857  0.24853814  0.00103185  1
  Te  Te53  1  0.50208300  0.24934068  0.49838290  1
  Te  Te54  1  0.49900684  0.74972535  0.00170368  1
  Te  Te55  1  0.50106221  0.75033139  0.48828832  1
  Te  Te56  1  0.00121383  -0.00524072  0.24548257  1
  Te  Te57  1  0.00194186  -0.00310441  0.75239508  1
  Te  Te58  1  0.00362363  0.50533512  0.25065755  1
  Te  Te59  1  0.00376570  0.50373535  0.74936218  1
  Te  Te60  1  0.49911957  -0.00427128  0.24427746  1
  Te  Te61  1  0.49862545  0.00005540  0.75527888  1
  Te  Te62  1  0.49646516  0.50384719  0.24561873  1
  Te  Te63  1  0.49354474  0.49952441  0.75519105  1
