# generated using pymatgen
data_AgSbTe2
_symmetry_space_group_name_H-M   'P 1'
_cell_length_a   12.22617298
_cell_length_b   12.23447046
_cell_length_c   12.22898078
_cell_angle_alpha   89.99456469
_cell_angle_beta   90.00645263
_cell_angle_gamma   89.99637698
_symmetry_Int_Tables_number   1
_chemical_formula_structural   AgSbTe2
_chemical_formula_sum   'Ag16 Sb16 Te32'
_cell_volume   1829.22012022
_cell_formula_units_Z   16
loop_
 _symmetry_equiv_pos_site_id
 _symmetry_equiv_pos_as_xyz
  1  'x, y, z'
loop_
 _atom_site_type_symbol
 _atom_site_label
 _atom_site_symmetry_multiplicity
 _atom_site_fract_x
 _atom_site_fract_y
 _atom_site_fract_z
 _atom_site_occupancy
  Ag  Ag0  1  0.25231298  0.49549761  0.24375696  1
  Ag  Ag1  1  0.25193996  0.24971201  0.00684148  1
  Ag  Ag2  1  0.73481374  0.00034284  0.25032947  1
  Ag  Ag3  1  0.74371343  0.75215104  0.49880687  1
  Ag  Ag4  1  0.74786078  0.49898112  0.75160635  1
  Ag  Ag5  1  0.00412730  0.49465831  0.00103362  1
  Ag  Ag6  1  0.49417234  0.23591546  0.24526300  1
  Ag  Ag7  1  0.00133230  0.25268368  0.75622743  1
  Ag  Ag8  1  0.50089519  -0.00177476  0.48563712  1
  Ag  Ag9  1  0.26430927  0.00409664  0.24519275  1
  Ag  Ag10  1  0.25548234  0.75091774  0.00455391  1
  Ag  Ag11  1  0.49646901  0.00134618  0.01393278  1
  Ag  Ag12  1  0.49876447  0.24691628  0.75511388  1
  Ag  Ag13  1  0.50055011  0.75311945  0.75190706  1
  Ag  Ag14  1  0.00780074  0.24948333  0.24304250  1
  Ag  Ag15  1  0.49724799  0.76454175  0.24796737  1
  Sb  Sb16  1  0.74337575  0.75067975  0.00069404  1
  Sb  Sb17  1  0.00213863  0.75080854  0.24737497  1
  Sb  Sb18  1  0.00351536  0.00414454  0.00296652  1
  Sb  Sb19  1  0.49644875  0.49885144  0.00143060  1
  Sb  Sb20  1  0.74847189  0.49936794  0.24868242  1
  Sb  Sb21  1  0.25504350  0.75269151  0.49706159  1
  Sb  Sb22  1  0.25086908  0.49784269  0.75435223  1
  Sb  Sb23  1  0.25214466  0.24862282  0.49310040  1
  Sb  Sb24  1  0.74678099  0.24974437  0.00022682  1
  Sb  Sb25  1  0.25459487  0.00167432  0.75429503  1
  Sb  Sb26  1  0.74735314  0.24779737  0.49935028  1
  Sb  Sb27  1  -0.00092752  0.74826517  0.75426095  1
  Sb  Sb28  1  0.50133165  0.50159035  0.49941557  1
  Sb  Sb29  1  -0.00113054  0.49862517  0.49876322  1
  Sb  Sb30  1  0.00010918  0.00066067  0.49660723  1
  Sb  Sb31  1  0.74545715  0.00014813  0.75036259  1
  Te  Te32  1  0.25181678  0.24917941  0.24790810  1
  Te  Te33  1  0.25302619  0.25045024  0.75557212  1
  Te  Te34  1  0.25237244  0.75094589  0.24774408  1
  Te  Te35  1  0.25572269  0.74976203  0.75357031  1
  Te  Te36  1  0.74717220  0.24831945  0.25064533  1
  Te  Te37  1  0.74693598  0.25335478  0.74943532  1
  Te  Te38  1  0.74716054  0.75133931  0.25141377  1
  Te  Te39  1  0.74614624  0.74797929  0.74912541  1
  Te  Te40  1  0.25319347  0.00120282  0.00310333  1
  Te  Te41  1  0.25497429  -0.00092744  0.49181123  1
  Te  Te42  1  0.24706326  0.49773556  0.00388467  1
  Te  Te43  1  0.24940983  0.50119902  0.48910250  1
  Te  Te44  1  0.74378577  -0.00084982  0.00618765  1
  Te  Te45  1  0.74598294  -0.00358154  0.49541752  1
  Te  Te46  1  0.75857688  0.50040795  -0.00470907  1
  Te  Te47  1  0.75004857  0.50636844  0.50536423  1
  Te  Te48  1  0.00331842  0.25100178  0.00132435  1
  Te  Te49  1  -0.00028378  0.24947008  0.50184010  1
  Te  Te50  1  0.00915816  0.74594140  -0.00100816  1
  Te  Te51  1  -0.00835193  0.75057599  0.50123695  1
  Te  Te52  1  0.49760474  0.24954427  -0.00011871  1
  Te  Te53  1  0.50000901  0.24506649  0.50183365  1
  Te  Te54  1  0.49592696  0.74963245  0.00049475  1
  Te  Te55  1  0.50224350  0.75242494  0.50052295  1
  Te  Te56  1  -0.00014795  0.00525476  0.25013322  1
  Te  Te57  1  -0.00041963  0.00870254  0.74951358  1
  Te  Te58  1  0.00074456  0.49558195  0.24764932  1
  Te  Te59  1  -0.00146021  0.49550823  0.75211739  1
  Te  Te60  1  0.50029949  0.00000740  0.24776737  1
  Te  Te61  1  0.49997423  0.00162961  0.75103788  1
  Te  Te62  1  0.49817315  0.49871038  0.24996324  1
  Te  Te63  1  0.50245472  0.49795887  0.74995861  1
