# generated using pymatgen
data_AgSbTe2
_symmetry_space_group_name_H-M   'P 1'
_cell_length_a   12.22313101
_cell_length_b   12.21527242
_cell_length_c   12.22649114
_cell_angle_alpha   90.00067571
_cell_angle_beta   89.99631782
_cell_angle_gamma   89.99820692
_symmetry_Int_Tables_number   1
_chemical_formula_structural   AgSbTe2
_chemical_formula_sum   'Ag16 Sb16 Te32'
_cell_volume   1825.52363451
_cell_formula_units_Z   16
loop_
 _symmetry_equiv_pos_site_id
 _symmetry_equiv_pos_as_xyz
  1  'x, y, z'
loop_
 _atom_site_type_symbol
 _atom_site_label
 _atom_site_symmetry_multiplicity
 _atom_site_fract_x
 _atom_site_fract_y
 _atom_site_fract_z
 _atom_site_occupancy
  Ag  Ag0  1  -0.00546449  0.74842000  0.24656645  1
  Ag  Ag1  1  -0.00594747  -0.00544817  -0.00144572  1
  Ag  Ag2  1  0.74937227  0.50696719  0.75653972  1
  Ag  Ag3  1  0.74750397  0.50779493  0.24299691  1
  Ag  Ag4  1  -0.00864033  0.74946641  0.75376408  1
  Ag  Ag5  1  0.25476217  0.74946828  0.49732221  1
  Ag  Ag6  1  0.50527788  -0.00989513  0.00011481  1
  Ag  Ag7  1  0.25201137  0.50692209  0.24843010  1
  Ag  Ag8  1  0.74575962  0.74618564  -0.00044064  1
  Ag  Ag9  1  0.75076572  0.25306720  -0.00233117  1
  Ag  Ag10  1  0.50703722  0.50914478  0.00201384  1
  Ag  Ag11  1  0.50804471  0.74953458  0.75248128  1
  Ag  Ag12  1  0.50214866  -0.00835526  0.50007880  1
  Ag  Ag13  1  -0.00513208  0.25046664  0.75424458  1
  Ag  Ag14  1  0.50523113  0.74752776  0.24761258  1
  Ag  Ag15  1  0.74521834  0.74903960  0.50045201  1
  Sb  Sb16  1  0.25167358  0.50551812  0.75229272  1
  Sb  Sb17  1  0.25495051  0.74836089  0.00462377  1
  Sb  Sb18  1  -0.00474624  0.25124052  0.24334670  1
  Sb  Sb19  1  0.50328860  0.25385144  0.24752170  1
  Sb  Sb20  1  0.74943048  -0.01111672  0.75440823  1
  Sb  Sb21  1  0.50178683  0.51192077  0.49654467  1
  Sb  Sb22  1  -0.01091060  0.50896258  -0.00038873  1
  Sb  Sb23  1  0.25124736  0.25120817  0.49986337  1
  Sb  Sb24  1  -0.00125479  0.50488572  0.50008757  1
  Sb  Sb25  1  0.25048129  -0.00471869  0.74996228  1
  Sb  Sb26  1  0.25189062  -0.00904473  0.25064650  1
  Sb  Sb27  1  -0.00375487  -0.00670453  0.50145716  1
  Sb  Sb28  1  0.74952473  0.25143308  0.50352214  1
  Sb  Sb29  1  0.50756548  0.25157732  0.75400472  1
  Sb  Sb30  1  0.24720979  0.25211646  -0.00018503  1
  Sb  Sb31  1  0.74808775  -0.01245909  0.24530011  1
  Te  Te32  1  0.24822299  0.26321620  0.25194596  1
  Te  Te33  1  0.23815137  0.25290813  0.74817392  1
  Te  Te34  1  0.25026078  0.74480967  0.25430458  1
  Te  Te35  1  0.24906039  0.74713810  0.74062234  1
  Te  Te36  1  0.75193907  0.26391380  0.24425994  1
  Te  Te37  1  0.75456478  0.26056874  0.75349278  1
  Te  Te38  1  0.74929858  0.74668777  0.24845450  1
  Te  Te39  1  0.74997431  0.74714422  0.75161164  1
  Te  Te40  1  0.25281969  0.00215019  0.00040619  1
  Te  Te41  1  0.25779787  -0.00627456  0.49978189  1
  Te  Te42  1  0.26190279  0.49810694  0.00585130  1
  Te  Te43  1  0.25097228  0.50560661  0.49307328  1
  Te  Te44  1  0.74809927  -0.00092520  0.00115960  1
  Te  Te45  1  0.74407228  -0.00533137  0.49845133  1
  Te  Te46  1  0.74814180  0.50362555  -0.00031671  1
  Te  Te47  1  0.74894562  0.50481149  0.50034782  1
  Te  Te48  1  -0.00458688  0.24159536  -0.00395057  1
  Te  Te49  1  -0.00045138  0.24553253  0.50974525  1
  Te  Te50  1  -0.00145296  0.75266960  -0.00085662  1
  Te  Te51  1  -0.00246085  0.75290554  0.50052988  1
  Te  Te52  1  0.50664228  0.24686350  -0.00117749  1
  Te  Te53  1  0.50009441  0.23506185  0.50083425  1
  Te  Te54  1  0.49904770  0.75129426  0.00011029  1
  Te  Te55  1  0.50274719  0.75179060  0.50006636  1
  Te  Te56  1  0.00145299  -0.00601850  0.24368081  1
  Te  Te57  1  0.00084883  -0.00416167  0.75542259  1
  Te  Te58  1  -0.00166170  0.50591546  0.24974749  1
  Te  Te59  1  -0.00383189  0.50446975  0.75028458  1
  Te  Te60  1  0.49915349  -0.00573123  0.24635705  1
  Te  Te61  1  0.49939324  -0.00509162  0.75367281  1
  Te  Te62  1  0.50317079  0.50375968  0.24690703  1
  Te  Te63  1  0.50325167  0.50365073  0.75559823  1
