# generated using pymatgen
data_AgSbTe2
_symmetry_space_group_name_H-M   'P 1'
_cell_length_a   12.21814940
_cell_length_b   12.21625102
_cell_length_c   12.22230616
_cell_angle_alpha   90.00846272
_cell_angle_beta   89.99991643
_cell_angle_gamma   89.99573853
_symmetry_Int_Tables_number   1
_chemical_formula_structural   AgSbTe2
_chemical_formula_sum   'Ag16 Sb16 Te32'
_cell_volume   1824.30114802
_cell_formula_units_Z   16
loop_
 _symmetry_equiv_pos_site_id
 _symmetry_equiv_pos_as_xyz
  1  'x, y, z'
loop_
 _atom_site_type_symbol
 _atom_site_label
 _atom_site_symmetry_multiplicity
 _atom_site_fract_x
 _atom_site_fract_y
 _atom_site_fract_z
 _atom_site_occupancy
  Ag  Ag0  1  0.24751095  0.00034457  0.25165010  1
  Ag  Ag1  1  0.00839380  0.00485565  0.50059889  1
  Ag  Ag2  1  0.00782559  -0.00254655  -0.00139104  1
  Ag  Ag3  1  0.49142498  -0.00109272  0.50058345  1
  Ag  Ag4  1  0.00480211  0.24577924  0.25566460  1
  Ag  Ag5  1  0.24369289  0.24312597  0.49983127  1
  Ag  Ag6  1  0.24747359  0.50537890  0.74803308  1
  Ag  Ag7  1  0.49549853  0.75450733  0.24952315  1
  Ag  Ag8  1  0.00852996  0.75378206  0.75191133  1
  Ag  Ag9  1  0.75748018  0.24732127  0.49934914  1
  Ag  Ag10  1  0.24814594  0.75699897  -0.00592923  1
  Ag  Ag11  1  0.75118015  0.75329415  -0.00125446  1
  Ag  Ag12  1  0.00419632  0.49579295  0.50216610  1
  Ag  Ag13  1  0.24685982  -0.00478673  0.74912509  1
  Ag  Ag14  1  0.24588792  0.24200777  -0.00013403  1
  Ag  Ag15  1  0.49115106  0.75332783  0.75084803  1
  Sb  Sb16  1  0.00489380  0.24540244  0.74303653  1
  Sb  Sb17  1  0.75431091  0.50298882  0.74738538  1
  Sb  Sb18  1  0.00380406  0.50189777  -0.00334727  1
  Sb  Sb19  1  0.75140545  0.75226162  0.49983871  1
  Sb  Sb20  1  0.75220356  -0.00096524  0.25084518  1
  Sb  Sb21  1  0.00566936  0.75495421  0.24869740  1
  Sb  Sb22  1  0.75693706  0.24582276  0.00083236  1
  Sb  Sb23  1  0.49470375  0.50133509  0.50270006  1
  Sb  Sb24  1  0.49444367  0.24455043  0.74865956  1
  Sb  Sb25  1  0.24887358  0.75954783  0.50806279  1
  Sb  Sb26  1  0.75377887  -0.00213276  0.74912080  1
  Sb  Sb27  1  0.24780975  0.50090789  0.25338469  1
  Sb  Sb28  1  0.49353398  0.24415370  0.25263104  1
  Sb  Sb29  1  0.75196444  0.50094443  0.25176519  1
  Sb  Sb30  1  0.48975601  -0.00395876  -0.00101960  1
  Sb  Sb31  1  0.49656167  0.50294397  -0.00210866  1
  Te  Te32  1  0.24778927  0.24789734  0.24972398  1
  Te  Te33  1  0.25008544  0.24791151  0.75118745  1
  Te  Te34  1  0.25201649  0.75219328  0.24291394  1
  Te  Te35  1  0.24897641  0.75258792  0.75014094  1
  Te  Te36  1  0.75525490  0.25025142  0.25297591  1
  Te  Te37  1  0.74724353  0.25078751  0.74587267  1
  Te  Te38  1  0.74353850  0.75054654  0.24396546  1
  Te  Te39  1  0.74956048  0.74959951  0.75498268  1
  Te  Te40  1  0.24783984  0.00001596  -0.00118204  1
  Te  Te41  1  0.24815305  0.00042328  0.50031532  1
  Te  Te42  1  0.24866588  0.49941073  -0.00618207  1
  Te  Te43  1  0.24650380  0.49182529  0.50384609  1
  Te  Te44  1  0.75936847  -0.00310186  -0.00019239  1
  Te  Te45  1  0.75164081  0.00452424  0.50019731  1
  Te  Te46  1  0.75066468  0.50567483  -0.00041352  1
  Te  Te47  1  0.75630455  0.49287910  0.50093846  1
  Te  Te48  1  0.00195179  0.24675320  0.00406251  1
  Te  Te49  1  0.00294588  0.24624312  0.50086487  1
  Te  Te50  1  0.00331220  0.75225509  -0.00115878  1
  Te  Te51  1  -0.00200112  0.75225284  0.50183934  1
  Te  Te52  1  0.49569198  0.25016825  0.00110040  1
  Te  Te53  1  0.49801529  0.24565062  0.49882477  1
  Te  Te54  1  0.49830829  0.75212728  -0.00197082  1
  Te  Te55  1  0.50224148  0.75349755  0.50106202  1
  Te  Te56  1  0.00475989  0.00173484  0.25202297  1
  Te  Te57  1  0.00340522  -0.00313775  0.74914752  1
  Te  Te58  1  0.00127670  0.49371891  0.25800341  1
  Te  Te59  1  0.00481738  0.50660514  0.74581716  1
  Te  Te60  1  0.49402086  -0.00416965  0.25456377  1
  Te  Te61  1  0.49445046  -0.00547814  0.74582292  1
  Te  Te62  1  0.49999949  0.51014176  0.25105688  1
  Te  Te63  1  0.49249443  0.50946548  0.74879126  1
