# generated using pymatgen
data_AgSbTe2
_symmetry_space_group_name_H-M   'P 1'
_cell_length_a   12.25292859
_cell_length_b   12.26400432
_cell_length_c   12.25475870
_cell_angle_alpha   90.00263150
_cell_angle_beta   90.01290486
_cell_angle_gamma   89.99971094
_symmetry_Int_Tables_number   1
_chemical_formula_structural   AgSbTe2
_chemical_formula_sum   'Ag16 Sb16 Te32'
_cell_volume   1841.52216254
_cell_formula_units_Z   16
loop_
 _symmetry_equiv_pos_site_id
 _symmetry_equiv_pos_as_xyz
  1  'x, y, z'
loop_
 _atom_site_type_symbol
 _atom_site_label
 _atom_site_symmetry_multiplicity
 _atom_site_fract_x
 _atom_site_fract_y
 _atom_site_fract_z
 _atom_site_occupancy
  Ag  Ag0  1  0.24657728  0.73887245  0.00970505  1
  Ag  Ag1  1  0.01126453  0.74267253  0.24265189  1
  Ag  Ag2  1  0.48693238  0.49687416  0.01016633  1
  Ag  Ag3  1  0.49670668  0.25344642  0.75596671  1
  Ag  Ag4  1  0.01279907  0.49956038  0.00599730  1
  Ag  Ag5  1  0.00321649  0.25304983  0.75833866  1
  Ag  Ag6  1  0.74965841  0.74847611  0.49954550  1
  Ag  Ag7  1  0.48740947  0.26230135  0.24322002  1
  Ag  Ag8  1  0.00028757  0.74708473  0.75589129  1
  Ag  Ag9  1  0.24977964  0.00058167  0.24568511  1
  Ag  Ag10  1  0.49811049  0.50068571  0.48966515  1
  Ag  Ag11  1  0.24924836  0.26089135  0.00894363  1
  Ag  Ag12  1  0.75237871  -0.00068702  0.74787203  1
  Ag  Ag13  1  0.25490068  0.49949430  0.23971920  1
  Ag  Ag14  1  0.01324340  0.25767667  0.24060666  1
  Ag  Ag15  1  0.48930296  0.73849208  0.24701275  1
  Sb  Sb16  1  0.00405111  0.50174475  0.49153872  1
  Sb  Sb17  1  0.75366557  0.74852447  -0.00018137  1
  Sb  Sb18  1  0.00302091  0.00196595  0.00073151  1
  Sb  Sb19  1  0.75161803  0.25135914  -0.00072420  1
  Sb  Sb20  1  0.75158954  0.50170982  0.74835931  1
  Sb  Sb21  1  0.50071906  -0.00223172  0.49908322  1
  Sb  Sb22  1  0.25126284  0.25370759  0.48858883  1
  Sb  Sb23  1  0.49889113  0.74633041  0.75332927  1
  Sb  Sb24  1  0.24935792  0.00206832  0.75392125  1
  Sb  Sb25  1  0.74771851  0.25277520  0.50138763  1
  Sb  Sb26  1  -0.00055183  -0.00157013  0.49987981  1
  Sb  Sb27  1  0.75148964  -0.00173917  0.25216936  1
  Sb  Sb28  1  0.49742957  0.00530038  0.00096023  1
  Sb  Sb29  1  0.25215957  0.74698066  0.48892856  1
  Sb  Sb30  1  0.24929482  0.49778341  0.76322491  1
  Sb  Sb31  1  0.74304893  0.50163736  0.25089443  1
  Te  Te32  1  0.24951114  0.25335858  0.24618300  1
  Te  Te33  1  0.24670953  0.24699272  0.76020860  1
  Te  Te34  1  0.24879753  0.74679683  0.24623501  1
  Te  Te35  1  0.24297095  0.75441381  0.76007912  1
  Te  Te36  1  0.75157434  0.24393040  0.25182369  1
  Te  Te37  1  0.75354599  0.24441461  0.74830913  1
  Te  Te38  1  0.75179619  0.75508024  0.25338479  1
  Te  Te39  1  0.75392739  0.75338230  0.74864753  1
  Te  Te40  1  0.25033750  -0.00018078  0.01017604  1
  Te  Te41  1  0.25027516  -0.00151141  0.48434171  1
  Te  Te42  1  0.24978187  0.49924692  0.00544665  1
  Te  Te43  1  0.25969397  0.50087876  0.48377861  1
  Te  Te44  1  0.74838310  -0.00159222  -0.01197130  1
  Te  Te45  1  0.74957773  -0.01044981  0.50767078  1
  Te  Te46  1  0.74980736  0.50121941  0.00053456  1
  Te  Te47  1  0.73836859  0.50882271  0.50006966  1
  Te  Te48  1  0.00170126  0.25437857  0.00119697  1
  Te  Te49  1  -0.00071526  0.25442407  0.50272043  1
  Te  Te50  1  0.00208264  0.74456097  0.00336680  1
  Te  Te51  1  -0.00394041  0.74529800  0.50036802  1
  Te  Te52  1  0.49750203  0.25477197  0.00319668  1
  Te  Te53  1  0.50084830  0.25831596  0.49912156  1
  Te  Te54  1  0.49618675  0.74144976  0.00266612  1
  Te  Te55  1  0.50127043  0.74420651  0.49850156  1
  Te  Te56  1  0.00310747  0.00022839  0.24967933  1
  Te  Te57  1  -0.00109843  0.00306897  0.75039240  1
  Te  Te58  1  0.00268351  0.49960754  0.24875115  1
  Te  Te59  1  0.00145074  0.49709032  0.75392235  1
  Te  Te60  1  0.49658202  0.00079621  0.25107943  1
  Te  Te61  1  0.50138469  0.00973624  0.74879312  1
  Te  Te62  1  0.50073222  0.49879640  0.24517226  1
  Te  Te63  1  0.49858224  0.49264793  0.75307551  1
