# generated using pymatgen
data_AgSbTe2
_symmetry_space_group_name_H-M   'P 1'
_cell_length_a   12.26107199
_cell_length_b   12.26289791
_cell_length_c   12.25717685
_cell_angle_alpha   89.99588289
_cell_angle_beta   90.00023789
_cell_angle_gamma   90.00144153
_symmetry_Int_Tables_number   1
_chemical_formula_structural   AgSbTe2
_chemical_formula_sum   'Ag16 Sb16 Te32'
_cell_volume   1842.94343728
_cell_formula_units_Z   16
loop_
 _symmetry_equiv_pos_site_id
 _symmetry_equiv_pos_as_xyz
  1  'x, y, z'
loop_
 _atom_site_type_symbol
 _atom_site_label
 _atom_site_symmetry_multiplicity
 _atom_site_fract_x
 _atom_site_fract_y
 _atom_site_fract_z
 _atom_site_occupancy
  Ag  Ag0  1  0.50523445  0.49553952  0.49623606  1
  Ag  Ag1  1  0.74497262  0.48708435  0.75581199  1
  Ag  Ag2  1  -0.01442292  0.25064700  0.75938637  1
  Ag  Ag3  1  0.25736301  0.75195230  0.00409682  1
  Ag  Ag4  1  0.50911586  0.25128554  0.23943881  1
  Ag  Ag5  1  -0.00725977  0.74745527  0.24358066  1
  Ag  Ag6  1  0.51266722  0.24777269  0.76119027  1
  Ag  Ag7  1  0.74319901  0.75062552  0.00635762  1
  Ag  Ag8  1  0.50603234  0.00695087  0.00021947  1
  Ag  Ag9  1  0.74409244  0.49671536  0.24558977  1
  Ag  Ag10  1  0.50671571  0.74829511  0.24156014  1
  Ag  Ag11  1  0.25963588  0.24820976  0.00104413  1
  Ag  Ag12  1  0.50487465  0.00415482  0.49914631  1
  Ag  Ag13  1  0.74112649  0.24910943  -0.00474546  1
  Ag  Ag14  1  -0.00941073  0.25246105  0.24134921  1
  Ag  Ag15  1  0.74320372  0.01277764  0.75763214  1
  Sb  Sb16  1  0.74402621  0.24915197  0.50463270  1
  Sb  Sb17  1  0.25919264  0.49724113  0.75200243  1
  Sb  Sb18  1  0.25833535  0.49878246  0.24839612  1
  Sb  Sb19  1  0.50578436  0.49030932  0.00425552  1
  Sb  Sb20  1  -0.00930003  0.00115489  0.50106226  1
  Sb  Sb21  1  -0.00439334  0.49605553  0.00223401  1
  Sb  Sb22  1  -0.00885736  0.00296894  -0.00106096  1
  Sb  Sb23  1  0.25418749  0.24928667  0.49646202  1
  Sb  Sb24  1  0.25811024  0.00214457  0.75338780  1
  Sb  Sb25  1  0.74668318  0.75119373  0.48858204  1
  Sb  Sb26  1  0.74562194  0.00662034  0.24202730  1
  Sb  Sb27  1  0.25352841  0.00089056  0.24622843  1
  Sb  Sb28  1  0.50345158  0.75079514  0.76343846  1
  Sb  Sb29  1  -0.00595745  0.74762729  0.75892802  1
  Sb  Sb30  1  0.25444327  0.75105820  0.49452708  1
  Sb  Sb31  1  -0.00665290  0.49919647  0.49872457  1
  Te  Te32  1  0.24895471  0.25129511  0.23872770  1
  Te  Te33  1  0.24995682  0.25122618  0.76297828  1
  Te  Te34  1  0.25119503  0.74888721  0.23921992  1
  Te  Te35  1  0.24546254  0.74872461  0.76553620  1
  Te  Te36  1  0.74792274  0.24953598  0.24635533  1
  Te  Te37  1  0.74736537  0.25319036  0.75102046  1
  Te  Te38  1  0.74681429  0.74836331  0.24352794  1
  Te  Te39  1  0.75304745  0.74586772  0.76344724  1
  Te  Te40  1  0.26402952  0.00110312  -0.00047335  1
  Te  Te41  1  0.26777646  -0.00152971  0.50313228  1
  Te  Te42  1  0.24875310  0.50041694  -0.00020724  1
  Te  Te43  1  0.26607889  0.50127019  0.50132413  1
  Te  Te44  1  0.74301535  0.00238784  -0.00446196  1
  Te  Te45  1  0.73897179  -0.00205390  0.51501410  1
  Te  Te46  1  0.74868617  0.49933982  -0.00006197  1
  Te  Te47  1  0.74101991  0.50089365  0.49907601  1
  Te  Te48  1  -0.00206092  0.24725053  0.00353165  1
  Te  Te49  1  0.00698004  0.24857896  0.49448030  1
  Te  Te50  1  -0.00162745  0.75407892  0.00836708  1
  Te  Te51  1  0.00364989  0.75119925  0.48439436  1
  Te  Te52  1  0.50377328  0.25094424  0.00186733  1
  Te  Te53  1  0.49815222  0.24701607  0.49591122  1
  Te  Te54  1  0.50350570  0.75428939  0.00360451  1
  Te  Te55  1  0.49820756  0.75292769  0.48732140  1
  Te  Te56  1  -0.00206457  0.00390283  0.25267178  1
  Te  Te57  1  -0.01105345  0.00930736  0.74754555  1
  Te  Te58  1  -0.01121351  0.49598434  0.25239997  1
  Te  Te59  1  -0.01260951  0.49134807  0.74528717  1
  Te  Te60  1  0.50350087  0.00282282  0.24884287  1
  Te  Te61  1  0.50529415  0.00273016  0.75290933  1
  Te  Te62  1  0.50608765  0.49772261  0.25200589  1
  Te  Te63  1  0.50708437  0.49546487  0.74298240  1
