# generated using pymatgen
data_AgSbTe2
_symmetry_space_group_name_H-M   'P 1'
_cell_length_a   12.21976326
_cell_length_b   12.21688648
_cell_length_c   12.22148281
_cell_angle_alpha   90.00145267
_cell_angle_beta   89.99970854
_cell_angle_gamma   90.00000580
_symmetry_Int_Tables_number   1
_chemical_formula_structural   AgSbTe2
_chemical_formula_sum   'Ag16 Sb16 Te32'
_cell_volume   1824.51413231
_cell_formula_units_Z   16
loop_
 _symmetry_equiv_pos_site_id
 _symmetry_equiv_pos_as_xyz
  1  'x, y, z'
loop_
 _atom_site_type_symbol
 _atom_site_label
 _atom_site_symmetry_multiplicity
 _atom_site_fract_x
 _atom_site_fract_y
 _atom_site_fract_z
 _atom_site_occupancy
  Ag  Ag0  1  0.49946944  -0.00515090  -0.00080757  1
  Ag  Ag1  1  0.00158921  -0.00411381  0.50447656  1
  Ag  Ag2  1  0.24484327  -0.00468038  0.75375962  1
  Ag  Ag3  1  0.24498945  0.50499334  0.75555534  1
  Ag  Ag4  1  0.75596299  0.50225351  0.75895623  1
  Ag  Ag5  1  0.00084845  -0.00232988  -0.00424512  1
  Ag  Ag6  1  -0.00046044  0.25055094  0.75458627  1
  Ag  Ag7  1  0.75178810  0.74471324  0.00153163  1
  Ag  Ag8  1  0.50013491  0.74845383  0.24577522  1
  Ag  Ag9  1  0.24854250  0.74802319  -0.00079025  1
  Ag  Ag10  1  0.24881350  0.50650539  0.24474347  1
  Ag  Ag11  1  -0.00334970  0.50243741  -0.00335936  1
  Ag  Ag12  1  0.24770623  0.75002295  0.50108405  1
  Ag  Ag13  1  0.75246446  0.74860902  0.49897557  1
  Ag  Ag14  1  0.75438340  0.25541629  -0.00174955  1
  Ag  Ag15  1  0.75123304  0.50527284  0.24168607  1
  Sb  Sb16  1  0.50178542  0.25129710  0.24503132  1
  Sb  Sb17  1  -0.00156594  0.25225054  0.24472543  1
  Sb  Sb18  1  0.00049702  0.50478864  0.50507782  1
  Sb  Sb19  1  0.75028175  -0.00703822  0.24717552  1
  Sb  Sb20  1  -0.00059642  0.74773509  0.24707416  1
  Sb  Sb21  1  0.49965246  0.50402975  0.49931790  1
  Sb  Sb22  1  0.75484352  0.25209536  0.50175825  1
  Sb  Sb23  1  0.00208239  0.74913394  0.75359276  1
  Sb  Sb24  1  0.24629828  0.24943790  0.50215165  1
  Sb  Sb25  1  0.24574852  0.25235614  -0.00169785  1
  Sb  Sb26  1  0.49825253  0.75074213  0.75572072  1
  Sb  Sb27  1  0.75679351  -0.00319165  0.75295422  1
  Sb  Sb28  1  0.49799471  -0.00594160  0.50184883  1
  Sb  Sb29  1  0.50194892  0.24910207  0.75474039  1
  Sb  Sb30  1  0.50386253  0.50539885  0.00075010  1
  Sb  Sb31  1  0.24940719  -0.00806392  0.24580992  1
  Te  Te32  1  0.25068265  0.26286176  0.25093626  1
  Te  Te33  1  0.24581811  0.25251314  0.74965375  1
  Te  Te34  1  0.25248117  0.74594353  0.24851345  1
  Te  Te35  1  0.25172905  0.74800547  0.75121800  1
  Te  Te36  1  0.74930512  0.26024965  0.24541658  1
  Te  Te37  1  0.75322730  0.25608370  0.75344241  1
  Te  Te38  1  0.74780157  0.74582038  0.24810803  1
  Te  Te39  1  0.74786003  0.74509534  0.75063649  1
  Te  Te40  1  0.24543020  -0.00184417  -0.00153569  1
  Te  Te41  1  0.24675308  -0.00531716  0.50318685  1
  Te  Te42  1  0.24905737  0.50168363  -0.00224517  1
  Te  Te43  1  0.24879476  0.50662859  0.50174331  1
  Te  Te44  1  0.75428511  -0.00412921  -0.00090401  1
  Te  Te45  1  0.75434738  -0.00650295  0.50044804  1
  Te  Te46  1  0.74912990  0.50417504  -0.00104174  1
  Te  Te47  1  0.75104460  0.50556464  0.50009043  1
  Te  Te48  1  -0.00415255  0.24974657  -0.00377803  1
  Te  Te49  1  -0.00062649  0.24028073  0.50785832  1
  Te  Te50  1  -0.00008925  0.74978541  0.00027068  1
  Te  Te51  1  0.00016199  0.75514244  0.49898704  1
  Te  Te52  1  0.50932758  0.23869066  0.00047347  1
  Te  Te53  1  0.50052873  0.24710871  0.49880788  1
  Te  Te54  1  0.49964655  0.75441101  0.00393940  1
  Te  Te55  1  0.50018599  0.75172023  0.49161949  1
  Te  Te56  1  0.00057784  0.00291443  0.24748096  1
  Te  Te57  1  0.00304832  0.00317635  0.75410866  1
  Te  Te58  1  -0.00003716  0.49826419  0.24426616  1
  Te  Te59  1  0.00083901  0.49730793  0.75302738  1
  Te  Te60  1  0.49956378  -0.00503864  0.24387066  1
  Te  Te61  1  0.49057653  0.00096044  0.75560153  1
  Te  Te62  1  0.49942485  0.50459399  0.25001876  1
  Te  Te63  1  0.49703168  0.49899505  0.74957131  1
