# generated using pymatgen
data_AgSbTe2
_symmetry_space_group_name_H-M   'P 1'
_cell_length_a   12.21368537
_cell_length_b   12.22511120
_cell_length_c   12.22884305
_cell_angle_alpha   89.99210518
_cell_angle_beta   90.00427685
_cell_angle_gamma   89.99802101
_symmetry_Int_Tables_number   1
_chemical_formula_structural   AgSbTe2
_chemical_formula_sum   'Ag16 Sb16 Te32'
_cell_volume   1825.93331328
_cell_formula_units_Z   16
loop_
 _symmetry_equiv_pos_site_id
 _symmetry_equiv_pos_as_xyz
  1  'x, y, z'
loop_
 _atom_site_type_symbol
 _atom_site_label
 _atom_site_symmetry_multiplicity
 _atom_site_fract_x
 _atom_site_fract_y
 _atom_site_fract_z
 _atom_site_occupancy
  Ag  Ag0  1  -0.00555827  0.74689800  0.24684341  1
  Ag  Ag1  1  0.75544608  0.24486139  0.00449903  1
  Ag  Ag2  1  -0.00363769  0.25079119  0.75377594  1
  Ag  Ag3  1  0.50697466  0.24930871  0.25029699  1
  Ag  Ag4  1  0.50673578  0.00506744  0.49789457  1
  Ag  Ag5  1  0.24467226  0.25146854  0.00117315  1
  Ag  Ag6  1  -0.00771068  0.00195113  -0.00072752  1
  Ag  Ag7  1  0.75514773  0.49461882  0.24930400  1
  Ag  Ag8  1  0.24408335  0.49646272  0.24890048  1
  Ag  Ag9  1  -0.00322135  0.74937988  0.75332704  1
  Ag  Ag10  1  -0.00196800  0.49788302  0.49818134  1
  Ag  Ag11  1  0.75521699  0.00369685  0.75422997  1
  Ag  Ag12  1  0.24246702  0.49677117  0.75103152  1
  Ag  Ag13  1  0.75248508  0.00615609  0.24581079  1
  Ag  Ag14  1  0.75178030  0.24753079  0.49487959  1
  Ag  Ag15  1  0.75765133  0.75477721  0.00308338  1
  Sb  Sb16  1  0.24155359  0.74911574  0.00055906  1
  Sb  Sb17  1  0.24737414  0.00315967  0.24705778  1
  Sb  Sb18  1  0.50386441  0.75085929  0.24914766  1
  Sb  Sb19  1  0.50247362  0.49705504  0.49752799  1
  Sb  Sb20  1  -0.00503485  0.00281455  0.50020830  1
  Sb  Sb21  1  0.24492717  0.00173694  0.75241611  1
  Sb  Sb22  1  -0.00071538  0.49744879  0.00181206  1
  Sb  Sb23  1  0.24669477  0.74848892  0.49972519  1
  Sb  Sb24  1  0.50273503  0.24842278  0.74955904  1
  Sb  Sb25  1  0.24694914  0.25206369  0.49851441  1
  Sb  Sb26  1  0.50925376  0.00364257  0.00140914  1
  Sb  Sb27  1  -0.00647960  0.25245308  0.24660744  1
  Sb  Sb28  1  0.50093958  0.49757429  0.00148114  1
  Sb  Sb29  1  0.75654262  0.49777075  0.75005164  1
  Sb  Sb30  1  0.75348149  0.75137369  0.49783470  1
  Sb  Sb31  1  0.50335255  0.75171073  0.75099042  1
  Te  Te32  1  0.25304103  0.25359378  0.24706410  1
  Te  Te33  1  0.24727832  0.25273016  0.75338394  1
  Te  Te34  1  0.24566210  0.74355571  0.24831875  1
  Te  Te35  1  0.24347989  0.74592087  0.75150143  1
  Te  Te36  1  0.75151561  0.24948739  0.24842531  1
  Te  Te37  1  0.75238178  0.24898177  0.75227006  1
  Te  Te38  1  0.75295012  0.74941403  0.24758236  1
  Te  Te39  1  0.75481730  0.75118088  0.75374817  1
  Te  Te40  1  0.24240511  0.00587176  0.00011241  1
  Te  Te41  1  0.25834434  0.00047033  0.49969933  1
  Te  Te42  1  0.25134697  0.49531972  0.00207351  1
  Te  Te43  1  0.24620169  0.49926561  0.49788451  1
  Te  Te44  1  0.75308520  0.00343531  0.00123432  1
  Te  Te45  1  0.74958577  0.00375835  0.49867745  1
  Te  Te46  1  0.74859581  0.49754481  0.00419006  1
  Te  Te47  1  0.75388725  0.49553753  0.49658594  1
  Te  Te48  1  -0.00254894  0.24684174  -0.00261807  1
  Te  Te49  1  -0.00451058  0.25362258  0.50576705  1
  Te  Te50  1  -0.00387651  0.75436682  -0.00028152  1
  Te  Te51  1  -0.00064888  0.74506434  0.50065375  1
  Te  Te52  1  0.50115022  0.24908603  0.00490148  1
  Te  Te53  1  0.50588689  0.24696252  0.49619796  1
  Te  Te54  1  0.50984632  0.75087303  -0.00053252  1
  Te  Te55  1  0.49969974  0.75717145  0.50026044  1
  Te  Te56  1  -0.00360759  -0.00442652  0.24945576  1
  Te  Te57  1  -0.00356558  0.00023645  0.74957828  1
  Te  Te58  1  -0.00152438  0.50161604  0.25234265  1
  Te  Te59  1  0.00187067  0.49966047  0.74701060  1
  Te  Te60  1  0.50326466  0.00284515  0.25225201  1
  Te  Te61  1  0.50632732  -0.00089431  0.74557930  1
  Te  Te62  1  0.50077430  0.49625405  0.25129074  1
  Te  Te63  1  0.48840743  0.50133869  0.74798472  1
