# generated using pymatgen
data_AgSbTe2
_symmetry_space_group_name_H-M   'P 1'
_cell_length_a   12.25744204
_cell_length_b   12.25099520
_cell_length_c   12.27427897
_cell_angle_alpha   89.99899083
_cell_angle_beta   90.00207052
_cell_angle_gamma   90.00501615
_symmetry_Int_Tables_number   1
_chemical_formula_structural   AgSbTe2
_chemical_formula_sum   'Ag16 Sb16 Te32'
_cell_volume   1843.17769267
_cell_formula_units_Z   16
loop_
 _symmetry_equiv_pos_site_id
 _symmetry_equiv_pos_as_xyz
  1  'x, y, z'
loop_
 _atom_site_type_symbol
 _atom_site_label
 _atom_site_symmetry_multiplicity
 _atom_site_fract_x
 _atom_site_fract_y
 _atom_site_fract_z
 _atom_site_occupancy
  Ag  Ag0  1  0.24438737  0.49981145  0.24815827  1
  Ag  Ag1  1  0.76631559  0.75154790  -0.00250936  1
  Ag  Ag2  1  0.00734547  0.25036006  0.76104103  1
  Ag  Ag3  1  0.75698425  0.24733749  0.50117693  1
  Ag  Ag4  1  0.00744974  0.74919973  0.23658054  1
  Ag  Ag5  1  0.24656135  0.74818129  0.50818876  1
  Ag  Ag6  1  0.48713508  0.75043516  0.75001959  1
  Ag  Ag7  1  0.49497815  -0.00054953  0.50414733  1
  Ag  Ag8  1  0.24327237  0.25180883  0.50231168  1
  Ag  Ag9  1  0.23328215  0.25239477  -0.00240996  1
  Ag  Ag10  1  0.00578173  0.25085301  0.23910549  1
  Ag  Ag11  1  0.00234219  0.00013297  -0.00145690  1
  Ag  Ag12  1  0.01194216  0.74941065  0.76348356  1
  Ag  Ag13  1  0.76727427  0.24812966  -0.00142059  1
  Ag  Ag14  1  0.23474779  0.74739380  -0.00801201  1
  Ag  Ag15  1  0.24562264  0.50509123  0.75147531  1
  Sb  Sb16  1  0.49086585  0.25028055  0.25068244  1
  Sb  Sb17  1  0.75309701  0.00188137  0.24954593  1
  Sb  Sb18  1  0.75129729  0.00258104  0.75050929  1
  Sb  Sb19  1  0.00337877  0.49682488  0.50032814  1
  Sb  Sb20  1  0.48939123  0.75003828  0.25017154  1
  Sb  Sb21  1  0.00383799  0.49974087  -0.00085746  1
  Sb  Sb22  1  0.75674033  0.49840968  0.75083243  1
  Sb  Sb23  1  0.75888526  0.49881934  0.24884031  1
  Sb  Sb24  1  0.75293339  0.75376288  0.50048709  1
  Sb  Sb25  1  0.24607936  0.00077238  0.24944566  1
  Sb  Sb26  1  0.49658335  0.50203918  0.50316210  1
  Sb  Sb27  1  0.48809053  0.24897873  0.74840324  1
  Sb  Sb28  1  0.00336622  0.00310343  0.50365140  1
  Sb  Sb29  1  0.24879792  -0.00827391  0.75022969  1
  Sb  Sb30  1  0.49602949  0.50188101  -0.00332187  1
  Sb  Sb31  1  0.49691560  -0.00176370  -0.00466180  1
  Te  Te32  1  0.24526095  0.25345847  0.25013969  1
  Te  Te33  1  0.24869103  0.25579207  0.74991578  1
  Te  Te34  1  0.24526872  0.74611004  0.24933396  1
  Te  Te35  1  0.24437141  0.74851374  0.75048731  1
  Te  Te36  1  0.76045884  0.25377245  0.24657708  1
  Te  Te37  1  0.75731879  0.25418593  0.75351960  1
  Te  Te38  1  0.76083933  0.74511395  0.24550748  1
  Te  Te39  1  0.75617367  0.74543160  0.75443397  1
  Te  Te40  1  0.24580776  0.00133664  0.00037300  1
  Te  Te41  1  0.25177112  0.00175516  0.49920056  1
  Te  Te42  1  0.25292181  0.49961165  -0.00189174  1
  Te  Te43  1  0.25029469  0.49943556  0.50229162  1
  Te  Te44  1  0.75497661  0.00227024  0.00029961  1
  Te  Te45  1  0.74459731  0.00776113  0.49927466  1
  Te  Te46  1  0.74248692  0.49734091  0.00025812  1
  Te  Te47  1  0.74577011  0.48679238  0.49965946  1
  Te  Te48  1  0.00217478  0.25475306  -0.00136646  1
  Te  Te49  1  0.00469078  0.24414014  0.50094226  1
  Te  Te50  1  0.00296572  0.74523082  -0.00133202  1
  Te  Te51  1  0.00264786  0.75689934  0.50105501  1
  Te  Te52  1  0.50186342  0.24288346  -0.00136465  1
  Te  Te53  1  0.49663544  0.24336500  0.50201450  1
  Te  Te54  1  0.49885168  0.75602622  -0.00521779  1
  Te  Te55  1  0.49960426  0.75444402  0.50333653  1
  Te  Te56  1  0.00142251  0.00010620  0.23888952  1
  Te  Te57  1  -0.00035537  0.00054090  0.75873872  1
  Te  Te58  1  0.01016099  0.49986506  0.25366926  1
  Te  Te59  1  0.00937021  0.50083941  0.74699881  1
  Te  Te60  1  0.50101209  -0.00107848  0.26188951  1
  Te  Te61  1  0.50151815  -0.00972485  0.74419845  1
  Te  Te62  1  0.48269404  0.50070180  0.25119839  1
  Te  Te63  1  0.48602243  0.51171153  0.74964202  1
