# generated using pymatgen
data_AgSbTe2
_symmetry_space_group_name_H-M   'P 1'
_cell_length_a   12.20745981
_cell_length_b   12.20524782
_cell_length_c   12.20676472
_cell_angle_alpha   89.99686515
_cell_angle_beta   90.00412166
_cell_angle_gamma   90.00876067
_symmetry_Int_Tables_number   1
_chemical_formula_structural   AgSbTe2
_chemical_formula_sum   'Ag16 Sb16 Te32'
_cell_volume   1818.74776255
_cell_formula_units_Z   16
loop_
 _symmetry_equiv_pos_site_id
 _symmetry_equiv_pos_as_xyz
  1  'x, y, z'
loop_
 _atom_site_type_symbol
 _atom_site_label
 _atom_site_symmetry_multiplicity
 _atom_site_fract_x
 _atom_site_fract_y
 _atom_site_fract_z
 _atom_site_occupancy
  Ag  Ag0  1  0.74479886  0.50103960  0.25305947  1
  Ag  Ag1  1  0.25234982  0.24766109  0.00251097  1
  Ag  Ag2  1  0.50107060  0.49959826  -0.00020011  1
  Ag  Ag3  1  0.50463474  0.74895525  0.74327270  1
  Ag  Ag4  1  0.49627514  -0.00350461  0.50075460  1
  Ag  Ag5  1  0.00160224  -0.00056507  -0.00250272  1
  Ag  Ag6  1  0.00316684  -0.00342281  0.50265688  1
  Ag  Ag7  1  0.50254313  0.50352946  0.50063523  1
  Ag  Ag8  1  0.74622078  0.75011635  0.50624716  1
  Ag  Ag9  1  0.25400836  0.24442915  0.49720791  1
  Ag  Ag10  1  0.75083527  -0.00684418  0.74580573  1
  Ag  Ag11  1  0.25396620  0.75508634  0.50105041  1
  Ag  Ag12  1  0.74567572  0.50676843  0.74652993  1
  Ag  Ag13  1  0.49696457  0.25119655  0.25298187  1
  Ag  Ag14  1  0.25148637  0.00236188  0.25549013  1
  Ag  Ag15  1  -0.00465652  0.75398969  0.74595436  1
  Sb  Sb16  1  0.24910839  -0.00172364  0.74183897  1
  Sb  Sb17  1  0.49750614  0.00081976  -0.00125901  1
  Sb  Sb18  1  -0.00054789  0.50044374  -0.00299860  1
  Sb  Sb19  1  -0.00282815  0.50343105  0.50239066  1
  Sb  Sb20  1  0.25132838  0.75282778  0.00008013  1
  Sb  Sb21  1  0.25572454  0.50222730  0.74865697  1
  Sb  Sb22  1  0.25624279  0.49695114  0.25232002  1
  Sb  Sb23  1  -0.00027382  0.75149938  0.25500897  1
  Sb  Sb24  1  0.74544288  0.25035067  0.49887938  1
  Sb  Sb25  1  0.50044395  0.74807439  0.25913582  1
  Sb  Sb26  1  0.74670675  0.24959023  0.00138572  1
  Sb  Sb27  1  0.49989084  0.25112762  0.74624879  1
  Sb  Sb28  1  0.00434125  0.24848620  0.25134495  1
  Sb  Sb29  1  0.74908432  0.75001068  -0.00851685  1
  Sb  Sb30  1  0.74784858  -0.00170100  0.25508663  1
  Sb  Sb31  1  -0.00041593  0.24481307  0.74854886  1
  Te  Te32  1  0.25370803  0.24727898  0.25201060  1
  Te  Te33  1  0.25008654  0.25073665  0.74970672  1
  Te  Te34  1  0.24965485  0.75589863  0.25625974  1
  Te  Te35  1  0.25064397  0.74933961  0.74409425  1
  Te  Te36  1  0.74253575  0.25524149  0.25008230  1
  Te  Te37  1  0.75029518  0.25080370  0.75008297  1
  Te  Te38  1  0.75005446  0.74554891  0.25844437  1
  Te  Te39  1  0.74857224  0.75019824  0.74742378  1
  Te  Te40  1  0.24753399  0.00342415  0.00555904  1
  Te  Te41  1  0.25137661  -0.00028273  0.49973160  1
  Te  Te42  1  0.25480035  0.49482972  0.00091552  1
  Te  Te43  1  0.25450839  0.50027367  0.49854294  1
  Te  Te44  1  0.75529100  0.00069690  -0.00395173  1
  Te  Te45  1  0.74963502  -0.00181758  0.50130044  1
  Te  Te46  1  0.74543812  0.49990954  -0.00087814  1
  Te  Te47  1  0.74721380  0.50134415  0.50205866  1
  Te  Te48  1  0.00772879  0.24436287  -0.00022765  1
  Te  Te49  1  0.00882729  0.24327113  0.50027418  1
  Te  Te50  1  0.00194156  0.75579644  -0.00744338  1
  Te  Te51  1  0.00012578  0.75358425  0.50411848  1
  Te  Te52  1  0.49536003  0.25334103  0.00388176  1
  Te  Te53  1  0.49591604  0.24996578  0.49777116  1
  Te  Te54  1  0.49798996  0.74447827  -0.00829448  1
  Te  Te55  1  0.50007597  0.75004444  0.50166983  1
  Te  Te56  1  0.00288622  0.00002059  0.25095596  1
  Te  Te57  1  -0.00382791  -0.00371040  0.74773581  1
  Te  Te58  1  -0.01009066  0.49990704  0.24862676  1
  Te  Te59  1  -0.00950182  0.50745768  0.75108958  1
  Te  Te60  1  0.49766515  0.00390432  0.25306597  1
  Te  Te61  1  0.50532618  -0.00342198  0.74653958  1
  Te  Te62  1  0.50323673  0.49788343  0.25147645  1
  Te  Te63  1  0.50444727  0.50206737  0.74777104  1
