# generated using pymatgen
data_AgSbTe2
_symmetry_space_group_name_H-M   'P 1'
_cell_length_a   12.20746770
_cell_length_b   12.20983897
_cell_length_c   12.20789115
_cell_angle_alpha   90.00000020
_cell_angle_beta   89.99695994
_cell_angle_gamma   90.00078405
_symmetry_Int_Tables_number   1
_chemical_formula_structural   AgSbTe2
_chemical_formula_sum   'Ag16 Sb16 Te32'
_cell_volume   1819.60100382
_cell_formula_units_Z   16
loop_
 _symmetry_equiv_pos_site_id
 _symmetry_equiv_pos_as_xyz
  1  'x, y, z'
loop_
 _atom_site_type_symbol
 _atom_site_label
 _atom_site_symmetry_multiplicity
 _atom_site_fract_x
 _atom_site_fract_y
 _atom_site_fract_z
 _atom_site_occupancy
  Ag  Ag0  1  0.75280470  0.49985291  0.24846019  1
  Ag  Ag1  1  0.75050993  0.75288644  0.51380423  1
  Ag  Ag2  1  0.50410714  -0.00345785  0.50309921  1
  Ag  Ag3  1  0.75197751  0.24923578  -0.00288147  1
  Ag  Ag4  1  -0.00478724  0.24954848  0.75016345  1
  Ag  Ag5  1  0.51409962  0.75281678  0.74997802  1
  Ag  Ag6  1  0.74923034  0.75109034  -0.01394290  1
  Ag  Ag7  1  0.24864851  0.00123034  0.25086469  1
  Ag  Ag8  1  -0.00369581  -0.00079182  0.50267166  1
  Ag  Ag9  1  0.75269748  0.51266695  0.75147191  1
  Ag  Ag10  1  -0.00156897  0.24995447  0.24983014  1
  Ag  Ag11  1  0.50461246  -0.00205679  -0.00308480  1
  Ag  Ag12  1  0.24734022  0.50134750  0.75025814  1
  Ag  Ag13  1  -0.01432089  0.75039599  0.74865681  1
  Ag  Ag14  1  0.24734729  0.49901969  0.24971873  1
  Ag  Ag15  1  0.75035778  -0.01213244  0.74972633  1
  Sb  Sb16  1  0.24920098  -0.00100756  0.74881897  1
  Sb  Sb17  1  -0.00523636  0.49999466  -0.00284013  1
  Sb  Sb18  1  0.24697338  0.24883854  0.49944036  1
  Sb  Sb19  1  -0.00732164  0.00018781  -0.00372175  1
  Sb  Sb20  1  0.24693222  0.24892242  0.00009535  1
  Sb  Sb21  1  0.25111498  0.75124459  -0.00303236  1
  Sb  Sb22  1  0.75272269  0.00175634  0.25022885  1
  Sb  Sb23  1  0.50331055  0.75244307  0.25011224  1
  Sb  Sb24  1  0.50373056  0.24815886  0.24818260  1
  Sb  Sb25  1  -0.00389685  0.75025815  0.25258491  1
  Sb  Sb26  1  -0.00311710  0.50267088  0.50306052  1
  Sb  Sb27  1  0.50722123  0.24577394  0.75206523  1
  Sb  Sb28  1  0.24907796  0.75184362  0.50243163  1
  Sb  Sb29  1  0.50567902  0.50437527  -0.00260797  1
  Sb  Sb30  1  0.50376915  0.50602105  0.50308702  1
  Sb  Sb31  1  0.75345176  0.24529092  0.50372722  1
  Te  Te32  1  0.24206746  0.25273253  0.24884860  1
  Te  Te33  1  0.23989453  0.25900560  0.75149804  1
  Te  Te34  1  0.24935319  0.74660112  0.24942767  1
  Te  Te35  1  0.24947887  0.74242344  0.75077481  1
  Te  Te36  1  0.75547023  0.25638387  0.24439081  1
  Te  Te37  1  0.75479489  0.25049240  0.75374424  1
  Te  Te38  1  0.75112407  0.74149316  0.24942538  1
  Te  Te39  1  0.75019429  0.74983460  0.75011886  1
  Te  Te40  1  0.26025872  0.00009874  0.00800474  1
  Te  Te41  1  0.25009341  -0.00113630  0.49373100  1
  Te  Te42  1  0.25305844  0.49981738  0.00222203  1
  Te  Te43  1  0.25143878  0.50067518  0.49789064  1
  Te  Te44  1  0.74609111  -0.00075580  -0.00208801  1
  Te  Te45  1  0.75019639  -0.00360512  0.50213956  1
  Te  Te46  1  0.74781850  0.50045702  -0.00084906  1
  Te  Te47  1  0.74895145  0.50732986  0.50052741  1
  Te  Te48  1  -0.00756697  0.24872832  -0.00014570  1
  Te  Te49  1  -0.00148247  0.24043257  0.50014060  1
  Te  Te50  1  -0.00888656  0.75143123  -0.00887822  1
  Te  Te51  1  -0.00641787  0.75744274  0.50593206  1
  Te  Te52  1  0.51019713  0.23910459  -0.00053714  1
  Te  Te53  1  0.50069447  0.23575955  0.50026299  1
  Te  Te54  1  0.50704855  0.75699352  -0.00675525  1
  Te  Te55  1  0.50699280  0.75785597  0.50670908  1
  Te  Te56  1  0.00494548  0.00408521  0.25555037  1
  Te  Te57  1  -0.00118508  0.00047147  0.74655499  1
  Te  Te58  1  0.00109241  0.49509270  0.25218692  1
  Te  Te59  1  -0.00156089  0.49965300  0.74821726  1
  Te  Te60  1  0.49292763  -0.00003172  0.25120286  1
  Te  Te61  1  0.50123826  -0.00301482  0.74929226  1
  Te  Te62  1  0.49801672  0.49965782  0.25072702  1
  Te  Te63  1  0.50068945  0.50611085  0.74930613  1
