# generated using pymatgen
data_AgSbTe2
_symmetry_space_group_name_H-M   'P 1'
_cell_length_a   12.23929120
_cell_length_b   12.24113795
_cell_length_c   12.25394984
_cell_angle_alpha   90.00117962
_cell_angle_beta   90.00381547
_cell_angle_gamma   90.00013039
_symmetry_Int_Tables_number   1
_chemical_formula_structural   AgSbTe2
_chemical_formula_sum   'Ag16 Sb16 Te32'
_cell_volume   1835.92170685
_cell_formula_units_Z   16
loop_
 _symmetry_equiv_pos_site_id
 _symmetry_equiv_pos_as_xyz
  1  'x, y, z'
loop_
 _atom_site_type_symbol
 _atom_site_label
 _atom_site_symmetry_multiplicity
 _atom_site_fract_x
 _atom_site_fract_y
 _atom_site_fract_z
 _atom_site_occupancy
  Ag  Ag0  1  0.74582687  0.25192475  -0.00848597  1
  Ag  Ag1  1  0.49127911  0.25264872  0.25471808  1
  Ag  Ag2  1  0.01436707  0.24989227  0.74697525  1
  Ag  Ag3  1  0.74477170  0.49174458  0.74784547  1
  Ag  Ag4  1  0.25616740  0.49026804  0.25073601  1
  Ag  Ag5  1  0.25343310  0.48623659  0.74878200  1
  Ag  Ag6  1  0.25455213  0.25091749  0.51292101  1
  Ag  Ag7  1  0.25238148  0.00982081  0.25083101  1
  Ag  Ag8  1  0.48730920  0.25423288  0.74569591  1
  Ag  Ag9  1  0.24987136  0.01491918  0.74840787  1
  Ag  Ag10  1  0.25263951  0.74866119  0.00172222  1
  Ag  Ag11  1  0.25320914  0.25091978  -0.01352991  1
  Ag  Ag12  1  0.49354837  0.74708064  0.25103419  1
  Ag  Ag13  1  0.00607515  0.00754079  0.50199562  1
  Ag  Ag14  1  0.74381557  0.25205982  0.50799697  1
  Ag  Ag15  1  0.49540312  0.49270388  0.50074811  1
  Sb  Sb16  1  0.74936340  0.01117161  0.74758290  1
  Sb  Sb17  1  0.00393901  0.74994232  0.74893494  1
  Sb  Sb18  1  0.01008272  0.24878896  0.25258640  1
  Sb  Sb19  1  0.00515442  0.00468125  -0.00190172  1
  Sb  Sb20  1  0.49571001  0.74580076  0.74901023  1
  Sb  Sb21  1  0.74650389  0.74678236  -0.00054753  1
  Sb  Sb22  1  0.49523534  0.00898052  0.49976398  1
  Sb  Sb23  1  0.00382622  0.49504227  0.50242648  1
  Sb  Sb24  1  0.49664840  0.00446412  -0.00026059  1
  Sb  Sb25  1  0.00712655  0.75126576  0.25033345  1
  Sb  Sb26  1  0.25210771  0.74956985  0.49869091  1
  Sb  Sb27  1  0.74720368  0.00516024  0.25279169  1
  Sb  Sb28  1  0.74225868  0.49451093  0.25158015  1
  Sb  Sb29  1  0.49647837  0.49552267  -0.00130708  1
  Sb  Sb30  1  0.00380440  0.49578771  -0.00140410  1
  Sb  Sb31  1  0.74655792  0.74788338  0.50034559  1
  Te  Te32  1  0.25066841  0.25018482  0.24997445  1
  Te  Te33  1  0.25162558  0.25031781  0.74948308  1
  Te  Te34  1  0.25340424  0.74955374  0.24747194  1
  Te  Te35  1  0.25013659  0.74869952  0.75601444  1
  Te  Te36  1  0.74360900  0.25015097  0.24910290  1
  Te  Te37  1  0.74656229  0.25119970  0.74945290  1
  Te  Te38  1  0.74208986  0.75019636  0.24762224  1
  Te  Te39  1  0.74990643  0.74049465  0.75250975  1
  Te  Te40  1  0.24944469  0.00416574  0.00035769  1
  Te  Te41  1  0.25018381  0.00032700  0.50062905  1
  Te  Te42  1  0.24948841  0.49604945  -0.00091040  1
  Te  Te43  1  0.25113828  0.49952969  0.50159690  1
  Te  Te44  1  0.75253851  0.00539077  0.00022481  1
  Te  Te45  1  0.75543229  0.00485331  0.50024904  1
  Te  Te46  1  0.75192601  0.49486484  -0.00435200  1
  Te  Te47  1  0.74875430  0.49618502  0.50274836  1
  Te  Te48  1  0.00092685  0.24990086  -0.00587040  1
  Te  Te49  1  0.00240026  0.24834967  0.50241136  1
  Te  Te50  1  0.00580662  0.75130131  0.00050720  1
  Te  Te51  1  -0.00254077  0.75989684  0.49950835  1
  Te  Te52  1  0.49783846  0.24991727  -0.00036562  1
  Te  Te53  1  0.49737746  0.25141876  0.50051160  1
  Te  Te54  1  0.49526103  0.75068353  0.00571273  1
  Te  Te55  1  0.50209903  0.74072740  0.49547517  1
  Te  Te56  1  0.00644924  -0.00056646  0.25475442  1
  Te  Te57  1  0.00382715  0.00279957  0.74732553  1
  Te  Te58  1  0.00956806  0.50155880  0.25085908  1
  Te  Te59  1  0.00422536  0.49639604  0.74928316  1
  Te  Te60  1  0.49529786  0.00319238  0.25139129  1
  Te  Te61  1  0.49532420  0.00286908  0.74867731  1
  Te  Te62  1  0.49608621  0.49484015  0.25351894  1
  Te  Te63  1  0.49649328  0.49762531  0.74710520  1
