# generated using pymatgen
data_AgSbTe2
_symmetry_space_group_name_H-M   'P 1'
_cell_length_a   12.22543628
_cell_length_b   12.22222308
_cell_length_c   12.22714237
_cell_angle_alpha   90.01115937
_cell_angle_beta   89.99754177
_cell_angle_gamma   89.99804484
_symmetry_Int_Tables_number   1
_chemical_formula_structural   AgSbTe2
_chemical_formula_sum   'Ag16 Sb16 Te32'
_cell_volume   1827.00414589
_cell_formula_units_Z   16
loop_
 _symmetry_equiv_pos_site_id
 _symmetry_equiv_pos_as_xyz
  1  'x, y, z'
loop_
 _atom_site_type_symbol
 _atom_site_label
 _atom_site_symmetry_multiplicity
 _atom_site_fract_x
 _atom_site_fract_y
 _atom_site_fract_z
 _atom_site_occupancy
  Ag  Ag0  1  0.75538776  0.74499824  -0.00046008  1
  Ag  Ag1  1  0.00550263  0.50549380  -0.00036322  1
  Ag  Ag2  1  0.75997118  0.74864583  0.50008951  1
  Ag  Ag3  1  0.24682011  -0.00843287  0.25464568  1
  Ag  Ag4  1  0.24683432  0.25533186  -0.00075377  1
  Ag  Ag5  1  0.49097633  -0.00434631  0.49998264  1
  Ag  Ag6  1  0.49325600  0.50295663  0.00006741  1
  Ag  Ag7  1  0.24440708  0.74458545  0.00583369  1
  Ag  Ag8  1  0.00732357  -0.00979335  0.50034128  1
  Ag  Ag9  1  0.00676059  0.74766369  0.25379531  1
  Ag  Ag10  1  0.75529190  0.50318601  0.75162633  1
  Ag  Ag11  1  0.24096425  0.75475300  0.49515812  1
  Ag  Ag12  1  0.24520984  0.50780373  0.24516762  1
  Ag  Ag13  1  0.24639766  -0.00251900  0.74510353  1
  Ag  Ag14  1  0.00305275  0.25244240  0.75070363  1
  Ag  Ag15  1  0.00318683  0.50890096  0.50019953  1
  Sb  Sb16  1  0.00085389  0.74740041  0.74587324  1
  Sb  Sb17  1  0.00385063  -0.00680417  -0.00092140  1
  Sb  Sb18  1  0.75372723  0.25614423  -0.00320470  1
  Sb  Sb19  1  0.00391033  0.25211236  0.24839794  1
  Sb  Sb20  1  0.75400815  0.25288688  0.50240543  1
  Sb  Sb21  1  0.49062754  0.75005318  0.24992806  1
  Sb  Sb22  1  0.75397054  -0.00538774  0.25220518  1
  Sb  Sb23  1  0.24495162  0.50193486  0.75377172  1
  Sb  Sb24  1  0.49577412  0.25081134  0.75192976  1
  Sb  Sb25  1  0.24716828  0.24594787  0.50193625  1
  Sb  Sb26  1  0.75368579  -0.00237506  0.74775277  1
  Sb  Sb27  1  0.49441292  -0.00295369  0.00032002  1
  Sb  Sb28  1  0.75491333  0.50501054  0.24912601  1
  Sb  Sb29  1  0.49530383  0.25036763  0.24885712  1
  Sb  Sb30  1  0.49867757  0.74930412  0.75013594  1
  Sb  Sb31  1  0.49608152  0.50394348  0.50016876  1
  Te  Te32  1  0.24893462  0.25056021  0.24290924  1
  Te  Te33  1  0.24542782  0.24618408  0.75449997  1
  Te  Te34  1  0.24624418  0.74966826  0.25003881  1
  Te  Te35  1  0.25010259  0.75461123  0.74962604  1
  Te  Te36  1  0.74939870  0.24817301  0.24874725  1
  Te  Te37  1  0.75721262  0.25502005  0.75073009  1
  Te  Te38  1  0.75960616  0.75027523  0.25045110  1
  Te  Te39  1  0.74966490  0.74605251  0.75076326  1
  Te  Te40  1  0.25074575  -0.00369443  0.00107918  1
  Te  Te41  1  0.24682561  0.00049011  0.49923597  1
  Te  Te42  1  0.24681571  0.50392767  -0.00267864  1
  Te  Te43  1  0.24910293  0.50169630  0.49973407  1
  Te  Te44  1  0.74778127  -0.00891813  -0.00055111  1
  Te  Te45  1  0.75321757  -0.00631920  0.50082821  1
  Te  Te46  1  0.75370903  0.50439069  -0.00043035  1
  Te  Te47  1  0.75092456  0.50462072  0.50071725  1
  Te  Te48  1  0.00337445  0.25450331  -0.00238970  1
  Te  Te49  1  -0.00056938  0.25283485  0.50354223  1
  Te  Te50  1  0.00221725  0.74818552  0.00230317  1
  Te  Te51  1  0.00189488  0.74854416  0.49988374  1
  Te  Te52  1  0.49507855  0.25567454  -0.00036514  1
  Te  Te53  1  0.50135492  0.24215561  0.50023045  1
  Te  Te54  1  0.49974049  0.74517644  0.00038634  1
  Te  Te55  1  0.49959789  0.75402349  0.49973076  1
  Te  Te56  1  0.00439135  -0.00291976  0.25389333  1
  Te  Te57  1  0.00330955  0.00585700  0.74709846  1
  Te  Te58  1  0.00424883  0.50187526  0.25072820  1
  Te  Te59  1  -0.00149905  0.49723362  0.74967384  1
  Te  Te60  1  0.49302394  0.00036784  0.25471069  1
  Te  Te61  1  0.49503417  0.00168377  0.74552739  1
  Te  Te62  1  0.49198682  0.49962678  0.24583259  1
  Te  Te63  1  0.50784124  0.49837292  0.75369399  1
