# generated using pymatgen
data_AgSbTe2
_symmetry_space_group_name_H-M   'P 1'
_cell_length_a   12.23130737
_cell_length_b   12.25145817
_cell_length_c   12.24941092
_cell_angle_alpha   89.99552964
_cell_angle_beta   90.00562915
_cell_angle_gamma   89.99796918
_symmetry_Int_Tables_number   1
_chemical_formula_structural   AgSbTe2
_chemical_formula_sum   'Ag16 Sb16 Te32'
_cell_volume   1835.59075651
_cell_formula_units_Z   16
loop_
 _symmetry_equiv_pos_site_id
 _symmetry_equiv_pos_as_xyz
  1  'x, y, z'
loop_
 _atom_site_type_symbol
 _atom_site_label
 _atom_site_symmetry_multiplicity
 _atom_site_fract_x
 _atom_site_fract_y
 _atom_site_fract_z
 _atom_site_occupancy
  Ag  Ag0  1  0.48434804  0.75102563  0.74947829  1
  Ag  Ag1  1  0.01665705  0.74845634  0.74745070  1
  Ag  Ag2  1  0.25123393  0.75453569  0.51581015  1
  Ag  Ag3  1  0.25432596  0.24936078  -0.01574949  1
  Ag  Ag4  1  0.48507893  0.24905055  0.74954113  1
  Ag  Ag5  1  0.49298146  0.49751747  -0.00514966  1
  Ag  Ag6  1  0.25380296  0.00038134  0.74610243  1
  Ag  Ag7  1  0.49235183  0.00259976  0.50108219  1
  Ag  Ag8  1  0.25317813  0.24524105  0.51556298  1
  Ag  Ag9  1  0.01680158  0.25132013  0.74721462  1
  Ag  Ag10  1  0.49265090  0.24498615  0.25129452  1
  Ag  Ag11  1  0.25113716  0.49963552  0.74912944  1
  Ag  Ag12  1  0.25461312  0.00350193  0.25617074  1
  Ag  Ag13  1  0.74320459  0.00229583  0.25308441  1
  Ag  Ag14  1  0.25273182  0.75081994  -0.01645041  1
  Ag  Ag15  1  0.00818743  0.49928754  0.50630423  1
  Sb  Sb16  1  0.74886671  0.75217771  0.50156596  1
  Sb  Sb17  1  0.25192874  0.49745533  0.25019306  1
  Sb  Sb18  1  0.49524211  0.75455548  0.25055885  1
  Sb  Sb19  1  0.00876038  0.00050843  0.50239751  1
  Sb  Sb20  1  0.74712052  0.75060666  -0.00221069  1
  Sb  Sb21  1  0.00572484  0.00021977  -0.00211002  1
  Sb  Sb22  1  0.00768479  0.49961691  -0.00576416  1
  Sb  Sb23  1  0.74589022  0.00067853  0.74732681  1
  Sb  Sb24  1  0.00588894  0.75092822  0.25202805  1
  Sb  Sb25  1  0.49445835  0.00158975  -0.00137301  1
  Sb  Sb26  1  0.74555707  0.24962472  -0.00055329  1
  Sb  Sb27  1  0.00806895  0.24878279  0.25159906  1
  Sb  Sb28  1  0.74891938  0.49944386  0.75002765  1
  Sb  Sb29  1  0.74570929  0.49744874  0.25102491  1
  Sb  Sb30  1  0.74747752  0.24861730  0.50015446  1
  Sb  Sb31  1  0.49406151  0.49856922  0.50384276  1
  Te  Te32  1  0.25303250  0.24647748  0.25038413  1
  Te  Te33  1  0.25095729  0.25024074  0.74910701  1
  Te  Te34  1  0.24954831  0.75617889  0.24999644  1
  Te  Te35  1  0.25095925  0.74985861  0.74969657  1
  Te  Te36  1  0.74380780  0.24542728  0.24894368  1
  Te  Te37  1  0.75028203  0.24866687  0.75110669  1
  Te  Te38  1  0.75112053  0.75686005  0.24924186  1
  Te  Te39  1  0.75089937  0.75129298  0.75048657  1
  Te  Te40  1  0.24938966  0.00021292  -0.00347440  1
  Te  Te41  1  0.25244478  0.00101380  0.50311551  1
  Te  Te42  1  0.25299122  0.49963747  -0.00083789  1
  Te  Te43  1  0.24840519  0.49993787  0.50119364  1
  Te  Te44  1  0.75188613  -0.00046549  0.00876739  1
  Te  Te45  1  0.73902922  -0.00044200  0.49556954  1
  Te  Te46  1  0.74066138  0.50086244  0.00182043  1
  Te  Te47  1  0.76106269  0.50042979  0.49889080  1
  Te  Te48  1  0.00568899  0.25125820  -0.00443854  1
  Te  Te49  1  0.00340460  0.25071000  0.50314855  1
  Te  Te50  1  0.00487927  0.74854863  -0.00510701  1
  Te  Te51  1  0.00362936  0.74890376  0.50334270  1
  Te  Te52  1  0.49654917  0.25110756  -0.00394441  1
  Te  Te53  1  0.49763624  0.25002765  0.50271186  1
  Te  Te54  1  0.49589391  0.74695699  -0.00335242  1
  Te  Te55  1  0.49690820  0.74998096  0.50274409  1
  Te  Te56  1  0.00293145  0.00071583  0.25058498  1
  Te  Te57  1  0.00126257  0.00069080  0.74938412  1
  Te  Te58  1  -0.00261927  0.49944259  0.25649968  1
  Te  Te59  1  0.00111179  0.49935487  0.74826233  1
  Te  Te60  1  0.49402335  0.00243233  0.25182429  1
  Te  Te61  1  0.49802389  0.00086637  0.74813608  1
  Te  Te62  1  0.50099082  0.49308940  0.24548127  1
  Te  Te63  1  0.49856412  0.49888532  0.75113028  1
