# generated using pymatgen
data_AgSbTe2
_symmetry_space_group_name_H-M   'P 1'
_cell_length_a   12.21890696
_cell_length_b   12.21396644
_cell_length_c   12.20938216
_cell_angle_alpha   90.01216056
_cell_angle_beta   90.00000722
_cell_angle_gamma   89.99951007
_symmetry_Int_Tables_number   1
_chemical_formula_structural   AgSbTe2
_chemical_formula_sum   'Ag16 Sb16 Te32'
_cell_volume   1822.14426325
_cell_formula_units_Z   16
loop_
 _symmetry_equiv_pos_site_id
 _symmetry_equiv_pos_as_xyz
  1  'x, y, z'
loop_
 _atom_site_type_symbol
 _atom_site_label
 _atom_site_symmetry_multiplicity
 _atom_site_fract_x
 _atom_site_fract_y
 _atom_site_fract_z
 _atom_site_occupancy
  Ag  Ag0  1  0.25062045  0.49656403  0.25371459  1
  Ag  Ag1  1  0.74652414  -0.00090554  0.74939371  1
  Ag  Ag2  1  0.49201877  0.75480912  0.74975892  1
  Ag  Ag3  1  0.25383299  -0.00519819  0.75113536  1
  Ag  Ag4  1  0.24824066  0.74823235  0.50623249  1
  Ag  Ag5  1  0.00465030  0.50199240  0.49702973  1
  Ag  Ag6  1  0.00417713  0.25364972  0.25145507  1
  Ag  Ag7  1  0.25408083  0.24853589  0.00092648  1
  Ag  Ag8  1  0.49543961  0.25324820  0.24883429  1
  Ag  Ag9  1  0.00827323  0.75325532  0.74607885  1
  Ag  Ag10  1  0.00393049  -0.00209347  0.50366473  1
  Ag  Ag11  1  0.74918153  0.49733977  0.25313842  1
  Ag  Ag12  1  0.49504640  0.00199626  -0.00611532  1
  Ag  Ag13  1  0.25214397  0.75208542  -0.00691544  1
  Ag  Ag14  1  0.49577073  0.50011130  0.49770710  1
  Ag  Ag15  1  0.49534017  0.24520578  0.75187727  1
  Sb  Sb16  1  0.25056241  0.50601999  0.74583753  1
  Sb  Sb17  1  0.25083410  0.25270281  0.49938314  1
  Sb  Sb18  1  0.00371541  0.74757053  0.25386585  1
  Sb  Sb19  1  0.75113596  0.74986926  0.50214911  1
  Sb  Sb20  1  0.00533445  0.24790629  0.74911340  1
  Sb  Sb21  1  0.74852961  0.49959477  0.74752974  1
  Sb  Sb22  1  0.74720222  0.75205974  -0.00333611  1
  Sb  Sb23  1  0.74907319  0.00259896  0.25144546  1
  Sb  Sb24  1  0.25038751  0.00364297  0.24951202  1
  Sb  Sb25  1  0.74942467  0.25008076  0.50029805  1
  Sb  Sb26  1  0.49643937  0.74733776  0.25106720  1
  Sb  Sb27  1  0.00493298  -0.00062232  -0.00260337  1
  Sb  Sb28  1  0.00339566  0.50041669  0.00317050  1
  Sb  Sb29  1  0.49641516  0.49836766  0.00210964  1
  Sb  Sb30  1  0.74545903  0.24805118  -0.00036504  1
  Sb  Sb31  1  0.49581544  -0.00108317  0.50620737  1
  Te  Te32  1  0.25179444  0.25220844  0.24817325  1
  Te  Te33  1  0.25325406  0.24660197  0.75378424  1
  Te  Te34  1  0.24999741  0.74564578  0.25005596  1
  Te  Te35  1  0.25087644  0.74914561  0.75006165  1
  Te  Te36  1  0.74909002  0.25417610  0.24941854  1
  Te  Te37  1  0.74381004  0.24482637  0.75123517  1
  Te  Te38  1  0.75023779  0.74293728  0.24918480  1
  Te  Te39  1  0.74875300  0.75441660  0.75109993  1
  Te  Te40  1  0.25344407  -0.00085894  -0.00164639  1
  Te  Te41  1  0.24653433  -0.00530440  0.50295217  1
  Te  Te42  1  0.25000111  0.49994223  0.00624000  1
  Te  Te43  1  0.24981631  0.50254207  0.49669885  1
  Te  Te44  1  0.74308051  -0.00061989  -0.00567762  1
  Te  Te45  1  0.75696827  -0.00076835  0.50532182  1
  Te  Te46  1  0.75108315  0.50008993  0.00791812  1
  Te  Te47  1  0.74988560  0.50031986  0.49573764  1
  Te  Te48  1  0.00735207  0.24927734  0.00490957  1
  Te  Te49  1  0.00077858  0.25211988  0.49624435  1
  Te  Te50  1  0.00699041  0.75110907  -0.00673427  1
  Te  Te51  1  0.00361238  0.74892477  0.50297484  1
  Te  Te52  1  0.49587634  0.24860365  -0.00080680  1
  Te  Te53  1  0.49918476  0.25370051  0.49943505  1
  Te  Te54  1  0.49511535  0.75297221  -0.00403824  1
  Te  Te55  1  0.49534238  0.74750011  0.50292541  1
  Te  Te56  1  -0.00220799  0.00510451  0.25557521  1
  Te  Te57  1  0.00218343  -0.00098868  0.74677401  1
  Te  Te58  1  0.00280681  0.49726938  0.25382168  1
  Te  Te59  1  -0.00209623  0.50270029  0.74228455  1
  Te  Te60  1  0.50259480  0.00683966  0.24576944  1
  Te  Te61  1  0.49688069  -0.00001105  0.74912882  1
  Te  Te62  1  0.49724582  0.49674087  0.25299071  1
  Te  Te63  1  0.50178530  0.49949462  0.74488677  1
