# generated using pymatgen
data_AgSbTe2
_symmetry_space_group_name_H-M   'P 1'
_cell_length_a   12.29106177
_cell_length_b   12.30984109
_cell_length_c   12.32126848
_cell_angle_alpha   90.01300883
_cell_angle_beta   89.99132651
_cell_angle_gamma   90.00940357
_symmetry_Int_Tables_number   1
_chemical_formula_structural   AgSbTe2
_chemical_formula_sum   'Ag16 Sb16 Te32'
_cell_volume   1864.22036128
_cell_formula_units_Z   16
loop_
 _symmetry_equiv_pos_site_id
 _symmetry_equiv_pos_as_xyz
  1  'x, y, z'
loop_
 _atom_site_type_symbol
 _atom_site_label
 _atom_site_symmetry_multiplicity
 _atom_site_fract_x
 _atom_site_fract_y
 _atom_site_fract_z
 _atom_site_occupancy
  Ag  Ag0  1  0.74574625  0.00178692  0.75175755  1
  Ag  Ag1  1  0.22819749  0.50166060  0.24621798  1
  Ag  Ag2  1  0.51084734  -0.00539949  0.50204587  1
  Ag  Ag3  1  0.76352030  0.49933485  0.23604867  1
  Ag  Ag4  1  -0.00696778  0.00394676  0.49787991  1
  Ag  Ag5  1  0.75706510  0.49483246  0.76328722  1
  Ag  Ag6  1  -0.01578365  0.49423838  0.01769773  1
  Ag  Ag7  1  0.51364228  0.50430918  0.00780260  1
  Ag  Ag8  1  0.51026195  -0.00845673  -0.00200549  1
  Ag  Ag9  1  -0.00559339  0.49675039  0.48084991  1
  Ag  Ag10  1  -0.00501810  0.73222105  0.25047256  1
  Ag  Ag11  1  0.50679463  0.75280262  0.75870884  1
  Ag  Ag12  1  -0.00915473  0.25962440  0.75119137  1
  Ag  Ag13  1  0.75367198  0.25894393  -0.00203851  1
  Ag  Ag14  1  0.50336377  0.74302198  0.24422714  1
  Ag  Ag15  1  -0.00599006  0.26835386  0.24874640  1
  Sb  Sb16  1  -0.00468862  0.74507102  0.74917591  1
  Sb  Sb17  1  -0.00925699  0.00056407  0.00234834  1
  Sb  Sb18  1  0.50769789  0.25040475  0.75353333  1
  Sb  Sb19  1  0.24608534  0.25135686  0.00124102  1
  Sb  Sb20  1  0.75301357  0.25033843  0.50006961  1
  Sb  Sb21  1  0.50531026  0.50342095  0.49721048  1
  Sb  Sb22  1  0.24642720  0.25110229  0.49874661  1
  Sb  Sb23  1  0.25080904  0.00098999  0.75041051  1
  Sb  Sb24  1  0.24946769  0.75002169  0.49948157  1
  Sb  Sb25  1  0.74926157  0.00042795  0.24754063  1
  Sb  Sb26  1  0.24937012  0.00007224  0.24932731  1
  Sb  Sb27  1  0.24749909  0.49924560  0.75186157  1
  Sb  Sb28  1  0.25238219  0.74914655  0.00044787  1
  Sb  Sb29  1  0.74879414  0.74370956  0.00015786  1
  Sb  Sb30  1  0.50461269  0.25477729  0.24699679  1
  Sb  Sb31  1  0.74983651  0.75105326  0.49907155  1
  Te  Te32  1  0.24046497  0.25364132  0.24936025  1
  Te  Te33  1  0.22769586  0.25020639  0.74936772  1
  Te  Te34  1  0.25147560  0.74741283  0.25037120  1
  Te  Te35  1  0.26973672  0.75116940  0.75004847  1
  Te  Te36  1  0.75233506  0.25144029  0.24638169  1
  Te  Te37  1  0.75414726  0.25409490  0.75075344  1
  Te  Te38  1  0.74984329  0.74762700  0.24969680  1
  Te  Te39  1  0.74250365  0.75188898  0.75116450  1
  Te  Te40  1  0.27112374  0.00008853  0.00015616  1
  Te  Te41  1  0.24415527  -0.00038310  0.50021862  1
  Te  Te42  1  0.25533010  0.50014295  0.00187428  1
  Te  Te43  1  0.24272984  0.49968602  0.49627849  1
  Te  Te44  1  0.74564451  0.00854937  -0.00416404  1
  Te  Te45  1  0.75230520  -0.00050602  0.50496332  1
  Te  Te46  1  0.74879469  0.49814503  -0.00232101  1
  Te  Te47  1  0.75314116  0.50042569  0.50311264  1
  Te  Te48  1  -0.00385788  0.24878496  0.00069563  1
  Te  Te49  1  -0.00052430  0.24761472  0.49780962  1
  Te  Te50  1  0.00002693  0.74911972  0.00458509  1
  Te  Te51  1  -0.00005438  0.75219072  0.49830919  1
  Te  Te52  1  0.50488043  0.25862406  0.00038915  1
  Te  Te53  1  0.49894146  0.23732239  0.49990261  1
  Te  Te54  1  0.50070794  0.74561221  0.00441396  1
  Te  Te55  1  0.50003670  0.75418001  0.49298255  1
  Te  Te56  1  -0.00055518  -0.00348460  0.25116283  1
  Te  Te57  1  0.00001071  -0.00904323  0.75009110  1
  Te  Te58  1  -0.00121564  0.50156559  0.24966805  1
  Te  Te59  1  -0.00236274  0.50590775  0.75305053  1
  Te  Te60  1  0.50026696  -0.00212637  0.25096553  1
  Te  Te61  1  0.50148687  0.00257353  0.74988971  1
  Te  Te62  1  0.50930748  0.50113423  0.25412015  1
  Te  Te63  1  0.50025265  0.49672107  0.74419107  1
