# generated using pymatgen
data_AgSbTe2
_symmetry_space_group_name_H-M   'P 1'
_cell_length_a   12.27938420
_cell_length_b   12.28644761
_cell_length_c   12.29533546
_cell_angle_alpha   90.00585961
_cell_angle_beta   90.00162176
_cell_angle_gamma   89.99982290
_symmetry_Int_Tables_number   1
_chemical_formula_structural   AgSbTe2
_chemical_formula_sum   'Ag16 Sb16 Te32'
_cell_volume   1854.99738249
_cell_formula_units_Z   16
loop_
 _symmetry_equiv_pos_site_id
 _symmetry_equiv_pos_as_xyz
  1  'x, y, z'
loop_
 _atom_site_type_symbol
 _atom_site_label
 _atom_site_symmetry_multiplicity
 _atom_site_fract_x
 _atom_site_fract_y
 _atom_site_fract_z
 _atom_site_occupancy
  Ag  Ag0  1  0.50319139  0.24317268  0.74258453  1
  Ag  Ag1  1  0.74635169  -0.00267156  0.75106814  1
  Ag  Ag2  1  0.74223974  0.00112022  0.25024526  1
  Ag  Ag3  1  0.25197798  0.51325459  0.74992008  1
  Ag  Ag4  1  0.25698907  -0.00513910  0.24990337  1
  Ag  Ag5  1  0.25062921  0.75603362  0.50960766  1
  Ag  Ag6  1  0.25510375  0.50655996  0.25000907  1
  Ag  Ag7  1  0.00622756  0.75570105  0.75518882  1
  Ag  Ag8  1  0.24481043  0.75648802  -0.00893074  1
  Ag  Ag9  1  0.49996485  0.24092680  0.25801067  1
  Ag  Ag10  1  0.75571043  0.75817639  -0.01019003  1
  Ag  Ag11  1  0.00066749  -0.00719042  -0.00531705  1
  Ag  Ag12  1  0.49964764  0.00486998  0.50276883  1
  Ag  Ag13  1  0.25172739  -0.01253113  0.75096412  1
  Ag  Ag14  1  0.74627188  0.50325060  0.75073911  1
  Ag  Ag15  1  0.74063848  0.24006856  0.50579602  1
  Sb  Sb16  1  0.49930209  0.00030529  -0.00266450  1
  Sb  Sb17  1  0.00078479  -0.00181532  0.50238857  1
  Sb  Sb18  1  0.74368657  0.49920666  0.24845424  1
  Sb  Sb19  1  0.49797592  0.49661654  0.50318732  1
  Sb  Sb20  1  0.24982386  0.24312709  -0.00059161  1
  Sb  Sb21  1  0.00031289  0.24686349  0.74892029  1
  Sb  Sb22  1  0.00171228  0.75313959  0.24531850  1
  Sb  Sb23  1  0.00043329  0.24586467  0.25149078  1
  Sb  Sb24  1  0.00143777  0.50267901  0.50101751  1
  Sb  Sb25  1  0.74976620  0.24249642  -0.00218212  1
  Sb  Sb26  1  0.00183942  0.50728476  -0.00303046  1
  Sb  Sb27  1  0.49641520  0.75654547  0.74971588  1
  Sb  Sb28  1  0.25459040  0.24505105  0.50123695  1
  Sb  Sb29  1  0.49815121  0.50046247  -0.00275137  1
  Sb  Sb30  1  0.49899554  0.75813197  0.25080942  1
  Sb  Sb31  1  0.74828335  0.75408294  0.50717294  1
  Te  Te32  1  0.25222064  0.24478210  0.25041583  1
  Te  Te33  1  0.25137960  0.25019680  0.74871231  1
  Te  Te34  1  0.24966036  0.75446183  0.24689120  1
  Te  Te35  1  0.25305410  0.75229682  0.75268615  1
  Te  Te36  1  0.74782443  0.24973828  0.24795663  1
  Te  Te37  1  0.74958576  0.24596002  0.75135713  1
  Te  Te38  1  0.75032550  0.75194660  0.24803563  1
  Te  Te39  1  0.74718385  0.75321756  0.75014433  1
  Te  Te40  1  0.25156282  -0.00256359  -0.00164087  1
  Te  Te41  1  0.24985453  -0.00047933  0.50050871  1
  Te  Te42  1  0.24924864  0.50890898  -0.00421881  1
  Te  Te43  1  0.25083892  0.50474955  0.50409111  1
  Te  Te44  1  0.74723851  -0.00420910  -0.00264480  1
  Te  Te45  1  0.75054402  -0.00179104  0.50041280  1
  Te  Te46  1  0.75065178  0.51087075  -0.00422640  1
  Te  Te47  1  0.75038272  0.50155397  0.50316208  1
  Te  Te48  1  0.00070678  0.23387486  0.00070196  1
  Te  Te49  1  -0.01887476  0.24969748  0.50028344  1
  Te  Te50  1  0.00178256  0.75484268  -0.00385913  1
  Te  Te51  1  0.00918841  0.75009584  0.51175250  1
  Te  Te52  1  0.49906295  0.25189716  -0.00027287  1
  Te  Te53  1  0.50369699  0.24307383  0.50219944  1
  Te  Te54  1  0.50020821  0.74794433  0.00118020  1
  Te  Te55  1  0.49285715  0.76287090  0.49907849  1
  Te  Te56  1  0.00145222  0.00012807  0.24525382  1
  Te  Te57  1  0.00264089  -0.00238765  0.75184822  1
  Te  Te58  1  0.01200208  0.49884536  0.24955667  1
  Te  Te59  1  0.00386390  0.50424910  0.75011161  1
  Te  Te60  1  0.49948314  0.00239288  0.25135205  1
  Te  Te61  1  0.49979845  0.00364387  0.74855207  1
  Te  Te62  1  0.49535588  0.48836435  0.25098377  1
  Te  Te63  1  0.49955919  0.48869440  0.74877456  1
