# generated using pymatgen
data_AgSbTe2
_symmetry_space_group_name_H-M   'P 1'
_cell_length_a   12.21374103
_cell_length_b   12.21069828
_cell_length_c   12.22027217
_cell_angle_alpha   89.99774067
_cell_angle_beta   89.99677244
_cell_angle_gamma   90.00348181
_symmetry_Int_Tables_number   1
_chemical_formula_structural   AgSbTe2
_chemical_formula_sum   'Ag16 Sb16 Te32'
_cell_volume   1822.51068916
_cell_formula_units_Z   16
loop_
 _symmetry_equiv_pos_site_id
 _symmetry_equiv_pos_as_xyz
  1  'x, y, z'
loop_
 _atom_site_type_symbol
 _atom_site_label
 _atom_site_symmetry_multiplicity
 _atom_site_fract_x
 _atom_site_fract_y
 _atom_site_fract_z
 _atom_site_occupancy
  Ag  Ag0  1  0.00257624  -0.00578660  0.49746308  1
  Ag  Ag1  1  0.00809185  0.74469228  0.74590040  1
  Ag  Ag2  1  0.75102345  0.25548851  0.49492048  1
  Ag  Ag3  1  0.49150051  0.74488117  0.74770514  1
  Ag  Ag4  1  0.49917828  0.50124764  0.49920627  1
  Ag  Ag5  1  0.50109762  0.25346995  0.25052461  1
  Ag  Ag6  1  0.24826276  0.25432540  0.00245997  1
  Ag  Ag7  1  0.75106179  0.25516515  0.00457874  1
  Ag  Ag8  1  0.75309451  0.49650477  0.25267374  1
  Ag  Ag9  1  0.24352198  0.74574030  0.50299795  1
  Ag  Ag10  1  0.00371915  0.50217981  0.00093922  1
  Ag  Ag11  1  0.24733217  -0.00204635  0.25112844  1
  Ag  Ag12  1  0.00145269  0.50579416  0.49880594  1
  Ag  Ag13  1  0.24695660  0.50677001  0.74975323  1
  Ag  Ag14  1  0.00466433  0.74615177  0.25430723  1
  Ag  Ag15  1  0.24566119  0.74532772  -0.00324707  1
  Sb  Sb16  1  0.24672148  0.50117401  0.24956634  1
  Sb  Sb17  1  0.49530690  0.74627935  0.25207038  1
  Sb  Sb18  1  0.75267428  0.00256862  0.25238713  1
  Sb  Sb19  1  0.75311189  0.50003863  0.74800866  1
  Sb  Sb20  1  0.75280835  -0.00020832  0.74826595  1
  Sb  Sb21  1  0.49709385  0.25445187  0.74870685  1
  Sb  Sb22  1  0.49847519  0.00012938  0.00112750  1
  Sb  Sb23  1  0.24963118  0.25371457  0.49742460  1
  Sb  Sb24  1  0.00274662  -0.00284532  0.00241196  1
  Sb  Sb25  1  0.49806767  -0.00180180  0.49805295  1
  Sb  Sb26  1  0.49686066  0.49985751  0.00037394  1
  Sb  Sb27  1  0.75689709  0.74483316  0.49889946  1
  Sb  Sb28  1  0.75409269  0.74441415  0.00168980  1
  Sb  Sb29  1  0.00262869  0.25482123  0.74986076  1
  Sb  Sb30  1  -0.00083437  0.25417972  0.24992099  1
  Sb  Sb31  1  0.24731899  -0.00726279  0.74819991  1
  Te  Te32  1  0.25223320  0.24744355  0.24603774  1
  Te  Te33  1  0.25110119  0.25647618  0.75780869  1
  Te  Te34  1  0.24783779  0.75172134  0.25023001  1
  Te  Te35  1  0.24782586  0.74783516  0.74961929  1
  Te  Te36  1  0.74888832  0.25265947  0.25008307  1
  Te  Te37  1  0.74894592  0.25000880  0.75190595  1
  Te  Te38  1  0.75428838  0.74573306  0.24850164  1
  Te  Te39  1  0.74996364  0.74997696  0.75121428  1
  Te  Te40  1  0.24829701  0.00058940  0.00457625  1
  Te  Te41  1  0.24586325  -0.00207716  0.49689902  1
  Te  Te42  1  0.24682535  0.50141905  -0.00033300  1
  Te  Te43  1  0.24734248  0.50144793  0.50075437  1
  Te  Te44  1  0.75048653  0.01114369  0.00047308  1
  Te  Te45  1  0.75525828  0.00878491  0.49911277  1
  Te  Te46  1  0.75412762  0.49567236  0.00316448  1
  Te  Te47  1  0.75178653  0.49668565  0.49775714  1
  Te  Te48  1  0.00164227  0.25414482  -0.00032938  1
  Te  Te49  1  -0.00261520  0.25307332  0.50032069  1
  Te  Te50  1  0.00273883  0.74668328  0.00002833  1
  Te  Te51  1  0.00057727  0.74604862  0.49945561  1
  Te  Te52  1  0.49968054  0.25064233  0.00291790  1
  Te  Te53  1  0.50199815  0.25357414  0.49777061  1
  Te  Te54  1  0.49467184  0.74928379  -0.00341695  1
  Te  Te55  1  0.49626843  0.74657359  0.50134673  1
  Te  Te56  1  0.00407003  -0.00574601  0.25397184  1
  Te  Te57  1  0.00058740  -0.00867106  0.74271983  1
  Te  Te58  1  -0.00297493  0.50311746  0.25126260  1
  Te  Te59  1  0.00321864  0.50405022  0.74911467  1
  Te  Te60  1  0.49478604  0.00566079  0.25105429  1
  Te  Te61  1  0.50032899  -0.00941914  0.74918346  1
  Te  Te62  1  0.50534603  0.49670430  0.25477921  1
  Te  Te63  1  0.49580804  0.50450958  0.74493124  1
