# generated using pymatgen
data_AgSbTe2
_symmetry_space_group_name_H-M   'P 1'
_cell_length_a   12.22319950
_cell_length_b   12.23381710
_cell_length_c   12.23902898
_cell_angle_alpha   89.99797866
_cell_angle_beta   90.00003826
_cell_angle_gamma   89.99948691
_symmetry_Int_Tables_number   1
_chemical_formula_structural   AgSbTe2
_chemical_formula_sum   'Ag16 Sb16 Te32'
_cell_volume   1830.18017352
_cell_formula_units_Z   16
loop_
 _symmetry_equiv_pos_site_id
 _symmetry_equiv_pos_as_xyz
  1  'x, y, z'
loop_
 _atom_site_type_symbol
 _atom_site_label
 _atom_site_symmetry_multiplicity
 _atom_site_fract_x
 _atom_site_fract_y
 _atom_site_fract_z
 _atom_site_occupancy
  Ag  Ag0  1  0.49163257  0.49756288  0.50276885  1
  Ag  Ag1  1  0.00756519  0.49640827  0.49691577  1
  Ag  Ag2  1  0.75629418  0.74683945  0.49838065  1
  Ag  Ag3  1  0.48307494  0.25369149  0.74741602  1
  Ag  Ag4  1  0.24630506  0.01516787  0.74846265  1
  Ag  Ag5  1  0.24244259  0.49733713  0.25059435  1
  Ag  Ag6  1  0.24323585  0.25695849  0.51399554  1
  Ag  Ag7  1  0.75728983  0.74652395  0.00118812  1
  Ag  Ag8  1  0.00209593  0.74230000  0.24983060  1
  Ag  Ag9  1  0.24466849  0.25714052  -0.01473780  1
  Ag  Ag10  1  0.24570336  0.48589072  0.74870452  1
  Ag  Ag11  1  0.01496089  0.25375994  0.74576147  1
  Ag  Ag12  1  0.24284518  0.74146267  -0.00044691  1
  Ag  Ag13  1  0.00660996  0.25838334  0.25432624  1
  Ag  Ag14  1  0.00773159  0.50102164  0.00297569  1
  Ag  Ag15  1  0.00377473  0.00304461  0.50176031  1
  Sb  Sb16  1  0.24496350  0.00252174  0.25346634  1
  Sb  Sb17  1  0.48867160  0.49835943  -0.00498105  1
  Sb  Sb18  1  0.49494293  0.74449462  0.74789584  1
  Sb  Sb19  1  0.75951206  0.25420767  0.50048197  1
  Sb  Sb20  1  0.75892559  0.25566769  -0.00129252  1
  Sb  Sb21  1  0.00329962  -0.00128798  -0.00426701  1
  Sb  Sb22  1  0.49628665  0.00088200  -0.00385460  1
  Sb  Sb23  1  0.49519336  0.74440049  0.25191290  1
  Sb  Sb24  1  0.75595471  0.50041662  0.74940139  1
  Sb  Sb25  1  0.00392785  0.74435189  0.75057726  1
  Sb  Sb26  1  0.75656546  -0.00010665  0.74737533  1
  Sb  Sb27  1  0.48871439  0.25624518  0.25337246  1
  Sb  Sb28  1  0.76169884  0.50246806  0.25081008  1
  Sb  Sb29  1  0.49415582  0.00266639  0.50475035  1
  Sb  Sb30  1  0.75598863  -0.00243968  0.25170997  1
  Sb  Sb31  1  0.24198489  0.73999386  0.49889747  1
  Te  Te32  1  0.24459510  0.25267111  0.25032559  1
  Te  Te33  1  0.24846527  0.25156006  0.74953449  1
  Te  Te34  1  0.24472687  0.74648257  0.24436266  1
  Te  Te35  1  0.25063462  0.74912076  0.75720956  1
  Te  Te36  1  0.76118866  0.24908069  0.24798687  1
  Te  Te37  1  0.74921225  0.24860139  0.75182274  1
  Te  Te38  1  0.75737529  0.74953176  0.24910118  1
  Te  Te39  1  0.74820886  0.75125710  0.75169522  1
  Te  Te40  1  0.24928604  0.00093366  -0.00632565  1
  Te  Te41  1  0.24538245  0.00543709  0.50409911  1
  Te  Te42  1  0.24771619  0.49925425  -0.00088755  1
  Te  Te43  1  0.24650569  0.50031971  0.50130245  1
  Te  Te44  1  0.74936564  -0.01236410  -0.00054979  1
  Te  Te45  1  0.75774380  -0.00871471  0.50102768  1
  Te  Te46  1  0.75845574  0.50708515  0.00009677  1
  Te  Te47  1  0.75211495  0.50504423  0.50018753  1
  Te  Te48  1  0.00257834  0.25229773  -0.00019950  1
  Te  Te49  1  0.00033514  0.25366137  0.50020084  1
  Te  Te50  1  0.00230921  0.74840651  0.00095942  1
  Te  Te51  1  -0.00162572  0.74702053  0.49855983  1
  Te  Te52  1  0.49391339  0.25121081  -0.00535026  1
  Te  Te53  1  0.49627290  0.25412569  0.50306288  1
  Te  Te54  1  0.50060599  0.74941508  0.00051444  1
  Te  Te55  1  0.50985622  0.74433242  0.49919245  1
  Te  Te56  1  0.00178114  -0.00078151  0.25928301  1
  Te  Te57  1  0.00522419  0.00769192  0.74448700  1
  Te  Te58  1  0.00432544  0.50041213  0.25068381  1
  Te  Te59  1  0.00397751  0.49626349  0.74954266  1
  Te  Te60  1  0.50036235  0.00083175  0.25090333  1
  Te  Te61  1  0.49086647  0.00961782  0.74840085  1
  Te  Te62  1  0.48808219  0.49894192  0.25981401  1
  Te  Te63  1  0.49314160  0.49491734  0.74480415  1
