# generated using pymatgen
data_AgSbTe2
_symmetry_space_group_name_H-M   'P 1'
_cell_length_a   12.23509816
_cell_length_b   12.23724079
_cell_length_c   12.22016454
_cell_angle_alpha   89.99666956
_cell_angle_beta   90.00559115
_cell_angle_gamma   90.00404848
_symmetry_Int_Tables_number   1
_chemical_formula_structural   AgSbTe2
_chemical_formula_sum   'Ag16 Sb16 Te32'
_cell_volume   1829.64997172
_cell_formula_units_Z   16
loop_
 _symmetry_equiv_pos_site_id
 _symmetry_equiv_pos_as_xyz
  1  'x, y, z'
loop_
 _atom_site_type_symbol
 _atom_site_label
 _atom_site_symmetry_multiplicity
 _atom_site_fract_x
 _atom_site_fract_y
 _atom_site_fract_z
 _atom_site_occupancy
  Ag  Ag0  1  -0.00308895  0.24930242  0.75710333  1
  Ag  Ag1  1  0.00520302  0.74965549  0.75702429  1
  Ag  Ag2  1  0.49467823  0.75170095  0.75132857  1
  Ag  Ag3  1  0.74920314  0.24728407  0.51168123  1
  Ag  Ag4  1  0.24788335  0.50087409  0.24197937  1
  Ag  Ag5  1  -0.00143485  -0.00010007  -0.00682395  1
  Ag  Ag6  1  0.24694133  0.50408440  0.75617243  1
  Ag  Ag7  1  0.75645636  0.24783519  -0.00986439  1
  Ag  Ag8  1  0.25048231  0.74909805  0.51026534  1
  Ag  Ag9  1  0.75672487  0.75143687  -0.00738367  1
  Ag  Ag10  1  0.75022491  0.00452701  0.75309195  1
  Ag  Ag11  1  0.24366302  0.25551213  -0.00732641  1
  Ag  Ag12  1  0.24409546  0.74388443  -0.00890427  1
  Ag  Ag13  1  0.50383298  0.24754881  0.75120699  1
  Ag  Ag14  1  0.50062218  0.00016194  0.50771196  1
  Ag  Ag15  1  0.00582924  0.49994862  -0.00500595  1
  Sb  Sb16  1  0.00210389  0.50003632  0.50677472  1
  Sb  Sb17  1  0.25049402  0.25032745  0.51002285  1
  Sb  Sb18  1  0.75029481  0.00054865  0.24599302  1
  Sb  Sb19  1  0.50235831  -0.00007008  -0.00774292  1
  Sb  Sb20  1  -0.00086998  0.00025324  0.50960686  1
  Sb  Sb21  1  0.24981926  -0.00533798  0.75198077  1
  Sb  Sb22  1  0.74949800  0.75267529  0.51196216  1
  Sb  Sb23  1  0.75286238  0.49928433  0.24407670  1
  Sb  Sb24  1  0.00121615  0.25149866  0.24024964  1
  Sb  Sb25  1  0.75417763  0.49511908  0.75388725  1
  Sb  Sb26  1  0.49890374  0.50012015  0.50509323  1
  Sb  Sb27  1  0.00199524  0.74846336  0.24009511  1
  Sb  Sb28  1  0.49825584  0.25003201  0.24847439  1
  Sb  Sb29  1  0.49713505  0.75000188  0.24818521  1
  Sb  Sb30  1  0.24975709  -0.00004847  0.24632510  1
  Sb  Sb31  1  0.49219141  0.49983279  -0.00416326  1
  Te  Te32  1  0.25090065  0.25510791  0.24290733  1
  Te  Te33  1  0.24951230  0.25156116  0.75228640  1
  Te  Te34  1  0.25114604  0.74573772  0.24800828  1
  Te  Te35  1  0.24976948  0.75153602  0.75187428  1
  Te  Te36  1  0.74955545  0.25070255  0.24749722  1
  Te  Te37  1  0.74966651  0.25155448  0.75288739  1
  Te  Te38  1  0.74941284  0.74874423  0.23944521  1
  Te  Te39  1  0.74969257  0.75083920  0.75308046  1
  Te  Te40  1  0.24661269  0.00041909  0.00120799  1
  Te  Te41  1  0.25264151  -0.00522413  0.49792890  1
  Te  Te42  1  0.24861657  0.50059983  -0.00409035  1
  Te  Te43  1  0.24884482  0.50478848  0.50266838  1
  Te  Te44  1  0.75127400  0.00106612  -0.00334418  1
  Te  Te45  1  0.74868477  0.00375709  0.50331258  1
  Te  Te46  1  0.75728588  0.49966769  0.00090905  1
  Te  Te47  1  0.75086483  0.49193253  0.49672703  1
  Te  Te48  1  0.00030101  0.25008678  -0.00324204  1
  Te  Te49  1  -0.00380326  0.24905028  0.50844696  1
  Te  Te50  1  0.00140908  0.74968415  -0.00336795  1
  Te  Te51  1  0.00352139  0.75074116  0.50823133  1
  Te  Te52  1  0.50085932  0.24914686  -0.00524232  1
  Te  Te53  1  0.50212733  0.24712480  0.50517238  1
  Te  Te54  1  0.49879886  0.75078721  -0.00536696  1
  Te  Te55  1  0.49812946  0.75247764  0.50524498  1
  Te  Te56  1  -0.00025075  -0.00009096  0.23931119  1
  Te  Te57  1  -0.00440855  0.00067151  0.75485014  1
  Te  Te58  1  0.00675281  0.50019035  0.24204478  1
  Te  Te59  1  0.00320460  0.50050335  0.75421862  1
  Te  Te60  1  0.50046296  0.00012508  0.26363542  1
  Te  Te61  1  0.50446963  0.00060736  0.74798065  1
  Te  Te62  1  0.49018238  0.49997855  0.25151462  1
  Te  Te63  1  0.49225336  0.50063487  0.75018458  1
