# generated using pymatgen
data_AgSbTe2
_symmetry_space_group_name_H-M   'P 1'
_cell_length_a   12.32239581
_cell_length_b   12.32516678
_cell_length_c   12.32739339
_cell_angle_alpha   89.99622658
_cell_angle_beta   89.99553123
_cell_angle_gamma   89.98418366
_symmetry_Int_Tables_number   1
_chemical_formula_structural   AgSbTe2
_chemical_formula_sum   'Ag16 Sb16 Te32'
_cell_volume   1872.22998103
_cell_formula_units_Z   16
loop_
 _symmetry_equiv_pos_site_id
 _symmetry_equiv_pos_as_xyz
  1  'x, y, z'
loop_
 _atom_site_type_symbol
 _atom_site_label
 _atom_site_symmetry_multiplicity
 _atom_site_fract_x
 _atom_site_fract_y
 _atom_site_fract_z
 _atom_site_occupancy
  Ag  Ag0  1  0.73669982  0.76175179  -0.01089104  1
  Ag  Ag1  1  0.50791764  -0.00223269  -0.00331786  1
  Ag  Ag2  1  0.00488197  0.75552078  0.23562826  1
  Ag  Ag3  1  0.74640023  -0.00319245  0.23485295  1
  Ag  Ag4  1  0.49760536  0.50394669  -0.00605372  1
  Ag  Ag5  1  0.25639890  0.51438380  0.75746080  1
  Ag  Ag6  1  0.74255138  -0.00290077  0.76563201  1
  Ag  Ag7  1  0.49497660  0.75061120  0.75914204  1
  Ag  Ag8  1  0.50541742  0.24537726  0.75975262  1
  Ag  Ag9  1  0.26173491  0.75461264  -0.00476379  1
  Ag  Ag10  1  0.25356826  -0.00798262  0.23995914  1
  Ag  Ag11  1  0.26647059  0.24169333  -0.00769630  1
  Ag  Ag12  1  0.74303428  0.24205192  0.51041176  1
  Ag  Ag13  1  0.73417700  0.23312446  -0.00346554  1
  Ag  Ag14  1  0.00905056  0.75263022  0.75855447  1
  Ag  Ag15  1  0.25109141  0.75393878  0.51311402  1
  Sb  Sb16  1  0.49942258  0.75235521  0.24181651  1
  Sb  Sb17  1  -0.00084015  0.50373823  0.50353144  1
  Sb  Sb18  1  -0.00276172  0.24628865  0.75198717  1
  Sb  Sb19  1  0.50006567  -0.00090787  0.50376930  1
  Sb  Sb20  1  0.25052987  0.50237553  0.24500443  1
  Sb  Sb21  1  0.49903808  0.50162574  0.50726884  1
  Sb  Sb22  1  -0.00247460  -0.00291946  -0.00068126  1
  Sb  Sb23  1  0.75056523  0.50140351  0.75336809  1
  Sb  Sb24  1  0.00053153  -0.00327706  0.50016187  1
  Sb  Sb25  1  0.75022126  0.50125168  0.24389726  1
  Sb  Sb26  1  0.25381953  -0.00218364  0.75760257  1
  Sb  Sb27  1  0.25363800  0.24722597  0.50133249  1
  Sb  Sb28  1  0.74944685  0.75414507  0.50540638  1
  Sb  Sb29  1  0.00198715  0.50442882  -0.00194890  1
  Sb  Sb30  1  -0.00253397  0.24607186  0.24652981  1
  Sb  Sb31  1  0.50075966  0.24669606  0.24008267  1
  Te  Te32  1  0.24926096  0.24851994  0.25079078  1
  Te  Te33  1  0.24624479  0.24313803  0.75422057  1
  Te  Te34  1  0.25305344  0.75101349  0.24009198  1
  Te  Te35  1  0.25123462  0.75458324  0.75388433  1
  Te  Te36  1  0.75062625  0.24687410  0.23739419  1
  Te  Te37  1  0.75340059  0.25311421  0.75818774  1
  Te  Te38  1  0.74819504  0.75378068  0.25501411  1
  Te  Te39  1  0.74593182  0.74770250  0.74874386  1
  Te  Te40  1  0.24856372  0.00125939  0.00236543  1
  Te  Te41  1  0.25062826  -0.00536915  0.48469540  1
  Te  Te42  1  0.25234589  0.50101650  -0.00202917  1
  Te  Te43  1  0.24951695  0.50210355  0.50316690  1
  Te  Te44  1  0.75108922  -0.00541259  -0.00173265  1
  Te  Te45  1  0.74975804  0.00417058  0.49518216  1
  Te  Te46  1  0.74344458  0.50450696  0.00183514  1
  Te  Te47  1  0.74958307  0.48638401  0.49622238  1
  Te  Te48  1  0.00348016  0.25212307  0.00267315  1
  Te  Te49  1  -0.00921142  0.25034791  0.49856572  1
  Te  Te50  1  -0.00092976  0.75026472  -0.00195602  1
  Te  Te51  1  0.00447668  0.75018078  0.50772461  1
  Te  Te52  1  0.49600427  0.24346144  -0.00166306  1
  Te  Te53  1  0.50462932  0.25078205  0.51496161  1
  Te  Te54  1  0.50250542  0.75568819  0.00012437  1
  Te  Te55  1  0.49430556  0.74935545  0.51330666  1
  Te  Te56  1  -0.00206433  -0.00341217  0.25052140  1
  Te  Te57  1  -0.01424854  -0.00419406  0.74846245  1
  Te  Te58  1  0.00013102  0.51408791  0.25243105  1
  Te  Te59  1  0.01024000  0.50866146  0.74894773  1
  Te  Te60  1  0.50286941  0.00178042  0.24423882  1
  Te  Te61  1  0.50350900  0.00159407  0.75273892  1
  Te  Te62  1  0.50051204  0.49819633  0.24135897  1
  Te  Te63  1  0.49752264  0.50204437  0.75208197  1
