# generated using pymatgen
data_AgSbTe2
_symmetry_space_group_name_H-M   'P 1'
_cell_length_a   12.23656841
_cell_length_b   12.24559306
_cell_length_c   12.22649611
_cell_angle_alpha   89.99685140
_cell_angle_beta   90.00129639
_cell_angle_gamma   90.00143825
_symmetry_Int_Tables_number   1
_chemical_formula_structural   AgSbTe2
_chemical_formula_sum   'Ag16 Sb16 Te32'
_cell_volume   1832.06753485
_cell_formula_units_Z   16
loop_
 _symmetry_equiv_pos_site_id
 _symmetry_equiv_pos_as_xyz
  1  'x, y, z'
loop_
 _atom_site_type_symbol
 _atom_site_label
 _atom_site_symmetry_multiplicity
 _atom_site_fract_x
 _atom_site_fract_y
 _atom_site_fract_z
 _atom_site_occupancy
  Ag  Ag0  1  0.24891259  -0.00148484  0.25236928  1
  Ag  Ag1  1  0.75219390  0.49997771  0.75899629  1
  Ag  Ag2  1  0.50196989  -0.00161814  0.49174734  1
  Ag  Ag3  1  -0.00218094  0.00021760  0.48848032  1
  Ag  Ag4  1  -0.00815360  0.49898575  0.00731871  1
  Ag  Ag5  1  0.25099736  0.75440118  0.49171710  1
  Ag  Ag6  1  -0.00792497  0.00135615  0.00997591  1
  Ag  Ag7  1  0.75274787  0.00388658  0.24526553  1
  Ag  Ag8  1  0.50198647  0.75635140  0.25098230  1
  Ag  Ag9  1  0.75354586  0.24894548  0.00767581  1
  Ag  Ag10  1  0.24811196  0.50143387  0.24868132  1
  Ag  Ag11  1  -0.00689321  0.24451560  0.24627398  1
  Ag  Ag12  1  0.75290404  0.49632165  0.24175705  1
  Ag  Ag13  1  0.75127465  0.00000570  0.75591151  1
  Ag  Ag14  1  0.50663621  0.24463403  0.24927049  1
  Ag  Ag15  1  0.75190543  0.75129300  0.00596553  1
  Sb  Sb16  1  0.24669911  0.50248470  0.75225855  1
  Sb  Sb17  1  0.50879486  0.49950006  0.00447671  1
  Sb  Sb18  1  -0.00096974  0.49932669  0.49146541  1
  Sb  Sb19  1  -0.00413972  0.75069427  0.75072143  1
  Sb  Sb20  1  0.24965817  0.24644159  0.49379692  1
  Sb  Sb21  1  0.24797210  -0.00166263  0.74903391  1
  Sb  Sb22  1  -0.00321627  0.75655898  0.24935496  1
  Sb  Sb23  1  0.50515729  0.75242384  0.74993025  1
  Sb  Sb24  1  0.24616739  0.24894832  0.00594518  1
  Sb  Sb25  1  0.75022005  0.24709207  0.49103981  1
  Sb  Sb26  1  0.50055171  0.50041199  0.49498953  1
  Sb  Sb27  1  0.50983710  0.00048561  0.00968713  1
  Sb  Sb28  1  0.50653978  0.24648361  0.75058125  1
  Sb  Sb29  1  0.74903197  0.75378016  0.49352359  1
  Sb  Sb30  1  -0.00513230  0.24872609  0.75392594  1
  Sb  Sb31  1  0.24957625  0.75175744  0.00775663  1
  Te  Te32  1  0.25081471  0.24973457  0.24934512  1
  Te  Te33  1  0.25225274  0.25246470  0.75006494  1
  Te  Te34  1  0.25477245  0.75099322  0.25139572  1
  Te  Te35  1  0.25239929  0.74872986  0.74205132  1
  Te  Te36  1  0.75114680  0.24914956  0.24807665  1
  Te  Te37  1  0.74976681  0.24957613  0.75878861  1
  Te  Te38  1  0.74706976  0.75008251  0.24685148  1
  Te  Te39  1  0.74874830  0.75073742  0.75716354  1
  Te  Te40  1  0.24015753  -0.00125250  0.00237849  1
  Te  Te41  1  0.24809573  -0.00249844  0.49766508  1
  Te  Te42  1  0.24125143  0.50066256  0.00417716  1
  Te  Te43  1  0.24896524  0.50573129  0.49575799  1
  Te  Te44  1  0.75134630  -0.00050608  0.00280690  1
  Te  Te45  1  0.75226582  -0.00106948  0.49794248  1
  Te  Te46  1  0.75217105  0.50051089  0.00369315  1
  Te  Te47  1  0.75158979  0.50137326  0.50048275  1
  Te  Te48  1  -0.00314925  0.24834223  0.00371808  1
  Te  Te49  1  0.00027600  0.24406414  0.49306887  1
  Te  Te50  1  -0.00447916  0.75080218  -0.00053783  1
  Te  Te51  1  0.00439092  0.75609702  0.50050390  1
  Te  Te52  1  0.50583987  0.24968043  0.00618907  1
  Te  Te53  1  0.49991755  0.24402576  0.49343033  1
  Te  Te54  1  0.50414293  0.75016016  0.00554844  1
  Te  Te55  1  0.49835980  0.75422765  0.49446668  1
  Te  Te56  1  -0.00179540  0.00014427  0.24966719  1
  Te  Te57  1  -0.00464813  0.00067547  0.75054567  1
  Te  Te58  1  -0.00201614  0.49701867  0.24836480  1
  Te  Te59  1  -0.00538243  0.49946709  0.75541170  1
  Te  Te60  1  0.49991052  0.00056496  0.25066867  1
  Te  Te61  1  0.50431037  0.00038463  0.74055678  1
  Te  Te62  1  0.50003128  0.49799578  0.25039947  1
  Te  Te63  1  0.50669628  0.49925456  0.74848113  1
