# generated using pymatgen
data_AgSbTe2
_symmetry_space_group_name_H-M   'P 1'
_cell_length_a   12.23256942
_cell_length_b   12.21490358
_cell_length_c   12.22702630
_cell_angle_alpha   89.99904526
_cell_angle_beta   90.00022682
_cell_angle_gamma   89.99343903
_symmetry_Int_Tables_number   1
_chemical_formula_structural   AgSbTe2
_chemical_formula_sum   'Ag16 Sb16 Te32'
_cell_volume   1826.95805104
_cell_formula_units_Z   16
loop_
 _symmetry_equiv_pos_site_id
 _symmetry_equiv_pos_as_xyz
  1  'x, y, z'
loop_
 _atom_site_type_symbol
 _atom_site_label
 _atom_site_symmetry_multiplicity
 _atom_site_fract_x
 _atom_site_fract_y
 _atom_site_fract_z
 _atom_site_occupancy
  Ag  Ag0  1  0.24970004  0.00433410  0.24965707  1
  Ag  Ag1  1  0.75309583  0.75779164  -0.00386950  1
  Ag  Ag2  1  0.24524282  -0.00227230  0.75072242  1
  Ag  Ag3  1  0.00251762  0.50332730  -0.00285290  1
  Ag  Ag4  1  -0.00249429  -0.00403884  -0.00511490  1
  Ag  Ag5  1  0.50207118  -0.00201195  -0.00119493  1
  Ag  Ag6  1  0.75103094  0.24292988  0.49914783  1
  Ag  Ag7  1  0.00100029  0.00128515  0.50428345  1
  Ag  Ag8  1  0.49678895  0.24463322  0.25074812  1
  Ag  Ag9  1  0.75508841  -0.00319842  0.75436612  1
  Ag  Ag10  1  0.00061166  0.75707702  0.75468381  1
  Ag  Ag11  1  0.24681525  0.50147635  0.75180339  1
  Ag  Ag12  1  0.24959805  0.24490673  0.49759769  1
  Ag  Ag13  1  0.75073559  0.00210980  0.24644408  1
  Ag  Ag14  1  0.49922671  0.75618729  0.75405512  1
  Ag  Ag15  1  0.24916119  0.49631830  0.24868969  1
  Sb  Sb16  1  0.25024866  0.24669396  0.00319954  1
  Sb  Sb17  1  0.49821090  0.24513180  0.75047760  1
  Sb  Sb18  1  0.75305182  0.50185299  0.75213659  1
  Sb  Sb19  1  0.75280841  0.75751943  0.50263697  1
  Sb  Sb20  1  0.24641450  0.75326817  -0.00320468  1
  Sb  Sb21  1  0.50009367  0.75492812  0.24583222  1
  Sb  Sb22  1  0.00319583  0.24654979  0.25115519  1
  Sb  Sb23  1  0.49892732  0.00173082  0.50059024  1
  Sb  Sb24  1  0.74949685  0.24113657  0.00065092  1
  Sb  Sb25  1  0.49791405  0.50275628  -0.00096789  1
  Sb  Sb26  1  0.49786798  0.49815225  0.50051811  1
  Sb  Sb27  1  0.24832010  0.75564596  0.50286384  1
  Sb  Sb28  1  0.75139593  0.49696412  0.24748195  1
  Sb  Sb29  1  -0.00013388  0.75363888  0.24453980  1
  Sb  Sb30  1  0.00336517  0.50033066  0.50246674  1
  Sb  Sb31  1  0.00191826  0.24168800  0.74903037  1
  Te  Te32  1  0.25252986  0.24608706  0.25287970  1
  Te  Te33  1  0.25175999  0.24913611  0.74402181  1
  Te  Te34  1  0.25152653  0.75069619  0.25184283  1
  Te  Te35  1  0.24941728  0.75276460  0.74931663  1
  Te  Te36  1  0.74555610  0.24523372  0.25320835  1
  Te  Te37  1  0.74724600  0.24546490  0.74434885  1
  Te  Te38  1  0.74846960  0.75563047  0.24663545  1
  Te  Te39  1  0.75087287  0.75280277  0.75174356  1
  Te  Te40  1  0.24810761  0.00039098  -0.00048643  1
  Te  Te41  1  0.24726921  0.00364423  0.49975329  1
  Te  Te42  1  0.24593335  0.49910358  -0.00119403  1
  Te  Te43  1  0.24795793  0.49300591  0.49963811  1
  Te  Te44  1  0.75246861  -0.00133049  -0.00098180  1
  Te  Te45  1  0.75288222  0.00295449  0.49950285  1
  Te  Te46  1  0.75565493  0.50638562  0.00049362  1
  Te  Te47  1  0.75116242  0.48977258  0.49829815  1
  Te  Te48  1  -0.00118373  0.25036300  -0.00007600  1
  Te  Te49  1  0.00042797  0.24402237  0.50006689  1
  Te  Te50  1  -0.00337564  0.75447030  -0.00397635  1
  Te  Te51  1  -0.00092281  0.75662857  0.50892163  1
  Te  Te52  1  0.50107540  0.24426413  0.00623341  1
  Te  Te53  1  0.49851883  0.25000553  0.49453332  1
  Te  Te54  1  0.50641084  0.75461970  -0.00478523  1
  Te  Te55  1  0.50127880  0.74892606  0.51006606  1
  Te  Te56  1  0.00164719  -0.00164775  0.24821031  1
  Te  Te57  1  0.00170213  -0.00121487  0.75269053  1
  Te  Te58  1  0.00594314  0.50218569  0.24581494  1
  Te  Te59  1  0.00437557  0.50605705  0.75347497  1
  Te  Te60  1  0.49753629  0.00079538  0.24687090  1
  Te  Te61  1  0.49770012  -0.00210137  0.75378257  1
  Te  Te62  1  0.49325247  0.49674622  0.24893839  1
  Te  Te63  1  0.49351312  0.50529422  0.75163866  1
