# generated using pymatgen
data_AgSbTe2
_symmetry_space_group_name_H-M   'P 1'
_cell_length_a   12.32380467
_cell_length_b   12.29089210
_cell_length_c   12.31818377
_cell_angle_alpha   90.00883278
_cell_angle_beta   89.98988495
_cell_angle_gamma   90.00492089
_symmetry_Int_Tables_number   1
_chemical_formula_structural   AgSbTe2
_chemical_formula_sum   'Ag16 Sb16 Te32'
_cell_volume   1865.84205469
_cell_formula_units_Z   16
loop_
 _symmetry_equiv_pos_site_id
 _symmetry_equiv_pos_as_xyz
  1  'x, y, z'
loop_
 _atom_site_type_symbol
 _atom_site_label
 _atom_site_symmetry_multiplicity
 _atom_site_fract_x
 _atom_site_fract_y
 _atom_site_fract_z
 _atom_site_occupancy
  Ag  Ag0  1  0.24773262  0.49192882  0.25293950  1
  Ag  Ag1  1  0.75377517  0.01159741  0.25872061  1
  Ag  Ag2  1  0.24802563  0.49293037  0.74787994  1
  Ag  Ag3  1  -0.00397089  0.25459915  0.26391760  1
  Ag  Ag4  1  0.50299752  0.48728653  0.51003799  1
  Ag  Ag5  1  0.75281748  0.49177552  0.74271399  1
  Ag  Ag6  1  0.75820392  0.25327608  0.50698611  1
  Ag  Ag7  1  -0.00412615  0.48719113  0.51095153  1
  Ag  Ag8  1  0.25171938  0.25605717  -0.00517047  1
  Ag  Ag9  1  -0.01059101  0.01934312  0.50056269  1
  Ag  Ag10  1  0.75017165  0.25409540  -0.01214370  1
  Ag  Ag11  1  0.50963777  0.01825957  0.50221092  1
  Ag  Ag12  1  -0.00136042  0.73268675  0.74410764  1
  Ag  Ag13  1  0.49754735  0.49033022  -0.01369115  1
  Ag  Ag14  1  -0.00877872  0.25682432  0.73795044  1
  Ag  Ag15  1  0.50827612  0.26166775  0.74354717  1
  Sb  Sb16  1  0.50141877  0.73971613  0.74826373  1
  Sb  Sb17  1  0.50548671  0.01394612  -0.00448205  1
  Sb  Sb18  1  0.75019908  0.74094567  -0.00200624  1
  Sb  Sb19  1  0.75139724  0.00907232  0.74548708  1
  Sb  Sb20  1  0.24985654  0.74657460  0.50115575  1
  Sb  Sb21  1  0.50012154  0.74685062  0.25179366  1
  Sb  Sb22  1  0.24795184  0.25192889  0.50311446  1
  Sb  Sb23  1  0.24819597  0.00951712  0.74985398  1
  Sb  Sb24  1  0.50102080  0.25227573  0.25653734  1
  Sb  Sb25  1  0.75191317  0.49583022  0.25243220  1
  Sb  Sb26  1  0.24823164  0.01189559  0.25180189  1
  Sb  Sb27  1  0.00086081  0.49518930  -0.00765196  1
  Sb  Sb28  1  -0.00318910  0.00752728  -0.00211240  1
  Sb  Sb29  1  0.24980194  0.73981523  -0.00375175  1
  Sb  Sb30  1  0.00028418  0.74631994  0.25618047  1
  Sb  Sb31  1  0.75078397  0.74528279  0.50065922  1
  Te  Te32  1  0.24435495  0.25581178  0.24350151  1
  Te  Te33  1  0.25003791  0.25244829  0.75238557  1
  Te  Te34  1  0.25099132  0.73468214  0.24715399  1
  Te  Te35  1  0.24617400  0.73864176  0.75198772  1
  Te  Te36  1  0.75282253  0.24936477  0.25696082  1
  Te  Te37  1  0.75013305  0.25370373  0.74614374  1
  Te  Te38  1  0.74989240  0.76555472  0.24746849  1
  Te  Te39  1  0.75236057  0.73485089  0.75216564  1
  Te  Te40  1  0.25133489  0.00821556  -0.00031909  1
  Te  Te41  1  0.25285192  -0.00265332  0.50123378  1
  Te  Te42  1  0.24835057  0.49564486  -0.00435115  1
  Te  Te43  1  0.25249716  0.49843519  0.50277477  1
  Te  Te44  1  0.74901371  0.00948278  0.00562034  1
  Te  Te45  1  0.75134013  0.00437955  0.50113517  1
  Te  Te46  1  0.74844037  0.49493329  0.00359116  1
  Te  Te47  1  0.75053082  0.49768152  0.49860766  1
  Te  Te48  1  -0.00755272  0.25029550  -0.00163354  1
  Te  Te49  1  0.00068546  0.25236775  0.50000061  1
  Te  Te50  1  -0.00059306  0.75402556  -0.01058525  1
  Te  Te51  1  -0.00030658  0.74622590  0.50437462  1
  Te  Te52  1  0.50460244  0.25442438  -0.00208213  1
  Te  Te53  1  0.49880752  0.25179915  0.50158192  1
  Te  Te54  1  0.50026848  0.73748466  0.00044729  1
  Te  Te55  1  0.49995616  0.74912719  0.49967250  1
  Te  Te56  1  0.00163179  -0.00094223  0.25560474  1
  Te  Te57  1  0.00036071  0.00953887  0.74444121  1
  Te  Te58  1  0.00039897  0.49881531  0.25674482  1
  Te  Te59  1  -0.00113715  0.49475841  0.74909128  1
  Te  Te60  1  0.49715843  -0.00212284  0.25866650  1
  Te  Te61  1  0.49931687  0.00231087  0.74417212  1
  Te  Te62  1  0.49891467  0.50076817  0.25857274  1
  Te  Te63  1  0.49994919  0.49740897  0.74607429  1
