# generated using pymatgen
data_AgSbTe2
_symmetry_space_group_name_H-M   'P 1'
_cell_length_a   12.22727713
_cell_length_b   12.21871262
_cell_length_c   12.21530110
_cell_angle_alpha   90.00255863
_cell_angle_beta   89.99819891
_cell_angle_gamma   90.00306992
_symmetry_Int_Tables_number   1
_chemical_formula_structural   AgSbTe2
_chemical_formula_sum   'Ag16 Sb16 Te32'
_cell_volume   1824.98534321
_cell_formula_units_Z   16
loop_
 _symmetry_equiv_pos_site_id
 _symmetry_equiv_pos_as_xyz
  1  'x, y, z'
loop_
 _atom_site_type_symbol
 _atom_site_label
 _atom_site_symmetry_multiplicity
 _atom_site_fract_x
 _atom_site_fract_y
 _atom_site_fract_z
 _atom_site_occupancy
  Ag  Ag0  1  -0.00295285  0.25791809  0.24471112  1
  Ag  Ag1  1  -0.00091442  0.00197537  0.49762565  1
  Ag  Ag2  1  0.75466007  0.49729800  0.23254188  1
  Ag  Ag3  1  0.75384153  0.49744242  0.76804288  1
  Ag  Ag4  1  0.75141184  0.73318261  0.00277415  1
  Ag  Ag5  1  -0.00067552  0.74279008  0.24437807  1
  Ag  Ag6  1  0.50083671  0.00236872  0.49695915  1
  Ag  Ag7  1  0.24524258  0.49981409  0.23922578  1
  Ag  Ag8  1  0.24849332  0.74140829  0.00259668  1
  Ag  Ag9  1  -0.00216557  0.25609478  0.75505599  1
  Ag  Ag10  1  0.24627457  0.49918038  0.76110165  1
  Ag  Ag11  1  0.51183481  0.49832785  0.00337718  1
  Ag  Ag12  1  0.50149392  0.00208011  0.00333283  1
  Ag  Ag13  1  0.75088035  0.26647730  0.00312393  1
  Ag  Ag14  1  -0.01135208  0.49871321  0.00445638  1
  Ag  Ag15  1  0.50267235  0.25297141  0.24389647  1
  Sb  Sb16  1  0.24758643  0.00217712  0.75505696  1
  Sb  Sb17  1  0.50080171  0.49591731  0.49399881  1
  Sb  Sb18  1  -0.00068064  0.74046339  0.75792741  1
  Sb  Sb19  1  0.24774723  0.74943157  0.49529229  1
  Sb  Sb20  1  -0.00123987  0.00223329  0.00250379  1
  Sb  Sb21  1  0.75237089  0.74948339  0.49470504  1
  Sb  Sb22  1  0.50064229  0.74689497  0.75574132  1
  Sb  Sb23  1  0.75207704  0.00392886  0.75447206  1
  Sb  Sb24  1  0.25050571  0.00052059  0.24549359  1
  Sb  Sb25  1  0.24815314  0.26444023  0.00134759  1
  Sb  Sb26  1  0.74947227  0.00465262  0.24584200  1
  Sb  Sb27  1  0.24931634  0.24981071  0.49907833  1
  Sb  Sb28  1  -0.00052142  0.49671531  0.49244172  1
  Sb  Sb29  1  0.50150961  0.74561369  0.24372933  1
  Sb  Sb30  1  0.75084425  0.24999386  0.49471649  1
  Sb  Sb31  1  0.50395287  0.25378246  0.75905193  1
  Te  Te32  1  0.24828830  0.25844753  0.24924601  1
  Te  Te33  1  0.24055132  0.25974891  0.74996140  1
  Te  Te34  1  0.24339250  0.74155607  0.24360928  1
  Te  Te35  1  0.24854708  0.73895911  0.75927281  1
  Te  Te36  1  0.75153621  0.25488448  0.24545520  1
  Te  Te37  1  0.75577895  0.25720352  0.75744761  1
  Te  Te38  1  0.75592190  0.74161906  0.24327210  1
  Te  Te39  1  0.75151170  0.73930670  0.76008427  1
  Te  Te40  1  0.25996841  -0.01385593  -0.00101334  1
  Te  Te41  1  0.25187234  -0.00190274  0.50135488  1
  Te  Te42  1  0.24925276  0.50154217  0.00108881  1
  Te  Te43  1  0.25250455  0.50206335  0.50098096  1
  Te  Te44  1  0.74173464  -0.00089677  -0.00116453  1
  Te  Te45  1  0.74827011  -0.00150842  0.50197111  1
  Te  Te46  1  0.75068951  0.49974536  0.00094643  1
  Te  Te47  1  0.74732293  0.50163872  0.50132014  1
  Te  Te48  1  -0.00395756  0.25022461  0.00282611  1
  Te  Te49  1  -0.00116128  0.24243658  0.49746852  1
  Te  Te50  1  -0.00087563  0.74943187  0.00474417  1
  Te  Te51  1  -0.00010796  0.76119254  0.48950920  1
  Te  Te52  1  0.50502158  0.25130152  0.00405785  1
  Te  Te53  1  0.50108382  0.24092666  0.49023438  1
  Te  Te54  1  0.50116664  0.74873985  0.00250323  1
  Te  Te55  1  0.50000204  0.76365851  0.49842290  1
  Te  Te56  1  0.00067160  0.00230479  0.25543194  1
  Te  Te57  1  0.00095884  0.01022869  0.74195412  1
  Te  Te58  1  -0.00028757  0.49758295  0.25128337  1
  Te  Te59  1  -0.00062886  0.49637525  0.75226679  1
  Te  Te60  1  0.49923795  0.00745306  0.24831351  1
  Te  Te61  1  0.49938381  0.00265997  0.74989910  1
  Te  Te62  1  0.50023670  0.49578584  0.24672625  1
  Te  Te63  1  0.49999323  0.49704413  0.75592694  1
