# generated using pymatgen
data_AgSbTe2
_symmetry_space_group_name_H-M   'P 1'
_cell_length_a   12.31450147
_cell_length_b   12.31490062
_cell_length_c   12.30713494
_cell_angle_alpha   90.00347880
_cell_angle_beta   90.00509275
_cell_angle_gamma   89.97342085
_symmetry_Int_Tables_number   1
_chemical_formula_structural   AgSbTe2
_chemical_formula_sum   'Ag16 Sb16 Te32'
_cell_volume   1866.39971575
_cell_formula_units_Z   16
loop_
 _symmetry_equiv_pos_site_id
 _symmetry_equiv_pos_as_xyz
  1  'x, y, z'
loop_
 _atom_site_type_symbol
 _atom_site_label
 _atom_site_symmetry_multiplicity
 _atom_site_fract_x
 _atom_site_fract_y
 _atom_site_fract_z
 _atom_site_occupancy
  Ag  Ag0  1  -0.00417621  0.75753896  0.26259836  1
  Ag  Ag1  1  0.76482087  -0.00333060  0.26720201  1
  Ag  Ag2  1  0.50088657  0.24548915  0.73935650  1
  Ag  Ag3  1  0.76096570  0.77058476  0.49661265  1
  Ag  Ag4  1  0.76647932  0.50402423  0.26226125  1
  Ag  Ag5  1  -0.00282452  -0.00427864  0.01093133  1
  Ag  Ag6  1  -0.01470157  -0.01062336  0.49421763  1
  Ag  Ag7  1  0.23691855  0.50008762  0.26112062  1
  Ag  Ag8  1  0.52157235  0.00638555  0.49979393  1
  Ag  Ag9  1  0.75809963  -0.00030418  0.73038942  1
  Ag  Ag10  1  0.75377324  0.23405678  0.50003765  1
  Ag  Ag11  1  0.23348037  -0.00192731  0.26088160  1
  Ag  Ag12  1  -0.00084272  0.50588156  0.49036172  1
  Ag  Ag13  1  -0.00363896  0.75548052  0.73318992  1
  Ag  Ag14  1  0.24479751  0.24749579  0.49916142  1
  Ag  Ag15  1  0.24227576  0.49653583  0.73139523  1
  Sb  Sb16  1  0.50075904  0.49718928  0.50025640  1
  Sb  Sb17  1  0.50040955  0.24878914  0.25517722  1
  Sb  Sb18  1  0.50098569  0.00166478  0.00171748  1
  Sb  Sb19  1  0.24588028  0.75225668  0.00175664  1
  Sb  Sb20  1  0.24908299  0.24735702  0.00096792  1
  Sb  Sb21  1  0.75076947  0.24779050  0.00091557  1
  Sb  Sb22  1  0.00044598  0.50359314  0.00508955  1
  Sb  Sb23  1  0.75686937  0.50117664  0.73706641  1
  Sb  Sb24  1  -0.00001877  0.24509650  0.25353885  1
  Sb  Sb25  1  0.50261968  0.75078146  0.25611011  1
  Sb  Sb26  1  0.24506379  -0.00021872  0.73768735  1
  Sb  Sb27  1  0.24432865  0.75009027  0.49831155  1
  Sb  Sb28  1  0.50102052  0.74990153  0.74152869  1
  Sb  Sb29  1  0.75384454  0.75100031  0.00346023  1
  Sb  Sb30  1  -0.00048566  0.24728955  0.74388136  1
  Sb  Sb31  1  0.49992772  0.49783964  -0.00036983  1
  Te  Te32  1  0.25071837  0.25281585  0.25456189  1
  Te  Te33  1  0.24831134  0.25195730  0.74588670  1
  Te  Te34  1  0.24642465  0.74925391  0.25045606  1
  Te  Te35  1  0.24554732  0.74472135  0.75027791  1
  Te  Te36  1  0.74896396  0.24717487  0.25395797  1
  Te  Te37  1  0.75031766  0.25095281  0.74691640  1
  Te  Te38  1  0.75195971  0.75295854  0.25148857  1
  Te  Te39  1  0.75335499  0.74859048  0.74989166  1
  Te  Te40  1  0.24703041  0.00110860  0.01602314  1
  Te  Te41  1  0.24410156  -0.00064680  0.49684072  1
  Te  Te42  1  0.25087043  0.49895171  0.01079412  1
  Te  Te43  1  0.25041995  0.50262465  0.49897502  1
  Te  Te44  1  0.75313682  0.00172830  0.00422037  1
  Te  Te45  1  0.74931634  0.00215067  0.50209026  1
  Te  Te46  1  0.74890642  0.49841049  0.02042496  1
  Te  Te47  1  0.74918600  0.49529580  0.49545242  1
  Te  Te48  1  -0.00017964  0.23662806  -0.00203976  1
  Te  Te49  1  0.00077064  0.25766473  0.49748891  1
  Te  Te50  1  0.00016558  0.75640618  0.00098932  1
  Te  Te51  1  -0.00219038  0.74594358  0.49810758  1
  Te  Te52  1  0.49984880  0.25218460  -0.01891818  1
  Te  Te53  1  0.49987682  0.24797434  0.50141141  1
  Te  Te54  1  0.49872588  0.74730430  -0.00149014  1
  Te  Te55  1  0.51737574  0.76090757  0.49828662  1
  Te  Te56  1  -0.00041347  -0.00029475  0.25763495  1
  Te  Te57  1  -0.00025246  -0.00316559  0.73840076  1
  Te  Te58  1  0.00085721  0.50107571  0.24982008  1
  Te  Te59  1  0.00280425  0.50403424  0.75462936  1
  Te  Te60  1  0.50087340  0.00046546  0.25107924  1
  Te  Te61  1  0.49972615  0.00019372  0.74963546  1
  Te  Te62  1  0.49261913  0.49944713  0.24854799  1
  Te  Te63  1  0.49143768  0.50048780  0.75155150  1
