# generated using pymatgen
data_AgSbTe2
_symmetry_space_group_name_H-M   'P 1'
_cell_length_a   12.21020463
_cell_length_b   12.20834962
_cell_length_c   12.21042905
_cell_angle_alpha   89.99600350
_cell_angle_beta   89.99772594
_cell_angle_gamma   89.99281598
_symmetry_Int_Tables_number   1
_chemical_formula_structural   AgSbTe2
_chemical_formula_sum   'Ag16 Sb16 Te32'
_cell_volume   1820.16525472
_cell_formula_units_Z   16
loop_
 _symmetry_equiv_pos_site_id
 _symmetry_equiv_pos_as_xyz
  1  'x, y, z'
loop_
 _atom_site_type_symbol
 _atom_site_label
 _atom_site_symmetry_multiplicity
 _atom_site_fract_x
 _atom_site_fract_y
 _atom_site_fract_z
 _atom_site_occupancy
  Ag  Ag0  1  0.74866862  0.75307759  0.00298800  1
  Ag  Ag1  1  0.25088306  0.24675890  -0.00074886  1
  Ag  Ag2  1  0.75004859  0.49227050  0.24931852  1
  Ag  Ag3  1  -0.00496747  0.24600177  0.25007582  1
  Ag  Ag4  1  0.49983802  0.00377027  0.00139756  1
  Ag  Ag5  1  0.74960488  0.24679862  0.00539602  1
  Ag  Ag6  1  0.00094238  0.24925574  0.75059237  1
  Ag  Ag7  1  0.49885846  0.25097063  0.75240308  1
  Ag  Ag8  1  0.75170107  0.24922878  0.49489960  1
  Ag  Ag9  1  0.25144571  0.49610596  0.75013242  1
  Ag  Ag10  1  0.00030733  0.00451011  0.49620938  1
  Ag  Ag11  1  0.25148988  0.75353731  0.00080446  1
  Ag  Ag12  1  0.25007359  0.75083213  0.49956736  1
  Ag  Ag13  1  0.24835126  0.00266409  0.24719456  1
  Ag  Ag14  1  0.49968584  0.49675303  0.50088993  1
  Ag  Ag15  1  0.75191567  0.00725650  0.24694036  1
  Sb  Sb16  1  0.49814897  0.74924776  0.75173627  1
  Sb  Sb17  1  0.24915278  0.00449420  0.75364949  1
  Sb  Sb18  1  0.00274486  0.75085898  0.74998342  1
  Sb  Sb19  1  0.00007076  0.49514461  0.49956783  1
  Sb  Sb20  1  0.75074613  0.00394763  0.75437010  1
  Sb  Sb21  1  0.24978537  0.49619984  0.24988849  1
  Sb  Sb22  1  0.24896491  0.24877330  0.50002146  1
  Sb  Sb23  1  0.50616588  0.24933561  0.24707988  1
  Sb  Sb24  1  0.74855711  0.49507477  0.74994393  1
  Sb  Sb25  1  -0.00048906  0.49618368  0.00062551  1
  Sb  Sb26  1  0.49978770  0.00354452  0.49881757  1
  Sb  Sb27  1  0.00008495  0.00416318  0.00442142  1
  Sb  Sb28  1  0.49959228  0.75031009  0.24812511  1
  Sb  Sb29  1  0.74968825  0.75097572  0.49706739  1
  Sb  Sb30  1  0.50026082  0.49537264  -0.00108419  1
  Sb  Sb31  1  0.00063172  0.75505922  0.25029687  1
  Te  Te32  1  0.24527066  0.24826672  0.24637526  1
  Te  Te33  1  0.24916866  0.25231060  0.75255508  1
  Te  Te34  1  0.24877972  0.75264645  0.24656146  1
  Te  Te35  1  0.24868459  0.74458992  0.75284287  1
  Te  Te36  1  0.75043794  0.24838917  0.24838472  1
  Te  Te37  1  0.75138273  0.25157656  0.75153579  1
  Te  Te38  1  0.75105718  0.75146742  0.24427311  1
  Te  Te39  1  0.75079383  0.74825047  0.75860246  1
  Te  Te40  1  0.25125707  0.00036674  0.00288055  1
  Te  Te41  1  0.24990373  -0.00297324  0.49516921  1
  Te  Te42  1  0.25163248  0.50062664  -0.00163020  1
  Te  Te43  1  0.25303456  0.50351569  0.50073665  1
  Te  Te44  1  0.74874058  0.00244732  0.00357366  1
  Te  Te45  1  0.75068045  0.00154526  0.49410596  1
  Te  Te46  1  0.74843838  0.49884577  0.00469718  1
  Te  Te47  1  0.74696268  0.49864850  0.49662099  1
  Te  Te48  1  -0.00092686  0.24874594  -0.00074191  1
  Te  Te49  1  -0.00262769  0.24673244  0.49971289  1
  Te  Te50  1  0.00177261  0.75094127  -0.00118638  1
  Te  Te51  1  0.00457485  0.75672198  0.50112946  1
  Te  Te52  1  0.50007492  0.24774146  -0.00346462  1
  Te  Te53  1  0.50339314  0.25154917  0.50597784  1
  Te  Te54  1  0.49807435  0.75519168  -0.00181221  1
  Te  Te55  1  0.49533435  0.74616230  0.50234928  1
  Te  Te56  1  -0.00013401  0.00453868  0.25380331  1
  Te  Te57  1  0.00019130  0.00782043  0.74060540  1
  Te  Te58  1  -0.00603869  0.49112688  0.25113023  1
  Te  Te59  1  0.00665258  0.49210091  0.74874721  1
  Te  Te60  1  0.49931322  0.00033697  0.24558763  1
  Te  Te61  1  0.49995039  0.00738836  0.75552398  1
  Te  Te62  1  0.50543933  0.49996438  0.25681403  1
  Te  Te63  1  0.49599065  0.49393945  0.74596798  1
