# generated using pymatgen
data_AgSbTe2
_symmetry_space_group_name_H-M   'P 1'
_cell_length_a   12.32355017
_cell_length_b   12.27929995
_cell_length_c   12.30028804
_cell_angle_alpha   89.98359902
_cell_angle_beta   90.00454393
_cell_angle_gamma   89.99369830
_symmetry_Int_Tables_number   1
_chemical_formula_structural   AgSbTe2
_chemical_formula_sum   'Ag16 Sb16 Te32'
_cell_volume   1861.33569273
_cell_formula_units_Z   16
loop_
 _symmetry_equiv_pos_site_id
 _symmetry_equiv_pos_as_xyz
  1  'x, y, z'
loop_
 _atom_site_type_symbol
 _atom_site_label
 _atom_site_symmetry_multiplicity
 _atom_site_fract_x
 _atom_site_fract_y
 _atom_site_fract_z
 _atom_site_occupancy
  Ag  Ag0  1  0.25264257  0.24328453  -0.01214684  1
  Ag  Ag1  1  0.74815915  0.76203242  0.50204045  1
  Ag  Ag2  1  0.25109388  0.48870490  0.74171048  1
  Ag  Ag3  1  0.73934119  0.24230963  0.51200550  1
  Ag  Ag4  1  0.74637681  0.00393206  0.25403774  1
  Ag  Ag5  1  0.51131980  0.01251840  0.50366030  1
  Ag  Ag6  1  0.25956149  0.24936381  0.51251453  1
  Ag  Ag7  1  -0.00645735  0.00944641  -0.00314803  1
  Ag  Ag8  1  0.74517445  0.00886791  0.74657396  1
  Ag  Ag9  1  -0.00046787  0.49028283  0.50640019  1
  Ag  Ag10  1  0.74728290  0.23962541  -0.01292090  1
  Ag  Ag11  1  0.50017838  0.48255395  0.50648815  1
  Ag  Ag12  1  0.50620535  0.00904596  -0.00261716  1
  Ag  Ag13  1  0.25445106  0.00626870  0.25085206  1
  Ag  Ag14  1  0.50108977  0.24534067  0.74162650  1
  Ag  Ag15  1  -0.00064196  0.24777034  0.74721335  1
  Sb  Sb16  1  0.00119374  0.48641780  -0.00884791  1
  Sb  Sb17  1  0.74947655  0.49190687  0.25438257  1
  Sb  Sb18  1  0.50120880  0.75422417  0.25232793  1
  Sb  Sb19  1  0.25077909  0.75342265  0.50103206  1
  Sb  Sb20  1  -0.00226626  0.75481619  0.25355986  1
  Sb  Sb21  1  0.25055662  0.49087654  0.25396631  1
  Sb  Sb22  1  0.74862308  0.48986624  0.74701913  1
  Sb  Sb23  1  0.49852468  0.48113044  -0.00920030  1
  Sb  Sb24  1  0.25038056  0.76247451  -0.00300011  1
  Sb  Sb25  1  -0.00147401  0.75518942  0.74752380  1
  Sb  Sb26  1  0.25470190  0.00663486  0.74821400  1
  Sb  Sb27  1  0.75011303  0.76412186  -0.00219148  1
  Sb  Sb28  1  0.50065218  0.75710283  0.74853552  1
  Sb  Sb29  1  -0.00630055  0.00829710  0.50583363  1
  Sb  Sb30  1  0.50064622  0.24813679  0.25926866  1
  Sb  Sb31  1  -0.00038496  0.24851147  0.25359667  1
  Te  Te32  1  0.25007513  0.24259782  0.24907224  1
  Te  Te33  1  0.25032685  0.24976825  0.74644130  1
  Te  Te34  1  0.24900159  0.76534375  0.24804824  1
  Te  Te35  1  0.24875766  0.72887040  0.75068066  1
  Te  Te36  1  0.74926886  0.24533052  0.24947155  1
  Te  Te37  1  0.74883407  0.24616954  0.74833681  1
  Te  Te38  1  0.75065826  0.76102940  0.25546512  1
  Te  Te39  1  0.75023154  0.76328747  0.74650244  1
  Te  Te40  1  0.25470785  0.00489665  -0.00384195  1
  Te  Te41  1  0.25009508  0.00130264  0.50151377  1
  Te  Te42  1  0.25086255  0.49092959  0.00337719  1
  Te  Te43  1  0.25472652  0.49858126  0.49823012  1
  Te  Te44  1  0.74573202  0.00476277  0.00042005  1
  Te  Te45  1  0.75209913  0.00707071  0.50010487  1
  Te  Te46  1  0.74941480  0.49253089  0.00387692  1
  Te  Te47  1  0.74516961  0.49058177  0.49932267  1
  Te  Te48  1  -0.00041005  0.24643901  -0.00504007  1
  Te  Te49  1  0.00159846  0.25065936  0.50345841  1
  Te  Te50  1  -0.00066326  0.75983214  -0.00053903  1
  Te  Te51  1  -0.00473770  0.73884155  0.50265873  1
  Te  Te52  1  0.50019840  0.24697400  -0.00675785  1
  Te  Te53  1  0.49979670  0.24515772  0.50249239  1
  Te  Te54  1  0.50041813  0.76335201  -0.00100802  1
  Te  Te55  1  0.50452812  0.75601733  0.50180871  1
  Te  Te56  1  -0.00242342  0.00241110  0.24270337  1
  Te  Te57  1  -0.00251440  0.00537584  0.75219966  1
  Te  Te58  1  -0.00037784  0.50159349  0.26042479  1
  Te  Te59  1  -0.00108817  0.49216855  0.74718896  1
  Te  Te60  1  0.50267753  0.00420004  0.25249088  1
  Te  Te61  1  0.49992722  0.00448146  0.74531504  1
  Te  Te62  1  0.50015054  0.50263448  0.26329418  1
  Te  Te63  1  0.50121796  0.49233086  0.74597723  1
