# generated using pymatgen
data_AgSbTe2
_symmetry_space_group_name_H-M   'P 1'
_cell_length_a   12.23391543
_cell_length_b   12.24415101
_cell_length_c   12.24301646
_cell_angle_alpha   90.00226784
_cell_angle_beta   89.99940193
_cell_angle_gamma   90.00237073
_symmetry_Int_Tables_number   1
_chemical_formula_structural   AgSbTe2
_chemical_formula_sum   'Ag16 Sb16 Te32'
_cell_volume   1833.92927810
_cell_formula_units_Z   16
loop_
 _symmetry_equiv_pos_site_id
 _symmetry_equiv_pos_as_xyz
  1  'x, y, z'
loop_
 _atom_site_type_symbol
 _atom_site_label
 _atom_site_symmetry_multiplicity
 _atom_site_fract_x
 _atom_site_fract_y
 _atom_site_fract_z
 _atom_site_occupancy
  Ag  Ag0  1  0.50560948  0.74926369  0.25632470  1
  Ag  Ag1  1  -0.00418503  -0.01280432  0.49475786  1
  Ag  Ag2  1  -0.00391197  0.24868398  0.74341927  1
  Ag  Ag3  1  -0.00773771  0.24997034  0.25634728  1
  Ag  Ag4  1  0.50332915  0.75021932  0.74366925  1
  Ag  Ag5  1  0.23445751  0.74831723  0.49627833  1
  Ag  Ag6  1  0.76362484  0.74998050  0.49304016  1
  Ag  Ag7  1  0.75709125  -0.00158598  0.25366544  1
  Ag  Ag8  1  -0.00256277  0.75153789  0.73410735  1
  Ag  Ag9  1  0.24023259  0.50440875  0.25432955  1
  Ag  Ag10  1  -0.00571410  0.74889394  0.26452354  1
  Ag  Ag11  1  0.75676166  0.24797493  0.00731199  1
  Ag  Ag12  1  0.75801211  0.50207909  0.25489037  1
  Ag  Ag13  1  -0.00411480  0.00058500  0.00593870  1
  Ag  Ag14  1  0.75761023  0.25001163  0.49313621  1
  Ag  Ag15  1  -0.00327542  0.51284275  0.49323470  1
  Sb  Sb16  1  0.75506410  -0.00254049  0.74510876  1
  Sb  Sb17  1  0.50803982  -0.00218816  0.00365607  1
  Sb  Sb18  1  0.75472314  0.75289717  0.00931774  1
  Sb  Sb19  1  0.24536713  0.74938540  0.00458573  1
  Sb  Sb20  1  0.24443966  0.50406552  0.74291154  1
  Sb  Sb21  1  0.24414786  -0.00278301  0.74644591  1
  Sb  Sb22  1  0.75491951  0.50226811  0.74372400  1
  Sb  Sb23  1  0.23809643  -0.00559885  0.25315879  1
  Sb  Sb24  1  0.50430896  0.50172881  0.00277707  1
  Sb  Sb25  1  0.23939130  0.24973856  0.00402661  1
  Sb  Sb26  1  0.50632278  0.24965486  0.74731179  1
  Sb  Sb27  1  -0.00310752  0.49874690  0.00963542  1
  Sb  Sb28  1  0.50523786  0.50505656  0.49738048  1
  Sb  Sb29  1  0.50715312  -0.00605192  0.49704784  1
  Sb  Sb30  1  0.51029597  0.25090318  0.25186745  1
  Sb  Sb31  1  0.23494366  0.25319566  0.49604333  1
  Te  Te32  1  0.24604657  0.25763301  0.25070052  1
  Te  Te33  1  0.24387042  0.25125311  0.75038999  1
  Te  Te34  1  0.24843260  0.74742800  0.25324195  1
  Te  Te35  1  0.24747567  0.74861487  0.74368772  1
  Te  Te36  1  0.75098521  0.24997973  0.25321150  1
  Te  Te37  1  0.75427204  0.25113505  0.74763019  1
  Te  Te38  1  0.75282299  0.74951633  0.25052387  1
  Te  Te39  1  0.75255509  0.74905655  0.74423552  1
  Te  Te40  1  0.23951798  0.00104132  0.00076818  1
  Te  Te41  1  0.24124884  -0.00740038  0.49928778  1
  Te  Te42  1  0.25142530  0.49899929  0.01221442  1
  Te  Te43  1  0.24415448  0.50432647  0.49425408  1
  Te  Te44  1  0.75631039  0.00449202  0.00697932  1
  Te  Te45  1  0.75490073  -0.00169101  0.49672502  1
  Te  Te46  1  0.75031701  0.49127655  0.01033986  1
  Te  Te47  1  0.75354955  0.50172771  0.49580782  1
  Te  Te48  1  -0.00431675  0.24735570  0.00039073  1
  Te  Te49  1  -0.00183994  0.24995834  0.49883075  1
  Te  Te50  1  -0.00051688  0.75562867  -0.00247387  1
  Te  Te51  1  -0.00188607  0.74929700  0.49932739  1
  Te  Te52  1  0.50978071  0.24881406  -0.00340770  1
  Te  Te53  1  0.51164008  0.24885803  0.50326178  1
  Te  Te54  1  0.49937584  0.75158464  -0.00152118  1
  Te  Te55  1  0.50230894  0.75073105  0.49884604  1
  Te  Te56  1  -0.00207792  0.00034998  0.25247249  1
  Te  Te57  1  -0.00111032  -0.00073412  0.74804282  1
  Te  Te58  1  -0.00278434  0.50096266  0.25138576  1
  Te  Te59  1  0.00015231  0.50108340  0.74309265  1
  Te  Te60  1  0.50927694  -0.00668417  0.24910343  1
  Te  Te61  1  0.49897119  -0.00813137  0.75129108  1
  Te  Te62  1  0.50202178  0.50634945  0.25065359  1
  Te  Te63  1  0.49854875  0.50833104  0.75073326  1
