# generated using pymatgen
data_AgSbTe2
_symmetry_space_group_name_H-M   'P 1'
_cell_length_a   12.22751866
_cell_length_b   12.22929443
_cell_length_c   12.21862337
_cell_angle_alpha   90.00289206
_cell_angle_beta   89.99964453
_cell_angle_gamma   89.99630038
_symmetry_Int_Tables_number   1
_chemical_formula_structural   AgSbTe2
_chemical_formula_sum   'Ag16 Sb16 Te32'
_cell_volume   1827.09871491
_cell_formula_units_Z   16
loop_
 _symmetry_equiv_pos_site_id
 _symmetry_equiv_pos_as_xyz
  1  'x, y, z'
loop_
 _atom_site_type_symbol
 _atom_site_label
 _atom_site_symmetry_multiplicity
 _atom_site_fract_x
 _atom_site_fract_y
 _atom_site_fract_z
 _atom_site_occupancy
  Ag  Ag0  1  0.00450085  0.25760079  0.74846352  1
  Ag  Ag1  1  0.49844396  -0.00485534  -0.00016471  1
  Ag  Ag2  1  0.00450593  0.49811285  0.50376093  1
  Ag  Ag3  1  0.00608342  0.25211437  0.25064172  1
  Ag  Ag4  1  0.49620205  0.25317741  0.75129341  1
  Ag  Ag5  1  0.24658324  -0.00230148  0.24774195  1
  Ag  Ag6  1  0.75499209  0.50304103  0.75049835  1
  Ag  Ag7  1  0.00117629  -0.00334944  0.00173102  1
  Ag  Ag8  1  0.75101411  0.75056487  -0.00273593  1
  Ag  Ag9  1  0.49578163  0.75097403  0.24453634  1
  Ag  Ag10  1  0.24425858  0.50136042  0.25234191  1
  Ag  Ag11  1  0.00506940  0.74891979  0.24565157  1
  Ag  Ag12  1  0.24591032  0.25431430  0.50149695  1
  Ag  Ag13  1  0.50005497  0.74726197  0.75536003  1
  Ag  Ag14  1  -0.00018509  0.74279864  0.75391368  1
  Ag  Ag15  1  0.24465954  0.49858053  0.74721020  1
  Sb  Sb16  1  0.75203756  0.74696483  0.50306146  1
  Sb  Sb17  1  0.49188632  0.24943842  0.24781151  1
  Sb  Sb18  1  0.24903258  0.00086248  0.75173504  1
  Sb  Sb19  1  0.75611412  0.50306372  0.24983729  1
  Sb  Sb20  1  0.24813656  0.74568085  0.49862848  1
  Sb  Sb21  1  0.49981085  0.50567455  -0.00190732  1
  Sb  Sb22  1  0.24776266  0.24931037  -0.00236301  1
  Sb  Sb23  1  0.00018565  0.50463776  -0.00482163  1
  Sb  Sb24  1  0.75036959  -0.00335258  0.75294906  1
  Sb  Sb25  1  0.49571642  -0.00005237  0.49956636  1
  Sb  Sb26  1  0.49460396  0.49902547  0.50231161  1
  Sb  Sb27  1  0.75202654  0.25075946  -0.00232923  1
  Sb  Sb28  1  0.24864563  0.75101256  0.00103556  1
  Sb  Sb29  1  0.75391330  0.25349285  0.50256089  1
  Sb  Sb30  1  0.00370321  0.00180264  0.49843981  1
  Sb  Sb31  1  0.75295628  -0.00153301  0.24649692  1
  Te  Te32  1  0.24711293  0.25350804  0.25163785  1
  Te  Te33  1  0.24762052  0.25133476  0.74873368  1
  Te  Te34  1  0.24796254  0.74804369  0.25158167  1
  Te  Te35  1  0.24967103  0.74724127  0.74825300  1
  Te  Te36  1  0.75878185  0.25151358  0.25029307  1
  Te  Te37  1  0.75108329  0.25621652  0.75011956  1
  Te  Te38  1  0.74997208  0.74808285  0.24533649  1
  Te  Te39  1  0.75060871  0.74682097  0.75289168  1
  Te  Te40  1  0.24923514  0.00062029  0.00598516  1
  Te  Te41  1  0.24999717  0.00904191  0.49094781  1
  Te  Te42  1  0.25067309  0.49927161  0.00103859  1
  Te  Te43  1  0.24532839  0.49622629  0.50074216  1
  Te  Te44  1  0.75062115  -0.00658176  -0.00013216  1
  Te  Te45  1  0.74917431  0.00054123  0.50003286  1
  Te  Te46  1  0.74938270  0.50672775  -0.00654869  1
  Te  Te47  1  0.75955152  0.49982536  0.50710036  1
  Te  Te48  1  -0.00213643  0.24166385  -0.00051999  1
  Te  Te49  1  0.00305805  0.25167881  0.50201709  1
  Te  Te50  1  -0.00141772  0.75403357  -0.00024701  1
  Te  Te51  1  -0.00025599  0.74658625  0.50079076  1
  Te  Te52  1  0.50250642  0.24116251  -0.00541234  1
  Te  Te53  1  0.49507712  0.24971108  0.50643530  1
  Te  Te54  1  0.50187635  0.75359531  -0.00152332  1
  Te  Te55  1  0.50048605  0.75038005  0.50127175  1
  Te  Te56  1  0.00254264  -0.00248803  0.24806842  1
  Te  Te57  1  0.00146732  -0.00129861  0.75346225  1
  Te  Te58  1  0.00218686  0.50121484  0.25077628  1
  Te  Te59  1  0.00401249  0.50056404  0.75142390  1
  Te  Te60  1  0.49692781  -0.00311712  0.24660192  1
  Te  Te61  1  0.49907660  -0.00297342  0.75408485  1
  Te  Te62  1  0.49532453  0.50391359  0.25070389  1
  Te  Te63  1  0.49653897  0.50183615  0.74929946  1
