# generated using pymatgen
data_AgSbTe2
_symmetry_space_group_name_H-M   'P 1'
_cell_length_a   12.31511236
_cell_length_b   12.32966559
_cell_length_c   12.30333121
_cell_angle_alpha   89.99873142
_cell_angle_beta   89.99723119
_cell_angle_gamma   90.00115140
_symmetry_Int_Tables_number   1
_chemical_formula_structural   AgSbTe2
_chemical_formula_sum   'Ag16 Sb16 Te32'
_cell_volume   1868.15278193
_cell_formula_units_Z   16
loop_
 _symmetry_equiv_pos_site_id
 _symmetry_equiv_pos_as_xyz
  1  'x, y, z'
loop_
 _atom_site_type_symbol
 _atom_site_label
 _atom_site_symmetry_multiplicity
 _atom_site_fract_x
 _atom_site_fract_y
 _atom_site_fract_z
 _atom_site_occupancy
  Ag  Ag0  1  0.00539099  -0.00114800  0.01542587  1
  Ag  Ag1  1  0.76771692  0.75153117  0.49134128  1
  Ag  Ag2  1  0.76557832  0.24867958  0.49295733  1
  Ag  Ag3  1  0.24595681  0.50377052  0.73649246  1
  Ag  Ag4  1  0.24279373  0.52070709  0.25724564  1
  Ag  Ag5  1  0.23589304  0.74433679  0.48235483  1
  Ag  Ag6  1  0.24002995  -0.01582853  0.25193716  1
  Ag  Ag7  1  0.47778182  0.75446889  0.25023627  1
  Ag  Ag8  1  0.00781312  0.24050668  0.26023995  1
  Ag  Ag9  1  0.48974755  -0.00319864  0.01005682  1
  Ag  Ag10  1  0.23324878  0.25592555  0.48900737  1
  Ag  Ag11  1  0.75869006  0.24404736  0.01325325  1
  Ag  Ag12  1  0.00751471  -0.00081453  0.48660503  1
  Ag  Ag13  1  0.01456061  0.76072107  0.25990712  1
  Ag  Ag14  1  0.00836469  0.50096564  0.49250770  1
  Ag  Ag15  1  0.24448906  0.75601970  0.01882567  1
  Sb  Sb16  1  0.75512099  0.75218358  0.00812590  1
  Sb  Sb17  1  0.75099163  -0.00013723  0.74882669  1
  Sb  Sb18  1  0.00188153  0.75123360  0.74102365  1
  Sb  Sb19  1  0.49566599  0.75039858  0.74865890  1
  Sb  Sb20  1  0.49424025  -0.00176598  0.49266142  1
  Sb  Sb21  1  0.00361973  0.50041600  0.00718409  1
  Sb  Sb22  1  0.75892834  0.00038616  0.25091639  1
  Sb  Sb23  1  0.24344522  0.24724914  0.00825252  1
  Sb  Sb24  1  0.49493191  0.24769376  0.24963524  1
  Sb  Sb25  1  0.75513749  0.50022156  0.25300560  1
  Sb  Sb26  1  0.75612648  0.49921712  0.74406125  1
  Sb  Sb27  1  0.49652583  0.50041850  0.00503381  1
  Sb  Sb28  1  0.49261222  0.49993395  0.49758977  1
  Sb  Sb29  1  0.00165529  0.24884044  0.74138662  1
  Sb  Sb30  1  0.24893566  -0.00044035  0.74719307  1
  Sb  Sb31  1  0.49763103  0.24953477  0.75053439  1
  Te  Te32  1  0.24817714  0.24645241  0.25286439  1
  Te  Te33  1  0.25075478  0.25447982  0.73853834  1
  Te  Te34  1  0.24896741  0.75175960  0.24704897  1
  Te  Te35  1  0.24996098  0.74721037  0.74920668  1
  Te  Te36  1  0.75093163  0.24976185  0.25297220  1
  Te  Te37  1  0.74908668  0.25045130  0.74130839  1
  Te  Te38  1  0.75358300  0.75066456  0.25582244  1
  Te  Te39  1  0.74900737  0.74835894  0.73559968  1
  Te  Te40  1  0.24243069  -0.00172965  -0.00419701  1
  Te  Te41  1  0.24932917  -0.00126934  0.50073799  1
  Te  Te42  1  0.24936314  0.50330447  0.00597905  1
  Te  Te43  1  0.24883933  0.50068220  0.49451008  1
  Te  Te44  1  0.76155764  0.00393832  0.00068424  1
  Te  Te45  1  0.75340540  0.00153400  0.49917856  1
  Te  Te46  1  0.74973406  0.49022864  -0.00243665  1
  Te  Te47  1  0.75690009  0.49713909  0.50016917  1
  Te  Te48  1  -0.00180114  0.25069187  0.00575558  1
  Te  Te49  1  0.00246301  0.24401540  0.49855515  1
  Te  Te50  1  -0.00319434  0.74983583  0.00518625  1
  Te  Te51  1  0.00242850  0.75560375  0.49873827  1
  Te  Te52  1  0.50694838  0.24655548  0.00010451  1
  Te  Te53  1  0.50916825  0.24897506  0.50101316  1
  Te  Te54  1  0.50660871  0.75162695  0.00278714  1
  Te  Te55  1  0.49868764  0.75014869  0.49714377  1
  Te  Te56  1  0.00328352  0.00082913  0.25252722  1
  Te  Te57  1  -0.00230746  -0.00010523  0.75556561  1
  Te  Te58  1  0.00141135  0.49914273  0.25354933  1
  Te  Te59  1  0.00459223  0.49982772  0.74015627  1
  Te  Te60  1  0.48706501  -0.00286580  0.24692025  1
  Te  Te61  1  0.50192754  0.00053543  0.76971352  1
  Te  Te62  1  0.48947100  0.50670512  0.25016569  1
  Te  Te63  1  0.48819956  0.49943739  0.75164867  1
