# generated using pymatgen
data_AgSbTe2
_symmetry_space_group_name_H-M   'P 1'
_cell_length_a   12.26807159
_cell_length_b   12.25738156
_cell_length_c   12.25003428
_cell_angle_alpha   89.99616971
_cell_angle_beta   89.99999996
_cell_angle_gamma   89.99999982
_symmetry_Int_Tables_number   1
_chemical_formula_structural   AgSbTe2
_chemical_formula_sum   'Ag16 Sb16 Te32'
_cell_volume   1842.09197243
_cell_formula_units_Z   16
loop_
 _symmetry_equiv_pos_site_id
 _symmetry_equiv_pos_as_xyz
  1  'x, y, z'
loop_
 _atom_site_type_symbol
 _atom_site_label
 _atom_site_symmetry_multiplicity
 _atom_site_fract_x
 _atom_site_fract_y
 _atom_site_fract_z
 _atom_site_occupancy
  Ag  Ag0  1  0.49999994  -0.00145644  0.49995169  1
  Ag  Ag1  1  0.50000002  -0.01151547  0.00011884  1
  Ag  Ag2  1  0.49999998  0.23291290  0.75901176  1
  Ag  Ag3  1  0.49999998  0.76606729  0.76606118  1
  Ag  Ag4  1  0.49999995  0.23350214  0.24222793  1
  Ag  Ag5  1  0.26623997  -0.00443843  0.75766192  1
  Ag  Ag6  1  0.26467294  0.75519066  -0.00189982  1
  Ag  Ag7  1  0.73376008  -0.00443845  0.75766194  1
  Ag  Ag8  1  0.73365642  -0.00162340  0.24316191  1
  Ag  Ag9  1  0.73532721  0.75519019  -0.00189981  1
  Ag  Ag10  1  -0.00000001  0.75538967  0.75815887  1
  Ag  Ag11  1  0.49999996  0.76647769  0.23394222  1
  Ag  Ag12  1  0.00000001  0.50565639  0.00004028  1
  Ag  Ag13  1  -0.00000003  0.24502533  0.24443832  1
  Ag  Ag14  1  0.26634398  -0.00162334  0.24316205  1
  Ag  Ag15  1  0.49999998  0.51585260  0.00014735  1
  Sb  Sb16  1  0.00000007  -0.00055214  0.49892806  1
  Sb  Sb17  1  -0.00000002  0.50150171  0.49926733  1
  Sb  Sb18  1  0.25285546  0.24423068  0.49873733  1
  Sb  Sb19  1  0.74524022  0.24313523  0.00120808  1
  Sb  Sb20  1  0.25475971  0.24313499  0.00120810  1
  Sb  Sb21  1  0.50000000  0.50023867  0.49989012  1
  Sb  Sb22  1  0.74754880  0.50191389  0.24354210  1
  Sb  Sb23  1  0.25245120  0.50191396  0.24354205  1
  Sb  Sb24  1  0.00000001  0.75341513  0.24096916  1
  Sb  Sb25  1  0.25312865  0.75529115  0.50226468  1
  Sb  Sb26  1  0.74755238  0.50631833  0.75690770  1
  Sb  Sb27  1  0.00000002  0.24572498  0.75634514  1
  Sb  Sb28  1  0.74714455  0.24423069  0.49873734  1
  Sb  Sb29  1  0.74687134  0.75529104  0.50226468  1
  Sb  Sb30  1  0.25244761  0.50631837  0.75690774  1
  Sb  Sb31  1  0.00000004  -0.00414881  0.00019133  1
  Te  Te32  1  0.25424305  0.24395025  0.24978237  1
  Te  Te33  1  0.25327803  0.24064550  0.74949240  1
  Te  Te34  1  0.25073982  0.75413245  0.24723285  1
  Te  Te35  1  0.25316925  0.75392965  0.75197356  1
  Te  Te36  1  0.74575703  0.24395037  0.24978237  1
  Te  Te37  1  0.74672200  0.24064558  0.74949241  1
  Te  Te38  1  0.74926013  0.75413248  0.24723276  1
  Te  Te39  1  0.74683073  0.75392968  0.75197362  1
  Te  Te40  1  0.24880588  -0.00360845  0.00024051  1
  Te  Te41  1  0.25536088  -0.00071342  0.49813777  1
  Te  Te42  1  0.25239103  0.51031058  -0.00009919  1
  Te  Te43  1  0.24848492  0.49956968  0.50000417  1
  Te  Te44  1  0.75119411  -0.00360823  0.00024051  1
  Te  Te45  1  0.74463917  -0.00071337  0.49813789  1
  Te  Te46  1  0.74760897  0.51031052  -0.00009924  1
  Te  Te47  1  0.75151508  0.49956973  0.50000421  1
  Te  Te48  1  0.00000006  0.25994764  0.00433843  1
  Te  Te49  1  0.00000000  0.25203921  0.48954280  1
  Te  Te50  1  0.00000001  0.74661040  -0.00332807  1
  Te  Te51  1  0.00000001  0.74804925  0.51367168  1
  Te  Te52  1  0.50000000  0.24790888  0.00015073  1
  Te  Te53  1  0.50000003  0.24743494  0.49857799  1
  Te  Te54  1  0.49999983  0.75006599  0.00061939  1
  Te  Te55  1  0.50000001  0.75276732  0.49918152  1
  Te  Te56  1  0.00000016  0.00426940  0.25227035  1
  Te  Te57  1  0.00000008  -0.00205312  0.74769188  1
  Te  Te58  1  0.00000002  0.49471717  0.24639663  1
  Te  Te59  1  0.00000003  0.50105346  0.75425589  1
  Te  Te60  1  0.49999941  -0.00114783  0.24875724  1
  Te  Te61  1  0.49999986  0.00023516  0.75141753  1
  Te  Te62  1  0.49999999  0.49890928  0.24653838  1
  Te  Te63  1  0.49999998  0.49863266  0.75353112  1
