# generated using pymatgen
data_AgSbTe2
_symmetry_space_group_name_H-M   'P 1'
_cell_length_a   12.21100465
_cell_length_b   12.21951770
_cell_length_c   12.22144438
_cell_angle_alpha   90.00407083
_cell_angle_beta   90.00454568
_cell_angle_gamma   89.99694099
_symmetry_Int_Tables_number   1
_chemical_formula_structural   AgSbTe2
_chemical_formula_sum   'Ag16 Sb16 Te32'
_cell_volume   1823.59332595
_cell_formula_units_Z   16
loop_
 _symmetry_equiv_pos_site_id
 _symmetry_equiv_pos_as_xyz
  1  'x, y, z'
loop_
 _atom_site_type_symbol
 _atom_site_label
 _atom_site_symmetry_multiplicity
 _atom_site_fract_x
 _atom_site_fract_y
 _atom_site_fract_z
 _atom_site_occupancy
  Ag  Ag0  1  0.50085918  0.74769652  0.24621895  1
  Ag  Ag1  1  0.74655288  0.49539158  0.75155814  1
  Ag  Ag2  1  0.75166971  0.25249123  -0.00788389  1
  Ag  Ag3  1  0.25088986  0.00065715  0.24538105  1
  Ag  Ag4  1  0.50244607  0.74559768  0.75361955  1
  Ag  Ag5  1  0.75108606  0.25301571  0.50844698  1
  Ag  Ag6  1  0.75043918  0.00482149  0.75187356  1
  Ag  Ag7  1  0.74588584  0.49954773  0.24873214  1
  Ag  Ag8  1  0.50076292  0.50218098  -0.00372623  1
  Ag  Ag9  1  0.74701860  0.74712858  0.50353926  1
  Ag  Ag10  1  0.25316986  0.49624260  0.75474666  1
  Ag  Ag11  1  0.24815051  0.25065621  -0.00483318  1
  Ag  Ag12  1  0.00077350  0.00371321  -0.00240671  1
  Ag  Ag13  1  0.24928006  0.25101446  0.50477478  1
  Ag  Ag14  1  0.25417354  0.74910573  -0.00156766  1
  Ag  Ag15  1  -0.00386544  0.24999798  0.75359604  1
  Sb  Sb16  1  -0.00182713  0.49750421  0.50220731  1
  Sb  Sb17  1  -0.00103836  0.49671922  -0.00274712  1
  Sb  Sb18  1  0.25513319  0.49984487  0.24573455  1
  Sb  Sb19  1  0.49913448  -0.00186536  -0.00140912  1
  Sb  Sb20  1  0.74843797  0.00029228  0.24810227  1
  Sb  Sb21  1  0.74556150  0.74706332  -0.00298836  1
  Sb  Sb22  1  -0.00156381  0.75158426  0.24679641  1
  Sb  Sb23  1  0.50094555  0.25275508  0.24739792  1
  Sb  Sb24  1  0.50251019  0.50085019  0.50455412  1
  Sb  Sb25  1  -0.00196098  0.75022389  0.75301513  1
  Sb  Sb26  1  0.50026586  -0.00033202  0.50184939  1
  Sb  Sb27  1  0.25211851  0.74903310  0.50221374  1
  Sb  Sb28  1  -0.00037024  0.00324588  0.50346417  1
  Sb  Sb29  1  0.25043378  0.00419487  0.75355934  1
  Sb  Sb30  1  0.50466563  0.25464757  0.75224400  1
  Sb  Sb31  1  -0.00013739  0.24830257  0.24562143  1
  Te  Te32  1  0.25029825  0.24830378  0.24891997  1
  Te  Te33  1  0.25000334  0.25064032  0.75206737  1
  Te  Te34  1  0.25401121  0.75063266  0.24941811  1
  Te  Te35  1  0.25192746  0.74760920  0.75025078  1
  Te  Te36  1  0.74950209  0.25248305  0.25088803  1
  Te  Te37  1  0.74804674  0.25217028  0.75003075  1
  Te  Te38  1  0.74639401  0.74810226  0.25207360  1
  Te  Te39  1  0.74868463  0.74720419  0.74929524  1
  Te  Te40  1  0.24948460  0.00286621  0.00100199  1
  Te  Te41  1  0.24932660  0.00545203  0.49522580  1
  Te  Te42  1  0.25140279  0.49806996  -0.00165263  1
  Te  Te43  1  0.24988148  0.49433701  0.50415941  1
  Te  Te44  1  0.75192668  0.00416612  -0.00183426  1
  Te  Te45  1  0.75057736  0.00328227  0.50271905  1
  Te  Te46  1  0.74874156  0.49798648  -0.00324038  1
  Te  Te47  1  0.74944404  0.49700809  0.50273385  1
  Te  Te48  1  0.00070933  0.24670826  -0.00376557  1
  Te  Te49  1  -0.00167281  0.24908880  0.50676861  1
  Te  Te50  1  0.00944834  0.75744447  -0.00051639  1
  Te  Te51  1  -0.00841091  0.75106891  0.49967809  1
  Te  Te52  1  0.49919830  0.25542542  0.00093251  1
  Te  Te53  1  0.50035543  0.24980798  0.49868226  1
  Te  Te54  1  0.49653775  0.74669170  -0.00104432  1
  Te  Te55  1  0.50521546  0.75018397  0.50048903  1
  Te  Te56  1  0.00572417  -0.00010116  0.24182300  1
  Te  Te57  1  -0.00466490  0.00493528  0.75490694  1
  Te  Te58  1  -0.01077293  0.50025306  0.24970008  1
  Te  Te59  1  -0.00036940  0.49447131  0.75095305  1
  Te  Te60  1  0.49543528  -0.00840342  0.24931633  1
  Te  Te61  1  0.50648343  -0.01060715  0.75083068  1
  Te  Te62  1  0.50463710  0.50521616  0.24301925  1
  Te  Te63  1  0.50089244  0.50417973  0.75448514  1
