# generated using pymatgen
data_AgSbTe2
_symmetry_space_group_name_H-M   'P 1'
_cell_length_a   12.27412677
_cell_length_b   12.30865853
_cell_length_c   12.30199366
_cell_angle_alpha   89.98556037
_cell_angle_beta   89.97262656
_cell_angle_gamma   89.98677376
_symmetry_Int_Tables_number   1
_chemical_formula_structural   AgSbTe2
_chemical_formula_sum   'Ag16 Sb16 Te32'
_cell_volume   1858.56071041
_cell_formula_units_Z   16
loop_
 _symmetry_equiv_pos_site_id
 _symmetry_equiv_pos_as_xyz
  1  'x, y, z'
loop_
 _atom_site_type_symbol
 _atom_site_label
 _atom_site_symmetry_multiplicity
 _atom_site_fract_x
 _atom_site_fract_y
 _atom_site_fract_z
 _atom_site_occupancy
  Ag  Ag0  1  0.74204982  0.00532761  0.24957863  1
  Ag  Ag1  1  0.49423562  0.49107794  -0.00379009  1
  Ag  Ag2  1  0.25927234  0.00936548  0.25004736  1
  Ag  Ag3  1  0.73448246  0.25187296  -0.00426979  1
  Ag  Ag4  1  0.25429997  0.74373237  0.49635931  1
  Ag  Ag5  1  0.25501636  0.49032360  0.25129551  1
  Ag  Ag6  1  0.74255958  0.74790191  0.50622186  1
  Ag  Ag7  1  0.26346435  0.25689081  0.01091992  1
  Ag  Ag8  1  0.74250986  0.00209463  0.74915504  1
  Ag  Ag9  1  0.74135108  0.49812681  0.74977599  1
  Ag  Ag10  1  0.50346651  0.25636201  0.76198675  1
  Ag  Ag11  1  0.25958083  0.74366395  0.00460718  1
  Ag  Ag12  1  0.49182222  0.25196868  0.23879536  1
  Ag  Ag13  1  0.00602487  0.50112524  0.50033136  1
  Ag  Ag14  1  0.25522665  0.25903038  0.48674734  1
  Ag  Ag15  1  0.50238642  0.74431184  0.75070193  1
  Sb  Sb16  1  0.00167104  0.49957564  -0.00059890  1
  Sb  Sb17  1  -0.00120358  0.74886964  0.74909222  1
  Sb  Sb18  1  0.49923218  0.50012054  0.50143874  1
  Sb  Sb19  1  0.00178638  0.00076130  0.49964138  1
  Sb  Sb20  1  0.00169417  0.74971762  0.25066366  1
  Sb  Sb21  1  0.25305853  0.49939226  0.75105138  1
  Sb  Sb22  1  0.00559464  0.25051208  0.25048679  1
  Sb  Sb23  1  0.25465708  0.00113579  0.75020899  1
  Sb  Sb24  1  0.49603057  0.74827647  0.24773513  1
  Sb  Sb25  1  -0.00221564  0.25131988  0.74975123  1
  Sb  Sb26  1  0.74486402  0.24871713  0.49991710  1
  Sb  Sb27  1  0.74526570  0.49785297  0.25002313  1
  Sb  Sb28  1  0.49999465  -0.00062180  0.49946296  1
  Sb  Sb29  1  0.49997869  0.00739514  0.00058492  1
  Sb  Sb30  1  0.00078336  -0.00014196  0.00008657  1
  Sb  Sb31  1  0.74058875  0.75104495  -0.00140208  1
  Te  Te32  1  0.25129682  0.24937063  0.24971353  1
  Te  Te33  1  0.25503003  0.24717087  0.75441121  1
  Te  Te34  1  0.25104118  0.75302210  0.25477804  1
  Te  Te35  1  0.25470780  0.75249251  0.74478647  1
  Te  Te36  1  0.74520022  0.24878214  0.25166894  1
  Te  Te37  1  0.74710052  0.25121510  0.74779532  1
  Te  Te38  1  0.74958979  0.75401239  0.25231086  1
  Te  Te39  1  0.74663450  0.74919097  0.74994262  1
  Te  Te40  1  0.25138568  0.00169073  0.00297142  1
  Te  Te41  1  0.24957481  -0.00546881  0.49729329  1
  Te  Te42  1  0.25076476  0.49622913  -0.00390999  1
  Te  Te43  1  0.25081662  0.50234995  0.50310215  1
  Te  Te44  1  0.74917275  0.00229888  0.00633163  1
  Te  Te45  1  0.75078556  -0.00274541  0.49546745  1
  Te  Te46  1  0.75199103  0.49703902  0.00131333  1
  Te  Te47  1  0.74965448  0.50405608  0.49788227  1
  Te  Te48  1  0.00168795  0.24815709  0.00004320  1
  Te  Te49  1  0.01351820  0.25523334  0.49996578  1
  Te  Te50  1  0.02226433  0.75094758  0.00046930  1
  Te  Te51  1  0.00583677  0.74609715  0.49963085  1
  Te  Te52  1  0.50163515  0.25260806  -0.00149156  1
  Te  Te53  1  0.49398541  0.24907534  0.50107385  1
  Te  Te54  1  0.49453458  0.73900594  -0.00343451  1
  Te  Te55  1  0.50037578  0.75077921  0.50402180  1
  Te  Te56  1  -0.00519881  0.00023047  0.24948652  1
  Te  Te57  1  -0.01907465  0.00001619  0.75031745  1
  Te  Te58  1  0.01046202  0.50018240  0.25422219  1
  Te  Te59  1  -0.01454267  0.50001410  0.74650530  1
  Te  Te60  1  0.49940875  0.00490432  0.24888786  1
  Te  Te61  1  0.50426024  0.00041991  0.75144625  1
  Te  Te62  1  0.49406439  0.49686313  0.24457577  1
  Te  Te63  1  0.50250654  0.49765564  0.75181453  1
