# generated using pymatgen
data_AgSbTe2
_symmetry_space_group_name_H-M   'P 1'
_cell_length_a   12.21293070
_cell_length_b   12.22145097
_cell_length_c   12.21624470
_cell_angle_alpha   89.99966255
_cell_angle_beta   89.99530030
_cell_angle_gamma   89.99942336
_symmetry_Int_Tables_number   1
_chemical_formula_structural   AgSbTe2
_chemical_formula_sum   'Ag16 Sb16 Te32'
_cell_volume   1823.39342525
_cell_formula_units_Z   16
loop_
 _symmetry_equiv_pos_site_id
 _symmetry_equiv_pos_as_xyz
  1  'x, y, z'
loop_
 _atom_site_type_symbol
 _atom_site_label
 _atom_site_symmetry_multiplicity
 _atom_site_fract_x
 _atom_site_fract_y
 _atom_site_fract_z
 _atom_site_occupancy
  Ag  Ag0  1  0.49976902  0.00033017  -0.00540753  1
  Ag  Ag1  1  -0.00218540  0.49606032  -0.00594024  1
  Ag  Ag2  1  0.50747241  0.25559837  0.75394644  1
  Ag  Ag3  1  0.50207749  0.49937473  -0.01044078  1
  Ag  Ag4  1  0.00002117  0.25026965  0.25024226  1
  Ag  Ag5  1  0.75014639  0.25246231  -0.00776442  1
  Ag  Ag6  1  0.49942274  0.74461377  0.75279748  1
  Ag  Ag7  1  0.25024279  0.74946723  0.50197663  1
  Ag  Ag8  1  0.74854904  0.00693651  0.75199246  1
  Ag  Ag9  1  -0.00700639  0.25390121  0.75076505  1
  Ag  Ag10  1  0.00022342  0.49691187  0.50580025  1
  Ag  Ag11  1  0.24859242  -0.00032659  0.24962803  1
  Ag  Ag12  1  0.50013284  0.50064097  0.51060380  1
  Ag  Ag13  1  0.25318066  0.74967641  -0.00202939  1
  Ag  Ag14  1  0.74657496  0.49375453  0.75278385  1
  Ag  Ag15  1  0.00159482  0.00240391  0.50221097  1
  Sb  Sb16  1  0.25007813  -0.00139493  0.75086384  1
  Sb  Sb17  1  0.74722627  0.74762484  -0.00426128  1
  Sb  Sb18  1  0.00100949  0.74516704  0.74985547  1
  Sb  Sb19  1  0.74874031  0.74832683  0.50369997  1
  Sb  Sb20  1  0.75127958  0.00462395  0.24791849  1
  Sb  Sb21  1  0.49877123  -0.00075962  0.50593719  1
  Sb  Sb22  1  0.00334795  0.75057491  0.24983669  1
  Sb  Sb23  1  0.00021309  0.00350431  -0.00275706  1
  Sb  Sb24  1  0.75156233  0.49663446  0.24694717  1
  Sb  Sb25  1  0.50035595  0.24968045  0.24728149  1
  Sb  Sb26  1  0.25474048  0.50082691  0.75012553  1
  Sb  Sb27  1  0.24857140  0.49948995  0.24964340  1
  Sb  Sb28  1  0.25029996  0.25060844  -0.00056387  1
  Sb  Sb29  1  0.75168481  0.25065678  0.50937089  1
  Sb  Sb30  1  0.24779799  0.25041179  0.50018965  1
  Sb  Sb31  1  0.49665710  0.75015842  0.24728414  1
  Te  Te32  1  0.24326807  0.24291073  0.25014868  1
  Te  Te33  1  0.24884530  0.24889650  0.75015055  1
  Te  Te34  1  0.24982616  0.75599595  0.25005281  1
  Te  Te35  1  0.25614037  0.75090692  0.75051955  1
  Te  Te36  1  0.75655544  0.24929508  0.23882374  1
  Te  Te37  1  0.74990284  0.25141338  0.75337785  1
  Te  Te38  1  0.75019642  0.75078909  0.25011779  1
  Te  Te39  1  0.74257986  0.74929359  0.75074114  1
  Te  Te40  1  0.25247621  -0.00486222  0.00249692  1
  Te  Te41  1  0.24683739  -0.00472181  0.49678092  1
  Te  Te42  1  0.25099297  0.50569986  0.00233157  1
  Te  Te43  1  0.24809800  0.50579219  0.49765306  1
  Te  Te44  1  0.74713455  0.00244012  -0.00383197  1
  Te  Te45  1  0.75517148  -0.00054296  0.50489915  1
  Te  Te46  1  0.74938883  0.49815571  -0.00315171  1
  Te  Te47  1  0.75131129  0.50057732  0.50495322  1
  Te  Te48  1  -0.00035847  0.25323888  -0.00383479  1
  Te  Te49  1  0.00050338  0.25282882  0.50219291  1
  Te  Te50  1  0.00612474  0.74322847  -0.00011004  1
  Te  Te51  1  0.00552263  0.74784192  0.50065753  1
  Te  Te52  1  0.50054882  0.25227908  -0.00258234  1
  Te  Te53  1  0.49943301  0.25557706  0.50398658  1
  Te  Te54  1  0.49703536  0.74803692  -0.00239816  1
  Te  Te55  1  0.49564166  0.74664652  0.50331168  1
  Te  Te56  1  0.00228810  0.00429435  0.25350689  1
  Te  Te57  1  -0.00419151  0.00288231  0.74730954  1
  Te  Te58  1  -0.00023805  0.49394010  0.25168957  1
  Te  Te59  1  -0.00341379  0.49875539  0.74930061  1
  Te  Te60  1  0.49648180  0.00196648  0.24469823  1
  Te  Te61  1  0.50353497  0.00177109  0.75238997  1
  Te  Te62  1  0.50032638  0.49818996  0.25017939  1
  Te  Te63  1  0.50089136  0.49827326  0.75110258  1
