# generated using pymatgen
data_AgSbTe2
_symmetry_space_group_name_H-M   'P 1'
_cell_length_a   12.21203267
_cell_length_b   12.21277241
_cell_length_c   12.21139955
_cell_angle_alpha   90.00101122
_cell_angle_beta   89.99609763
_cell_angle_gamma   89.99572387
_symmetry_Int_Tables_number   1
_chemical_formula_structural   AgSbTe2
_chemical_formula_sum   'Ag16 Sb16 Te32'
_cell_volume   1821.24201379
_cell_formula_units_Z   16
loop_
 _symmetry_equiv_pos_site_id
 _symmetry_equiv_pos_as_xyz
  1  'x, y, z'
loop_
 _atom_site_type_symbol
 _atom_site_label
 _atom_site_symmetry_multiplicity
 _atom_site_fract_x
 _atom_site_fract_y
 _atom_site_fract_z
 _atom_site_occupancy
  Ag  Ag0  1  0.75042509  0.75530245  0.49560391  1
  Ag  Ag1  1  0.49849140  0.24716093  0.24867113  1
  Ag  Ag2  1  -0.00118914  0.75334717  0.75625347  1
  Ag  Ag3  1  0.75677531  0.75429559  0.00398662  1
  Ag  Ag4  1  0.24605708  0.50134159  0.75497277  1
  Ag  Ag5  1  -0.00142630  -0.00455601  0.00102485  1
  Ag  Ag6  1  0.50429111  0.75347578  0.24987063  1
  Ag  Ag7  1  0.00397692  0.50382875  0.00293445  1
  Ag  Ag8  1  0.75335808  -0.00488591  0.75155284  1
  Ag  Ag9  1  0.24650574  0.49903274  0.24453780  1
  Ag  Ag10  1  -0.00473261  0.75167460  0.24300871  1
  Ag  Ag11  1  0.75093891  -0.00640738  0.24901403  1
  Ag  Ag12  1  0.00181872  0.24893419  0.24437923  1
  Ag  Ag13  1  0.24644074  -0.00162801  0.75302574  1
  Ag  Ag14  1  0.24645991  0.25103621  0.00334239  1
  Ag  Ag15  1  0.50291207  -0.00217048  0.49630675  1
  Sb  Sb16  1  0.74840051  0.24426132  0.49702510  1
  Sb  Sb17  1  0.75523748  0.50612581  0.75379843  1
  Sb  Sb18  1  -0.00298204  -0.00234766  0.49897808  1
  Sb  Sb19  1  0.49975648  0.50273535  0.49702969  1
  Sb  Sb20  1  0.50093672  -0.00168772  0.00438719  1
  Sb  Sb21  1  0.49785376  0.24695300  0.75187196  1
  Sb  Sb22  1  0.25077708  0.24784520  0.49616063  1
  Sb  Sb23  1  0.00222271  0.24692884  0.75593542  1
  Sb  Sb24  1  0.24122347  0.74914771  0.00029064  1
  Sb  Sb25  1  0.75350480  0.24539747  0.00333102  1
  Sb  Sb26  1  0.24896189  0.00081617  0.24620929  1
  Sb  Sb27  1  0.49477231  0.50175267  0.00210955  1
  Sb  Sb28  1  0.00101182  0.50234779  0.49686529  1
  Sb  Sb29  1  0.75428480  0.50827809  0.24706681  1
  Sb  Sb30  1  0.25019975  0.75248430  0.49891291  1
  Sb  Sb31  1  0.50151144  0.75263742  0.75086150  1
  Te  Te32  1  0.24884694  0.25143903  0.24673590  1
  Te  Te33  1  0.24996100  0.25018564  0.75484422  1
  Te  Te34  1  0.24914567  0.74686805  0.25043780  1
  Te  Te35  1  0.24633716  0.75072055  0.74967953  1
  Te  Te36  1  0.74969008  0.24400730  0.24936823  1
  Te  Te37  1  0.74959960  0.24133782  0.74973131  1
  Te  Te38  1  0.75195838  0.75147158  0.24876963  1
  Te  Te39  1  0.75232570  0.75433840  0.75134913  1
  Te  Te40  1  0.24599735  0.00309076  -0.00477522  1
  Te  Te41  1  0.25643017  -0.00011278  0.50907600  1
  Te  Te42  1  0.24560870  0.49814323  0.00096348  1
  Te  Te43  1  0.25036180  0.49971702  0.50182185  1
  Te  Te44  1  0.75321631  -0.00281776  0.00090347  1
  Te  Te45  1  0.74738099  -0.00461178  0.49879495  1
  Te  Te46  1  0.75823867  0.50576026  -0.00112578  1
  Te  Te47  1  0.74939011  0.50918297  0.50193047  1
  Te  Te48  1  0.00282372  0.24966318  0.00490042  1
  Te  Te49  1  -0.00081717  0.25052239  0.48845935  1
  Te  Te50  1  -0.00076884  0.75189585  0.00106539  1
  Te  Te51  1  -0.00537816  0.75028905  0.49964801  1
  Te  Te52  1  0.49446256  0.25038335  0.00719926  1
  Te  Te53  1  0.50083765  0.24435624  0.49186220  1
  Te  Te54  1  0.50904359  0.74985685  0.00640293  1
  Te  Te55  1  0.50494364  0.75390206  0.49478511  1
  Te  Te56  1  -0.00080738  -0.00257990  0.24844863  1
  Te  Te57  1  -0.00049636  -0.00211261  0.75155321  1
  Te  Te58  1  0.00331121  0.50149726  0.24711101  1
  Te  Te59  1  0.00491651  0.50264488  0.75383927  1
  Te  Te60  1  0.50023435  -0.00150603  0.25147652  1
  Te  Te61  1  0.50025855  -0.00001028  0.74550955  1
  Te  Te62  1  0.49370720  0.49956431  0.25031126  1
  Te  Te63  1  0.49046431  0.49945516  0.74960408  1
