# generated using pymatgen
data_AgSbTe2
_symmetry_space_group_name_H-M   'P 1'
_cell_length_a   12.21679198
_cell_length_b   12.22119066
_cell_length_c   12.21678472
_cell_angle_alpha   89.99325373
_cell_angle_beta   89.99976216
_cell_angle_gamma   89.99939541
_symmetry_Int_Tables_number   1
_chemical_formula_structural   AgSbTe2
_chemical_formula_sum   'Ag16 Sb16 Te32'
_cell_volume   1824.01168570
_cell_formula_units_Z   16
loop_
 _symmetry_equiv_pos_site_id
 _symmetry_equiv_pos_as_xyz
  1  'x, y, z'
loop_
 _atom_site_type_symbol
 _atom_site_label
 _atom_site_symmetry_multiplicity
 _atom_site_fract_x
 _atom_site_fract_y
 _atom_site_fract_z
 _atom_site_occupancy
  Ag  Ag0  1  0.49909217  0.24447667  0.74880725  1
  Ag  Ag1  1  0.25017175  0.24587186  -0.00771052  1
  Ag  Ag2  1  0.00086038  0.24596669  0.75404331  1
  Ag  Ag3  1  0.49786359  0.75221615  0.24966043  1
  Ag  Ag4  1  0.74462887  0.49331949  0.75095793  1
  Ag  Ag5  1  0.74349361  0.00671710  0.75321494  1
  Ag  Ag6  1  0.00057703  0.00427770  -0.00424385  1
  Ag  Ag7  1  0.49905848  0.00199488  0.50705078  1
  Ag  Ag8  1  0.25619735  0.00649216  0.75298312  1
  Ag  Ag9  1  0.25345892  0.75261185  -0.00238639  1
  Ag  Ag10  1  0.74567272  0.00187066  0.24764667  1
  Ag  Ag11  1  0.74929286  0.24489943  -0.00777615  1
  Ag  Ag12  1  0.25474291  0.49937360  0.24962656  1
  Ag  Ag13  1  0.25548696  0.24861010  0.50719717  1
  Ag  Ag14  1  0.49774681  0.49779583  0.50398255  1
  Ag  Ag15  1  0.49834399  0.75532294  0.74940739  1
  Sb  Sb16  1  0.00253534  0.49527534  0.50338093  1
  Sb  Sb17  1  0.00134249  0.49519181  -0.00279426  1
  Sb  Sb18  1  0.74409112  0.49877985  0.24949788  1
  Sb  Sb19  1  0.74654452  0.75562522  -0.00230487  1
  Sb  Sb20  1  0.74359222  0.24848599  0.50976497  1
  Sb  Sb21  1  0.00218409  0.75321927  0.75351917  1
  Sb  Sb22  1  0.00173916  0.00399701  0.50376178  1
  Sb  Sb23  1  0.49902677  0.00147324  -0.00863660  1
  Sb  Sb24  1  0.00048355  0.24758357  0.24569168  1
  Sb  Sb25  1  0.25600597  0.49307801  0.74951122  1
  Sb  Sb26  1  0.25508181  0.75127966  0.50274820  1
  Sb  Sb27  1  0.00259671  0.75280081  0.24597941  1
  Sb  Sb28  1  0.49942295  0.24710750  0.25179090  1
  Sb  Sb29  1  0.49971255  0.49909436  -0.00405585  1
  Sb  Sb30  1  0.74567868  0.75135306  0.50175090  1
  Sb  Sb31  1  0.25531093  -0.00000004  0.24665379  1
  Te  Te32  1  0.25077497  0.25220643  0.24707581  1
  Te  Te33  1  0.25297376  0.25017352  0.75284558  1
  Te  Te34  1  0.25434053  0.74846955  0.24631446  1
  Te  Te35  1  0.25409788  0.75314912  0.75360846  1
  Te  Te36  1  0.75038414  0.24589402  0.24175845  1
  Te  Te37  1  0.74718256  0.24682685  0.75134848  1
  Te  Te38  1  0.74365964  0.75309002  0.24841268  1
  Te  Te39  1  0.74473339  0.75217622  0.75192596  1
  Te  Te40  1  0.24826208  0.00362136  -0.00155444  1
  Te  Te41  1  0.25321077  0.00384866  0.50275992  1
  Te  Te42  1  0.24963691  0.49858393  0.00354586  1
  Te  Te43  1  0.25451499  0.49610837  0.49754229  1
  Te  Te44  1  0.75202571  0.00277984  -0.00371149  1
  Te  Te45  1  0.74592309  0.00161880  0.50151610  1
  Te  Te46  1  0.75078436  0.49380207  -0.00361657  1
  Te  Te47  1  0.74392735  0.49922343  0.50283113  1
  Te  Te48  1  0.00215434  0.24610654  -0.00426988  1
  Te  Te49  1  0.00981832  0.24968553  0.50739873  1
  Te  Te50  1  0.00859554  0.75710128  -0.00071331  1
  Te  Te51  1  0.00092791  0.74965294  0.49993801  1
  Te  Te52  1  0.49825631  0.25107757  -0.00466605  1
  Te  Te53  1  0.49614424  0.24881448  0.50254484  1
  Te  Te54  1  0.49467135  0.74878340  -0.00081487  1
  Te  Te55  1  0.49850473  0.75107226  0.50260839  1
  Te  Te56  1  -0.00825937  -0.00064830  0.24591199  1
  Te  Te57  1  0.00005601  0.00304814  0.75242107  1
  Te  Te58  1  0.00575994  0.50051469  0.25068590  1
  Te  Te59  1  -0.00923856  0.49535844  0.74920097  1
  Te  Te60  1  0.50352301  -0.00346885  0.25762008  1
  Te  Te61  1  0.49958878  0.00058538  0.74852082  1
  Te  Te62  1  0.49818541  0.50420553  0.25617854  1
  Te  Te63  1  0.50284261  0.50037700  0.74611163  1
