# generated using pymatgen
data_AgSbTe2
_symmetry_space_group_name_H-M   'P 1'
_cell_length_a   12.22273419
_cell_length_b   12.23185275
_cell_length_c   12.22365128
_cell_angle_alpha   90.00317392
_cell_angle_beta   90.00927076
_cell_angle_gamma   90.00077633
_symmetry_Int_Tables_number   1
_chemical_formula_structural   AgSbTe2
_chemical_formula_sum   'Ag16 Sb16 Te32'
_cell_volume   1827.51755345
_cell_formula_units_Z   16
loop_
 _symmetry_equiv_pos_site_id
 _symmetry_equiv_pos_as_xyz
  1  'x, y, z'
loop_
 _atom_site_type_symbol
 _atom_site_label
 _atom_site_symmetry_multiplicity
 _atom_site_fract_x
 _atom_site_fract_y
 _atom_site_fract_z
 _atom_site_occupancy
  Ag  Ag0  1  0.25762689  0.00593934  0.24965379  1
  Ag  Ag1  1  0.50308170  0.49386007  0.49529210  1
  Ag  Ag2  1  0.74508688  0.49470623  0.74616576  1
  Ag  Ag3  1  0.50329749  0.00598671  0.49253429  1
  Ag  Ag4  1  0.49812863  0.74944405  0.25214948  1
  Ag  Ag5  1  0.74374848  0.74915298  0.49696164  1
  Ag  Ag6  1  0.25504569  0.74696368  0.00557027  1
  Ag  Ag7  1  0.25782341  0.49427619  0.24698708  1
  Ag  Ag8  1  0.74119730  0.00434433  0.25496817  1
  Ag  Ag9  1  0.49680651  0.25047561  0.25392784  1
  Ag  Ag10  1  0.50186975  0.25372356  0.74527777  1
  Ag  Ag11  1  0.49642383  0.49595294  0.00638488  1
  Ag  Ag12  1  0.00348426  0.25013153  0.25077415  1
  Ag  Ag13  1  0.25487810  0.25216085  0.00725582  1
  Ag  Ag14  1  -0.00128952  0.25242132  0.74900565  1
  Ag  Ag15  1  0.74236331  0.25083044  0.49787190  1
  Sb  Sb16  1  0.25471340  0.49600256  0.75172298  1
  Sb  Sb17  1  0.74654275  0.00541272  0.74440056  1
  Sb  Sb18  1  -0.00150120  0.74662213  0.74940681  1
  Sb  Sb19  1  0.25892696  0.25052739  0.49163366  1
  Sb  Sb20  1  0.00157962  0.00309440  0.00156335  1
  Sb  Sb21  1  0.49797577  0.00404733  0.00861175  1
  Sb  Sb22  1  0.25358990  0.00398102  0.74904636  1
  Sb  Sb23  1  0.74488656  0.25183027  0.00140161  1
  Sb  Sb24  1  0.74383244  0.74643912  0.00411404  1
  Sb  Sb25  1  0.00059573  0.74915134  0.25059862  1
  Sb  Sb26  1  0.50097034  0.74707501  0.74861676  1
  Sb  Sb27  1  0.00393858  0.49699757  0.00130296  1
  Sb  Sb28  1  -0.00315879  0.49578945  0.49827988  1
  Sb  Sb29  1  0.25729335  0.74885839  0.49394602  1
  Sb  Sb30  1  0.74084555  0.49538904  0.25433383  1
  Sb  Sb31  1  -0.00232994  0.00395908  0.49741908  1
  Te  Te32  1  0.25244809  0.25005533  0.24988592  1
  Te  Te33  1  0.25036477  0.24946151  0.75700373  1
  Te  Te34  1  0.25172372  0.74994159  0.24797991  1
  Te  Te35  1  0.24806232  0.75133476  0.75842873  1
  Te  Te36  1  0.74816682  0.24965037  0.25134174  1
  Te  Te37  1  0.74719041  0.25148323  0.74969965  1
  Te  Te38  1  0.74857811  0.75266506  0.25316503  1
  Te  Te39  1  0.75128574  0.74644211  0.74550755  1
  Te  Te40  1  0.25086323  0.00215714  0.00531939  1
  Te  Te41  1  0.25595138  -0.00145667  0.49420322  1
  Te  Te42  1  0.25416813  0.49723756  0.00192964  1
  Te  Te43  1  0.25703617  0.50161570  0.49592641  1
  Te  Te44  1  0.74998038  -0.00166509  0.00905225  1
  Te  Te45  1  0.74631258  0.00263024  0.49611317  1
  Te  Te46  1  0.74261792  0.50096220  -0.00651449  1
  Te  Te47  1  0.74606408  0.49705256  0.50125499  1
  Te  Te48  1  0.00579455  0.25044480  0.00174840  1
  Te  Te49  1  -0.00857624  0.25021419  0.49940774  1
  Te  Te50  1  0.00874305  0.74971109  -0.00080815  1
  Te  Te51  1  -0.00995010  0.75014127  0.50112246  1
  Te  Te52  1  0.49734781  0.25273683  0.00182288  1
  Te  Te53  1  0.50137338  0.25161872  0.49779422  1
  Te  Te54  1  0.49632462  0.74579863  0.00270042  1
  Te  Te55  1  0.50336981  0.74870408  0.49749753  1
  Te  Te56  1  0.00210535  0.00587763  0.25057208  1
  Te  Te57  1  -0.00001567  0.00925316  0.74995744  1
  Te  Te58  1  0.00848946  0.49405049  0.24999851  1
  Te  Te59  1  -0.00555754  0.49344639  0.74973951  1
  Te  Te60  1  0.49943300  0.00120328  0.25123776  1
  Te  Te61  1  0.50039978  0.00657840  0.74160603  1
  Te  Te62  1  0.49956008  0.49881676  0.25057719  1
  Te  Te63  1  0.50207109  0.49629003  0.74755025  1
