# generated using pymatgen
data_AgSbTe2
_symmetry_space_group_name_H-M   'P 1'
_cell_length_a   12.21946077
_cell_length_b   12.21602663
_cell_length_c   12.21491271
_cell_angle_alpha   89.99137445
_cell_angle_beta   90.00444020
_cell_angle_gamma   90.00253052
_symmetry_Int_Tables_number   1
_chemical_formula_structural   AgSbTe2
_chemical_formula_sum   'Ag16 Sb16 Te32'
_cell_volume   1823.35978886
_cell_formula_units_Z   16
loop_
 _symmetry_equiv_pos_site_id
 _symmetry_equiv_pos_as_xyz
  1  'x, y, z'
loop_
 _atom_site_type_symbol
 _atom_site_label
 _atom_site_symmetry_multiplicity
 _atom_site_fract_x
 _atom_site_fract_y
 _atom_site_fract_z
 _atom_site_occupancy
  Ag  Ag0  1  0.74690661  0.25092819  0.50167881  1
  Ag  Ag1  1  0.74858012  0.50080542  0.24700141  1
  Ag  Ag2  1  0.25266113  0.24819605  0.50414694  1
  Ag  Ag3  1  0.74626299  0.24990876  -0.00156211  1
  Ag  Ag4  1  0.24993112  -0.00255640  0.75264343  1
  Ag  Ag5  1  0.00051962  -0.00067549  0.50341824  1
  Ag  Ag6  1  0.74944629  0.75077469  -0.00139968  1
  Ag  Ag7  1  0.25035427  0.75353076  -0.00453860  1
  Ag  Ag8  1  0.50117295  -0.00425360  -0.00622136  1
  Ag  Ag9  1  0.50224677  0.49721876  0.50278234  1
  Ag  Ag10  1  0.50074512  0.24955363  0.75077242  1
  Ag  Ag11  1  0.00094015  0.75580459  0.75636289  1
  Ag  Ag12  1  -0.00064363  -0.00724091  -0.00367491  1
  Ag  Ag13  1  0.49847793  0.75120612  0.75755194  1
  Ag  Ag14  1  0.50415741  0.50361538  -0.00306978  1
  Ag  Ag15  1  -0.00198360  0.75172970  0.24364276  1
  Sb  Sb16  1  0.75164791  -0.00170409  0.24711471  1
  Sb  Sb17  1  0.25057869  0.50244932  0.24861339  1
  Sb  Sb18  1  -0.00227327  0.49947300  0.49980951  1
  Sb  Sb19  1  -0.00269070  0.24915538  0.24843773  1
  Sb  Sb20  1  0.25037437  0.75136286  0.50427982  1
  Sb  Sb21  1  0.25368216  0.50252622  0.75069610  1
  Sb  Sb22  1  0.74588467  0.49986554  0.75292529  1
  Sb  Sb23  1  0.50229387  0.74805069  0.24071221  1
  Sb  Sb24  1  0.49970101  0.00287857  0.50801399  1
  Sb  Sb25  1  0.25411496  0.24680115  -0.00435941  1
  Sb  Sb26  1  0.24857180  -0.00208493  0.24722056  1
  Sb  Sb27  1  0.50196557  0.25135495  0.24936589  1
  Sb  Sb28  1  -0.00003303  0.24385637  0.75119754  1
  Sb  Sb29  1  0.74911405  0.74917179  0.50105123  1
  Sb  Sb30  1  -0.00477273  0.50798965  0.00033931  1
  Sb  Sb31  1  0.75010016  -0.00041174  0.75278646  1
  Te  Te32  1  0.24917783  0.25029430  0.25949229  1
  Te  Te33  1  0.25378921  0.24531937  0.74656096  1
  Te  Te34  1  0.24342590  0.74972957  0.24362864  1
  Te  Te35  1  0.25181046  0.75382841  0.75371213  1
  Te  Te36  1  0.75092854  0.25575570  0.24880924  1
  Te  Te37  1  0.74521707  0.25022759  0.75085907  1
  Te  Te38  1  0.75336656  0.74589819  0.24602292  1
  Te  Te39  1  0.74894055  0.74971630  0.75468221  1
  Te  Te40  1  0.24918729  -0.00154911  -0.00276399  1
  Te  Te41  1  0.24777638  0.00294475  0.50355057  1
  Te  Te42  1  0.25751085  0.50307324  0.00120429  1
  Te  Te43  1  0.25538620  0.49458100  0.49932585  1
  Te  Te44  1  0.75026413  -0.00000021  0.00124284  1
  Te  Te45  1  0.75397805  0.00587588  0.49771362  1
  Te  Te46  1  0.74658136  0.49904566  0.00242004  1
  Te  Te47  1  0.74639390  0.49605426  0.49579824  1
  Te  Te48  1  -0.00471781  0.24379544  -0.00114763  1
  Te  Te49  1  -0.00235228  0.24641947  0.50066444  1
  Te  Te50  1  -0.00178187  0.75106545  -0.00220118  1
  Te  Te51  1  -0.00031854  0.75438531  0.50231169  1
  Te  Te52  1  0.50194302  0.25005782  -0.00306697  1
  Te  Te53  1  0.50290989  0.25054512  0.50302549  1
  Te  Te54  1  0.50197105  0.75031763  -0.00202466  1
  Te  Te55  1  0.50017158  0.74669333  0.50716067  1
  Te  Te56  1  0.00016623  -0.00596592  0.24900141  1
  Te  Te57  1  0.00386174  -0.00330529  0.75168018  1
  Te  Te58  1  -0.00567107  0.50674163  0.25090190  1
  Te  Te59  1  0.00185727  0.51023915  0.74922416  1
  Te  Te60  1  0.49977183  -0.00118352  0.23966888  1
  Te  Te61  1  0.49616768  -0.00110224  0.75385888  1
  Te  Te62  1  0.50480587  0.50113538  0.25012021  1
  Te  Te63  1  0.49944639  0.50008594  0.75082456  1
