# generated using pymatgen
data_AgSbTe2
_symmetry_space_group_name_H-M   'P 1'
_cell_length_a   12.21782592
_cell_length_b   12.22040538
_cell_length_c   12.21285638
_cell_angle_alpha   90.00210160
_cell_angle_beta   89.99623094
_cell_angle_gamma   89.99888822
_symmetry_Int_Tables_number   1
_chemical_formula_structural   AgSbTe2
_chemical_formula_sum   'Ag16 Sb16 Te32'
_cell_volume   1823.46232306
_cell_formula_units_Z   16
loop_
 _symmetry_equiv_pos_site_id
 _symmetry_equiv_pos_as_xyz
  1  'x, y, z'
loop_
 _atom_site_type_symbol
 _atom_site_label
 _atom_site_symmetry_multiplicity
 _atom_site_fract_x
 _atom_site_fract_y
 _atom_site_fract_z
 _atom_site_occupancy
  Ag  Ag0  1  -0.00227759  0.75099616  0.74178641  1
  Ag  Ag1  1  -0.00682649  0.75028830  0.25662945  1
  Ag  Ag2  1  -0.00273523  0.25029612  0.25373507  1
  Ag  Ag3  1  0.75077583  0.74764919  0.00785903  1
  Ag  Ag4  1  0.74924545  0.50513054  0.25383203  1
  Ag  Ag5  1  0.50118676  0.49920101  0.00418882  1
  Ag  Ag6  1  0.25174128  0.25376019  0.00363234  1
  Ag  Ag7  1  0.24638827  0.74850995  0.49604626  1
  Ag  Ag8  1  -0.00639754  -0.00620020  0.49507564  1
  Ag  Ag9  1  0.50722503  0.00011620  0.49797964  1
  Ag  Ag10  1  0.75427665  0.75276187  0.49246509  1
  Ag  Ag11  1  0.75304769  -0.00432320  0.25750464  1
  Ag  Ag12  1  0.50115992  0.25153645  0.74625980  1
  Ag  Ag13  1  0.50347047  0.49995901  0.49618914  1
  Ag  Ag14  1  0.25098434  0.50070123  0.25180979  1
  Ag  Ag15  1  0.74777976  0.24771320  0.49467539  1
  Sb  Sb16  1  0.50852935  0.74761884  0.25316261  1
  Sb  Sb17  1  -0.00197936  0.50058317  0.00469483  1
  Sb  Sb18  1  -0.00051308  0.24792976  0.74448386  1
  Sb  Sb19  1  0.25212417  0.50093255  0.74664943  1
  Sb  Sb20  1  0.25075609  0.25273259  0.49658960  1
  Sb  Sb21  1  0.24725137  -0.00191446  0.25343163  1
  Sb  Sb22  1  0.74792954  0.50126319  0.74507073  1
  Sb  Sb23  1  -0.00274218  -0.00117815  0.00505115  1
  Sb  Sb24  1  0.50356302  0.00087543  0.00250175  1
  Sb  Sb25  1  0.50179525  0.75012566  0.74515747  1
  Sb  Sb26  1  0.74903045  0.25264703  0.00555050  1
  Sb  Sb27  1  0.75003369  -0.00096274  0.74062969  1
  Sb  Sb28  1  0.25005611  -0.00056685  0.74786959  1
  Sb  Sb29  1  -0.00403647  0.50742582  0.49498886  1
  Sb  Sb30  1  0.24962646  0.74591339  0.00473856  1
  Sb  Sb31  1  0.50230300  0.25280130  0.25324895  1
  Te  Te32  1  0.24406333  0.25422197  0.24835523  1
  Te  Te33  1  0.25196354  0.25040553  0.75500194  1
  Te  Te34  1  0.24268850  0.74656529  0.25259542  1
  Te  Te35  1  0.24357472  0.74945300  0.74562773  1
  Te  Te36  1  0.75429482  0.25181013  0.25324307  1
  Te  Te37  1  0.74739813  0.24993616  0.74491044  1
  Te  Te38  1  0.75145473  0.74772426  0.25295496  1
  Te  Te39  1  0.75458992  0.74970960  0.74894503  1
  Te  Te40  1  0.25165083  0.00639168  0.00056725  1
  Te  Te41  1  0.25123904  -0.00536562  0.49812808  1
  Te  Te42  1  0.25617246  0.49776218  0.00593810  1
  Te  Te43  1  0.25675853  0.50355203  0.49506243  1
  Te  Te44  1  0.74857480  -0.00535860  0.00969959  1
  Te  Te45  1  0.74926720  -0.00151791  0.49642877  1
  Te  Te46  1  0.74482165  0.50312815  0.00657131  1
  Te  Te47  1  0.74655833  0.50054123  0.49576321  1
  Te  Te48  1  0.00295850  0.24926197  0.00233124  1
  Te  Te49  1  -0.00163133  0.24534034  0.49901027  1
  Te  Te50  1  -0.00337863  0.75086860  0.00259574  1
  Te  Te51  1  -0.00249206  0.75007709  0.49683318  1
  Te  Te52  1  0.49854243  0.25244171  -0.00396951  1
  Te  Te53  1  0.50119363  0.25082791  0.50214074  1
  Te  Te54  1  0.50349427  0.74571564  -0.00306104  1
  Te  Te55  1  0.50114499  0.74950349  0.50222654  1
  Te  Te56  1  -0.00264471  -0.00051624  0.25421839  1
  Te  Te57  1  -0.00013563  -0.00452310  0.74220578  1
  Te  Te58  1  -0.00120071  0.49951780  0.25067761  1
  Te  Te59  1  0.00024856  0.50649776  0.75168675  1
  Te  Te60  1  0.50527911  0.00109550  0.25600202  1
  Te  Te61  1  0.50011064  0.00603656  0.74366352  1
  Te  Te62  1  0.50057868  0.49922248  0.25154600  1
  Te  Te63  1  0.50008975  0.49535084  0.74861243  1
