# generated using pymatgen
data_AgSbTe2
_symmetry_space_group_name_H-M   'P 1'
_cell_length_a   12.20721023
_cell_length_b   12.20707479
_cell_length_c   12.21261778
_cell_angle_alpha   90.01078302
_cell_angle_beta   89.99839897
_cell_angle_gamma   90.00467158
_symmetry_Int_Tables_number   1
_chemical_formula_structural   AgSbTe2
_chemical_formula_sum   'Ag16 Sb16 Te32'
_cell_volume   1819.85499489
_cell_formula_units_Z   16
loop_
 _symmetry_equiv_pos_site_id
 _symmetry_equiv_pos_as_xyz
  1  'x, y, z'
loop_
 _atom_site_type_symbol
 _atom_site_label
 _atom_site_symmetry_multiplicity
 _atom_site_fract_x
 _atom_site_fract_y
 _atom_site_fract_z
 _atom_site_occupancy
  Ag  Ag0  1  -0.00553537  -0.00315972  0.50225419  1
  Ag  Ag1  1  -0.00146437  0.50402215  -0.00176987  1
  Ag  Ag2  1  0.74887407  -0.00706019  0.25297917  1
  Ag  Ag3  1  0.50742770  0.75484093  0.24989577  1
  Ag  Ag4  1  -0.00166997  0.75146673  0.75095217  1
  Ag  Ag5  1  0.24448740  0.50133409  0.75095357  1
  Ag  Ag6  1  0.50625622  -0.00278956  0.49763469  1
  Ag  Ag7  1  0.24623017  0.75021485  -0.00104291  1
  Ag  Ag8  1  -0.00727637  0.75112389  0.24976160  1
  Ag  Ag9  1  0.75223018  0.24640632  -0.00049189  1
  Ag  Ag10  1  0.75313336  0.75674191  0.49476455  1
  Ag  Ag11  1  0.50498698  -0.00275735  0.00202532  1
  Ag  Ag12  1  0.24728551  0.24812445  0.50302702  1
  Ag  Ag13  1  0.75384304  -0.00216646  0.74758511  1
  Ag  Ag14  1  -0.00101541  0.24836979  0.74961278  1
  Ag  Ag15  1  0.75284770  0.50703541  0.24907515  1
  Sb  Sb16  1  -0.00328202  0.24797993  0.25050961  1
  Sb  Sb17  1  0.50305904  0.24431254  0.25035783  1
  Sb  Sb18  1  0.50307164  0.75336276  0.75088326  1
  Sb  Sb19  1  0.75204214  0.24164231  0.50162625  1
  Sb  Sb20  1  0.24486539  -0.00138376  0.74937421  1
  Sb  Sb21  1  0.24701992  0.50353063  0.24876848  1
  Sb  Sb22  1  -0.00512987  -0.00312213  -0.00122624  1
  Sb  Sb23  1  0.75255214  0.75261748  0.00643839  1
  Sb  Sb24  1  0.24721892  0.24973111  -0.00347682  1
  Sb  Sb25  1  0.50167202  0.24732565  0.74953242  1
  Sb  Sb26  1  0.25056303  -0.00244158  0.25020136  1
  Sb  Sb27  1  0.50200681  0.50272630  0.49780184  1
  Sb  Sb28  1  -0.00160362  0.50240667  0.50099379  1
  Sb  Sb29  1  0.50191959  0.50252494  0.00235110  1
  Sb  Sb30  1  0.24745121  0.75119327  0.50149047  1
  Sb  Sb31  1  0.75549786  0.50209157  0.75138043  1
  Te  Te32  1  0.25024627  0.25138499  0.25681488  1
  Te  Te33  1  0.24378996  0.25313489  0.74743953  1
  Te  Te34  1  0.24793534  0.74866287  0.24598521  1
  Te  Te35  1  0.24441784  0.74739427  0.75321948  1
  Te  Te36  1  0.75076154  0.24914022  0.24597972  1
  Te  Te37  1  0.75545334  0.24799115  0.75286157  1
  Te  Te38  1  0.75178292  0.75246142  0.24943524  1
  Te  Te39  1  0.75464975  0.75267791  0.74581032  1
  Te  Te40  1  0.25718413  -0.00374864  -0.00045098  1
  Te  Te41  1  0.24964873  0.00319629  0.50065199  1
  Te  Te42  1  0.24630542  0.50237717  -0.00277204  1
  Te  Te43  1  0.25073848  0.49507397  0.50481346  1
  Te  Te44  1  0.74790446  0.00250645  0.00007453  1
  Te  Te45  1  0.75065923  -0.00098339  0.49933991  1
  Te  Te46  1  0.75339864  0.49552907  0.00278751  1
  Te  Te47  1  0.74911684  0.50642938  0.49476311  1
  Te  Te48  1  -0.00222989  0.25278855  -0.00410166  1
  Te  Te49  1  0.00219681  0.24574069  0.50428231  1
  Te  Te50  1  0.00262946  0.74848879  -0.00083636  1
  Te  Te51  1  -0.00135637  0.75333797  0.49988942  1
  Te  Te52  1  0.50463904  0.24404850  0.00023363  1
  Te  Te53  1  0.49552557  0.24300265  0.49997128  1
  Te  Te54  1  0.49576954  0.75416071  0.00315236  1
  Te  Te55  1  0.50195518  0.75532615  0.49583318  1
  Te  Te56  1  -0.00467121  -0.00428942  0.25276342  1
  Te  Te57  1  -0.00418715  -0.00171013  0.74856054  1
  Te  Te58  1  -0.00457646  0.50488343  0.24609852  1
  Te  Te59  1  0.00170063  0.50184930  0.75291073  1
  Te  Te60  1  0.50369725  -0.00462486  0.25100496  1
  Te  Te61  1  0.50716835  -0.00088748  0.74927432  1
  Te  Te62  1  0.50629662  0.50843301  0.24933983  1
  Te  Te63  1  0.49188472  0.49997918  0.75064729  1
