# generated using pymatgen
data_AgSbTe2
_symmetry_space_group_name_H-M   'P 1'
_cell_length_a   12.31886307
_cell_length_b   12.30125747
_cell_length_c   12.31514111
_cell_angle_alpha   90.00167177
_cell_angle_beta   90.00424916
_cell_angle_gamma   90.01195076
_symmetry_Int_Tables_number   1
_chemical_formula_structural   AgSbTe2
_chemical_formula_sum   'Ag16 Sb16 Te32'
_cell_volume   1866.20572792
_cell_formula_units_Z   16
loop_
 _symmetry_equiv_pos_site_id
 _symmetry_equiv_pos_as_xyz
  1  'x, y, z'
loop_
 _atom_site_type_symbol
 _atom_site_label
 _atom_site_symmetry_multiplicity
 _atom_site_fract_x
 _atom_site_fract_y
 _atom_site_fract_z
 _atom_site_occupancy
  Ag  Ag0  1  0.49959264  0.01084480  0.51155875  1
  Ag  Ag1  1  0.74134924  0.24972774  0.51133976  1
  Ag  Ag2  1  0.49341406  0.01531012  -0.00706797  1
  Ag  Ag3  1  0.00100232  0.24988750  0.75138155  1
  Ag  Ag4  1  0.26026378  0.48742323  0.24009287  1
  Ag  Ag5  1  0.73200896  0.01836126  0.74889714  1
  Ag  Ag6  1  0.73667551  0.48609107  0.75279044  1
  Ag  Ag7  1  0.25899198  0.25047594  -0.00789307  1
  Ag  Ag8  1  0.49157886  0.25199141  0.23907443  1
  Ag  Ag9  1  0.00355903  0.74710739  0.24972478  1
  Ag  Ag10  1  0.26056147  0.01447154  0.24319647  1
  Ag  Ag11  1  0.49498657  0.48631168  -0.00292090  1
  Ag  Ag12  1  0.73796297  0.49138080  0.24552471  1
  Ag  Ag13  1  0.26530288  0.01711236  0.75787056  1
  Ag  Ag14  1  0.49750550  0.24276722  0.75834014  1
  Ag  Ag15  1  0.26389624  0.48240346  0.76202420  1
  Sb  Sb16  1  0.25192191  0.75145727  0.49897304  1
  Sb  Sb17  1  0.00354699  0.25036469  0.24971275  1
  Sb  Sb18  1  0.74726510  0.74841535  0.00030143  1
  Sb  Sb19  1  0.50031481  0.74772721  0.24972494  1
  Sb  Sb20  1  0.50113006  0.49427224  0.50143037  1
  Sb  Sb21  1  -0.00009673  0.75023748  0.75032771  1
  Sb  Sb22  1  0.00059284  0.00444767  0.50124037  1
  Sb  Sb23  1  0.25418594  0.24880926  0.50209490  1
  Sb  Sb24  1  -0.00019112  0.49594320  0.50059679  1
  Sb  Sb25  1  0.74836472  0.75003477  0.49875067  1
  Sb  Sb26  1  0.00492449  0.00396413  -0.00179038  1
  Sb  Sb27  1  0.74157875  0.25123138  -0.00458369  1
  Sb  Sb28  1  0.25280014  0.75002539  0.00020493  1
  Sb  Sb29  1  0.50028598  0.75091495  0.74988402  1
  Sb  Sb30  1  0.00342156  0.49670481  -0.00113877  1
  Sb  Sb31  1  0.74090023  0.00841877  0.24866148  1
  Te  Te32  1  0.25081648  0.25020949  0.25689368  1
  Te  Te33  1  0.25927493  0.25076751  0.74618412  1
  Te  Te34  1  0.24904278  0.74527526  0.25028619  1
  Te  Te35  1  0.24783001  0.74638224  0.74875504  1
  Te  Te36  1  0.75404563  0.25459220  0.24764237  1
  Te  Te37  1  0.74188759  0.25048296  0.75289269  1
  Te  Te38  1  0.75184634  0.73727559  0.25035486  1
  Te  Te39  1  0.75257424  0.74177618  0.75027013  1
  Te  Te40  1  0.25171368  -0.00124518  -0.00133027  1
  Te  Te41  1  0.25166805  -0.00029171  0.49962478  1
  Te  Te42  1  0.25295024  0.50088156  -0.00136465  1
  Te  Te43  1  0.24992763  0.50129506  0.49821179  1
  Te  Te44  1  0.74241748  0.00023382  -0.00422414  1
  Te  Te45  1  0.74904806  0.00095883  0.50151397  1
  Te  Te46  1  0.74283613  0.49846953  -0.00089733  1
  Te  Te47  1  0.75081981  0.49942689  0.50407709  1
  Te  Te48  1  0.01996780  0.25004623  -0.00895560  1
  Te  Te49  1  -0.01526829  0.25053951  0.51218288  1
  Te  Te50  1  -0.00130235  0.75017095  0.00913251  1
  Te  Te51  1  0.00046575  0.74994841  0.49017942  1
  Te  Te52  1  0.49516244  0.25337763  0.00266031  1
  Te  Te53  1  0.50383946  0.24729716  0.49884066  1
  Te  Te54  1  0.50082097  0.74639289  -0.00043677  1
  Te  Te55  1  0.49930643  0.77371963  0.50039154  1
  Te  Te56  1  0.00783658  0.00098497  0.24925542  1
  Te  Te57  1  0.00261095  0.00117057  0.75091322  1
  Te  Te58  1  0.00382672  0.49798819  0.24988550  1
  Te  Te59  1  0.00065217  0.49751244  0.75043340  1
  Te  Te60  1  0.49801252  0.00214026  0.24009862  1
  Te  Te61  1  0.49906698  -0.00244317  0.75527913  1
  Te  Te62  1  0.49827720  0.49553851  0.25543771  1
  Te  Te63  1  0.49842797  0.50448953  0.74748732  1
