# generated using pymatgen
data_AgSbTe2
_symmetry_space_group_name_H-M   'P 1'
_cell_length_a   12.23894309
_cell_length_b   12.24565133
_cell_length_c   12.24942942
_cell_angle_alpha   89.99783820
_cell_angle_beta   89.99309189
_cell_angle_gamma   89.99577209
_symmetry_Int_Tables_number   1
_chemical_formula_structural   AgSbTe2
_chemical_formula_sum   'Ag16 Sb16 Te32'
_cell_volume   1835.86887936
_cell_formula_units_Z   16
loop_
 _symmetry_equiv_pos_site_id
 _symmetry_equiv_pos_as_xyz
  1  'x, y, z'
loop_
 _atom_site_type_symbol
 _atom_site_label
 _atom_site_symmetry_multiplicity
 _atom_site_fract_x
 _atom_site_fract_y
 _atom_site_fract_z
 _atom_site_occupancy
  Ag  Ag0  1  -0.00053370  -0.00842764  0.50285922  1
  Ag  Ag1  1  -0.00100959  0.75477106  0.76373423  1
  Ag  Ag2  1  -0.00202451  0.51002635  0.49837988  1
  Ag  Ag3  1  0.24233206  -0.00219547  0.74705996  1
  Ag  Ag4  1  0.23394749  0.75216210  0.00136773  1
  Ag  Ag5  1  0.76462035  0.75128912  0.01555592  1
  Ag  Ag6  1  0.00243979  0.24320981  0.74662315  1
  Ag  Ag7  1  -0.00046659  -0.01433678  -0.00235780  1
  Ag  Ag8  1  0.75942377  0.75364346  0.48583532  1
  Ag  Ag9  1  0.24369947  0.24522710  0.50245404  1
  Ag  Ag10  1  0.75595784  0.51512566  0.25075204  1
  Ag  Ag11  1  0.75543754  -0.01379476  0.25327586  1
  Ag  Ag12  1  0.51589836  0.75275695  0.25146103  1
  Ag  Ag13  1  -0.01284305  0.75209195  0.23725206  1
  Ag  Ag14  1  -0.00197712  0.51503791  0.00150915  1
  Ag  Ag15  1  0.50129280  -0.00469545  0.49768630  1
  Sb  Sb16  1  0.49673408  0.24447726  0.74586003  1
  Sb  Sb17  1  0.75459520  0.24774333  0.49923383  1
  Sb  Sb18  1  0.50305285  0.50614468  0.00411625  1
  Sb  Sb19  1  -0.00092683  0.24926461  0.25223371  1
  Sb  Sb20  1  0.75577999  0.50393099  0.74945063  1
  Sb  Sb21  1  0.50008509  0.75328165  0.74805967  1
  Sb  Sb22  1  0.75797953  -0.00336001  0.74775543  1
  Sb  Sb23  1  0.50097269  -0.00454923  0.00216645  1
  Sb  Sb24  1  0.23981802  0.75247766  0.50000883  1
  Sb  Sb25  1  0.24308426  0.24847504  -0.00180264  1
  Sb  Sb26  1  0.24489093  -0.00339795  0.25098405  1
  Sb  Sb27  1  0.24394511  0.50316948  0.74957788  1
  Sb  Sb28  1  0.50169897  0.24684231  0.25345578  1
  Sb  Sb29  1  0.75559220  0.24820483  0.00133610  1
  Sb  Sb30  1  0.24380691  0.50518409  0.25042446  1
  Sb  Sb31  1  0.50145701  0.50499780  0.49555785  1
  Te  Te32  1  0.25240924  0.25131745  0.25643675  1
  Te  Te33  1  0.24575300  0.24509587  0.74660467  1
  Te  Te34  1  0.24815943  0.74951754  0.24578875  1
  Te  Te35  1  0.24761973  0.75350316  0.75321996  1
  Te  Te36  1  0.74855854  0.25030639  0.24977143  1
  Te  Te37  1  0.75662599  0.25041180  0.75043084  1
  Te  Te38  1  0.75332687  0.75130432  0.25174910  1
  Te  Te39  1  0.75285995  0.75079402  0.75010242  1
  Te  Te40  1  0.24687391  -0.00306999  -0.00162310  1
  Te  Te41  1  0.24446498  -0.00058577  0.50038604  1
  Te  Te42  1  0.24445432  0.50384569  0.00043852  1
  Te  Te43  1  0.24547138  0.49526394  0.49998616  1
  Te  Te44  1  0.75267536  -0.00195740  0.00264311  1
  Te  Te45  1  0.75425213  -0.00168504  0.49902650  1
  Te  Te46  1  0.75428721  0.50229108  0.00265206  1
  Te  Te47  1  0.75357079  0.50194854  0.49787115  1
  Te  Te48  1  0.00044814  0.24962740  -0.00610156  1
  Te  Te49  1  0.00161559  0.24823178  0.50286417  1
  Te  Te50  1  -0.00070489  0.75092512  -0.00051097  1
  Te  Te51  1  -0.00005810  0.75057315  0.49875227  1
  Te  Te52  1  0.49860854  0.25121681  -0.00074825  1
  Te  Te53  1  0.49457456  0.24386962  0.50044072  1
  Te  Te54  1  0.50189411  0.75019431  0.00319143  1
  Te  Te55  1  0.50419727  0.75352191  0.49714498  1
  Te  Te56  1  -0.00229781  -0.00031219  0.25071563  1
  Te  Te57  1  0.00056162  -0.00343792  0.74878205  1
  Te  Te58  1  -0.00272595  0.49915426  0.25128755  1
  Te  Te59  1  0.00037474  0.50417312  0.74859603  1
  Te  Te60  1  0.50483922  -0.00407733  0.25425707  1
  Te  Te61  1  0.49115822  0.00024779  0.74348783  1
  Te  Te62  1  0.50794392  0.50525581  0.25043852  1
  Te  Te63  1  0.49944705  0.49775686  0.75005175  1
