# generated using pymatgen
data_AgSbTe2
_symmetry_space_group_name_H-M   'P 1'
_cell_length_a   12.32526922
_cell_length_b   12.31859768
_cell_length_c   12.27913621
_cell_angle_alpha   90.00225179
_cell_angle_beta   89.99975528
_cell_angle_gamma   90.00772247
_symmetry_Int_Tables_number   1
_chemical_formula_structural   AgSbTe2
_chemical_formula_sum   'Ag16 Sb16 Te32'
_cell_volume   1864.34163530
_cell_formula_units_Z   16
loop_
 _symmetry_equiv_pos_site_id
 _symmetry_equiv_pos_as_xyz
  1  'x, y, z'
loop_
 _atom_site_type_symbol
 _atom_site_label
 _atom_site_symmetry_multiplicity
 _atom_site_fract_x
 _atom_site_fract_y
 _atom_site_fract_z
 _atom_site_occupancy
  Ag  Ag0  1  0.00518487  0.74283109  0.74496932  1
  Ag  Ag1  1  0.50225132  0.50197072  -0.01742985  1
  Ag  Ag2  1  0.25804851  0.74972505  0.51554295  1
  Ag  Ag3  1  0.49507434  0.75075491  0.74002919  1
  Ag  Ag4  1  0.25213129  0.74755765  -0.01746560  1
  Ag  Ag5  1  0.74130331  0.74606151  0.51138986  1
  Ag  Ag6  1  -0.00628381  0.50424812  0.51621774  1
  Ag  Ag7  1  0.74562886  0.25125931  0.51514195  1
  Ag  Ag8  1  -0.01429059  0.25743657  0.74848877  1
  Ag  Ag9  1  0.74882273  0.25367550  -0.01907498  1
  Ag  Ag10  1  0.51470680  0.24938561  0.74503941  1
  Ag  Ag11  1  0.25843893  -0.00941291  0.74752805  1
  Ag  Ag12  1  0.50381598  -0.00900632  0.51022972  1
  Ag  Ag13  1  0.74191995  0.00577880  0.74546803  1
  Ag  Ag14  1  0.50649070  0.50689520  0.51524538  1
  Ag  Ag15  1  -0.00286542  0.50066374  -0.01687539  1
  Sb  Sb16  1  0.25160579  0.25133247  0.50856761  1
  Sb  Sb17  1  -0.00019508  0.74667437  0.25422718  1
  Sb  Sb18  1  0.50034770  0.74847512  0.25838169  1
  Sb  Sb19  1  -0.00284969  -0.00355851  0.50515486  1
  Sb  Sb20  1  0.74948911  0.50208443  0.25225189  1
  Sb  Sb21  1  0.50318586  0.25194025  0.25391672  1
  Sb  Sb22  1  0.00003642  -0.00111094  -0.00745337  1
  Sb  Sb23  1  0.25108655  0.50139913  0.25134427  1
  Sb  Sb24  1  0.25102670  0.51140355  0.74955545  1
  Sb  Sb25  1  0.74908787  0.74578579  -0.01950683  1
  Sb  Sb26  1  -0.00417119  0.25412863  0.25377543  1
  Sb  Sb27  1  0.25358018  -0.00428458  0.25633544  1
  Sb  Sb28  1  0.25036485  0.25479765  -0.01144333  1
  Sb  Sb29  1  0.74727645  -0.00029226  0.25605896  1
  Sb  Sb30  1  0.49977342  -0.00268241  -0.01218042  1
  Sb  Sb31  1  0.74820743  0.49150286  0.74663806  1
  Te  Te32  1  0.24899883  0.24708958  0.24821493  1
  Te  Te33  1  0.24917348  0.22892334  0.74846687  1
  Te  Te34  1  0.24991191  0.75044956  0.24803420  1
  Te  Te35  1  0.25011306  0.75440892  0.74837235  1
  Te  Te36  1  0.74993230  0.24841944  0.25148478  1
  Te  Te37  1  0.74918355  0.24819052  0.74799193  1
  Te  Te38  1  0.75052846  0.75235190  0.27126647  1
  Te  Te39  1  0.74980935  0.75989542  0.74697866  1
  Te  Te40  1  0.25126487  -0.01088735  -0.00228242  1
  Te  Te41  1  0.25174509  -0.00439231  0.50207978  1
  Te  Te42  1  0.25133533  0.50602856  -0.00110844  1
  Te  Te43  1  0.25070757  0.50494073  0.50139055  1
  Te  Te44  1  0.74871594  0.00894170  -0.00370243  1
  Te  Te45  1  0.75020280  0.00372121  0.50333597  1
  Te  Te46  1  0.74922390  0.49566390  0.00111455  1
  Te  Te47  1  0.74875104  0.49927322  0.50204693  1
  Te  Te48  1  0.00150058  0.25539627  -0.00361698  1
  Te  Te49  1  -0.00078405  0.25570863  0.50311573  1
  Te  Te50  1  -0.00407681  0.74540819  -0.00323318  1
  Te  Te51  1  0.00100616  0.74719035  0.50290924  1
  Te  Te52  1  0.49923431  0.25417574  -0.00311758  1
  Te  Te53  1  0.50028564  0.26037759  0.50299364  1
  Te  Te54  1  0.50320383  0.74674104  -0.00322393  1
  Te  Te55  1  0.49994084  0.74277491  0.50249515  1
  Te  Te56  1  0.00110625  0.00082574  0.24742811  1
  Te  Te57  1  -0.00182553  -0.00025573  0.74889986  1
  Te  Te58  1  0.00020207  0.50025829  0.24909060  1
  Te  Te59  1  0.00227218  0.50098982  0.74821750  1
  Te  Te60  1  0.49940179  0.00038675  0.27083865  1
  Te  Te61  1  0.50265929  -0.00111262  0.74546741  1
  Te  Te62  1  0.49940892  0.50001339  0.24904060  1
  Te  Te63  1  0.49863687  0.50068316  0.74894235  1
