# generated using pymatgen
data_AgSbTe2
_symmetry_space_group_name_H-M   'P 1'
_cell_length_a   12.21522640
_cell_length_b   12.21635586
_cell_length_c   12.21485088
_cell_angle_alpha   89.99712595
_cell_angle_beta   89.99522570
_cell_angle_gamma   90.00265704
_symmetry_Int_Tables_number   1
_chemical_formula_structural   AgSbTe2
_chemical_formula_sum   'Ag16 Sb16 Te32'
_cell_volume   1822.76786235
_cell_formula_units_Z   16
loop_
 _symmetry_equiv_pos_site_id
 _symmetry_equiv_pos_as_xyz
  1  'x, y, z'
loop_
 _atom_site_type_symbol
 _atom_site_label
 _atom_site_symmetry_multiplicity
 _atom_site_fract_x
 _atom_site_fract_y
 _atom_site_fract_z
 _atom_site_occupancy
  Ag  Ag0  1  0.25005794  0.49542993  0.74853716  1
  Ag  Ag1  1  0.49944969  0.24691720  0.74568699  1
  Ag  Ag2  1  -0.00114972  0.24646989  0.25847417  1
  Ag  Ag3  1  0.75051209  0.00154646  0.25691789  1
  Ag  Ag4  1  0.74792289  0.00529123  0.74258439  1
  Ag  Ag5  1  0.49999980  0.49572002  0.50134581  1
  Ag  Ag6  1  0.49968278  0.75463189  0.25081498  1
  Ag  Ag7  1  0.49927636  0.00106310  0.00038462  1
  Ag  Ag8  1  0.75354449  0.24323779  0.50183765  1
  Ag  Ag9  1  0.50692784  0.00463121  0.50009937  1
  Ag  Ag10  1  0.00015299  0.75353487  0.25232256  1
  Ag  Ag11  1  0.00027510  0.24874716  0.74301195  1
  Ag  Ag12  1  0.25059920  0.24880956  -0.00338886  1
  Ag  Ag13  1  -0.00013999  0.49236200  0.50027454  1
  Ag  Ag14  1  0.25162419  0.75192554  0.00140612  1
  Ag  Ag15  1  -0.00710317  0.00764241  0.49746252  1
  Sb  Sb16  1  0.49787245  0.75261141  0.74900406  1
  Sb  Sb17  1  0.00275708  0.49878176  -0.00082926  1
  Sb  Sb18  1  0.24548679  0.25059233  0.50332698  1
  Sb  Sb19  1  0.50052213  0.24515527  0.25470339  1
  Sb  Sb20  1  0.25008859  0.74968156  0.49869713  1
  Sb  Sb21  1  0.00248584  0.75159202  0.74753916  1
  Sb  Sb22  1  0.74994814  0.75893614  0.49864831  1
  Sb  Sb23  1  0.24912698  0.00033442  0.24934785  1
  Sb  Sb24  1  0.49645260  0.49867461  -0.00129644  1
  Sb  Sb25  1  0.74811340  0.75365467  0.00310706  1
  Sb  Sb26  1  0.75000071  0.49431485  0.74485833  1
  Sb  Sb27  1  0.00051476  0.00130939  0.00218117  1
  Sb  Sb28  1  0.75015896  0.49708389  0.25433495  1
  Sb  Sb29  1  0.74860447  0.24635421  -0.00187752  1
  Sb  Sb30  1  0.24997975  0.49876239  0.25202585  1
  Sb  Sb31  1  0.25157731  0.00519966  0.75100559  1
  Te  Te32  1  0.24414992  0.25136328  0.24096924  1
  Te  Te33  1  0.24999713  0.25301989  0.75340676  1
  Te  Te34  1  0.24949939  0.74910892  0.24462763  1
  Te  Te35  1  0.24906542  0.74232058  0.75744509  1
  Te  Te36  1  0.75445114  0.24540111  0.25325142  1
  Te  Te37  1  0.75015525  0.24538104  0.74768394  1
  Te  Te38  1  0.75090869  0.75633747  0.24932718  1
  Te  Te39  1  0.75103331  0.76011618  0.75146757  1
  Te  Te40  1  0.25606415  0.00021701  -0.00080072  1
  Te  Te41  1  0.25160467  -0.00130166  0.50117144  1
  Te  Te42  1  0.25070457  0.49846415  -0.00619242  1
  Te  Te43  1  0.25073474  0.50066663  0.50537752  1
  Te  Te44  1  0.74280944  0.00073906  0.00104189  1
  Te  Te45  1  0.74958803  0.00327018  0.49918218  1
  Te  Te46  1  0.74941230  0.50065442  -0.00072161  1
  Te  Te47  1  0.74997402  0.49120375  0.50072845  1
  Te  Te48  1  0.00427748  0.24960380  -0.00193073  1
  Te  Te49  1  0.00132793  0.24873072  0.50038816  1
  Te  Te50  1  0.00584830  0.74991549  0.00655566  1
  Te  Te51  1  0.00040797  0.75013326  0.49514068  1
  Te  Te52  1  0.49704822  0.24733700  -0.00249207  1
  Te  Te53  1  0.50063664  0.24805116  0.50084544  1
  Te  Te54  1  0.49640382  0.75293092  0.00377280  1
  Te  Te55  1  0.49969117  0.75064690  0.49593523  1
  Te  Te56  1  -0.00244624  0.00058871  0.25205262  1
  Te  Te57  1  -0.00250109  0.00319214  0.74686906  1
  Te  Te58  1  -0.00038385  0.50010625  0.25633873  1
  Te  Te59  1  0.00077245  0.49669719  0.74458792  1
  Te  Te60  1  0.50240655  -0.00145685  0.25245245  1
  Te  Te61  1  0.50128300  0.00301284  0.74720542  1
  Te  Te62  1  0.50051877  0.50607524  0.25641468  1
  Te  Te63  1  0.49923426  0.49647438  0.74534993  1
