# generated using pymatgen
data_AgSbTe2
_symmetry_space_group_name_H-M   'P 1'
_cell_length_a   12.33700402
_cell_length_b   12.34382295
_cell_length_c   12.34382286
_cell_angle_alpha   89.99612510
_cell_angle_beta   90.01248351
_cell_angle_gamma   89.98751659
_symmetry_Int_Tables_number   1
_chemical_formula_structural   AgSbTe2
_chemical_formula_sum   'Ag16 Sb16 Te32'
_cell_volume   1879.78876319
_cell_formula_units_Z   16
loop_
 _symmetry_equiv_pos_site_id
 _symmetry_equiv_pos_as_xyz
  1  'x, y, z'
loop_
 _atom_site_type_symbol
 _atom_site_label
 _atom_site_symmetry_multiplicity
 _atom_site_fract_x
 _atom_site_fract_y
 _atom_site_fract_z
 _atom_site_occupancy
  Ag  Ag0  1  0.48617048  0.24364567  0.24120614  1
  Ag  Ag1  1  0.26025999  0.24265756  0.48491804  1
  Ag  Ag2  1  0.73993159  0.76331169  0.00663877  1
  Ag  Ag3  1  0.25377787  0.48012131  0.24219983  1
  Ag  Ag4  1  0.26480400  0.23571748  0.01428167  1
  Ag  Ag5  1  0.25500670  0.00622182  0.24377739  1
  Ag  Ag6  1  0.73519446  0.23822813  0.01177230  1
  Ag  Ag7  1  0.26026013  0.76508172  0.00734246  1
  Ag  Ag8  1  0.74726416  0.01072254  0.23927809  1
  Ag  Ag9  1  0.49486501  0.48108998  0.00409382  1
  Ag  Ag10  1  0.73993200  0.24336107  0.48668834  1
  Ag  Ag11  1  0.48617037  0.00879324  0.00635446  1
  Ag  Ag12  1  0.49486489  0.24590628  0.76891046  1
  Ag  Ag13  1  0.25377780  0.00780036  0.76987907  1
  Ag  Ag14  1  0.00873278  0.00551676  0.49129370  1
  Ag  Ag15  1  0.00873284  0.75870651  0.24448315  1
  Sb  Sb16  1  0.49770371  0.75431751  0.24602488  1
  Sb  Sb17  1  0.74890586  0.00336251  0.75510453  1
  Sb  Sb18  1  0.00198466  0.49570579  0.49392692  1
  Sb  Sb19  1  0.74537903  0.49624634  0.75375372  1
  Sb  Sb20  1  0.00084490  0.24877021  0.74928758  1
  Sb  Sb21  1  0.00214238  0.24816134  0.24916127  1
  Sb  Sb22  1  0.25361966  0.49417853  0.75582138  1
  Sb  Sb23  1  0.75330164  0.75693259  0.49306740  1
  Sb  Sb24  1  0.49770371  0.00397504  0.49568299  1
  Sb  Sb25  1  0.49791663  0.75349148  0.76067491  1
  Sb  Sb26  1  0.49791669  0.48932550  0.49650819  1
  Sb  Sb27  1  0.00198473  0.75607308  0.75429440  1
  Sb  Sb28  1  0.00214218  0.00083874  0.00183880  1
  Sb  Sb29  1  0.00084501  0.50071242  0.00122977  1
  Sb  Sb30  1  0.24967541  0.75591616  0.49408371  1
  Sb  Sb31  1  0.74890575  0.49489521  0.24663743  1
  Te  Te32  1  0.24678498  0.24963235  0.24954040  1
  Te  Te33  1  0.25056096  0.24773653  0.75272492  1
  Te  Te34  1  0.25172819  0.76351417  0.24889001  1
  Te  Te35  1  0.24958669  0.75455181  0.75507942  1
  Te  Te36  1  0.75853625  0.24756081  0.25008563  1
  Te  Te37  1  0.74854505  0.24833623  0.75261641  1
  Te  Te38  1  0.74930143  0.75245369  0.24568910  1
  Te  Te39  1  0.75015915  0.74926181  0.75968101  1
  Te  Te40  1  0.24678521  0.00046092  0.00036816  1
  Te  Te41  1  0.25172828  0.00111001  0.48648578  1
  Te  Te42  1  0.25056075  0.49727472  0.00226338  1
  Te  Te43  1  0.24958671  0.49492072  0.49544821  1
  Te  Te44  1  0.75853640  -0.00008595  0.00243906  1
  Te  Te45  1  0.74930123  0.00431118  0.49754617  1
  Te  Te46  1  0.74854517  0.49738345  0.00166387  1
  Te  Te47  1  0.75015910  0.49031893  0.50073809  1
  Te  Te48  1  -0.00838719  0.25215665  -0.00215658  1
  Te  Te49  1  -0.00109345  0.24494980  0.50037682  1
  Te  Te50  1  -0.00109346  0.74962314  0.00505027  1
  Te  Te51  1  -0.00194409  0.75417105  0.49582887  1
  Te  Te52  1  0.50022370  0.24757978  0.00242032  1
  Te  Te53  1  0.49854970  0.24844898  0.49046634  1
  Te  Te54  1  0.49854995  0.75953307  0.00155079  1
  Te  Te55  1  0.50244164  0.74293186  0.50706770  1
  Te  Te56  1  -0.00322467  -0.00081167  0.25081173  1
  Te  Te57  1  0.00794654  0.00028874  0.73530691  1
  Te  Te58  1  0.00794663  0.51469267  0.24971118  1
  Te  Te59  1  0.00037473  0.50405999  0.74594006  1
  Te  Te60  1  0.50318840  0.00370657  0.24629344  1
  Te  Te61  1  0.49789024  0.00440933  0.75692175  1
  Te  Te62  1  0.49789022  0.49307792  0.24559078  1
  Te  Te63  1  0.49961857  0.49265618  0.75734441  1
