# generated using pymatgen
data_AgSbTe2
_symmetry_space_group_name_H-M   'P 1'
_cell_length_a   12.22178994
_cell_length_b   12.21783792
_cell_length_c   12.21722107
_cell_angle_alpha   89.99930680
_cell_angle_beta   89.99858180
_cell_angle_gamma   89.99528866
_symmetry_Int_Tables_number   1
_chemical_formula_structural   AgSbTe2
_chemical_formula_sum   'Ag16 Sb16 Te32'
_cell_volume   1824.32246307
_cell_formula_units_Z   16
loop_
 _symmetry_equiv_pos_site_id
 _symmetry_equiv_pos_as_xyz
  1  'x, y, z'
loop_
 _atom_site_type_symbol
 _atom_site_label
 _atom_site_symmetry_multiplicity
 _atom_site_fract_x
 _atom_site_fract_y
 _atom_site_fract_z
 _atom_site_occupancy
  Ag  Ag0  1  0.74872763  0.76367047  0.49597406  1
  Ag  Ag1  1  0.75056210  0.24865325  0.00569522  1
  Ag  Ag2  1  0.50413569  0.75328360  0.25528676  1
  Ag  Ag3  1  0.74821744  -0.00054042  0.73513539  1
  Ag  Ag4  1  -0.00101905  0.49934397  0.49365706  1
  Ag  Ag5  1  0.24993482  0.24998733  0.49341979  1
  Ag  Ag6  1  0.74832600  0.00128501  0.26384854  1
  Ag  Ag7  1  0.51398960  -0.00061776  0.49631872  1
  Ag  Ag8  1  0.50154444  0.24762010  0.25387519  1
  Ag  Ag9  1  0.24682574  0.49617686  0.25132158  1
  Ag  Ag10  1  0.75004164  0.23582253  0.49494796  1
  Ag  Ag11  1  -0.01448438  0.00088172  0.49616362  1
  Ag  Ag12  1  0.24941060  0.25299824  0.00657835  1
  Ag  Ag13  1  0.00066305  0.49788993  0.00643838  1
  Ag  Ag14  1  -0.00342672  0.74823191  0.25494010  1
  Ag  Ag15  1  0.50403433  0.75379187  0.74329905  1
  Sb  Sb16  1  0.74996175  0.50085815  0.74764833  1
  Sb  Sb17  1  0.50318548  0.24538410  0.74438163  1
  Sb  Sb18  1  -0.00216971  0.24819456  0.74722677  1
  Sb  Sb19  1  0.25184313  0.00564318  0.25323842  1
  Sb  Sb20  1  -0.00349820  0.00255946  0.00629619  1
  Sb  Sb21  1  -0.00497026  0.75192546  0.74311494  1
  Sb  Sb22  1  0.50228882  0.00170635  0.00463290  1
  Sb  Sb23  1  0.50128932  0.50008455  0.49620470  1
  Sb  Sb24  1  0.25285193  0.00050796  0.74594669  1
  Sb  Sb25  1  0.75438560  0.49854739  0.25185096  1
  Sb  Sb26  1  0.24839059  0.74600147  0.00439646  1
  Sb  Sb27  1  0.75113299  0.75061785  0.00462709  1
  Sb  Sb28  1  0.49982452  0.49755007  0.00353874  1
  Sb  Sb29  1  0.24922257  0.49860171  0.74759640  1
  Sb  Sb30  1  -0.00216090  0.25250915  0.25307951  1
  Sb  Sb31  1  0.25073038  0.74903182  0.49658444  1
  Te  Te32  1  0.25295991  0.25197905  0.25161083  1
  Te  Te33  1  0.25190038  0.25004080  0.75030857  1
  Te  Te34  1  0.25143734  0.74407726  0.24911774  1
  Te  Te35  1  0.25998752  0.75051968  0.75181924  1
  Te  Te36  1  0.74805555  0.24876831  0.25206461  1
  Te  Te37  1  0.74790053  0.24455471  0.74862734  1
  Te  Te38  1  0.74818206  0.75136315  0.25173831  1
  Te  Te39  1  0.74560539  0.75426506  0.74669541  1
  Te  Te40  1  0.24847046  0.01110477  -0.00159925  1
  Te  Te41  1  0.24956644  0.00770979  0.50059293  1
  Te  Te42  1  0.24480024  0.49420231  0.00335063  1
  Te  Te43  1  0.24391785  0.49420516  0.49731523  1
  Te  Te44  1  0.75157271  0.00666246  0.00098293  1
  Te  Te45  1  0.74939659  0.00019426  0.49787766  1
  Te  Te46  1  0.75659422  0.49236127  -0.00065145  1
  Te  Te47  1  0.75666808  0.49920227  0.50060542  1
  Te  Te48  1  -0.00040343  0.25396198  -0.00028181  1
  Te  Te49  1  -0.00137710  0.24985860  0.49944553  1
  Te  Te50  1  0.00001203  0.74391083  0.00666442  1
  Te  Te51  1  -0.00093261  0.74975967  0.49698937  1
  Te  Te52  1  0.50088784  0.25029623  0.00550122  1
  Te  Te53  1  0.50149000  0.24970215  0.49695177  1
  Te  Te54  1  0.50037457  0.74978093  0.00519151  1
  Te  Te55  1  0.50121603  0.75038868  0.49525149  1
  Te  Te56  1  -0.00364434  -0.00633791  0.25432399  1
  Te  Te57  1  -0.00673764  -0.00210479  0.74213109  1
  Te  Te58  1  0.00277187  0.50270125  0.25233202  1
  Te  Te59  1  0.00063783  0.50229741  0.74920854  1
  Te  Te60  1  0.50201494  -0.00045856  0.25374374  1
  Te  Te61  1  0.50414121  -0.00458211  0.74381481  1
  Te  Te62  1  0.49280242  0.50031080  0.25012614  1
  Te  Te63  1  0.49994020  0.51110275  0.75088610  1
