# generated using pymatgen
data_AgSbTe2
_symmetry_space_group_name_H-M   'P 1'
_cell_length_a   12.22228047
_cell_length_b   12.21889250
_cell_length_c   12.21386567
_cell_angle_alpha   89.98842120
_cell_angle_beta   90.00041628
_cell_angle_gamma   90.00026970
_symmetry_Int_Tables_number   1
_chemical_formula_structural   AgSbTe2
_chemical_formula_sum   'Ag16 Sb16 Te32'
_cell_volume   1824.05202024
_cell_formula_units_Z   16
loop_
 _symmetry_equiv_pos_site_id
 _symmetry_equiv_pos_as_xyz
  1  'x, y, z'
loop_
 _atom_site_type_symbol
 _atom_site_label
 _atom_site_symmetry_multiplicity
 _atom_site_fract_x
 _atom_site_fract_y
 _atom_site_fract_z
 _atom_site_occupancy
  Ag  Ag0  1  -0.00449355  0.74525225  0.24512116  1
  Ag  Ag1  1  0.24724042  -0.00213581  0.75136101  1
  Ag  Ag2  1  0.50508701  0.74246696  0.24484742  1
  Ag  Ag3  1  0.75269898  -0.00268867  0.75197968  1
  Ag  Ag4  1  0.50574439  0.74872561  0.75527585  1
  Ag  Ag5  1  0.75021068  0.50089563  0.24268181  1
  Ag  Ag6  1  0.50479236  0.25780782  0.24865594  1
  Ag  Ag7  1  -0.00459708  0.25444881  0.24913867  1
  Ag  Ag8  1  0.75196044  0.24996527  0.49584535  1
  Ag  Ag9  1  0.24979188  0.50088788  0.24652197  1
  Ag  Ag10  1  0.50841827  0.50448536  0.00642395  1
  Ag  Ag11  1  -0.00818648  0.50289529  0.00729087  1
  Ag  Ag12  1  -0.00407080  -0.00249324  0.00038275  1
  Ag  Ag13  1  0.74935118  0.50372896  0.75736016  1
  Ag  Ag14  1  0.75025802  0.74421630  0.00144267  1
  Ag  Ag15  1  -0.00343240  0.00083161  0.49990885  1
  Sb  Sb16  1  -0.00344198  0.24875060  0.75050036  1
  Sb  Sb17  1  0.75164387  0.75069703  0.49837117  1
  Sb  Sb18  1  0.24759695  0.24795323  0.49649197  1
  Sb  Sb19  1  0.50490461  0.25259235  0.75195216  1
  Sb  Sb20  1  0.75342991  -0.00055559  0.24711706  1
  Sb  Sb21  1  0.50522400  -0.00447002  -0.00043416  1
  Sb  Sb22  1  0.24589299  -0.00145386  0.24859650  1
  Sb  Sb23  1  -0.00630340  0.75197638  0.75563835  1
  Sb  Sb24  1  0.24834626  0.75143660  0.49949305  1
  Sb  Sb25  1  0.24894037  0.75002488  0.00064128  1
  Sb  Sb26  1  0.75084918  0.25694713  0.00498795  1
  Sb  Sb27  1  0.50381032  0.00080877  0.50038916  1
  Sb  Sb28  1  0.25107823  0.50281327  0.75387458  1
  Sb  Sb29  1  0.24942942  0.24987651  0.00194670  1
  Sb  Sb30  1  0.50342837  0.49978761  0.49182430  1
  Sb  Sb31  1  -0.00418618  0.49940062  0.49122203  1
  Te  Te32  1  0.24996078  0.25454960  0.25097558  1
  Te  Te33  1  0.25162386  0.24350317  0.74866441  1
  Te  Te34  1  0.25102161  0.74574242  0.25000280  1
  Te  Te35  1  0.25872367  0.75326668  0.74978305  1
  Te  Te36  1  0.75091234  0.25021960  0.25261474  1
  Te  Te37  1  0.74845764  0.24988987  0.74372618  1
  Te  Te38  1  0.74946036  0.74950527  0.24850039  1
  Te  Te39  1  0.74715757  0.74839195  0.75104195  1
  Te  Te40  1  0.24170420  0.00041456  -0.00548587  1
  Te  Te41  1  0.24256609  0.00054330  0.50614021  1
  Te  Te42  1  0.24835463  0.49957009  0.00407304  1
  Te  Te43  1  0.24846419  0.49969283  0.49424652  1
  Te  Te44  1  0.75453950  -0.00546017  -0.00429612  1
  Te  Te45  1  0.75431709  0.00337056  0.50550604  1
  Te  Te46  1  0.75079709  0.50112693  0.00115262  1
  Te  Te47  1  0.75157982  0.49512757  0.50200929  1
  Te  Te48  1  -0.00055900  0.24983512  0.00602534  1
  Te  Te49  1  -0.00398664  0.24557174  0.49468976  1
  Te  Te50  1  -0.00397236  0.74935842  0.00355672  1
  Te  Te51  1  -0.00074003  0.75631604  0.49152036  1
  Te  Te52  1  0.50001063  0.25558080  0.00682012  1
  Te  Te53  1  0.50587650  0.24905423  0.49281187  1
  Te  Te54  1  0.50444977  0.74785740  0.00250493  1
  Te  Te55  1  0.50003141  0.75076202  0.49751244  1
  Te  Te56  1  0.00139502  -0.00012205  0.24764020  1
  Te  Te57  1  -0.00283862  -0.00041863  0.75200253  1
  Te  Te58  1  -0.00311317  0.50058519  0.24835411  1
  Te  Te59  1  -0.00232378  0.50021761  0.75715201  1
  Te  Te60  1  0.49790213  -0.00186454  0.24900107  1
  Te  Te61  1  0.50254450  -0.00357624  0.75116629  1
  Te  Te62  1  0.50299620  0.50199230  0.24794795  1
  Te  Te63  1  0.50127075  0.50352080  0.75578893  1
