# generated using pymatgen
data_AgSbTe2
_symmetry_space_group_name_H-M   'P 1'
_cell_length_a   12.21826646
_cell_length_b   12.21041132
_cell_length_c   12.21512549
_cell_angle_alpha   90.00319573
_cell_angle_beta   89.99628316
_cell_angle_gamma   90.00251041
_symmetry_Int_Tables_number   1
_chemical_formula_structural   AgSbTe2
_chemical_formula_sum   'Ag16 Sb16 Te32'
_cell_volume   1822.37528539
_cell_formula_units_Z   16
loop_
 _symmetry_equiv_pos_site_id
 _symmetry_equiv_pos_as_xyz
  1  'x, y, z'
loop_
 _atom_site_type_symbol
 _atom_site_label
 _atom_site_symmetry_multiplicity
 _atom_site_fract_x
 _atom_site_fract_y
 _atom_site_fract_z
 _atom_site_occupancy
  Ag  Ag0  1  0.49504582  0.25018763  0.25050358  1
  Ag  Ag1  1  0.24550691  0.75223028  0.50352540  1
  Ag  Ag2  1  0.00457415  0.49465947  0.49912159  1
  Ag  Ag3  1  0.49591456  0.49723026  0.00130531  1
  Ag  Ag4  1  0.75458215  0.00540931  0.25407177  1
  Ag  Ag5  1  0.49661796  0.75212200  0.74875916  1
  Ag  Ag6  1  0.00403932  0.24682257  0.25668638  1
  Ag  Ag7  1  0.75724500  0.24489245  0.49675833  1
  Ag  Ag8  1  0.24334346  -0.00173339  0.74618001  1
  Ag  Ag9  1  0.24835156  0.24893137  0.00461477  1
  Ag  Ag10  1  0.00128839  0.00483785  0.50356768  1
  Ag  Ag11  1  0.24879211  0.49291991  0.25292078  1
  Ag  Ag12  1  0.00195323  0.00309966  -0.00343980  1
  Ag  Ag13  1  0.00358084  0.75760007  0.74588764  1
  Ag  Ag14  1  0.75748985  0.00035725  0.74675322  1
  Ag  Ag15  1  0.24273617  0.24887393  0.49487548  1
  Sb  Sb16  1  0.75147618  0.49445792  0.25317010  1
  Sb  Sb17  1  0.49713941  0.00182388  0.00000303  1
  Sb  Sb18  1  0.00278943  0.75292497  0.25362828  1
  Sb  Sb19  1  0.00389853  0.49625700  0.00020182  1
  Sb  Sb20  1  0.49560173  0.49828769  0.49891062  1
  Sb  Sb21  1  0.49632863  0.74986290  0.25120072  1
  Sb  Sb22  1  0.75064309  0.75171162  -0.00149533  1
  Sb  Sb23  1  0.24878234  0.75187364  -0.00301323  1
  Sb  Sb24  1  0.75412680  0.75549978  0.50231911  1
  Sb  Sb25  1  0.00135116  0.24117191  0.74173459  1
  Sb  Sb26  1  0.49790693  0.24883542  0.75036806  1
  Sb  Sb27  1  0.24823940  0.50116725  0.74709360  1
  Sb  Sb28  1  0.75272069  0.24669983  0.00254193  1
  Sb  Sb29  1  0.49806192  0.00095312  0.50054539  1
  Sb  Sb30  1  0.24545622  0.00809122  0.25370075  1
  Sb  Sb31  1  0.75209605  0.49825232  0.74691347  1
  Te  Te32  1  0.24927360  0.24996874  0.25214384  1
  Te  Te33  1  0.25129233  0.24583085  0.74918452  1
  Te  Te34  1  0.25094574  0.74246202  0.25616259  1
  Te  Te35  1  0.24895169  0.75267433  0.74669878  1
  Te  Te36  1  0.75130416  0.24647439  0.25295272  1
  Te  Te37  1  0.74843000  0.24347191  0.74411849  1
  Te  Te38  1  0.74922396  0.75903330  0.25065171  1
  Te  Te39  1  0.74982367  0.75611705  0.74860858  1
  Te  Te40  1  0.24540479  0.00343384  -0.00307423  1
  Te  Te41  1  0.24759543  0.00153799  0.50148228  1
  Te  Te42  1  0.25189021  0.49534272  0.00367918  1
  Te  Te43  1  0.24581658  0.49686303  0.49756144  1
  Te  Te44  1  0.75604385  0.00144720  -0.00277462  1
  Te  Te45  1  0.75286219  0.00307493  0.50126741  1
  Te  Te46  1  0.74355082  0.49968163  0.00006188  1
  Te  Te47  1  0.75741881  0.49303891  0.49982961  1
  Te  Te48  1  0.00380391  0.24755904  0.00613321  1
  Te  Te49  1  0.00248273  0.24783638  0.49934610  1
  Te  Te50  1  0.00079198  0.75478941  -0.00570736  1
  Te  Te51  1  0.00370712  0.75224626  0.50229920  1
  Te  Te52  1  0.49571146  0.25287269  0.00373644  1
  Te  Te53  1  0.49784069  0.25118935  0.49507582  1
  Te  Te54  1  0.49925038  0.74549076  -0.00473402  1
  Te  Te55  1  0.49385095  0.74898503  0.50500255  1
  Te  Te56  1  -0.00152029  0.00264699  0.25121494  1
  Te  Te57  1  0.00085577  -0.00061665  0.74814588  1
  Te  Te58  1  0.00239198  0.49713883  0.25277524  1
  Te  Te59  1  -0.00120034  0.50975626  0.74648943  1
  Te  Te60  1  0.50654711  0.00473118  0.24870479  1
  Te  Te61  1  0.49934087  -0.00433059  0.75105779  1
  Te  Te62  1  0.49778510  0.49725148  0.24750938  1
  Te  Te63  1  0.50085273  0.50568965  0.75448219  1
