# generated using pymatgen
data_AgSbTe2
_symmetry_space_group_name_H-M   'P 1'
_cell_length_a   12.22851489
_cell_length_b   12.22709321
_cell_length_c   12.21826242
_cell_angle_alpha   89.99543670
_cell_angle_beta   89.99951888
_cell_angle_gamma   89.98902711
_symmetry_Int_Tables_number   1
_chemical_formula_structural   AgSbTe2
_chemical_formula_sum   'Ag16 Sb16 Te32'
_cell_volume   1826.86467822
_cell_formula_units_Z   16
loop_
 _symmetry_equiv_pos_site_id
 _symmetry_equiv_pos_as_xyz
  1  'x, y, z'
loop_
 _atom_site_type_symbol
 _atom_site_label
 _atom_site_symmetry_multiplicity
 _atom_site_fract_x
 _atom_site_fract_y
 _atom_site_fract_z
 _atom_site_occupancy
  Ag  Ag0  1  0.24774124  0.74389337  0.49216633  1
  Ag  Ag1  1  0.00511867  0.49990600  0.49294625  1
  Ag  Ag2  1  0.49937587  0.25141440  0.74544901  1
  Ag  Ag3  1  0.25410653  0.25627032  0.49549860  1
  Ag  Ag4  1  0.49546676  0.49329041  0.49100741  1
  Ag  Ag5  1  0.00377990  0.75105874  0.25282035  1
  Ag  Ag6  1  0.25451127  0.50123288  0.25636578  1
  Ag  Ag7  1  0.49757817  0.49797615  0.00893424  1
  Ag  Ag8  1  0.25038259  0.74915057  0.00728005  1
  Ag  Ag9  1  0.00049399  -0.00040008  0.49254014  1
  Ag  Ag10  1  0.50102301  0.25578216  0.25426430  1
  Ag  Ag11  1  0.75134478  0.00236538  0.25099594  1
  Ag  Ag12  1  0.74433713  0.49708985  0.25412266  1
  Ag  Ag13  1  0.49935994  0.00148493  0.00524862  1
  Ag  Ag14  1  0.74557987  0.25272783  0.49435594  1
  Ag  Ag15  1  0.00038804  -0.00233740  0.00751739  1
  Sb  Sb16  1  0.00125086  0.24947779  0.74513005  1
  Sb  Sb17  1  0.49774666  0.74997111  0.74879112  1
  Sb  Sb18  1  0.74697688  0.24988106  0.00636555  1
  Sb  Sb19  1  0.50005716  0.00643023  0.49301132  1
  Sb  Sb20  1  0.25181808  0.00194918  0.74954172  1
  Sb  Sb21  1  0.00288383  0.50242836  0.00909066  1
  Sb  Sb22  1  0.00240882  0.75043800  0.74723573  1
  Sb  Sb23  1  0.24858466  -0.00156670  0.25050640  1
  Sb  Sb24  1  0.25348531  0.25191999  0.00578638  1
  Sb  Sb25  1  0.49522665  0.74428805  0.25040734  1
  Sb  Sb26  1  0.74968599  0.75031579  0.00481226  1
  Sb  Sb27  1  0.74658888  0.49645704  0.74479238  1
  Sb  Sb28  1  0.75165411  0.74784109  0.49511485  1
  Sb  Sb29  1  0.25204998  0.49848349  0.74255031  1
  Sb  Sb30  1  -0.00098456  0.24891116  0.25356474  1
  Sb  Sb31  1  0.74790648  0.00352943  0.74757012  1
  Te  Te32  1  0.25433091  0.25505323  0.25459781  1
  Te  Te33  1  0.25652168  0.25028525  0.74103701  1
  Te  Te34  1  0.24599496  0.74759981  0.25146820  1
  Te  Te35  1  0.25030830  0.74974008  0.75086749  1
  Te  Te36  1  0.74791785  0.25104910  0.25435414  1
  Te  Te37  1  0.74343184  0.25022714  0.74014356  1
  Te  Te38  1  0.75816878  0.75066124  0.25031783  1
  Te  Te39  1  0.74978279  0.74992509  0.75092678  1
  Te  Te40  1  0.25003600  -0.00294008  0.00058167  1
  Te  Te41  1  0.24599480  -0.00126086  0.49918695  1
  Te  Te42  1  0.25199574  0.50228942  0.00569206  1
  Te  Te43  1  0.25060263  0.49994562  0.49732476  1
  Te  Te44  1  0.75039959  0.00057041  0.00555702  1
  Te  Te45  1  0.75277044  0.00171056  0.49537219  1
  Te  Te46  1  0.74596004  0.49942000  0.00777150  1
  Te  Te47  1  0.74883484  0.49832625  0.49539705  1
  Te  Te48  1  0.00048578  0.24260642  -0.00249813  1
  Te  Te49  1  0.00155930  0.24966149  0.50044631  1
  Te  Te50  1  0.00478874  0.75323031  0.00250207  1
  Te  Te51  1  0.00290565  0.75057605  0.49785924  1
  Te  Te52  1  0.49913286  0.25090096  0.00303443  1
  Te  Te53  1  0.49903868  0.25018666  0.49590798  1
  Te  Te54  1  0.49472732  0.75006559  -0.00016354  1
  Te  Te55  1  0.49328723  0.74471149  0.50153897  1
  Te  Te56  1  -0.00100525  -0.00049350  0.25108668  1
  Te  Te57  1  -0.00093594  0.00048638  0.75071592  1
  Te  Te58  1  0.00043376  0.50075930  0.25289841  1
  Te  Te59  1  -0.00132877  0.49912262  0.74106795  1
  Te  Te60  1  0.50334126  0.00252219  0.24630440  1
  Te  Te61  1  0.50134602  0.00519919  0.76009505  1
  Te  Te62  1  0.50011404  0.50120051  0.25096480  1
  Te  Te63  1  0.50113056  0.49500152  0.75185949  1
