# generated using pymatgen
data_AgSbTe2
_symmetry_space_group_name_H-M   'P 1'
_cell_length_a   12.22353892
_cell_length_b   12.22478027
_cell_length_c   12.23391536
_cell_angle_alpha   90.00239418
_cell_angle_beta   89.99246838
_cell_angle_gamma   89.99527332
_symmetry_Int_Tables_number   1
_chemical_formula_structural   AgSbTe2
_chemical_formula_sum   'Ag16 Sb16 Te32'
_cell_volume   1828.11489523
_cell_formula_units_Z   16
loop_
 _symmetry_equiv_pos_site_id
 _symmetry_equiv_pos_as_xyz
  1  'x, y, z'
loop_
 _atom_site_type_symbol
 _atom_site_label
 _atom_site_symmetry_multiplicity
 _atom_site_fract_x
 _atom_site_fract_y
 _atom_site_fract_z
 _atom_site_occupancy
  Ag  Ag0  1  0.74958164  -0.00347383  0.74592434  1
  Ag  Ag1  1  -0.00753730  0.50478539  0.49702371  1
  Ag  Ag2  1  0.74947524  0.50305750  0.74825701  1
  Ag  Ag3  1  0.25106490  0.51112676  0.24967588  1
  Ag  Ag4  1  0.75258065  0.25691660  0.50097215  1
  Ag  Ag5  1  -0.00588684  0.50258719  0.00290465  1
  Ag  Ag6  1  0.25352950  0.74487760  0.00934862  1
  Ag  Ag7  1  -0.00322291  -0.00557946  0.49886825  1
  Ag  Ag8  1  0.75140266  0.74339769  0.50104111  1
  Ag  Ag9  1  0.24969953  0.74741212  0.49148737  1
  Ag  Ag10  1  0.49469761  0.74500272  0.25008065  1
  Ag  Ag11  1  0.50479413  0.50491711  0.00300264  1
  Ag  Ag12  1  0.25018688  -0.01265531  0.25223291  1
  Ag  Ag13  1  0.75043916  0.50362400  0.25119378  1
  Ag  Ag14  1  0.74991416  0.25874848  -0.00031793  1
  Ag  Ag15  1  0.50464057  0.74685034  0.74948439  1
  Sb  Sb16  1  0.24659310  0.25363501  0.49716449  1
  Sb  Sb17  1  -0.00290286  0.25376331  0.25018907  1
  Sb  Sb18  1  0.24988447  -0.00762368  0.74751638  1
  Sb  Sb19  1  0.24940012  0.25559602  0.00292770  1
  Sb  Sb20  1  0.75019214  -0.00594656  0.25305740  1
  Sb  Sb21  1  0.50635151  0.25456905  0.75153822  1
  Sb  Sb22  1  -0.00186286  -0.00338962  0.00157926  1
  Sb  Sb23  1  0.74762217  0.74181725  -0.00020821  1
  Sb  Sb24  1  0.50806796  0.50505711  0.49699572  1
  Sb  Sb25  1  0.00494479  0.74643336  0.25223171  1
  Sb  Sb26  1  0.25125105  0.50519705  0.74866509  1
  Sb  Sb27  1  0.50088283  -0.00463382  0.00068949  1
  Sb  Sb28  1  0.50365279  0.25583341  0.24854882  1
  Sb  Sb29  1  -0.00621064  0.74862240  0.74736193  1
  Sb  Sb30  1  -0.00432172  0.25139718  0.74968505  1
  Sb  Sb31  1  0.50263114  -0.00419646  0.49977372  1
  Te  Te32  1  0.25245411  0.25115291  0.25019480  1
  Te  Te33  1  0.25350158  0.24755975  0.75014002  1
  Te  Te34  1  0.25226386  0.74691182  0.25225498  1
  Te  Te35  1  0.25986229  0.75080684  0.74734432  1
  Te  Te36  1  0.74795199  0.25460658  0.25076631  1
  Te  Te37  1  0.74801415  0.25212927  0.74837065  1
  Te  Te38  1  0.74393927  0.74688064  0.25253704  1
  Te  Te39  1  0.74491518  0.74771605  0.74924470  1
  Te  Te40  1  0.24794573  -0.00283187  0.00417149  1
  Te  Te41  1  0.24451468  -0.00173831  0.49685293  1
  Te  Te42  1  0.24865599  0.50158020  0.00177782  1
  Te  Te43  1  0.24384186  0.50167688  0.49751071  1
  Te  Te44  1  0.75306047  0.00752853  -0.00270788  1
  Te  Te45  1  0.75385191  -0.00231512  0.50061281  1
  Te  Te46  1  0.75215647  0.50028581  0.00130385  1
  Te  Te47  1  0.75094965  0.50278025  0.49923655  1
  Te  Te48  1  -0.00529757  0.25702748  -0.00041679  1
  Te  Te49  1  -0.00548454  0.25281520  0.50039617  1
  Te  Te50  1  0.00684587  0.74427784  -0.00206815  1
  Te  Te51  1  -0.00141433  0.74744551  0.50089196  1
  Te  Te52  1  0.50529919  0.25783059  0.00011560  1
  Te  Te53  1  0.50845765  0.24863176  0.50023346  1
  Te  Te54  1  0.49777321  0.74605294  0.00151619  1
  Te  Te55  1  0.49892133  0.74902493  0.49933843  1
  Te  Te56  1  0.00463217  0.00081678  0.25477995  1
  Te  Te57  1  -0.00655857  0.00009908  0.74429582  1
  Te  Te58  1  -0.00212500  0.50022402  0.25104492  1
  Te  Te59  1  -0.00577407  0.50007158  0.74873322  1
  Te  Te60  1  0.49450361  -0.00836293  0.24886595  1
  Te  Te61  1  0.50673393  -0.00720706  0.75096282  1
  Te  Te62  1  0.49978139  0.50413706  0.24742324  1
  Te  Te63  1  0.50429093  0.50465908  0.75538075  1
