# generated using pymatgen
data_AgSbTe2
_symmetry_space_group_name_H-M   'P 1'
_cell_length_a   12.23491192
_cell_length_b   12.23817415
_cell_length_c   12.22544689
_cell_angle_alpha   90.00814446
_cell_angle_beta   89.99888577
_cell_angle_gamma   90.00461515
_symmetry_Int_Tables_number   1
_chemical_formula_structural   AgSbTe2
_chemical_formula_sum   'Ag16 Sb16 Te32'
_cell_volume   1830.55260386
_cell_formula_units_Z   16
loop_
 _symmetry_equiv_pos_site_id
 _symmetry_equiv_pos_as_xyz
  1  'x, y, z'
loop_
 _atom_site_type_symbol
 _atom_site_label
 _atom_site_symmetry_multiplicity
 _atom_site_fract_x
 _atom_site_fract_y
 _atom_site_fract_z
 _atom_site_occupancy
  Ag  Ag0  1  0.50502109  0.25420926  0.25659982  1
  Ag  Ag1  1  -0.00299090  0.74530009  0.25820915  1
  Ag  Ag2  1  0.75441135  0.73623309  0.50291143  1
  Ag  Ag3  1  0.24886461  -0.00187200  0.74259530  1
  Ag  Ag4  1  0.24448856  0.74940767  0.50236821  1
  Ag  Ag5  1  0.75074927  0.50033088  0.73510760  1
  Ag  Ag6  1  0.75007520  0.26459297  0.50034745  1
  Ag  Ag7  1  0.75038087  -0.00091669  0.74258559  1
  Ag  Ag8  1  -0.01409507  0.50403024  0.49849904  1
  Ag  Ag9  1  0.75283399  0.49809845  0.26405309  1
  Ag  Ag10  1  0.75069527  0.25512914  -0.00069423  1
  Ag  Ag11  1  0.51462573  0.49933032  0.50042136  1
  Ag  Ag12  1  0.50417560  0.74851760  0.74278464  1
  Ag  Ag13  1  0.24918128  0.25107876  0.50064260  1
  Ag  Ag14  1  -0.00700267  0.50035902  0.00036426  1
  Ag  Ag15  1  -0.00271647  -0.00357359  0.50172161  1
  Sb  Sb16  1  -0.00363034  0.25397228  0.25471975  1
  Sb  Sb17  1  0.24942124  0.50131870  0.74408568  1
  Sb  Sb18  1  0.75192192  0.74600356  -0.00264920  1
  Sb  Sb19  1  0.24934826  0.25049216  -0.00126374  1
  Sb  Sb20  1  0.24698671  0.74931210  -0.00347554  1
  Sb  Sb21  1  0.50222728  0.00064661  0.50206208  1
  Sb  Sb22  1  0.50407410  0.25218746  0.74466977  1
  Sb  Sb23  1  0.50643151  0.49868802  -0.00042962  1
  Sb  Sb24  1  0.24648696  0.50031120  0.25512163  1
  Sb  Sb25  1  -0.00379337  -0.00069130  -0.00160539  1
  Sb  Sb26  1  -0.00305755  0.74939732  0.74167597  1
  Sb  Sb27  1  0.75198953  0.00142619  0.25779965  1
  Sb  Sb28  1  -0.00292969  0.25099332  0.74593031  1
  Sb  Sb29  1  0.50346316  0.00128452  -0.00347735  1
  Sb  Sb30  1  0.50210570  0.74631120  0.25737120  1
  Sb  Sb31  1  0.24710415  0.00053798  0.25784058  1
  Te  Te32  1  0.25625762  0.24930364  0.25540299  1
  Te  Te33  1  0.25198632  0.24527695  0.74506611  1
  Te  Te34  1  0.24893952  0.75108875  0.25586635  1
  Te  Te35  1  0.25409661  0.75212003  0.74505554  1
  Te  Te36  1  0.74856397  0.25119565  0.25435658  1
  Te  Te37  1  0.74854614  0.25106770  0.74626420  1
  Te  Te38  1  0.75097769  0.74830164  0.25223435  1
  Te  Te39  1  0.74789714  0.74962797  0.74745716  1
  Te  Te40  1  0.24877966  0.00101373  -0.01076563  1
  Te  Te41  1  0.24713524  0.00018361  0.50359826  1
  Te  Te42  1  0.24023637  0.49894659  -0.00120489  1
  Te  Te43  1  0.24855002  0.49918872  0.50121934  1
  Te  Te44  1  0.75148716  0.00690204  -0.00932741  1
  Te  Te45  1  0.75308828  0.00028097  0.50382857  1
  Te  Te46  1  0.75361679  0.49667664  -0.00094742  1
  Te  Te47  1  0.75041420  0.49940984  0.50118093  1
  Te  Te48  1  -0.00383019  0.25460517  0.00277952  1
  Te  Te49  1  -0.00030725  0.25110930  0.49847466  1
  Te  Te50  1  0.00088932  0.74534982  0.01001623  1
  Te  Te51  1  -0.00098239  0.74810297  0.49947278  1
  Te  Te52  1  0.50408188  0.25115373  0.00709538  1
  Te  Te53  1  0.50177468  0.25259726  0.49831740  1
  Te  Te54  1  0.49836108  0.74967306  -0.00650294  1
  Te  Te55  1  0.50136563  0.74740026  0.50207882  1
  Te  Te56  1  0.00012466  -0.00740797  0.25517238  1
  Te  Te57  1  -0.00189906  -0.00029363  0.74596651  1
  Te  Te58  1  -0.00323967  0.50255740  0.25530401  1
  Te  Te59  1  -0.00518606  0.50035726  0.74768008  1
  Te  Te60  1  0.49934223  0.00583733  0.24810332  1
  Te  Te61  1  0.50312535  -0.00482833  0.75007784  1
  Te  Te62  1  0.50498680  0.49755767  0.25268648  1
  Te  Te63  1  0.50397297  0.50319772  0.74709978  1
