# generated using pymatgen
data_AgSbTe2
_symmetry_space_group_name_H-M   'P 1'
_cell_length_a   12.24769013
_cell_length_b   12.26361367
_cell_length_c   12.25881946
_cell_angle_alpha   90.00465937
_cell_angle_beta   89.98892933
_cell_angle_gamma   89.99545125
_symmetry_Int_Tables_number   1
_chemical_formula_structural   AgSbTe2
_chemical_formula_sum   'Ag16 Sb16 Te32'
_cell_volume   1841.28616026
_cell_formula_units_Z   16
loop_
 _symmetry_equiv_pos_site_id
 _symmetry_equiv_pos_as_xyz
  1  'x, y, z'
loop_
 _atom_site_type_symbol
 _atom_site_label
 _atom_site_symmetry_multiplicity
 _atom_site_fract_x
 _atom_site_fract_y
 _atom_site_fract_z
 _atom_site_occupancy
  Ag  Ag0  1  0.00294587  0.75373679  0.24595244  1
  Ag  Ag1  1  0.01293763  0.00622933  -0.00291635  1
  Ag  Ag2  1  0.00739587  0.49471392  0.00355366  1
  Ag  Ag3  1  0.75079702  0.24288456  0.50270806  1
  Ag  Ag4  1  0.49943342  0.00078734  0.51228998  1
  Ag  Ag5  1  0.00672495  0.24629968  0.24067003  1
  Ag  Ag6  1  0.49486149  0.23410037  0.75136802  1
  Ag  Ag7  1  0.24364084  0.00392667  0.23867726  1
  Ag  Ag8  1  0.24131299  0.24038674  -0.00046577  1
  Ag  Ag9  1  0.25403139  0.00411608  0.75994954  1
  Ag  Ag10  1  0.00556038  0.23983622  0.75942293  1
  Ag  Ag11  1  0.24224784  0.49645107  0.24336843  1
  Ag  Ag12  1  0.48686524  0.00331961  -0.01288941  1
  Ag  Ag13  1  0.49752128  0.76586314  0.74859669  1
  Ag  Ag14  1  0.75070772  0.75702536  0.50305699  1
  Ag  Ag15  1  0.00179902  0.75986737  0.75371576  1
  Sb  Sb16  1  0.76160213  0.00047211  0.25154652  1
  Sb  Sb17  1  0.24737423  0.76326764  -0.00055162  1
  Sb  Sb18  1  0.75773313  0.49873939  0.24934579  1
  Sb  Sb19  1  0.75312637  0.75208169  -0.00387954  1
  Sb  Sb20  1  0.49355496  0.24551741  0.24786391  1
  Sb  Sb21  1  0.48881208  0.49637144  -0.00068229  1
  Sb  Sb22  1  0.00018949  0.00055437  0.50575901  1
  Sb  Sb23  1  0.74530505  0.00022134  0.74806191  1
  Sb  Sb24  1  0.75826406  0.24765754  -0.00343313  1
  Sb  Sb25  1  0.24576991  0.49543659  0.75856318  1
  Sb  Sb26  1  0.00172812  0.49958773  0.49562758  1
  Sb  Sb27  1  0.24976520  0.24670284  0.50172849  1
  Sb  Sb28  1  0.24994229  0.75370140  0.50166569  1
  Sb  Sb29  1  0.49853454  0.49861022  0.50048691  1
  Sb  Sb30  1  0.75304406  0.49961525  0.74971156  1
  Sb  Sb31  1  0.49795416  0.75551910  0.25181252  1
  Te  Te32  1  0.24434939  0.24309808  0.24945697  1
  Te  Te33  1  0.24704012  0.24658226  0.75001427  1
  Te  Te34  1  0.24125537  0.75512306  0.24983284  1
  Te  Te35  1  0.24688664  0.75542544  0.74982174  1
  Te  Te36  1  0.76060757  0.25147652  0.25919612  1
  Te  Te37  1  0.75236486  0.25036187  0.74398157  1
  Te  Te38  1  0.75978638  0.74928295  0.26078289  1
  Te  Te39  1  0.75420390  0.74939751  0.74221828  1
  Te  Te40  1  0.24786007  0.00391361  -0.00196758  1
  Te  Te41  1  0.26062116  0.00122409  0.50181668  1
  Te  Te42  1  0.24305200  0.48640590  0.00587479  1
  Te  Te43  1  0.25050551  0.49886853  0.48397020  1
  Te  Te44  1  0.74860676  0.00182014  0.00340796  1
  Te  Te45  1  0.73952435  0.00068949  0.49764697  1
  Te  Te46  1  0.76406368  0.49933758  0.00132409  1
  Te  Te47  1  0.74914858  0.49973344  0.49945158  1
  Te  Te48  1  0.00040529  0.24368990  -0.00217257  1
  Te  Te49  1  -0.00532670  0.24824761  0.50323442  1
  Te  Te50  1  -0.00117363  0.75425696  -0.00267009  1
  Te  Te51  1  -0.00598878  0.75135351  0.50397787  1
  Te  Te52  1  0.49739606  0.24597745  -0.00455776  1
  Te  Te53  1  0.50419274  0.24714560  0.50578090  1
  Te  Te54  1  0.50353008  0.75614282  -0.00864203  1
  Te  Te55  1  0.50532283  0.75312040  0.50524435  1
  Te  Te56  1  0.00678718  0.00016119  0.24902128  1
  Te  Te57  1  0.00425285  0.00005781  0.74942178  1
  Te  Te58  1  0.00614293  0.50013842  0.24586472  1
  Te  Te59  1  0.00491604  0.50143617  0.75865869  1
  Te  Te60  1  0.48618416  -0.00121560  0.24689855  1
  Te  Te61  1  0.49870106  0.00066671  0.75250066  1
  Te  Te62  1  0.48756191  0.50124527  0.24709285  1
  Te  Te63  1  0.49573690  0.50123500  0.75283226  1
