# generated using pymatgen
data_AgSbTe2
_symmetry_space_group_name_H-M   'P 1'
_cell_length_a   12.21546490
_cell_length_b   12.20698546
_cell_length_c   12.21622155
_cell_angle_alpha   89.99446740
_cell_angle_beta   90.00112907
_cell_angle_gamma   89.99435227
_symmetry_Int_Tables_number   1
_chemical_formula_structural   AgSbTe2
_chemical_formula_sum   'Ag16 Sb16 Te32'
_cell_volume   1821.60967230
_cell_formula_units_Z   16
loop_
 _symmetry_equiv_pos_site_id
 _symmetry_equiv_pos_as_xyz
  1  'x, y, z'
loop_
 _atom_site_type_symbol
 _atom_site_label
 _atom_site_symmetry_multiplicity
 _atom_site_fract_x
 _atom_site_fract_y
 _atom_site_fract_z
 _atom_site_occupancy
  Ag  Ag0  1  0.49671737  0.75632981  0.75290918  1
  Ag  Ag1  1  0.00432155  -0.00122636  0.50365512  1
  Ag  Ag2  1  -0.00195275  -0.00461282  -0.00316912  1
  Ag  Ag3  1  0.49741899  0.24599662  0.25019834  1
  Ag  Ag4  1  0.24850388  0.75593081  -0.00053904  1
  Ag  Ag5  1  0.24507417  -0.00339971  0.74977697  1
  Ag  Ag6  1  0.00577192  0.50162801  0.49890503  1
  Ag  Ag7  1  0.24769267  0.50289114  0.25342558  1
  Ag  Ag8  1  0.75128420  0.75905632  -0.00033302  1
  Ag  Ag9  1  0.75303127  -0.00253016  0.24512724  1
  Ag  Ag10  1  0.50179240  -0.00444602  -0.00132614  1
  Ag  Ag11  1  0.75506820  -0.00276642  0.75503463  1
  Ag  Ag12  1  0.00344301  0.75448126  0.25036136  1
  Ag  Ag13  1  0.00218991  0.24184130  0.74698516  1
  Ag  Ag14  1  0.24496682  0.75259260  0.49970959  1
  Ag  Ag15  1  0.24564385  0.24767867  0.49964341  1
  Sb  Sb16  1  0.49484027  -0.00133728  0.50082540  1
  Sb  Sb17  1  0.75236772  0.50236906  0.24954786  1
  Sb  Sb18  1  0.24704823  0.50334042  0.74709170  1
  Sb  Sb19  1  0.75379715  0.50381557  0.75067437  1
  Sb  Sb20  1  0.24742407  -0.00228416  0.25035455  1
  Sb  Sb21  1  0.00196459  0.24559760  0.25260410  1
  Sb  Sb22  1  0.49719734  0.75395243  0.24743519  1
  Sb  Sb23  1  0.00300139  0.75947880  0.75014130  1
  Sb  Sb24  1  0.00300478  0.50491096  0.00103800  1
  Sb  Sb25  1  0.75519748  0.75397674  0.50046006  1
  Sb  Sb26  1  0.75087296  0.23924280  0.00022631  1
  Sb  Sb27  1  0.49393985  0.50126586  0.49785784  1
  Sb  Sb28  1  0.49758173  0.24325695  0.74985317  1
  Sb  Sb29  1  0.75479321  0.24628649  0.50033998  1
  Sb  Sb30  1  0.24887263  0.24340304  0.00050961  1
  Sb  Sb31  1  0.49722474  0.50425881  0.00150113  1
  Te  Te32  1  0.25212763  0.25296632  0.25345795  1
  Te  Te33  1  0.24760542  0.24632094  0.74593308  1
  Te  Te34  1  0.24830742  0.74851296  0.25112122  1
  Te  Te35  1  0.25182782  0.75336468  0.75020852  1
  Te  Te36  1  0.74487195  0.24488929  0.25018105  1
  Te  Te37  1  0.75344659  0.24340167  0.74986365  1
  Te  Te38  1  0.75235649  0.75441517  0.24704448  1
  Te  Te39  1  0.74594000  0.75514539  0.75315222  1
  Te  Te40  1  0.24873907  -0.00438926  -0.00170283  1
  Te  Te41  1  0.24618857  -0.00171424  0.50138124  1
  Te  Te42  1  0.24936894  0.50878098  0.00573707  1
  Te  Te43  1  0.24503254  0.50154009  0.49720847  1
  Te  Te44  1  0.75166035  -0.00359104  -0.00084724  1
  Te  Te45  1  0.75679847  -0.00073576  0.50045605  1
  Te  Te46  1  0.75010256  0.51200527  0.00049281  1
  Te  Te47  1  0.76021129  0.50014719  0.49928597  1
  Te  Te48  1  0.00082547  0.24439120  -0.00453013  1
  Te  Te49  1  0.00446377  0.24660728  0.50131672  1
  Te  Te50  1  0.00239889  0.75377341  0.00205000  1
  Te  Te51  1  0.00444026  0.75304634  0.49794989  1
  Te  Te52  1  0.49952486  0.24388895  0.00354932  1
  Te  Te53  1  0.49221186  0.25061103  0.49643514  1
  Te  Te54  1  0.49770548  0.75442490  -0.00162171  1
  Te  Te55  1  0.49226534  0.74980159  0.50418113  1
  Te  Te56  1  -0.00283970  -0.00228447  0.24941798  1
  Te  Te57  1  0.00104820  0.00028011  0.75002375  1
  Te  Te58  1  0.00380847  0.50297801  0.25319799  1
  Te  Te59  1  -0.00039072  0.49038938  0.74455197  1
  Te  Te60  1  0.50449400  0.00264625  0.24639912  1
  Te  Te61  1  0.49934081  -0.00265613  0.75308804  1
  Te  Te62  1  0.49510688  0.49368411  0.25042658  1
  Te  Te63  1  0.50091542  0.50637925  0.74976563  1
