# generated using pymatgen
data_AgSbTe2
_symmetry_space_group_name_H-M   'P 1'
_cell_length_a   12.29035819
_cell_length_b   12.29350709
_cell_length_c   12.31651688
_cell_angle_alpha   89.99430336
_cell_angle_beta   89.97990838
_cell_angle_gamma   89.99767041
_symmetry_Int_Tables_number   1
_chemical_formula_structural   AgSbTe2
_chemical_formula_sum   'Ag16 Sb16 Te32'
_cell_volume   1860.92218507
_cell_formula_units_Z   16
loop_
 _symmetry_equiv_pos_site_id
 _symmetry_equiv_pos_as_xyz
  1  'x, y, z'
loop_
 _atom_site_type_symbol
 _atom_site_label
 _atom_site_symmetry_multiplicity
 _atom_site_fract_x
 _atom_site_fract_y
 _atom_site_fract_z
 _atom_site_occupancy
  Ag  Ag0  1  0.01761863  0.49577648  -0.00261476  1
  Ag  Ag1  1  0.24876928  0.49816955  0.74805044  1
  Ag  Ag2  1  0.25168882  0.74021175  0.00120405  1
  Ag  Ag3  1  0.24740931  0.74053288  0.49887467  1
  Ag  Ag4  1  0.00081125  0.25422913  0.73935669  1
  Ag  Ag5  1  0.24573931  0.50096217  0.25201878  1
  Ag  Ag6  1  0.48589117  0.49701801  -0.00591009  1
  Ag  Ag7  1  0.00465556  0.25450646  0.26369698  1
  Ag  Ag8  1  0.00702054  0.01509216  0.50241496  1
  Ag  Ag9  1  0.49757132  0.25525313  0.74679033  1
  Ag  Ag10  1  0.75229145  0.01051547  0.74653614  1
  Ag  Ag11  1  0.01234261  0.48904385  0.50227962  1
  Ag  Ag12  1  0.24623986  0.00185802  0.25290423  1
  Ag  Ag13  1  0.48212343  0.49368386  0.50758223  1
  Ag  Ag14  1  0.75865384  0.25075811  0.50631868  1
  Ag  Ag15  1  0.49120557  0.00575570  -0.00456499  1
  Sb  Sb16  1  0.49679335  0.25302192  0.25306481  1
  Sb  Sb17  1  0.49777398  0.74469018  0.74999784  1
  Sb  Sb18  1  0.75127041  0.74852965  0.50255344  1
  Sb  Sb19  1  0.75045210  0.49670768  0.74897736  1
  Sb  Sb20  1  0.75013581  0.24972678  -0.00326386  1
  Sb  Sb21  1  0.25038979  0.25739798  -0.00041879  1
  Sb  Sb22  1  0.49285437  0.00519707  0.50098870  1
  Sb  Sb23  1  0.49603295  0.74796444  0.24955062  1
  Sb  Sb24  1  0.00739363  0.00463101  -0.00048678  1
  Sb  Sb25  1  0.00443529  0.74600220  0.25125156  1
  Sb  Sb26  1  0.75442532  0.49550552  0.25021135  1
  Sb  Sb27  1  0.74980137  0.74917348  -0.00279680  1
  Sb  Sb28  1  0.75239208  0.00584940  0.24926671  1
  Sb  Sb29  1  0.00208145  0.74381020  0.74836338  1
  Sb  Sb30  1  0.24642172  0.25673829  0.50044298  1
  Sb  Sb31  1  0.24878618  0.00391871  0.74960432  1
  Te  Te32  1  0.24615994  0.24813108  0.24960733  1
  Te  Te33  1  0.25140706  0.25852511  0.75018555  1
  Te  Te34  1  0.24947818  0.74716626  0.25112114  1
  Te  Te35  1  0.24991384  0.73728113  0.74913006  1
  Te  Te36  1  0.76134970  0.25230793  0.26040623  1
  Te  Te37  1  0.75183255  0.24686683  0.74802982  1
  Te  Te38  1  0.74918989  0.75019783  0.24817247  1
  Te  Te39  1  0.74997656  0.77166909  0.75135321  1
  Te  Te40  1  0.25316068  -0.00893383  -0.00135342  1
  Te  Te41  1  0.24746339  -0.00871206  0.49904060  1
  Te  Te42  1  0.24964878  0.50026519  0.00083253  1
  Te  Te43  1  0.24915668  0.49968557  0.49934461  1
  Te  Te44  1  0.74171523  -0.00172448  0.00000202  1
  Te  Te45  1  0.75178296  -0.00172110  0.50027564  1
  Te  Te46  1  0.74393256  0.50131356  0.00074112  1
  Te  Te47  1  0.75327459  0.50118297  0.49930408  1
  Te  Te48  1  -0.00055405  0.25525455  -0.00518204  1
  Te  Te49  1  0.00099688  0.24910151  0.50337250  1
  Te  Te50  1  0.00259676  0.73993998  -0.00045989  1
  Te  Te51  1  0.00215772  0.74766651  0.50072356  1
  Te  Te52  1  0.50007287  0.25332505  -0.00122288  1
  Te  Te53  1  0.50633527  0.25485805  0.50297165  1
  Te  Te54  1  0.49818601  0.74287985  -0.00021429  1
  Te  Te55  1  0.49690532  0.73889215  0.49998782  1
  Te  Te56  1  0.00505204  0.00434594  0.24890910  1
  Te  Te57  1  0.00368849  0.00754660  0.75008479  1
  Te  Te58  1  0.00333135  0.49788721  0.25261119  1
  Te  Te59  1  -0.00330170  0.49760390  0.74752030  1
  Te  Te60  1  0.49210339  0.00139655  0.24512368  1
  Te  Te61  1  0.49473125  0.00805781  0.75106431  1
  Te  Te62  1  0.49288795  0.49939589  0.24648951  1
  Te  Te63  1  0.50389612  0.49611613  0.74978290  1
