# generated using pymatgen
data_AgSbTe2
_symmetry_space_group_name_H-M   'P 1'
_cell_length_a   12.22255032
_cell_length_b   12.22329195
_cell_length_c   12.22078847
_cell_angle_alpha   90.00533579
_cell_angle_beta   89.99896586
_cell_angle_gamma   90.00052284
_symmetry_Int_Tables_number   1
_chemical_formula_structural   AgSbTe2
_chemical_formula_sum   'Ag16 Sb16 Te32'
_cell_volume   1825.78335568
_cell_formula_units_Z   16
loop_
 _symmetry_equiv_pos_site_id
 _symmetry_equiv_pos_as_xyz
  1  'x, y, z'
loop_
 _atom_site_type_symbol
 _atom_site_label
 _atom_site_symmetry_multiplicity
 _atom_site_fract_x
 _atom_site_fract_y
 _atom_site_fract_z
 _atom_site_occupancy
  Ag  Ag0  1  0.75559276  0.49837098  0.23684267  1
  Ag  Ag1  1  0.24970076  0.25026299  0.00212112  1
  Ag  Ag2  1  -0.00669077  0.25536346  0.24651054  1
  Ag  Ag3  1  0.25076165  0.00412644  0.75489717  1
  Ag  Ag4  1  0.74992336  0.49606028  0.76390598  1
  Ag  Ag5  1  0.24863697  0.00258563  0.24649174  1
  Ag  Ag6  1  -0.00604683  0.49727230  0.49209300  1
  Ag  Ag7  1  0.75182752  0.00146233  0.24660482  1
  Ag  Ag8  1  0.75079528  0.26415617  0.00502843  1
  Ag  Ag9  1  0.75036805  0.73605945  0.00701291  1
  Ag  Ag10  1  0.50243506  0.25202520  0.75490752  1
  Ag  Ag11  1  -0.01423195  0.49693315  0.00705956  1
  Ag  Ag12  1  0.51451528  0.49714272  0.00227103  1
  Ag  Ag13  1  0.50719436  0.74808307  0.24565378  1
  Ag  Ag14  1  -0.00679650  0.74458129  0.24691086  1
  Ag  Ag15  1  0.75204055  0.25482417  0.49386537  1
  Sb  Sb16  1  0.50211725  0.00228617  0.49738961  1
  Sb  Sb17  1  -0.00074376  0.00454940  0.00463941  1
  Sb  Sb18  1  -0.00178707  0.25236524  0.75457761  1
  Sb  Sb19  1  0.25151053  0.49542172  0.75480874  1
  Sb  Sb20  1  0.50800057  0.49685563  0.49668003  1
  Sb  Sb21  1  0.24899482  0.75009638  0.00378062  1
  Sb  Sb22  1  0.75239928  0.74415225  0.48934975  1
  Sb  Sb23  1  -0.00230560  0.74689082  0.75526776  1
  Sb  Sb24  1  0.24781299  0.75017547  0.49663639  1
  Sb  Sb25  1  0.50037885  0.00413478  0.00208817  1
  Sb  Sb26  1  0.24730235  0.24997765  0.49776758  1
  Sb  Sb27  1  0.50772792  0.25304267  0.24405362  1
  Sb  Sb28  1  -0.00222885  0.00398681  0.49514266  1
  Sb  Sb29  1  0.74894911  0.00559039  0.75389876  1
  Sb  Sb30  1  0.50323270  0.74771862  0.75673398  1
  Sb  Sb31  1  0.24311507  0.49533756  0.24651355  1
  Te  Te32  1  0.24661611  0.24532422  0.24683996  1
  Te  Te33  1  0.25298050  0.24621892  0.75318350  1
  Te  Te34  1  0.24852953  0.75851162  0.24859437  1
  Te  Te35  1  0.25053671  0.75990339  0.74998536  1
  Te  Te36  1  0.74950021  0.25103977  0.24700872  1
  Te  Te37  1  0.74802651  0.25058091  0.75368914  1
  Te  Te38  1  0.75192319  0.74993731  0.24812524  1
  Te  Te39  1  0.74917726  0.74664388  0.75827615  1
  Te  Te40  1  0.24967952  0.00527971  0.00251081  1
  Te  Te41  1  0.24958338  0.00077157  0.49687597  1
  Te  Te42  1  0.24992387  0.49377134  -0.00113710  1
  Te  Te43  1  0.23970974  0.49921167  0.50178539  1
  Te  Te44  1  0.75050972  0.00051657  0.00492020  1
  Te  Te45  1  0.75059265  0.00876860  0.49439517  1
  Te  Te46  1  0.75049222  0.49871099  0.00163898  1
  Te  Te47  1  0.75373539  0.49569809  0.49881493  1
  Te  Te48  1  -0.00148323  0.25310391  0.00343920  1
  Te  Te49  1  -0.00391395  0.25474779  0.49418387  1
  Te  Te50  1  -0.00278702  0.74332296  0.00511337  1
  Te  Te51  1  -0.00057685  0.74130909  0.49183369  1
  Te  Te52  1  0.50088997  0.25364428  -0.00200569  1
  Te  Te53  1  0.50568447  0.25182166  0.50857538  1
  Te  Te54  1  0.50288459  0.74324407  0.00487111  1
  Te  Te55  1  0.49962707  0.74861035  0.49033284  1
  Te  Te56  1  -0.00163663  0.00034211  0.24973847  1
  Te  Te57  1  0.00705041  -0.00089692  0.74837309  1
  Te  Te58  1  -0.00011301  0.49863512  0.24709886  1
  Te  Te59  1  -0.00508046  0.50056798  0.75210818  1
  Te  Te60  1  0.50063752  -0.00523734  0.24926441  1
  Te  Te61  1  0.49547917  0.00405865  0.74969495  1
  Te  Te62  1  0.50361867  0.50295928  0.24666922  1
  Te  Te63  1  0.50370103  0.49698727  0.75369751  1
