# generated using pymatgen
data_AgSbTe2
_symmetry_space_group_name_H-M   'P 1'
_cell_length_a   12.23434604
_cell_length_b   12.21858377
_cell_length_c   12.22695716
_cell_angle_alpha   90.00197425
_cell_angle_beta   90.00111037
_cell_angle_gamma   89.99392799
_symmetry_Int_Tables_number   1
_chemical_formula_structural   AgSbTe2
_chemical_formula_sum   'Ag16 Sb16 Te32'
_cell_volume   1827.76357668
_cell_formula_units_Z   16
loop_
 _symmetry_equiv_pos_site_id
 _symmetry_equiv_pos_as_xyz
  1  'x, y, z'
loop_
 _atom_site_type_symbol
 _atom_site_label
 _atom_site_symmetry_multiplicity
 _atom_site_fract_x
 _atom_site_fract_y
 _atom_site_fract_z
 _atom_site_occupancy
  Ag  Ag0  1  0.25011897  0.74843992  -0.00475568  1
  Ag  Ag1  1  0.50400974  0.25477510  0.25177376  1
  Ag  Ag2  1  0.25473764  0.49466819  0.75084884  1
  Ag  Ag3  1  0.74477524  0.49018961  0.74826450  1
  Ag  Ag4  1  0.74586282  0.49167938  0.25064893  1
  Ag  Ag5  1  0.50298479  0.49127171  0.50589571  1
  Ag  Ag6  1  -0.00420223  0.25118975  0.24998303  1
  Ag  Ag7  1  0.50088456  0.00543550  -0.00408913  1
  Ag  Ag8  1  0.25358204  0.25393349  0.50500168  1
  Ag  Ag9  1  0.50558987  0.25700826  0.74824117  1
  Ag  Ag10  1  -0.00105034  0.00333125  -0.00554500  1
  Ag  Ag11  1  -0.00602696  0.25042777  0.74977159  1
  Ag  Ag12  1  0.75119028  0.00982463  0.75233766  1
  Ag  Ag13  1  0.74631839  0.25429685  0.50535713  1
  Ag  Ag14  1  -0.00013623  0.74928122  0.75389229  1
  Ag  Ag15  1  0.50056138  0.49418000  -0.00590520  1
  Sb  Sb16  1  0.74918084  0.01001865  0.24780540  1
  Sb  Sb17  1  -0.00292253  0.49484981  0.50272643  1
  Sb  Sb18  1  0.75040612  0.74901957  -0.00281377  1
  Sb  Sb19  1  -0.00216355  0.00523427  0.50493605  1
  Sb  Sb20  1  0.25044078  0.74459308  0.50530274  1
  Sb  Sb21  1  0.50079283  0.74623691  0.24629045  1
  Sb  Sb22  1  0.25053973  0.00439809  0.24760483  1
  Sb  Sb23  1  -0.00035430  0.49713669  -0.00399756  1
  Sb  Sb24  1  0.50268456  0.01014563  0.50438616  1
  Sb  Sb25  1  0.25312072  0.25196527  -0.00487356  1
  Sb  Sb26  1  0.74711531  0.25134261  -0.00751106  1
  Sb  Sb27  1  0.24978860  0.00428077  0.75252009  1
  Sb  Sb28  1  0.25303310  0.49568840  0.24985852  1
  Sb  Sb29  1  -0.00076897  0.74849254  0.24584749  1
  Sb  Sb30  1  0.49969889  0.74385040  0.75229510  1
  Sb  Sb31  1  0.74915806  0.74506006  0.50453921  1
  Te  Te32  1  0.24963821  0.25165847  0.25708522  1
  Te  Te33  1  0.25012085  0.25446096  0.74661072  1
  Te  Te34  1  0.24805811  0.74950177  0.24414435  1
  Te  Te35  1  0.24513548  0.74455980  0.75259830  1
  Te  Te36  1  0.74933582  0.25344678  0.25479330  1
  Te  Te37  1  0.74983471  0.25217776  0.74959150  1
  Te  Te38  1  0.75171351  0.74023093  0.25190653  1
  Te  Te39  1  0.75628282  0.74878264  0.74867524  1
  Te  Te40  1  0.25145273  -0.00482272  -0.00108284  1
  Te  Te41  1  0.25087106  0.00632572  0.49923780  1
  Te  Te42  1  0.25411666  0.50287274  -0.00457268  1
  Te  Te43  1  0.25493390  0.49554535  0.50464339  1
  Te  Te44  1  0.74899065  -0.00153654  -0.00472323  1
  Te  Te45  1  0.74863748  0.00542020  0.50638443  1
  Te  Te46  1  0.74430445  0.50129552  -0.00215869  1
  Te  Te47  1  0.74711271  0.49631861  0.50359135  1
  Te  Te48  1  0.00284561  0.24591790  -0.00109418  1
  Te  Te49  1  -0.00100573  0.24971577  0.50150681  1
  Te  Te50  1  0.00373593  0.75387518  -0.00400138  1
  Te  Te51  1  0.00154047  0.75238364  0.50688193  1
  Te  Te52  1  0.49810231  0.25082050  -0.00127940  1
  Te  Te53  1  0.50176766  0.25202335  0.50208691  1
  Te  Te54  1  0.49559632  0.75131392  0.00042171  1
  Te  Te55  1  0.49821108  0.74179145  0.49879062  1
  Te  Te56  1  -0.00093800  0.00524788  0.24231068  1
  Te  Te57  1  -0.00156457  0.00504137  0.75381955  1
  Te  Te58  1  -0.00517971  0.49428669  0.24858938  1
  Te  Te59  1  -0.00172589  0.49521611  0.75159750  1
  Te  Te60  1  0.50153822  0.00553584  0.24281414  1
  Te  Te61  1  0.50292168  0.00285906  0.75439563  1
  Te  Te62  1  0.50258235  0.49619197  0.24751011  1
  Te  Te63  1  0.50208294  0.49929600  0.75228752  1
