# generated using pymatgen
data_AgSbTe2
_symmetry_space_group_name_H-M   'P 1'
_cell_length_a   12.22991524
_cell_length_b   12.21637442
_cell_length_c   12.22861627
_cell_angle_alpha   90.00663304
_cell_angle_beta   89.99626347
_cell_angle_gamma   90.00658082
_symmetry_Int_Tables_number   1
_chemical_formula_structural   AgSbTe2
_chemical_formula_sum   'Ag16 Sb16 Te32'
_cell_volume   1827.01912034
_cell_formula_units_Z   16
loop_
 _symmetry_equiv_pos_site_id
 _symmetry_equiv_pos_as_xyz
  1  'x, y, z'
loop_
 _atom_site_type_symbol
 _atom_site_label
 _atom_site_symmetry_multiplicity
 _atom_site_fract_x
 _atom_site_fract_y
 _atom_site_fract_z
 _atom_site_occupancy
  Ag  Ag0  1  0.75345352  0.49750020  0.74228974  1
  Ag  Ag1  1  0.00103539  0.49810716  0.49869609  1
  Ag  Ag2  1  0.75190845  0.49368932  0.25734509  1
  Ag  Ag3  1  0.49803893  0.00703861  0.00376033  1
  Ag  Ag4  1  0.75082463  0.25780912  0.49583955  1
  Ag  Ag5  1  0.24937487  0.25703335  0.49245745  1
  Ag  Ag6  1  0.00234763  0.00144749  0.49690113  1
  Ag  Ag7  1  0.24656481  0.49717883  0.74172852  1
  Ag  Ag8  1  0.49576677  0.25302397  0.25026483  1
  Ag  Ag9  1  0.24883850  0.00887215  0.25173732  1
  Ag  Ag10  1  0.49905320  0.49409804  0.49646185  1
  Ag  Ag11  1  0.74723743  0.25250764  0.00467590  1
  Ag  Ag12  1  0.25322789  0.25107788  0.00891423  1
  Ag  Ag13  1  0.00139612  0.74602391  0.25525046  1
  Ag  Ag14  1  0.24872730  0.49140348  0.25755885  1
  Ag  Ag15  1  0.00040922  0.74431200  0.74469519  1
  Sb  Sb16  1  0.24956209  0.74829655  0.00162870  1
  Sb  Sb17  1  0.00531732  0.25431827  0.25390348  1
  Sb  Sb18  1  0.24686869  0.00313257  0.74786351  1
  Sb  Sb19  1  0.24604229  0.74096987  0.49925569  1
  Sb  Sb20  1  0.49914154  0.74696396  0.25117094  1
  Sb  Sb21  1  0.00040723  0.49911687  0.00200329  1
  Sb  Sb22  1  0.00012160  0.25646246  0.74591667  1
  Sb  Sb23  1  0.49971334  0.25221168  0.74932309  1
  Sb  Sb24  1  0.49962849  0.74526064  0.74914735  1
  Sb  Sb25  1  0.75059879  0.74702276  0.00139772  1
  Sb  Sb26  1  0.49723072  0.00761420  0.49662509  1
  Sb  Sb27  1  0.75281827  0.00765303  0.25164755  1
  Sb  Sb28  1  0.75435983  0.74026981  0.49938859  1
  Sb  Sb29  1  0.75302861  0.00246544  0.74821465  1
  Sb  Sb30  1  0.49944545  0.49407816  0.00406858  1
  Sb  Sb31  1  0.00101749  0.00177960  0.00345836  1
  Te  Te32  1  0.24987891  0.25179214  0.25093423  1
  Te  Te33  1  0.25018991  0.25498768  0.74913502  1
  Te  Te34  1  0.24665033  0.74877031  0.24875064  1
  Te  Te35  1  0.24511362  0.74288855  0.75126509  1
  Te  Te36  1  0.74717354  0.25336850  0.25091964  1
  Te  Te37  1  0.74974132  0.25525019  0.74929290  1
  Te  Te38  1  0.75428259  0.74208457  0.24877215  1
  Te  Te39  1  0.75483502  0.74279215  0.75099887  1
  Te  Te40  1  0.25138120  0.00593694  0.00217959  1
  Te  Te41  1  0.24806572  0.00784141  0.49723703  1
  Te  Te42  1  0.25142736  0.49408445  0.00163479  1
  Te  Te43  1  0.24698195  0.49715310  0.49835857  1
  Te  Te44  1  0.74751717  0.00808113  -0.00045572  1
  Te  Te45  1  0.75324513  0.01026523  0.50069848  1
  Te  Te46  1  0.74885178  0.49424163  0.00071858  1
  Te  Te47  1  0.75305351  0.49627767  0.49885751  1
  Te  Te48  1  -0.00063230  0.24843056  -0.00159785  1
  Te  Te49  1  0.00021063  0.25223799  0.50004572  1
  Te  Te50  1  -0.00056153  0.75139814  0.00073159  1
  Te  Te51  1  -0.00026977  0.74944036  0.49848805  1
  Te  Te52  1  0.49897760  0.24821500  0.00311230  1
  Te  Te53  1  0.49928323  0.25401416  0.49719152  1
  Te  Te54  1  0.50066413  0.76121532  0.00013085  1
  Te  Te55  1  0.50148302  0.74275064  0.50022288  1
  Te  Te56  1  0.00331106  -0.00667619  0.25449166  1
  Te  Te57  1  0.00031603  -0.00978084  0.74320983  1
  Te  Te58  1  0.00089238  0.50303200  0.25171101  1
  Te  Te59  1  0.00048951  0.50311608  0.74784680  1
  Te  Te60  1  0.49558616  0.00185460  0.24867056  1
  Te  Te61  1  0.50009467  -0.00223129  0.75531263  1
  Te  Te62  1  0.49867898  0.49750611  0.25307573  1
  Te  Te63  1  0.49958072  0.50092274  0.74446958  1
