# generated using pymatgen
data_AgSbTe2
_symmetry_space_group_name_H-M   'P 1'
_cell_length_a   12.21907026
_cell_length_b   12.21049671
_cell_length_c   12.21591751
_cell_angle_alpha   90.01445820
_cell_angle_beta   89.99773579
_cell_angle_gamma   90.00101807
_symmetry_Int_Tables_number   1
_chemical_formula_structural   AgSbTe2
_chemical_formula_sum   'Ag16 Sb16 Te32'
_cell_volume   1822.62603793
_cell_formula_units_Z   16
loop_
 _symmetry_equiv_pos_site_id
 _symmetry_equiv_pos_as_xyz
  1  'x, y, z'
loop_
 _atom_site_type_symbol
 _atom_site_label
 _atom_site_symmetry_multiplicity
 _atom_site_fract_x
 _atom_site_fract_y
 _atom_site_fract_z
 _atom_site_occupancy
  Ag  Ag0  1  0.50143726  0.25553870  0.24441354  1
  Ag  Ag1  1  0.25649978  0.24991031  0.00000136  1
  Ag  Ag2  1  0.74334397  0.25177111  -0.00235757  1
  Ag  Ag3  1  0.50290287  0.49288246  0.00503342  1
  Ag  Ag4  1  0.74664073  0.49596117  0.74918153  1
  Ag  Ag5  1  0.74877232  0.75010615  0.49935195  1
  Ag  Ag6  1  0.74328711  0.49838096  0.25067283  1
  Ag  Ag7  1  0.50378426  0.24847416  0.75447317  1
  Ag  Ag8  1  -0.00157660  0.00364457  -0.00399123  1
  Ag  Ag9  1  0.50385940  0.00096059  0.50293663  1
  Ag  Ag10  1  0.74852302  0.00368392  0.74754219  1
  Ag  Ag11  1  -0.00506206  0.50039625  0.49942081  1
  Ag  Ag12  1  -0.00402852  -0.00026499  0.50364226  1
  Ag  Ag13  1  0.25108336  0.00438311  0.75020091  1
  Ag  Ag14  1  0.50255881  0.74519770  0.25095629  1
  Ag  Ag15  1  0.25771462  0.49720914  0.24891594  1
  Sb  Sb16  1  0.74828082  0.24944394  0.50272488  1
  Sb  Sb17  1  0.50290126  0.75133339  0.74888759  1
  Sb  Sb18  1  -0.00204141  0.75156206  0.74829158  1
  Sb  Sb19  1  -0.00258560  0.49754202  -0.00023407  1
  Sb  Sb20  1  -0.00461626  0.24771958  0.75108426  1
  Sb  Sb21  1  0.25356034  0.49439898  0.75025742  1
  Sb  Sb22  1  0.74749293  0.00280239  0.25205318  1
  Sb  Sb23  1  -0.00351054  0.74872225  0.25255413  1
  Sb  Sb24  1  0.25312826  0.75102201  0.00214052  1
  Sb  Sb25  1  0.50532766  0.50005168  0.49508132  1
  Sb  Sb26  1  0.25301175  0.00330897  0.24890168  1
  Sb  Sb27  1  -0.00227292  0.25118449  0.24885129  1
  Sb  Sb28  1  0.50150954  0.00809901  -0.00393124  1
  Sb  Sb29  1  0.25251944  0.24985564  0.49986265  1
  Sb  Sb30  1  0.74711856  0.74942335  0.00149866  1
  Sb  Sb31  1  0.25250364  0.75013614  0.49774665  1
  Te  Te32  1  0.25546849  0.25438637  0.24511104  1
  Te  Te33  1  0.25723316  0.24616298  0.75497825  1
  Te  Te34  1  0.25777556  0.74263254  0.24981944  1
  Te  Te35  1  0.25092250  0.75918399  0.75000197  1
  Te  Te36  1  0.74533250  0.25408948  0.24416299  1
  Te  Te37  1  0.74575069  0.24971883  0.75317894  1
  Te  Te38  1  0.74529677  0.74481765  0.25397245  1
  Te  Te39  1  0.74860372  0.75031477  0.74454664  1
  Te  Te40  1  0.24746049  0.00406894  -0.00268121  1
  Te  Te41  1  0.24756763  -0.00011863  0.50378088  1
  Te  Te42  1  0.24986892  0.49544927  0.00194625  1
  Te  Te43  1  0.24220079  0.50061831  0.49721620  1
  Te  Te44  1  0.75221806  0.00231182  -0.00348515  1
  Te  Te45  1  0.75130026  -0.00032230  0.50207346  1
  Te  Te46  1  0.75020339  0.49820219  -0.00090244  1
  Te  Te47  1  0.75183575  0.50086125  0.50073059  1
  Te  Te48  1  -0.00037766  0.24460346  0.00059998  1
  Te  Te49  1  0.00086464  0.24715550  0.49936256  1
  Te  Te50  1  0.00041233  0.75962835  0.00084806  1
  Te  Te51  1  -0.00630943  0.75253276  0.49900837  1
  Te  Te52  1  0.50165139  0.25119069  0.00054501  1
  Te  Te53  1  0.49947330  0.24478346  0.50054859  1
  Te  Te54  1  0.50029203  0.74111284  0.00711092  1
  Te  Te55  1  0.50447684  0.75461661  0.49605024  1
  Te  Te56  1  0.00063839  -0.00029967  0.25403917  1
  Te  Te57  1  -0.00204379  0.00061425  0.74672940  1
  Te  Te58  1  -0.00205747  0.49987085  0.25317850  1
  Te  Te59  1  -0.00470708  0.50001554  0.74560673  1
  Te  Te60  1  0.49941182  0.00120820  0.25441788  1
  Te  Te61  1  0.50284160  0.00178488  0.74802540  1
  Te  Te62  1  0.50167433  0.49699566  0.25157541  1
  Te  Te63  1  0.50265228  0.49696794  0.75173893  1
