# generated using pymatgen
data_AgSbTe2
_symmetry_space_group_name_H-M   'P 1'
_cell_length_a   12.22238027
_cell_length_b   12.23503841
_cell_length_c   12.23677513
_cell_angle_alpha   90.00085018
_cell_angle_beta   90.00173047
_cell_angle_gamma   89.98606954
_symmetry_Int_Tables_number   1
_chemical_formula_structural   AgSbTe2
_chemical_formula_sum   'Ag16 Sb16 Te32'
_cell_volume   1829.90310881
_cell_formula_units_Z   16
loop_
 _symmetry_equiv_pos_site_id
 _symmetry_equiv_pos_as_xyz
  1  'x, y, z'
loop_
 _atom_site_type_symbol
 _atom_site_label
 _atom_site_symmetry_multiplicity
 _atom_site_fract_x
 _atom_site_fract_y
 _atom_site_fract_z
 _atom_site_occupancy
  Ag  Ag0  1  0.74522809  0.25253333  0.50292681  1
  Ag  Ag1  1  0.75003646  0.49558759  0.75414754  1
  Ag  Ag2  1  0.50307459  0.49651699  0.49889528  1
  Ag  Ag3  1  0.50492819  0.74580922  0.24800500  1
  Ag  Ag4  1  0.50585783  0.25428849  0.25070772  1
  Ag  Ag5  1  0.75058952  -0.00075332  0.24213235  1
  Ag  Ag6  1  0.74947199  0.24825822  -0.00345552  1
  Ag  Ag7  1  0.75179038  0.00392746  0.75824149  1
  Ag  Ag8  1  0.50833826  0.25515520  0.74987121  1
  Ag  Ag9  1  -0.00635069  0.74609977  0.76020789  1
  Ag  Ag10  1  0.24944391  0.49949722  0.75205038  1
  Ag  Ag11  1  -0.00647276  0.74808041  0.24013703  1
  Ag  Ag12  1  -0.00562826  0.50604225  -0.00225937  1
  Ag  Ag13  1  -0.00889688  -0.00712945  -0.00016630  1
  Ag  Ag14  1  0.75687583  0.75167658  0.00097232  1
  Ag  Ag15  1  0.25276715  0.50101441  0.24843697  1
  Sb  Sb16  1  0.25132222  0.74709509  0.49974381  1
  Sb  Sb17  1  -0.00285944  0.50089698  0.50102371  1
  Sb  Sb18  1  0.24976959  -0.00109861  0.24706185  1
  Sb  Sb19  1  0.25514008  0.25475345  0.50001322  1
  Sb  Sb20  1  0.74866981  0.74735531  0.49925571  1
  Sb  Sb21  1  -0.00525541  -0.00116873  0.50059029  1
  Sb  Sb22  1  0.25127874  0.25363029  -0.00018147  1
  Sb  Sb23  1  0.50484307  0.49995379  0.00049295  1
  Sb  Sb24  1  0.24306097  0.74588031  0.00028785  1
  Sb  Sb25  1  0.50941562  0.00040002  0.00018164  1
  Sb  Sb26  1  0.50517409  0.74600809  0.75231872  1
  Sb  Sb27  1  -0.00809938  0.25284339  0.75286360  1
  Sb  Sb28  1  0.74902113  0.50028776  0.24647677  1
  Sb  Sb29  1  0.24826555  0.00116012  0.75301862  1
  Sb  Sb30  1  -0.00572090  0.25120635  0.24679031  1
  Sb  Sb31  1  0.50491188  0.00320760  0.49986129  1
  Te  Te32  1  0.25860886  0.25491636  0.25000946  1
  Te  Te33  1  0.25885995  0.25531312  0.74980752  1
  Te  Te34  1  0.25163913  0.74631413  0.24980258  1
  Te  Te35  1  0.24637894  0.74460171  0.75022931  1
  Te  Te36  1  0.74722149  0.24973382  0.24717024  1
  Te  Te37  1  0.74858957  0.25046274  0.75361136  1
  Te  Te38  1  0.75124426  0.75042349  0.24933242  1
  Te  Te39  1  0.75127889  0.75014718  0.75078348  1
  Te  Te40  1  0.23566536  0.00119466  -0.00103123  1
  Te  Te41  1  0.24965874  0.00117187  0.50124469  1
  Te  Te42  1  0.24176422  0.49924244  -0.00097395  1
  Te  Te43  1  0.25579277  0.49903998  0.50015844  1
  Te  Te44  1  0.75267230  -0.00062730  0.00020888  1
  Te  Te45  1  0.74941147  0.00655595  0.49994902  1
  Te  Te46  1  0.75386204  0.50056045  -0.00321283  1
  Te  Te47  1  0.74529046  0.49580150  0.50571147  1
  Te  Te48  1  -0.00659653  0.25253669  0.00034341  1
  Te  Te49  1  -0.00911609  0.25002245  0.49972915  1
  Te  Te50  1  -0.00323630  0.74741639  0.00067872  1
  Te  Te51  1  0.00046524  0.74959860  0.49791135  1
  Te  Te52  1  0.50607478  0.24929524  0.00048037  1
  Te  Te53  1  0.50440185  0.25331180  0.49915428  1
  Te  Te54  1  0.50804655  0.75088886  0.00540630  1
  Te  Te55  1  0.50007172  0.74319853  0.49345873  1
  Te  Te56  1  -0.00303620  -0.00319280  0.24798711  1
  Te  Te57  1  -0.00317963  -0.00395354  0.75193250  1
  Te  Te58  1  0.00268213  0.50294457  0.24946233  1
  Te  Te59  1  -0.00111236  0.50208909  0.75029227  1
  Te  Te60  1  0.50260246  0.00000763  0.24960281  1
  Te  Te61  1  0.50357561  0.00314737  0.75005362  1
  Te  Te62  1  0.49910457  0.49937954  0.24932233  1
  Te  Te63  1  0.50132251  0.49944189  0.75073418  1
