# generated using pymatgen
data_AgSbTe2
_symmetry_space_group_name_H-M   'P 1'
_cell_length_a   12.22978908
_cell_length_b   12.22436538
_cell_length_c   12.22853529
_cell_angle_alpha   89.99628145
_cell_angle_beta   90.00055485
_cell_angle_gamma   90.00259053
_symmetry_Int_Tables_number   1
_chemical_formula_structural   AgSbTe2
_chemical_formula_sum   'Ag16 Sb16 Te32'
_cell_volume   1828.18326622
_cell_formula_units_Z   16
loop_
 _symmetry_equiv_pos_site_id
 _symmetry_equiv_pos_as_xyz
  1  'x, y, z'
loop_
 _atom_site_type_symbol
 _atom_site_label
 _atom_site_symmetry_multiplicity
 _atom_site_fract_x
 _atom_site_fract_y
 _atom_site_fract_z
 _atom_site_occupancy
  Ag  Ag0  1  0.74795090  0.74982260  0.50935314  1
  Ag  Ag1  1  0.74617411  0.25023423  0.50422371  1
  Ag  Ag2  1  0.50049079  -0.01448613  -0.00692210  1
  Ag  Ag3  1  0.50062181  0.51526894  -0.00245022  1
  Ag  Ag4  1  0.74191771  -0.00683779  0.75052928  1
  Ag  Ag5  1  -0.00225417  0.50575651  0.50528830  1
  Ag  Ag6  1  0.50234721  0.24973969  0.24836049  1
  Ag  Ag7  1  -0.00110003  0.74861786  0.75070828  1
  Ag  Ag8  1  0.50308575  0.24445257  0.75175240  1
  Ag  Ag9  1  0.50108951  0.75597983  0.76344809  1
  Ag  Ag10  1  0.50079387  0.75014564  0.23589787  1
  Ag  Ag11  1  0.25256996  0.74983861  0.50896298  1
  Ag  Ag12  1  0.73545554  0.74978506  -0.00826490  1
  Ag  Ag13  1  0.25849758  -0.00789057  0.75170372  1
  Ag  Ag14  1  0.26464091  0.75008104  -0.00785604  1
  Ag  Ag15  1  -0.00100729  0.50684615  -0.00430272  1
  Sb  Sb16  1  0.50319983  0.50548426  0.50459563  1
  Sb  Sb17  1  0.74376889  0.25036894  -0.00650673  1
  Sb  Sb18  1  0.25551491  0.24993013  -0.00368609  1
  Sb  Sb19  1  0.25491019  0.25118821  0.50494015  1
  Sb  Sb20  1  -0.00513575  0.25273800  0.74895735  1
  Sb  Sb21  1  0.25732545  -0.00427039  0.24714120  1
  Sb  Sb22  1  -0.00207140  0.74749565  0.24978635  1
  Sb  Sb23  1  0.74534018  0.50198089  0.24969788  1
  Sb  Sb24  1  0.74306906  -0.00213995  0.24862408  1
  Sb  Sb25  1  0.25464294  0.50310259  0.24923008  1
  Sb  Sb26  1  -0.00081650  -0.01048527  -0.00563994  1
  Sb  Sb27  1  -0.00532070  0.25303236  0.25134646  1
  Sb  Sb28  1  0.50115135  -0.00513853  0.51232964  1
  Sb  Sb29  1  0.74852432  0.51149093  0.75061059  1
  Sb  Sb30  1  -0.00174252  -0.00817605  0.50434438  1
  Sb  Sb31  1  0.25129489  0.51245738  0.75100716  1
  Te  Te32  1  0.26232465  0.24739230  0.25179099  1
  Te  Te33  1  0.25823369  0.23613502  0.74799455  1
  Te  Te34  1  0.25795604  0.75202940  0.24998088  1
  Te  Te35  1  0.25099200  0.75296492  0.75026654  1
  Te  Te36  1  0.74169898  0.24745190  0.25970756  1
  Te  Te37  1  0.74533414  0.23975555  0.74549831  1
  Te  Te38  1  0.74331712  0.75185399  0.25114570  1
  Te  Te39  1  0.74903217  0.75198588  0.74919371  1
  Te  Te40  1  0.25398747  -0.00582530  -0.00598590  1
  Te  Te41  1  0.24856964  -0.00799963  0.50816926  1
  Te  Te42  1  0.25056309  0.50663543  0.00014770  1
  Te  Te43  1  0.24109615  0.50702936  0.49942196  1
  Te  Te44  1  0.74615644  -0.00481315  -0.00611466  1
  Te  Te45  1  0.75079853  -0.00275548  0.50711917  1
  Te  Te46  1  0.74949352  0.50537459  0.00050835  1
  Te  Te47  1  0.75509486  0.50281740  0.49924524  1
  Te  Te48  1  -0.00010483  0.26388429  0.00079591  1
  Te  Te49  1  -0.00718417  0.26055473  0.49963504  1
  Te  Te50  1  -0.00048019  0.74507111  -0.00141621  1
  Te  Te51  1  -0.00217288  0.74514621  0.50094752  1
  Te  Te52  1  0.50104309  0.25093645  -0.00136892  1
  Te  Te53  1  0.50453651  0.25361040  0.50055276  1
  Te  Te54  1  0.50058102  0.74964942  -0.00140001  1
  Te  Te55  1  0.50149439  0.74740383  0.50105946  1
  Te  Te56  1  0.00117005  0.00273000  0.24869242  1
  Te  Te57  1  -0.00085302  -0.00650595  0.75173603  1
  Te  Te58  1  0.00067944  0.49913216  0.24731404  1
  Te  Te59  1  0.00124333  0.50514918  0.75168856  1
  Te  Te60  1  0.50001440  -0.00054550  0.23760700  1
  Te  Te61  1  0.50122152  -0.00202746  0.75204433  1
  Te  Te62  1  0.50002746  0.50059839  0.24062478  1
  Te  Te63  1  0.49920610  0.49876719  0.75618747  1
