# generated using pymatgen
data_AgSbTe2
_symmetry_space_group_name_H-M   'P 1'
_cell_length_a   12.21537091
_cell_length_b   12.22681685
_cell_length_c   12.23123731
_cell_angle_alpha   90.00496093
_cell_angle_beta   90.00090869
_cell_angle_gamma   90.00429071
_symmetry_Int_Tables_number   1
_chemical_formula_structural   AgSbTe2
_chemical_formula_sum   'Ag16 Sb16 Te32'
_cell_volume   1826.79769491
_cell_formula_units_Z   16
loop_
 _symmetry_equiv_pos_site_id
 _symmetry_equiv_pos_as_xyz
  1  'x, y, z'
loop_
 _atom_site_type_symbol
 _atom_site_label
 _atom_site_symmetry_multiplicity
 _atom_site_fract_x
 _atom_site_fract_y
 _atom_site_fract_z
 _atom_site_occupancy
  Ag  Ag0  1  0.00810594  0.75028976  0.74825282  1
  Ag  Ag1  1  0.25187640  -0.00641898  0.75302559  1
  Ag  Ag2  1  0.74866265  -0.00049802  0.75210508  1
  Ag  Ag3  1  0.49276673  -0.00223935  0.50209828  1
  Ag  Ag4  1  0.24586244  0.50474703  0.25561342  1
  Ag  Ag5  1  0.01087408  0.50409684  0.49793733  1
  Ag  Ag6  1  0.00606740  0.25083416  0.24875593  1
  Ag  Ag7  1  0.24942222  -0.00417466  0.24641199  1
  Ag  Ag8  1  0.00868848  0.74899213  0.25182794  1
  Ag  Ag9  1  0.49225559  0.00063676  -0.00225013  1
  Ag  Ag10  1  0.24813236  0.50705813  0.74413088  1
  Ag  Ag11  1  0.75104108  0.24580496  -0.00029703  1
  Ag  Ag12  1  0.24927801  0.24425191  0.00263960  1
  Ag  Ag13  1  0.24746821  0.74631959  0.50030236  1
  Ag  Ag14  1  0.24829699  0.75542331  -0.00041020  1
  Ag  Ag15  1  0.48889731  0.50295226  0.50023816  1
  Sb  Sb16  1  0.75195989  0.50123546  0.74948943  1
  Sb  Sb17  1  0.00900226  -0.00396159  0.50043154  1
  Sb  Sb18  1  0.49347995  0.24976660  0.24845498  1
  Sb  Sb19  1  0.49021299  0.75226588  0.74896199  1
  Sb  Sb20  1  0.75238339  0.24708461  0.50031422  1
  Sb  Sb21  1  0.24912812  0.25338985  0.49654073  1
  Sb  Sb22  1  0.49349787  0.50049610  -0.00065480  1
  Sb  Sb23  1  0.75173809  0.75536047  -0.00209940  1
  Sb  Sb24  1  0.00395466  0.25051901  0.75035364  1
  Sb  Sb25  1  0.48954703  0.75041967  0.25113459  1
  Sb  Sb26  1  0.49718220  0.24794439  0.75069648  1
  Sb  Sb27  1  0.00437231  0.50039470  0.00233048  1
  Sb  Sb28  1  0.00930730  0.00005055  -0.00032559  1
  Sb  Sb29  1  0.75215943  0.75206403  0.50084093  1
  Sb  Sb30  1  0.75041064  0.00131682  0.24819383  1
  Sb  Sb31  1  0.75341346  0.49879646  0.25086627  1
  Te  Te32  1  0.24598523  0.24909460  0.24646158  1
  Te  Te33  1  0.24774073  0.24821748  0.75806454  1
  Te  Te34  1  0.24691525  0.75027687  0.25086549  1
  Te  Te35  1  0.24699037  0.75067420  0.74928653  1
  Te  Te36  1  0.75907946  0.24931911  0.24391794  1
  Te  Te37  1  0.75223275  0.24431342  0.75616716  1
  Te  Te38  1  0.76471454  0.75013424  0.24830601  1
  Te  Te39  1  0.76187499  0.75463055  0.75188513  1
  Te  Te40  1  0.25179602  -0.00111861  -0.00016223  1
  Te  Te41  1  0.25292414  -0.00079058  0.50112686  1
  Te  Te42  1  0.25214337  0.50105358  -0.00003799  1
  Te  Te43  1  0.25016688  0.49907450  0.49986626  1
  Te  Te44  1  0.74139488  0.00279748  -0.00302031  1
  Te  Te45  1  0.73913382  0.00017945  0.50482943  1
  Te  Te46  1  0.74619764  0.49197377  -0.00116238  1
  Te  Te47  1  0.74639719  0.49954923  0.50113949  1
  Te  Te48  1  0.00282228  0.25052230  0.00451308  1
  Te  Te49  1  -0.00113226  0.25758702  0.49397447  1
  Te  Te50  1  0.00491385  0.74945032  0.00000183  1
  Te  Te51  1  0.00358226  0.74721135  0.49981472  1
  Te  Te52  1  0.49707931  0.24553636  0.00073579  1
  Te  Te53  1  0.50099256  0.24916743  0.49913578  1
  Te  Te54  1  0.49498007  0.75498855  0.00078361  1
  Te  Te55  1  0.49547867  0.75026578  0.49933926  1
  Te  Te56  1  0.00422513  -0.00054156  0.25225440  1
  Te  Te57  1  0.00274402  -0.00317817  0.74793769  1
  Te  Te58  1  0.00298333  0.50136283  0.25211434  1
  Te  Te59  1  0.00343430  0.50299644  0.74557085  1
  Te  Te60  1  0.49568043  -0.00005309  0.25147441  1
  Te  Te61  1  0.49609181  -0.00027921  0.74904864  1
  Te  Te62  1  0.49554365  0.50032360  0.25557828  1
  Te  Te63  1  0.49544786  0.50004193  0.74427804  1
