# generated using pymatgen
data_AgSbTe2
_symmetry_space_group_name_H-M   'P 1'
_cell_length_a   12.22951112
_cell_length_b   12.21846351
_cell_length_c   12.22576430
_cell_angle_alpha   89.99254097
_cell_angle_beta   90.00775508
_cell_angle_gamma   90.00530868
_symmetry_Int_Tables_number   1
_chemical_formula_structural   AgSbTe2
_chemical_formula_sum   'Ag16 Sb16 Te32'
_cell_volume   1826.84500219
_cell_formula_units_Z   16
loop_
 _symmetry_equiv_pos_site_id
 _symmetry_equiv_pos_as_xyz
  1  'x, y, z'
loop_
 _atom_site_type_symbol
 _atom_site_label
 _atom_site_symmetry_multiplicity
 _atom_site_fract_x
 _atom_site_fract_y
 _atom_site_fract_z
 _atom_site_occupancy
  Ag  Ag0  1  0.25384590  0.00094092  0.25131724  1
  Ag  Ag1  1  0.74764943  0.23492298  0.49705788  1
  Ag  Ag2  1  0.50660877  0.49870913  0.49991641  1
  Ag  Ag3  1  0.75133170  0.50212648  0.74497423  1
  Ag  Ag4  1  0.74717409  0.00356484  0.26483545  1
  Ag  Ag5  1  0.75090639  -0.00266748  0.73464563  1
  Ag  Ag6  1  -0.00350367  0.24381884  0.25266669  1
  Ag  Ag7  1  -0.01502261  0.00032286  0.49988712  1
  Ag  Ag8  1  -0.00371006  0.75446445  0.74914173  1
  Ag  Ag9  1  0.50356393  0.24178161  0.25484963  1
  Ag  Ag10  1  -0.00171671  0.50151623  -0.00131310  1
  Ag  Ag11  1  0.49925505  0.00039646  0.00327319  1
  Ag  Ag12  1  0.75002922  0.76533873  0.50336359  1
  Ag  Ag13  1  0.51477035  0.00226306  0.49618593  1
  Ag  Ag14  1  0.24831126  0.75582067  -0.00162159  1
  Ag  Ag15  1  0.24983709  -0.00359824  0.74898775  1
  Sb  Sb16  1  0.75035431  0.24711156  0.00374686  1
  Sb  Sb17  1  0.25003454  0.50068143  0.25004529  1
  Sb  Sb18  1  0.25236629  0.24491211  0.49774647  1
  Sb  Sb19  1  0.50122151  0.49925694  0.00036104  1
  Sb  Sb20  1  0.00080133  -0.00027208  -0.00002445  1
  Sb  Sb21  1  0.75121083  0.75342511  -0.00283963  1
  Sb  Sb22  1  0.50060198  0.75930325  0.25113611  1
  Sb  Sb23  1  0.50393971  0.75385259  0.74853467  1
  Sb  Sb24  1  0.25011724  0.24482417  0.00195938  1
  Sb  Sb25  1  0.24962764  0.75606470  0.50152184  1
  Sb  Sb26  1  -0.00377865  0.24605847  0.74757840  1
  Sb  Sb27  1  0.50316093  0.24633131  0.74513527  1
  Sb  Sb28  1  0.24888294  0.50403336  0.75033892  1
  Sb  Sb29  1  -0.00110668  0.75524293  0.25152620  1
  Sb  Sb30  1  -0.00582882  0.49959508  0.50028561  1
  Sb  Sb31  1  0.74938647  0.49796444  0.25454159  1
  Te  Te32  1  0.24878321  0.24395628  0.25011643  1
  Te  Te33  1  0.24934075  0.24063261  0.75050861  1
  Te  Te34  1  0.24927416  0.75633984  0.24507663  1
  Te  Te35  1  0.24393973  0.75535316  0.75237481  1
  Te  Te36  1  0.75048361  0.24727511  0.25300160  1
  Te  Te37  1  0.75098851  0.24802618  0.74423927  1
  Te  Te38  1  0.75079460  0.75486732  0.25591124  1
  Te  Te39  1  0.75346946  0.75318139  0.74729310  1
  Te  Te40  1  0.25230282  -0.00350988  -0.00037174  1
  Te  Te41  1  0.25059597  -0.00129648  0.49979926  1
  Te  Te42  1  0.24771023  0.50716189  -0.00108176  1
  Te  Te43  1  0.25975935  0.50165388  0.50063135  1
  Te  Te44  1  0.74460673  -0.00082928  -0.00146382  1
  Te  Te45  1  0.75028370  0.00043220  0.50055136  1
  Te  Te46  1  0.75243060  0.50063412  -0.00633030  1
  Te  Te47  1  0.74675663  0.50015624  0.50310253  1
  Te  Te48  1  0.00049180  0.25565155  0.00581544  1
  Te  Te49  1  -0.00364453  0.24747026  0.49601922  1
  Te  Te50  1  0.00224951  0.74681663  -0.00313973  1
  Te  Te51  1  -0.00378819  0.75219177  0.50339384  1
  Te  Te52  1  0.49949780  0.24590650  0.00830862  1
  Te  Te53  1  0.50261372  0.24564719  0.49650876  1
  Te  Te54  1  0.49488395  0.75356376  0.00042271  1
  Te  Te55  1  0.50496173  0.75136121  0.49946847  1
  Te  Te56  1  -0.00082732  0.00305029  0.25071192  1
  Te  Te57  1  -0.00209207  -0.00203614  0.74924873  1
  Te  Te58  1  0.00130987  0.49351309  0.24674416  1
  Te  Te59  1  -0.00287027  0.50261887  0.75216640  1
  Te  Te60  1  0.50038752  0.00189145  0.25246719  1
  Te  Te61  1  0.50117488  0.00074438  0.74875073  1
  Te  Te62  1  0.49912079  0.49116018  0.25316322  1
  Te  Te63  1  0.50468909  0.49830755  0.74683039  1
