# generated using pymatgen
data_AgSbTe2
_symmetry_space_group_name_H-M   'P 1'
_cell_length_a   12.21177266
_cell_length_b   12.20993009
_cell_length_c   12.21181481
_cell_angle_alpha   90.00290846
_cell_angle_beta   90.00774740
_cell_angle_gamma   90.00048527
_symmetry_Int_Tables_number   1
_chemical_formula_structural   AgSbTe2
_chemical_formula_sum   'Ag16 Sb16 Te32'
_cell_volume   1820.84128948
_cell_formula_units_Z   16
loop_
 _symmetry_equiv_pos_site_id
 _symmetry_equiv_pos_as_xyz
  1  'x, y, z'
loop_
 _atom_site_type_symbol
 _atom_site_label
 _atom_site_symmetry_multiplicity
 _atom_site_fract_x
 _atom_site_fract_y
 _atom_site_fract_z
 _atom_site_occupancy
  Ag  Ag0  1  0.50210878  0.25208126  0.74544754  1
  Ag  Ag1  1  0.75087992  0.49909855  0.25154246  1
  Ag  Ag2  1  0.75104736  0.49914702  0.74867509  1
  Ag  Ag3  1  -0.00065356  -0.00045789  0.50326553  1
  Ag  Ag4  1  0.75306690  0.00055982  0.74696327  1
  Ag  Ag5  1  0.75126750  0.74902535  0.50402329  1
  Ag  Ag6  1  0.24812924  0.00261207  0.25449686  1
  Ag  Ag7  1  -0.00340839  0.74972784  0.74845872  1
  Ag  Ag8  1  0.24927606  0.49759136  0.25400577  1
  Ag  Ag9  1  0.50015536  0.49734447  0.50316102  1
  Ag  Ag10  1  -0.00182119  0.00089238  -0.00348603  1
  Ag  Ag11  1  0.25253275  0.25116036  0.50132704  1
  Ag  Ag12  1  -0.00294692  0.49928172  -0.00325461  1
  Ag  Ag13  1  0.50003999  0.00301932  0.50272631  1
  Ag  Ag14  1  0.24931614  0.49770762  0.74628230  1
  Ag  Ag15  1  0.75208056  0.25232001  -0.00403403  1
  Sb  Sb16  1  0.75131569  0.00137541  0.25278493  1
  Sb  Sb17  1  -0.00310259  0.25080336  0.74951386  1
  Sb  Sb18  1  0.50187945  0.00449333  -0.00297958  1
  Sb  Sb19  1  0.75409673  0.74776547  -0.00441090  1
  Sb  Sb20  1  0.74724089  0.25088649  0.50477064  1
  Sb  Sb21  1  0.50294371  0.49651555  -0.00308259  1
  Sb  Sb22  1  0.50101794  0.74940390  0.25333549  1
  Sb  Sb23  1  -0.00139776  0.74873459  0.25291860  1
  Sb  Sb24  1  0.49971392  0.25102113  0.25596038  1
  Sb  Sb25  1  -0.00003050  0.50050357  0.50427669  1
  Sb  Sb26  1  0.24755202  0.25095820  -0.00214487  1
  Sb  Sb27  1  -0.00026901  0.25118546  0.25132725  1
  Sb  Sb28  1  0.24683492  0.00310583  0.74544874  1
  Sb  Sb29  1  0.50381388  0.74798825  0.74587114  1
  Sb  Sb30  1  0.24795999  0.74923341  0.50173126  1
  Sb  Sb31  1  0.24704331  0.74955875  -0.00168790  1
  Te  Te32  1  0.25076770  0.25289526  0.25410926  1
  Te  Te33  1  0.25554580  0.25485796  0.74694049  1
  Te  Te34  1  0.24995219  0.74679407  0.24998093  1
  Te  Te35  1  0.24319663  0.74191172  0.74934638  1
  Te  Te36  1  0.74884289  0.25671163  0.24324438  1
  Te  Te37  1  0.74714043  0.25109228  0.75113384  1
  Te  Te38  1  0.75036620  0.74274849  0.25743329  1
  Te  Te39  1  0.75338271  0.74967336  0.74613451  1
  Te  Te40  1  0.24410241  0.00115968  0.00583839  1
  Te  Te41  1  0.25077612  0.00057598  0.49848476  1
  Te  Te42  1  0.24568362  0.49848144  0.00141591  1
  Te  Te43  1  0.25019759  0.49919092  0.49920712  1
  Te  Te44  1  0.75413448  0.00213507  -0.00121264  1
  Te  Te45  1  0.75002616  0.00108449  0.50053909  1
  Te  Te46  1  0.75261641  0.49856660  -0.00195683  1
  Te  Te47  1  0.74956587  0.49891809  0.50187382  1
  Te  Te48  1  -0.00454954  0.24976945  -0.00021894  1
  Te  Te49  1  0.00711948  0.24221617  0.50060453  1
  Te  Te50  1  -0.00133192  0.75037154  -0.00724954  1
  Te  Te51  1  -0.00525022  0.75524826  0.50536195  1
  Te  Te52  1  0.50694460  0.24938956  -0.00959941  1
  Te  Te53  1  0.49716774  0.25064522  0.50463339  1
  Te  Te54  1  0.50030441  0.75098499  -0.00047007  1
  Te  Te55  1  0.50694955  0.74984327  0.50156897  1
  Te  Te56  1  0.00393947  -0.00121840  0.24972563  1
  Te  Te57  1  -0.00135485  -0.00134986  0.75005320  1
  Te  Te58  1  0.00143994  0.50147601  0.24518073  1
  Te  Te59  1  -0.00204196  0.50094736  0.75109511  1
  Te  Te60  1  0.49480171  0.00009318  0.25612752  1
  Te  Te61  1  0.50266290  0.00203302  0.74566476  1
  Te  Te62  1  0.49791138  0.49936625  0.25479769  1
  Te  Te63  1  0.50130702  0.49874294  0.74697812  1
