# generated using pymatgen
data_AgSbTe2
_symmetry_space_group_name_H-M   'P 1'
_cell_length_a   12.21907226
_cell_length_b   12.21168959
_cell_length_c   12.22130973
_cell_angle_alpha   90.00688831
_cell_angle_beta   89.99960776
_cell_angle_gamma   90.00255103
_symmetry_Int_Tables_number   1
_chemical_formula_structural   AgSbTe2
_chemical_formula_sum   'Ag16 Sb16 Te32'
_cell_volume   1823.60904110
_cell_formula_units_Z   16
loop_
 _symmetry_equiv_pos_site_id
 _symmetry_equiv_pos_as_xyz
  1  'x, y, z'
loop_
 _atom_site_type_symbol
 _atom_site_label
 _atom_site_symmetry_multiplicity
 _atom_site_fract_x
 _atom_site_fract_y
 _atom_site_fract_z
 _atom_site_occupancy
  Ag  Ag0  1  0.25488956  0.50721231  0.25006632  1
  Ag  Ag1  1  0.49385890  0.74383709  0.24929432  1
  Ag  Ag2  1  0.25172517  0.74921996  0.50023388  1
  Ag  Ag3  1  0.74166827  -0.00174262  0.74993651  1
  Ag  Ag4  1  0.49840168  -0.00434721  0.50581088  1
  Ag  Ag5  1  0.49369502  0.75509774  0.74940419  1
  Ag  Ag6  1  0.00578813  0.74497453  0.25255556  1
  Ag  Ag7  1  0.74304809  0.25193440  -0.00003422  1
  Ag  Ag8  1  0.74427880  0.50168778  0.24858440  1
  Ag  Ag9  1  0.50032438  0.24592886  0.75218261  1
  Ag  Ag10  1  0.50033835  0.25581612  0.24711960  1
  Ag  Ag11  1  0.25469674  0.74840863  -0.00016403  1
  Ag  Ag12  1  0.25780066  -0.00725756  0.74868518  1
  Ag  Ag13  1  0.49947041  0.50151999  0.00494349  1
  Ag  Ag14  1  0.00600236  0.75004802  0.74753202  1
  Ag  Ag15  1  0.00193596  0.50668733  0.49730144  1
  Sb  Sb16  1  0.25683336  0.25265482  -0.00029813  1
  Sb  Sb17  1  0.74681199  0.50106756  0.75068909  1
  Sb  Sb18  1  -0.00073392  0.25533792  0.24992243  1
  Sb  Sb19  1  0.74744272  0.74969421  0.50015870  1
  Sb  Sb20  1  0.74606598  0.25081727  0.50024879  1
  Sb  Sb21  1  0.25424229  -0.00815221  0.25070713  1
  Sb  Sb22  1  0.25336767  0.25052194  0.50001312  1
  Sb  Sb23  1  0.25221809  0.50800594  0.74949647  1
  Sb  Sb24  1  0.00116997  0.50379845  0.00209360  1
  Sb  Sb25  1  -0.00028062  0.25012353  0.75009522  1
  Sb  Sb26  1  0.74428198  0.74815771  -0.00008652  1
  Sb  Sb27  1  0.49808980  0.50527634  0.49419114  1
  Sb  Sb28  1  0.00259513  -0.00710620  0.50194118  1
  Sb  Sb29  1  0.49959071  -0.00253474  -0.00715192  1
  Sb  Sb30  1  0.00038355  -0.00330491  -0.00109115  1
  Sb  Sb31  1  0.74518358  -0.00089184  0.24970385  1
  Te  Te32  1  0.25494780  0.25565739  0.24839169  1
  Te  Te33  1  0.25491649  0.24267365  0.75152757  1
  Te  Te34  1  0.25238606  0.74925065  0.25001318  1
  Te  Te35  1  0.25222913  0.75020677  0.74948180  1
  Te  Te36  1  0.74647422  0.25235645  0.24643969  1
  Te  Te37  1  0.74662937  0.24733140  0.75319313  1
  Te  Te38  1  0.74893293  0.74708329  0.24882615  1
  Te  Te39  1  0.74883112  0.75318499  0.75120481  1
  Te  Te40  1  0.24918055  -0.00596353  -0.00533850  1
  Te  Te41  1  0.25348849  -0.00528086  0.50404424  1
  Te  Te42  1  0.25457381  0.50400068  0.00421609  1
  Te  Te43  1  0.24743577  0.50551117  0.49587007  1
  Te  Te44  1  0.75054045  0.00570514  -0.00558996  1
  Te  Te45  1  0.74503665  0.00050984  0.50625512  1
  Te  Te46  1  0.74527032  0.49745961  0.00432730  1
  Te  Te47  1  0.75547620  0.49981112  0.49310507  1
  Te  Te48  1  -0.00802750  0.25064741  -0.00009195  1
  Te  Te49  1  0.00085092  0.25791254  0.49995940  1
  Te  Te50  1  0.00603437  0.74869160  -0.00054792  1
  Te  Te51  1  0.00364975  0.74746567  0.49997724  1
  Te  Te52  1  0.50192155  0.25385252  0.00047359  1
  Te  Te53  1  0.49908509  0.24521531  0.50120775  1
  Te  Te54  1  0.49696977  0.74700324  0.00062165  1
  Te  Te55  1  0.49710993  0.75139276  0.50105958  1
  Te  Te56  1  -0.00067105  -0.00784953  0.25122268  1
  Te  Te57  1  -0.00007997  -0.00527317  0.74886252  1
  Te  Te58  1  0.00056232  0.50409541  0.25160327  1
  Te  Te59  1  -0.00018108  0.50576960  0.74569065  1
  Te  Te60  1  0.50068556  -0.00062026  0.25635914  1
  Te  Te61  1  0.50006495  -0.00225223  0.74922681  1
  Te  Te62  1  0.50011020  0.50204071  0.25115471  1
  Te  Te63  1  0.50038107  0.49991955  0.75316824  1
