# generated using pymatgen
data_AgSbTe2
_symmetry_space_group_name_H-M   'P 1'
_cell_length_a   12.22016806
_cell_length_b   12.21245117
_cell_length_c   12.21358121
_cell_angle_alpha   89.99977095
_cell_angle_beta   89.99930311
_cell_angle_gamma   90.00242308
_symmetry_Int_Tables_number   1
_chemical_formula_structural   AgSbTe2
_chemical_formula_sum   'Ag16 Sb16 Te32'
_cell_volume   1822.73294249
_cell_formula_units_Z   16
loop_
 _symmetry_equiv_pos_site_id
 _symmetry_equiv_pos_as_xyz
  1  'x, y, z'
loop_
 _atom_site_type_symbol
 _atom_site_label
 _atom_site_symmetry_multiplicity
 _atom_site_fract_x
 _atom_site_fract_y
 _atom_site_fract_z
 _atom_site_occupancy
  Ag  Ag0  1  0.74556350  0.00035328  0.24843172  1
  Ag  Ag1  1  -0.00418584  0.49499398  0.50180935  1
  Ag  Ag2  1  0.50688499  0.25330471  0.74663525  1
  Ag  Ag3  1  0.25438355  0.00039713  0.25069575  1
  Ag  Ag4  1  -0.00541284  0.24880531  0.25281432  1
  Ag  Ag5  1  0.50438725  0.49564721  0.50241622  1
  Ag  Ag6  1  0.74926948  0.49265044  0.74601685  1
  Ag  Ag7  1  0.25088365  0.49650774  0.74689164  1
  Ag  Ag8  1  0.50358826  0.00314686  0.49390297  1
  Ag  Ag9  1  0.50546945  0.00092222  0.00644091  1
  Ag  Ag10  1  -0.00461712  0.75177871  0.25065267  1
  Ag  Ag11  1  -0.00760051  0.25454681  0.74714871  1
  Ag  Ag12  1  0.74918300  0.25257580  0.50285122  1
  Ag  Ag13  1  0.74895205  0.24776448  -0.00220689  1
  Ag  Ag14  1  0.74781225  0.75275747  0.00462372  1
  Ag  Ag15  1  0.50473007  0.75644187  0.24988872  1
  Sb  Sb16  1  0.74991162  0.49912652  0.25358593  1
  Sb  Sb17  1  0.50344688  0.74750606  0.75009784  1
  Sb  Sb18  1  0.50367167  0.49824161  -0.00147475  1
  Sb  Sb19  1  0.25245576  0.24774248  0.00098016  1
  Sb  Sb20  1  0.25220792  0.75221973  0.00321568  1
  Sb  Sb21  1  0.25077297  0.49830768  0.25262045  1
  Sb  Sb22  1  0.25042614  0.75004790  0.49833840  1
  Sb  Sb23  1  -0.00454133  0.00557201  0.49580590  1
  Sb  Sb24  1  0.25303696  0.00270410  0.74881481  1
  Sb  Sb25  1  -0.00593623  0.00114228  0.00340686  1
  Sb  Sb26  1  -0.00481243  0.74534033  0.74869491  1
  Sb  Sb27  1  -0.00284072  0.49892619  -0.00158996  1
  Sb  Sb28  1  0.25152416  0.25022289  0.49991289  1
  Sb  Sb29  1  0.50679841  0.24316330  0.25328951  1
  Sb  Sb30  1  0.74816537  0.00792906  0.75121561  1
  Sb  Sb31  1  0.74893840  0.74855105  0.49524119  1
  Te  Te32  1  0.24003277  0.24566241  0.24876126  1
  Te  Te33  1  0.24980837  0.25423385  0.75058078  1
  Te  Te34  1  0.24891350  0.75477113  0.24869155  1
  Te  Te35  1  0.24877087  0.74273996  0.75103768  1
  Te  Te36  1  0.75273425  0.24910443  0.24962638  1
  Te  Te37  1  0.74965673  0.25067795  0.74944711  1
  Te  Te38  1  0.74979099  0.75071871  0.24694667  1
  Te  Te39  1  0.75132493  0.74328002  0.75778342  1
  Te  Te40  1  0.25940002  -0.00013985  0.00539527  1
  Te  Te41  1  0.25844510  -0.00031698  0.49478362  1
  Te  Te42  1  0.25051813  0.49993676  -0.00782248  1
  Te  Te43  1  0.25125024  0.50024749  0.50410034  1
  Te  Te44  1  0.74580868  0.00167835  0.00202005  1
  Te  Te45  1  0.74511992  0.00342378  0.49678594  1
  Te  Te46  1  0.74908649  0.49729449  -0.00523574  1
  Te  Te47  1  0.74893817  0.49731841  0.50272390  1
  Te  Te48  1  -0.00675655  0.24941822  0.00041350  1
  Te  Te49  1  -0.00393983  0.25238857  0.49975129  1
  Te  Te50  1  -0.00639616  0.75042747  0.00687109  1
  Te  Te51  1  -0.00081580  0.74428663  0.49463570  1
  Te  Te52  1  0.50538786  0.24727184  -0.00286762  1
  Te  Te53  1  0.50348431  0.25160310  0.50123274  1
  Te  Te54  1  0.50464839  0.75367661  0.00398698  1
  Te  Te55  1  0.50106462  0.75057628  0.49598281  1
  Te  Te56  1  -0.00164897  -0.00001483  0.25124415  1
  Te  Te57  1  0.00264807  0.00697335  0.74915503  1
  Te  Te58  1  0.00166517  0.49925316  0.25509530  1
  Te  Te59  1  -0.00249687  0.49662631  0.74605641  1
  Te  Te60  1  0.50256114  0.00036494  0.25095965  1
  Te  Te61  1  0.49835141  0.00378737  0.74802711  1
  Te  Te62  1  0.49755536  0.50626355  0.25584573  1
  Te  Te63  1  0.50257194  0.49712929  0.74681580  1
