# generated using pymatgen
data_AgSbTe2
_symmetry_space_group_name_H-M   'P 1'
_cell_length_a   12.22157245
_cell_length_b   12.22374006
_cell_length_c   12.23338614
_cell_angle_alpha   89.99663490
_cell_angle_beta   90.00114238
_cell_angle_gamma   90.00225263
_symmetry_Int_Tables_number   1
_chemical_formula_structural   AgSbTe2
_chemical_formula_sum   'Ag16 Sb16 Te32'
_cell_volume   1827.58622347
_cell_formula_units_Z   16
loop_
 _symmetry_equiv_pos_site_id
 _symmetry_equiv_pos_as_xyz
  1  'x, y, z'
loop_
 _atom_site_type_symbol
 _atom_site_label
 _atom_site_symmetry_multiplicity
 _atom_site_fract_x
 _atom_site_fract_y
 _atom_site_fract_z
 _atom_site_occupancy
  Ag  Ag0  1  0.74690051  0.25873000  0.49747574  1
  Ag  Ag1  1  0.74561225  0.25575017  0.00307734  1
  Ag  Ag2  1  0.25084820  0.74741795  0.00725158  1
  Ag  Ag3  1  0.00604790  0.74601260  0.25218201  1
  Ag  Ag4  1  0.74897152  0.49626386  0.25509294  1
  Ag  Ag5  1  0.24935169  0.74469369  0.49226519  1
  Ag  Ag6  1  0.24912326  -0.00593330  0.25386303  1
  Ag  Ag7  1  0.74553647  0.49487340  0.74550810  1
  Ag  Ag8  1  0.49949340  0.49554185  0.49864235  1
  Ag  Ag9  1  0.25018506  0.50515550  0.25745739  1
  Ag  Ag10  1  0.00144152  0.49992940  0.49528753  1
  Ag  Ag11  1  0.75047740  0.00319367  0.25226014  1
  Ag  Ag12  1  0.50139583  0.49775886  0.00085232  1
  Ag  Ag13  1  0.25240881  0.00065547  0.74575527  1
  Ag  Ag14  1  0.50098324  0.25511211  0.74653012  1
  Ag  Ag15  1  0.25321699  0.25585653  0.49794261  1
  Sb  Sb16  1  0.00348692  0.74619939  0.74719532  1
  Sb  Sb17  1  0.74817979  0.74552349  0.00534805  1
  Sb  Sb18  1  0.74819629  0.00605614  0.74810246  1
  Sb  Sb19  1  0.49755368  0.00491498  0.49944896  1
  Sb  Sb20  1  0.00182319  -0.00105090  0.49677558  1
  Sb  Sb21  1  0.50131410  0.25409945  0.25388407  1
  Sb  Sb22  1  0.49789553  0.74519273  0.74847642  1
  Sb  Sb23  1  0.25465359  0.25289091  0.00159923  1
  Sb  Sb24  1  0.00064201  -0.00105896  0.00289763  1
  Sb  Sb25  1  0.74953290  0.74087932  0.49600533  1
  Sb  Sb26  1  -0.00119409  0.25409648  0.25241374  1
  Sb  Sb27  1  0.00032539  0.25306470  0.74705265  1
  Sb  Sb28  1  0.49230554  0.74608119  0.25115317  1
  Sb  Sb29  1  0.25348334  0.49917802  0.74259350  1
  Sb  Sb30  1  -0.00005422  0.50171640  0.00400728  1
  Sb  Sb31  1  0.49894656  0.00198203  0.00073991  1
  Te  Te32  1  0.24890986  0.25016968  0.25353076  1
  Te  Te33  1  0.25288907  0.24681138  0.74801890  1
  Te  Te34  1  0.24862114  0.74892775  0.25177797  1
  Te  Te35  1  0.24943369  0.75472622  0.74981116  1
  Te  Te36  1  0.75093166  0.25174252  0.25257052  1
  Te  Te37  1  0.74727389  0.25087888  0.74671671  1
  Te  Te38  1  0.75679284  0.75075120  0.24983003  1
  Te  Te39  1  0.75079127  0.74706622  0.75053392  1
  Te  Te40  1  0.25098398  -0.00175276  0.00505993  1
  Te  Te41  1  0.25029962  0.00152168  0.49552290  1
  Te  Te42  1  0.25172568  0.50045147  0.00303982  1
  Te  Te43  1  0.25158404  0.49769287  0.50025024  1
  Te  Te44  1  0.74927890  0.00418285  0.00471883  1
  Te  Te45  1  0.74951869  0.00635001  0.49501863  1
  Te  Te46  1  0.74826553  0.49828014  0.00340473  1
  Te  Te47  1  0.74745458  0.49911294  0.49599426  1
  Te  Te48  1  -0.01022251  0.25021928  -0.00119330  1
  Te  Te49  1  0.00072187  0.25693310  0.50026468  1
  Te  Te50  1  0.00736224  0.74959881  0.00561418  1
  Te  Te51  1  0.00506891  0.74430689  0.49629097  1
  Te  Te52  1  0.50424359  0.25614214  -0.00681490  1
  Te  Te53  1  0.49930124  0.25413803  0.50361487  1
  Te  Te54  1  0.49387885  0.74188911  -0.00175641  1
  Te  Te55  1  0.49377167  0.74121447  0.50163204  1
  Te  Te56  1  0.00192788  -0.00677049  0.25089349  1
  Te  Te57  1  0.00767870  -0.00104181  0.74972188  1
  Te  Te58  1  0.00126557  0.50300530  0.25374270  1
  Te  Te59  1  -0.00805300  0.50047671  0.74288186  1
  Te  Te60  1  0.50027904  -0.00072134  0.24968729  1
  Te  Te61  1  0.49508816  0.00675263  0.75029052  1
  Te  Te62  1  0.50043498  0.49970577  0.25093621  1
  Te  Te63  1  0.50341378  0.49646122  0.74925768  1
