# generated using pymatgen
data_AgSbTe2
_symmetry_space_group_name_H-M   'P 1'
_cell_length_a   12.20267345
_cell_length_b   12.20807842
_cell_length_c   12.20356631
_cell_angle_alpha   90.00212998
_cell_angle_beta   90.00454412
_cell_angle_gamma   89.99636051
_symmetry_Int_Tables_number   1
_chemical_formula_structural   AgSbTe2
_chemical_formula_sum   'Ag16 Sb16 Te32'
_cell_volume   1817.97983855
_cell_formula_units_Z   16
loop_
 _symmetry_equiv_pos_site_id
 _symmetry_equiv_pos_as_xyz
  1  'x, y, z'
loop_
 _atom_site_type_symbol
 _atom_site_label
 _atom_site_symmetry_multiplicity
 _atom_site_fract_x
 _atom_site_fract_y
 _atom_site_fract_z
 _atom_site_occupancy
  Ag  Ag0  1  0.50183204  0.24690470  0.75006868  1
  Ag  Ag1  1  0.25325419  0.49966303  0.25119956  1
  Ag  Ag2  1  0.49841130  0.25210997  0.25047441  1
  Ag  Ag3  1  0.50129732  -0.00190170  -0.00557674  1
  Ag  Ag4  1  0.74562331  -0.00016290  0.75136468  1
  Ag  Ag5  1  0.74716241  0.50031376  0.75159462  1
  Ag  Ag6  1  0.00132679  0.00113676  0.50364924  1
  Ag  Ag7  1  0.49870922  0.50191209  0.50044776  1
  Ag  Ag8  1  0.49848099  0.74793570  0.25051605  1
  Ag  Ag9  1  -0.00157841  0.24855258  0.74975249  1
  Ag  Ag10  1  0.25345490  0.00009200  0.74842803  1
  Ag  Ag11  1  0.50198776  0.75305253  0.75025565  1
  Ag  Ag12  1  0.25399443  0.74999907  0.50100831  1
  Ag  Ag13  1  0.74616594  0.74994759  -0.00395465  1
  Ag  Ag14  1  -0.00122724  0.49881692  -0.00100642  1
  Ag  Ag15  1  0.00123279  0.25126225  0.24988609  1
  Sb  Sb16  1  0.74523723  0.75015418  0.50403471  1
  Sb  Sb17  1  0.74925566  0.25015690  -0.00433431  1
  Sb  Sb18  1  0.50203059  0.50156597  -0.00026556  1
  Sb  Sb19  1  0.49819356  -0.00186924  0.50773890  1
  Sb  Sb20  1  0.74893956  0.24915338  0.50386440  1
  Sb  Sb21  1  0.00154919  0.49872570  0.50100823  1
  Sb  Sb22  1  -0.00186518  0.00122201  -0.00374150  1
  Sb  Sb23  1  0.25078345  0.25063883  -0.00033178  1
  Sb  Sb24  1  0.25298609  0.50041451  0.74845024  1
  Sb  Sb25  1  0.74802286  -0.00080180  0.24905278  1
  Sb  Sb26  1  0.25100146  0.24962243  0.50060551  1
  Sb  Sb27  1  0.25466570  0.74994717  -0.00177354  1
  Sb  Sb28  1  0.00225217  0.74822707  0.24990156  1
  Sb  Sb29  1  -0.00217933  0.75143724  0.74992156  1
  Sb  Sb30  1  0.74706972  0.50056055  0.24829178  1
  Sb  Sb31  1  0.25222210  -0.00021570  0.25230207  1
  Te  Te32  1  0.25218972  0.25400369  0.25030587  1
  Te  Te33  1  0.25079459  0.24616210  0.74967645  1
  Te  Te34  1  0.25500210  0.74712428  0.25368882  1
  Te  Te35  1  0.25486724  0.75249797  0.74695145  1
  Te  Te36  1  0.74850116  0.25054725  0.24945510  1
  Te  Te37  1  0.74878168  0.24956843  0.75070022  1
  Te  Te38  1  0.74271704  0.74974184  0.24454798  1
  Te  Te39  1  0.74654531  0.75006010  0.75251585  1
  Te  Te40  1  0.25532799  -0.00208566  -0.00745415  1
  Te  Te41  1  0.24652260  -0.00598754  0.50470219  1
  Te  Te42  1  0.24297946  0.50184885  0.00612905  1
  Te  Te43  1  0.25378167  0.50630940  0.49639446  1
  Te  Te44  1  0.74631467  -0.00646753  -0.00628772  1
  Te  Te45  1  0.75688471  -0.00204401  0.50781655  1
  Te  Te46  1  0.75363646  0.50606346  -0.00561496  1
  Te  Te47  1  0.74452523  0.50235280  0.50766698  1
  Te  Te48  1  -0.00024414  0.25368094  -0.00007614  1
  Te  Te49  1  0.00048157  0.24647001  0.50083668  1
  Te  Te50  1  -0.00640228  0.74556395  0.00179799  1
  Te  Te51  1  0.00646096  0.75426057  0.49814215  1
  Te  Te52  1  0.50033494  0.24610847  -0.00019193  1
  Te  Te53  1  0.49940044  0.25398793  0.49918429  1
  Te  Te54  1  0.50312087  0.75190044  -0.00120969  1
  Te  Te55  1  0.49700146  0.74830016  0.49998359  1
  Te  Te56  1  0.00007832  0.00726980  0.25252143  1
  Te  Te57  1  -0.00009419  0.00375175  0.74978174  1
  Te  Te58  1  0.00230079  0.49516956  0.24919947  1
  Te  Te59  1  -0.00212782  0.49493577  0.75104422  1
  Te  Te60  1  0.49964704  0.00175294  0.24610581  1
  Te  Te61  1  0.50109467  0.00111627  0.74903945  1
  Te  Te62  1  0.49831549  0.49867018  0.25051280  1
  Te  Te63  1  0.50096768  0.49879227  0.74930117  1
