# generated using pymatgen
data_AgSbTe2
_symmetry_space_group_name_H-M   'P 1'
_cell_length_a   12.21901703
_cell_length_b   12.21449156
_cell_length_c   12.22252891
_cell_angle_alpha   89.99905881
_cell_angle_beta   90.00000001
_cell_angle_gamma   90.00000003
_symmetry_Int_Tables_number   1
_chemical_formula_structural   AgSbTe2
_chemical_formula_sum   'Ag16 Sb16 Te32'
_cell_volume   1824.20119933
_cell_formula_units_Z   16
loop_
 _symmetry_equiv_pos_site_id
 _symmetry_equiv_pos_as_xyz
  1  'x, y, z'
loop_
 _atom_site_type_symbol
 _atom_site_label
 _atom_site_symmetry_multiplicity
 _atom_site_fract_x
 _atom_site_fract_y
 _atom_site_fract_z
 _atom_site_occupancy
  Ag  Ag0  1  0.25696985  0.50000001  0.24999990  1
  Ag  Ag1  1  0.49687341  0.50021587  0.00543238  1
  Ag  Ag2  1  0.74876958  0.00000001  0.75000000  1
  Ag  Ag3  1  0.25240629  0.25778800  0.49541887  1
  Ag  Ag4  1  0.74746991  0.25425064  0.00164885  1
  Ag  Ag5  1  0.74551881  -0.00000003  0.25000000  1
  Ag  Ag6  1  0.49796624  0.74401870  0.24982479  1
  Ag  Ag7  1  0.49687353  0.49978415  0.49456764  1
  Ag  Ag8  1  0.25457387  -0.00000002  0.25000004  1
  Ag  Ag9  1  0.74746994  0.74574937  0.49835114  1
  Ag  Ag10  1  0.25141058  0.49999999  0.75000010  1
  Ag  Ag11  1  0.25240626  0.74221188  0.00458111  1
  Ag  Ag12  1  0.00241480  0.49983467  0.00001001  1
  Ag  Ag13  1  0.74860504  0.50000001  0.75000000  1
  Ag  Ag14  1  0.49796626  0.25598130  0.25017517  1
  Ag  Ag15  1  0.00241470  0.50016539  0.49998999  1
  Sb  Sb16  1  0.50072154  0.00025163  0.00400750  1
  Sb  Sb17  1  -0.00112022  -0.00027945  0.49813080  1
  Sb  Sb18  1  0.50085130  0.74493030  0.74983460  1
  Sb  Sb19  1  0.74166530  0.50000002  0.25000001  1
  Sb  Sb20  1  0.50085131  0.25506968  0.75016541  1
  Sb  Sb21  1  0.00066642  0.25437651  0.24997535  1
  Sb  Sb22  1  0.25285609  0.25866650  0.00519856  1
  Sb  Sb23  1  -0.00098703  0.25454310  0.75028847  1
  Sb  Sb24  1  0.00066644  0.74562349  0.25002464  1
  Sb  Sb25  1  0.50072148  -0.00025165  0.49599252  1
  Sb  Sb26  1  0.74770826  0.25453161  0.49816283  1
  Sb  Sb27  1  0.25159183  0.00000000  0.74999996  1
  Sb  Sb28  1  0.25285610  0.74133357  0.49480139  1
  Sb  Sb29  1  -0.00098699  0.74545678  0.74971155  1
  Sb  Sb30  1  -0.00112026  0.00027945  0.00186921  1
  Sb  Sb31  1  0.74770828  0.74546839  0.00183719  1
  Te  Te32  1  0.25407162  0.25058045  0.25107916  1
  Te  Te33  1  0.25116568  0.25228875  0.74460023  1
  Te  Te34  1  0.25407161  0.74941956  0.24892084  1
  Te  Te35  1  0.25116567  0.74771127  0.75539979  1
  Te  Te36  1  0.74554823  0.24551472  0.24822198  1
  Te  Te37  1  0.74896040  0.25168783  0.75297095  1
  Te  Te38  1  0.74554824  0.75448529  0.25177803  1
  Te  Te39  1  0.74896038  0.74831214  0.74702902  1
  Te  Te40  1  0.24868945  -0.00467757  0.00227162  1
  Te  Te41  1  0.24868946  0.00467765  0.49772842  1
  Te  Te42  1  0.25147058  0.49947958  -0.00015116  1
  Te  Te43  1  0.25147057  0.50052034  0.50015117  1
  Te  Te44  1  0.75118601  0.00258289  0.00059346  1
  Te  Te45  1  0.75118599  -0.00258288  0.49940655  1
  Te  Te46  1  0.74955105  0.49943640  -0.00176937  1
  Te  Te47  1  0.74955103  0.50056357  0.50176937  1
  Te  Te48  1  -0.00705777  0.25760727  0.00006088  1
  Te  Te49  1  0.00536152  0.25805177  0.49989528  1
  Te  Te50  1  0.00536148  0.74194824  0.00010472  1
  Te  Te51  1  -0.00705781  0.74239269  0.49993913  1
  Te  Te52  1  0.50404367  0.25544280  0.00558990  1
  Te  Te53  1  0.49675288  0.25558092  0.49421888  1
  Te  Te54  1  0.49675292  0.74441910  0.00578115  1
  Te  Te55  1  0.50404369  0.74455720  0.49441012  1
  Te  Te56  1  0.00056337  -0.00000002  0.25000000  1
  Te  Te57  1  -0.00824375  0.00000004  0.74999997  1
  Te  Te58  1  0.00769154  0.50000001  0.25000000  1
  Te  Te59  1  -0.00007754  0.50000010  0.75000000  1
  Te  Te60  1  0.49912155  -0.00000000  0.24999997  1
  Te  Te61  1  0.50711682  -0.00000001  0.75000001  1
  Te  Te62  1  0.49920283  0.49999999  0.25000000  1
  Te  Te63  1  0.50037972  0.50000002  0.74999999  1
