# generated using pymatgen
data_AgSbTe2
_symmetry_space_group_name_H-M   'P 1'
_cell_length_a   12.23848937
_cell_length_b   12.22996334
_cell_length_c   12.22164112
_cell_angle_alpha   89.99622048
_cell_angle_beta   89.99848052
_cell_angle_gamma   89.99981157
_symmetry_Int_Tables_number   1
_chemical_formula_structural   AgSbTe2
_chemical_formula_sum   'Ag16 Sb16 Te32'
_cell_volume   1829.28973025
_cell_formula_units_Z   16
loop_
 _symmetry_equiv_pos_site_id
 _symmetry_equiv_pos_as_xyz
  1  'x, y, z'
loop_
 _atom_site_type_symbol
 _atom_site_label
 _atom_site_symmetry_multiplicity
 _atom_site_fract_x
 _atom_site_fract_y
 _atom_site_fract_z
 _atom_site_occupancy
  Ag  Ag0  1  0.50499118  0.75039281  0.75247672  1
  Ag  Ag1  1  0.50467746  0.50379845  0.50518399  1
  Ag  Ag2  1  0.74527252  0.50244463  0.75643287  1
  Ag  Ag3  1  0.25113688  -0.00042392  0.76168659  1
  Ag  Ag4  1  -0.00310018  0.75804995  0.24585879  1
  Ag  Ag5  1  0.24333645  0.00150141  0.23893902  1
  Ag  Ag6  1  0.74777787  -0.00227943  0.76058001  1
  Ag  Ag7  1  0.74838900  0.75002323  0.50232475  1
  Ag  Ag8  1  0.50569923  0.49897540  -0.00393954  1
  Ag  Ag9  1  -0.00268480  0.00477981  0.00591559  1
  Ag  Ag10  1  0.75609295  -0.00053090  0.23877815  1
  Ag  Ag11  1  0.50284306  0.00190286  -0.00295788  1
  Ag  Ag12  1  -0.00490726  0.49492058  0.00042061  1
  Ag  Ag13  1  -0.00124326  0.24240548  0.24151722  1
  Ag  Ag14  1  0.75400745  0.24479062  0.00016418  1
  Ag  Ag15  1  0.24573789  0.24279138  0.00166355  1
  Sb  Sb16  1  0.50105095  0.24796348  0.24531059  1
  Sb  Sb17  1  0.50210404  0.75262771  0.24803305  1
  Sb  Sb18  1  0.74996402  0.75612734  -0.00176303  1
  Sb  Sb19  1  0.25364915  0.50076779  0.75564195  1
  Sb  Sb20  1  0.75053408  0.24984421  0.49935110  1
  Sb  Sb21  1  0.75145799  0.50076589  0.24252566  1
  Sb  Sb22  1  0.25065295  0.75101180  0.49969375  1
  Sb  Sb23  1  0.50080628  0.24881665  0.75456163  1
  Sb  Sb24  1  -0.00099671  0.24846256  0.75871246  1
  Sb  Sb25  1  0.24985351  0.75877968  0.00017412  1
  Sb  Sb26  1  -0.00352779  0.75310789  0.75300686  1
  Sb  Sb27  1  0.24856119  0.49963860  0.24539752  1
  Sb  Sb28  1  -0.00406940  0.50166419  0.50131849  1
  Sb  Sb29  1  0.50267323  -0.00226334  0.50380087  1
  Sb  Sb30  1  -0.00140318  -0.00066901  0.49423624  1
  Sb  Sb31  1  0.24951420  0.24833316  0.49820312  1
  Te  Te32  1  0.24670400  0.24516687  0.24641422  1
  Te  Te33  1  0.24875024  0.24291300  0.75435214  1
  Te  Te34  1  0.24456254  0.75612253  0.25137499  1
  Te  Te35  1  0.25525121  0.75619395  0.74861752  1
  Te  Te36  1  0.75286511  0.24524687  0.24659188  1
  Te  Te37  1  0.75148060  0.24814863  0.75350592  1
  Te  Te38  1  0.75274281  0.75381448  0.25546779  1
  Te  Te39  1  0.74770841  0.75135776  0.74710783  1
  Te  Te40  1  0.25071192  0.00244912  0.00021737  1
  Te  Te41  1  0.25067557  0.00099710  0.50091542  1
  Te  Te42  1  0.25041815  0.49099264  -0.00050199  1
  Te  Te43  1  0.25768005  0.49921124  0.50115604  1
  Te  Te44  1  0.74921519  0.00070373  -0.00068768  1
  Te  Te45  1  0.74871512  -0.00163155  0.50305814  1
  Te  Te46  1  0.74871712  0.49661442  -0.00210045  1
  Te  Te47  1  0.74667246  0.50139744  0.50548218  1
  Te  Te48  1  -0.00227728  0.24776394  0.00180895  1
  Te  Te49  1  0.00062292  0.25168934  0.48703849  1
  Te  Te50  1  0.00087916  0.74973061  0.00423065  1
  Te  Te51  1  -0.00527245  0.74828420  0.49352106  1
  Te  Te52  1  0.50228943  0.24875799  0.00051894  1
  Te  Te53  1  0.50007384  0.26020560  0.49806935  1
  Te  Te54  1  0.49898014  0.74871029  -0.00340457  1
  Te  Te55  1  0.50387189  0.74600672  0.50302247  1
  Te  Te56  1  -0.00158845  -0.00064601  0.24812152  1
  Te  Te57  1  -0.00159046  -0.00105608  0.75475912  1
  Te  Te58  1  0.00033971  0.50107353  0.24457392  1
  Te  Te59  1  -0.00404615  0.50081633  0.75537355  1
  Te  Te60  1  0.50120087  -0.00110010  0.24568502  1
  Te  Te61  1  0.50326150  -0.00210569  0.75266776  1
  Te  Te62  1  0.49931080  0.50117415  0.24388960  1
  Te  Te63  1  0.50222311  0.50247599  0.75590385  1
