# generated using pymatgen
data_AgSbTe2
_symmetry_space_group_name_H-M   'P 1'
_cell_length_a   12.21290765
_cell_length_b   12.22020834
_cell_length_c   12.22089152
_cell_angle_alpha   89.99606143
_cell_angle_beta   89.99292347
_cell_angle_gamma   89.99517871
_symmetry_Int_Tables_number   1
_chemical_formula_structural   AgSbTe2
_chemical_formula_sum   'Ag16 Sb16 Te32'
_cell_volume   1823.89808043
_cell_formula_units_Z   16
loop_
 _symmetry_equiv_pos_site_id
 _symmetry_equiv_pos_as_xyz
  1  'x, y, z'
loop_
 _atom_site_type_symbol
 _atom_site_label
 _atom_site_symmetry_multiplicity
 _atom_site_fract_x
 _atom_site_fract_y
 _atom_site_fract_z
 _atom_site_occupancy
  Ag  Ag0  1  0.24797846  0.24596523  -0.00526270  1
  Ag  Ag1  1  0.75052522  -0.00084902  0.24812410  1
  Ag  Ag2  1  0.74780174  0.00122677  0.75236472  1
  Ag  Ag3  1  0.25035664  0.49421442  0.75030453  1
  Ag  Ag4  1  0.49543326  0.49728230  0.50208264  1
  Ag  Ag5  1  0.49298960  0.24393943  0.74837280  1
  Ag  Ag6  1  -0.00030664  0.75485356  0.24561860  1
  Ag  Ag7  1  0.00209314  0.00055477  -0.00008624  1
  Ag  Ag8  1  0.49782564  0.00261725  0.50330874  1
  Ag  Ag9  1  0.25329671  0.00615241  0.75279204  1
  Ag  Ag10  1  0.00232221  0.75420748  0.75524531  1
  Ag  Ag11  1  0.00453688  0.49947295  -0.00086136  1
  Ag  Ag12  1  0.25369470  0.24822988  0.50644934  1
  Ag  Ag13  1  0.49796600  0.00199325  -0.00363630  1
  Ag  Ag14  1  0.50050322  0.75565482  0.25025727  1
  Ag  Ag15  1  0.00198544  0.24532201  0.24573162  1
  Sb  Sb16  1  0.24746268  0.75505161  -0.00146880  1
  Sb  Sb17  1  0.75008563  0.49863973  0.75035669  1
  Sb  Sb18  1  0.00356541  0.00142583  0.49999046  1
  Sb  Sb19  1  0.74910643  0.75328184  0.49970603  1
  Sb  Sb20  1  0.75241646  0.24542087  -0.00073463  1
  Sb  Sb21  1  0.75076757  0.50011720  0.24980206  1
  Sb  Sb22  1  0.24895854  0.00125725  0.24642750  1
  Sb  Sb23  1  0.49898936  0.24459952  0.25042603  1
  Sb  Sb24  1  0.00505528  0.49764535  0.50172116  1
  Sb  Sb25  1  0.25167336  0.75290296  0.50168304  1
  Sb  Sb26  1  0.49392278  0.49818838  -0.00183420  1
  Sb  Sb27  1  0.75249394  0.75423520  0.00005474  1
  Sb  Sb28  1  0.74657290  0.24653167  0.50117190  1
  Sb  Sb29  1  0.00806355  0.24561015  0.75472755  1
  Sb  Sb30  1  0.49868613  0.75654025  0.75067393  1
  Sb  Sb31  1  0.24959637  0.49814027  0.24954069  1
  Te  Te32  1  0.24574106  0.25043184  0.24886969  1
  Te  Te33  1  0.25109432  0.24824863  0.75026808  1
  Te  Te34  1  0.24740175  0.74922442  0.25076832  1
  Te  Te35  1  0.24545757  0.75019129  0.74925737  1
  Te  Te36  1  0.75641950  0.24362979  0.25053482  1
  Te  Te37  1  0.74138861  0.24347295  0.74914828  1
  Te  Te38  1  0.75235000  0.75639185  0.25042609  1
  Te  Te39  1  0.75696527  0.75723650  0.74956213  1
  Te  Te40  1  0.24874467  0.00425038  -0.00332064  1
  Te  Te41  1  0.25497435  0.00456131  0.50609676  1
  Te  Te42  1  0.24598703  0.49274274  -0.00526349  1
  Te  Te43  1  0.25490625  0.49443821  0.50536560  1
  Te  Te44  1  0.75033906  0.00113836  -0.00070910  1
  Te  Te45  1  0.74236339  0.00109518  0.50031893  1
  Te  Te46  1  0.75964846  0.49843854  -0.00087960  1
  Te  Te47  1  0.73944578  0.49856360  0.50109503  1
  Te  Te48  1  0.00442093  0.24648681  0.00222728  1
  Te  Te49  1  0.00729216  0.25189803  0.49281417  1
  Te  Te50  1  0.00123807  0.75300721  0.00189531  1
  Te  Te51  1  0.00046535  0.74828423  0.49608154  1
  Te  Te52  1  0.49415112  0.24665180  -0.00124611  1
  Te  Te53  1  0.49587263  0.24731982  0.50052684  1
  Te  Te54  1  0.49843669  0.75472266  0.00562718  1
  Te  Te55  1  0.49915535  0.75217221  0.49559365  1
  Te  Te56  1  -0.00098814  -0.00254335  0.24944503  1
  Te  Te57  1  0.00004824  -0.00101889  0.75105257  1
  Te  Te58  1  -0.00123964  0.50330501  0.24622759  1
  Te  Te59  1  0.00146155  0.50357286  0.75282503  1
  Te  Te60  1  0.50155048  -0.00186413  0.24877826  1
  Te  Te61  1  0.49874734  -0.00127922  0.75178020  1
  Te  Te62  1  0.50162775  0.50579394  0.25259862  1
  Te  Te63  1  0.49811442  0.49900981  0.74918530  1
