# generated using pymatgen
data_AgSbTe2
_symmetry_space_group_name_H-M   'P 1'
_cell_length_a   12.22127771
_cell_length_b   12.22047390
_cell_length_c   12.21866087
_cell_angle_alpha   90.00204868
_cell_angle_beta   90.00423178
_cell_angle_gamma   90.00826886
_symmetry_Int_Tables_number   1
_chemical_formula_structural   AgSbTe2
_chemical_formula_sum   'Ag16 Sb16 Te32'
_cell_volume   1824.85459731
_cell_formula_units_Z   16
loop_
 _symmetry_equiv_pos_site_id
 _symmetry_equiv_pos_as_xyz
  1  'x, y, z'
loop_
 _atom_site_type_symbol
 _atom_site_label
 _atom_site_symmetry_multiplicity
 _atom_site_fract_x
 _atom_site_fract_y
 _atom_site_fract_z
 _atom_site_occupancy
  Ag  Ag0  1  0.00105068  0.50042729  0.49504502  1
  Ag  Ag1  1  0.25289636  -0.00494861  0.74832838  1
  Ag  Ag2  1  0.49620575  0.75524096  0.74792986  1
  Ag  Ag3  1  0.49785668  -0.00236217  0.00728975  1
  Ag  Ag4  1  0.25172464  0.75430232  0.49355824  1
  Ag  Ag5  1  0.25450290  0.75487532  0.00680828  1
  Ag  Ag6  1  0.74797437  0.24535563  0.01076488  1
  Ag  Ag7  1  0.24969828  0.50523640  0.25268587  1
  Ag  Ag8  1  -0.00427348  0.24621077  0.25427329  1
  Ag  Ag9  1  0.25512337  -0.00564611  0.25163153  1
  Ag  Ag10  1  0.49401155  0.75762859  0.25155563  1
  Ag  Ag11  1  0.74906756  0.75432992  0.49472027  1
  Ag  Ag12  1  0.00005438  -0.00025891  0.49450466  1
  Ag  Ag13  1  0.74567550  0.00481768  0.25379317  1
  Ag  Ag14  1  0.50458648  0.24148530  0.25024260  1
  Ag  Ag15  1  0.75253375  0.24494098  0.49020507  1
  Sb  Sb16  1  0.24762517  0.24525363  0.49496185  1
  Sb  Sb17  1  0.00160768  0.00133301  0.00592686  1
  Sb  Sb18  1  0.49849589  0.50162959  0.00378764  1
  Sb  Sb19  1  0.24999763  0.50517822  0.74717228  1
  Sb  Sb20  1  0.49924266  -0.00223402  0.49121560  1
  Sb  Sb21  1  0.00629272  0.75365967  0.25451116  1
  Sb  Sb22  1  0.74660587  -0.00228309  0.74512656  1
  Sb  Sb23  1  0.00292581  0.49817311  0.00677793  1
  Sb  Sb24  1  0.49771317  0.50238480  0.49631854  1
  Sb  Sb25  1  0.00368475  0.75311759  0.74569875  1
  Sb  Sb26  1  0.25246834  0.24494855  0.00581807  1
  Sb  Sb27  1  -0.00065546  0.24647428  0.74599394  1
  Sb  Sb28  1  0.75153223  0.49601157  0.25284455  1
  Sb  Sb29  1  0.74526617  0.75470309  0.00774736  1
  Sb  Sb30  1  0.50030346  0.24334961  0.74874984  1
  Sb  Sb31  1  0.74990444  0.50207597  0.74709553  1
  Te  Te32  1  0.25191983  0.24745776  0.24967106  1
  Te  Te33  1  0.25144136  0.24286636  0.75142804  1
  Te  Te34  1  0.25004793  0.75350953  0.25295700  1
  Te  Te35  1  0.25353900  0.75414618  0.74704995  1
  Te  Te36  1  0.74818711  0.24988563  0.25243145  1
  Te  Te37  1  0.74866172  0.25010082  0.74818364  1
  Te  Te38  1  0.74565482  0.75249680  0.25288881  1
  Te  Te39  1  0.74301407  0.75064419  0.74414135  1
  Te  Te40  1  0.25162377  -0.00354022  0.00352596  1
  Te  Te41  1  0.24793924  -0.00235232  0.49618160  1
  Te  Te42  1  0.24871008  0.50712728  0.00478577  1
  Te  Te43  1  0.24611623  0.50439851  0.49588943  1
  Te  Te44  1  0.74815995  0.00275761  0.00400188  1
  Te  Te45  1  0.75305825  -0.00078706  0.49723536  1
  Te  Te46  1  0.75146824  0.49258883  -0.00075611  1
  Te  Te47  1  0.75616858  0.50185740  0.49919903  1
  Te  Te48  1  -0.00609130  0.25035179  0.00544070  1
  Te  Te49  1  -0.00217535  0.24776043  0.49641361  1
  Te  Te50  1  0.00571791  0.74904399  -0.00223534  1
  Te  Te51  1  -0.00102986  0.75168771  0.49936542  1
  Te  Te52  1  0.50356170  0.24583881  0.00385765  1
  Te  Te53  1  0.50658441  0.25187110  0.49577087  1
  Te  Te54  1  0.49762949  0.75342813  0.00363194  1
  Te  Te55  1  0.49936046  0.74931324  0.49699707  1
  Te  Te56  1  -0.00039486  0.00309862  0.25395600  1
  Te  Te57  1  0.00672652  0.00069038  0.74245099  1
  Te  Te58  1  0.00507780  0.49396482  0.25505419  1
  Te  Te59  1  0.00108384  0.49906714  0.74016299  1
  Te  Te60  1  0.49938452  -0.00030959  0.24886497  1
  Te  Te61  1  0.49577811  -0.00422353  0.75752564  1
  Te  Te62  1  0.49278024  0.50073734  0.24972274  1
  Te  Te63  1  0.49859688  0.50911136  0.75112335  1
