# generated using pymatgen
data_AgSbTe2
_symmetry_space_group_name_H-M   'P 1'
_cell_length_a   12.21080342
_cell_length_b   12.22002066
_cell_length_c   12.22105765
_cell_angle_alpha   89.99777496
_cell_angle_beta   89.99828049
_cell_angle_gamma   90.00294357
_symmetry_Int_Tables_number   1
_chemical_formula_structural   AgSbTe2
_chemical_formula_sum   'Ag16 Sb16 Te32'
_cell_volume   1823.58063394
_cell_formula_units_Z   16
loop_
 _symmetry_equiv_pos_site_id
 _symmetry_equiv_pos_as_xyz
  1  'x, y, z'
loop_
 _atom_site_type_symbol
 _atom_site_label
 _atom_site_symmetry_multiplicity
 _atom_site_fract_x
 _atom_site_fract_y
 _atom_site_fract_z
 _atom_site_occupancy
  Ag  Ag0  1  0.75563337  0.25064477  0.00031472  1
  Ag  Ag1  1  0.00413927  0.49899316  0.00282551  1
  Ag  Ag2  1  0.76028168  -0.00144911  0.25219040  1
  Ag  Ag3  1  0.23993359  -0.00530843  0.25202201  1
  Ag  Ag4  1  0.24565234  0.50280755  0.74946965  1
  Ag  Ag5  1  0.24558371  0.74620350  0.00291695  1
  Ag  Ag6  1  0.00105926  0.24992099  0.24981223  1
  Ag  Ag7  1  0.00422570  0.50462488  0.49617750  1
  Ag  Ag8  1  0.00109434  0.25381310  0.75107870  1
  Ag  Ag9  1  0.24236273  0.74742654  0.49609456  1
  Ag  Ag10  1  0.49874142  0.25217572  0.75142258  1
  Ag  Ag11  1  0.49563996  0.74713095  0.74858868  1
  Ag  Ag12  1  0.00110387  -0.00526672  0.49289615  1
  Ag  Ag13  1  0.75853193  0.75096362  0.49754551  1
  Ag  Ag14  1  0.24111079  0.50584000  0.25053049  1
  Ag  Ag15  1  0.00612413  0.75026063  0.25572439  1
  Sb  Sb16  1  0.49796852  -0.00193269  0.49994231  1
  Sb  Sb17  1  0.76110863  0.50167543  0.25114553  1
  Sb  Sb18  1  0.00428286  0.74554523  0.74387907  1
  Sb  Sb19  1  0.49494709  0.50227987  0.50193728  1
  Sb  Sb20  1  0.75414705  -0.00074512  0.74796473  1
  Sb  Sb21  1  0.75522879  0.24906330  0.49865101  1
  Sb  Sb22  1  0.24655295  -0.00233312  0.74819654  1
  Sb  Sb23  1  0.75525667  0.49962799  0.74912114  1
  Sb  Sb24  1  0.00128016  0.00084557  0.00808823  1
  Sb  Sb25  1  0.49895380  -0.00002941  -0.00035500  1
  Sb  Sb26  1  0.49513953  0.50046883  -0.00193420  1
  Sb  Sb27  1  0.24533350  0.25297806  0.50008145  1
  Sb  Sb28  1  0.49992873  0.25017220  0.24808922  1
  Sb  Sb29  1  0.24479584  0.25340711  -0.00038094  1
  Sb  Sb30  1  0.49391171  0.74980077  0.25041611  1
  Sb  Sb31  1  0.75466485  0.74943337  0.00194428  1
  Te  Te32  1  0.24683770  0.24918996  0.24948767  1
  Te  Te33  1  0.24861363  0.25298660  0.75074114  1
  Te  Te34  1  0.24962842  0.74950451  0.25179430  1
  Te  Te35  1  0.25097440  0.74769999  0.74950964  1
  Te  Te36  1  0.75259520  0.24665515  0.24765160  1
  Te  Te37  1  0.75137958  0.24997758  0.75347918  1
  Te  Te38  1  0.75150656  0.75284402  0.25226891  1
  Te  Te39  1  0.74350352  0.75055575  0.74712059  1
  Te  Te40  1  0.24915846  -0.00757075  0.00612502  1
  Te  Te41  1  0.24575314  -0.00526217  0.49590860  1
  Te  Te42  1  0.24543053  0.50311589  -0.00052843  1
  Te  Te43  1  0.24575972  0.50271387  0.50057696  1
  Te  Te44  1  0.74998599  0.00345973  0.00653876  1
  Te  Te45  1  0.75479146  -0.00468962  0.49523011  1
  Te  Te46  1  0.75767028  0.49625410  0.00039724  1
  Te  Te47  1  0.75728543  0.50676994  0.49938285  1
  Te  Te48  1  -0.00183259  0.25265827  0.00061927  1
  Te  Te49  1  -0.00051229  0.25140851  0.49833199  1
  Te  Te50  1  0.00246506  0.74628932  0.00267777  1
  Te  Te51  1  0.00158010  0.74918563  0.50016415  1
  Te  Te52  1  0.50675153  0.25053726  -0.00623808  1
  Te  Te53  1  0.50222676  0.25029794  0.50918432  1
  Te  Te54  1  0.49600325  0.74937763  -0.00606265  1
  Te  Te55  1  0.49910210  0.74966611  0.50473666  1
  Te  Te56  1  0.00159535  -0.00033974  0.25193239  1
  Te  Te57  1  0.00060570  0.00905129  0.74173231  1
  Te  Te58  1  0.00324320  0.50017804  0.25162724  1
  Te  Te59  1  0.00454986  0.49661194  0.74947893  1
  Te  Te60  1  0.49908841  0.00158462  0.25077268  1
  Te  Te61  1  0.49928319  0.00240661  0.74922760  1
  Te  Te62  1  0.48764898  0.49837899  0.25019365  1
  Te  Te63  1  0.49260857  0.49946451  0.74954086  1
