# generated using pymatgen
data_AgSbTe2
_symmetry_space_group_name_H-M   'P 1'
_cell_length_a   12.21608766
_cell_length_b   12.22982024
_cell_length_c   12.22608424
_cell_angle_alpha   89.99792589
_cell_angle_beta   89.99892866
_cell_angle_gamma   89.99323835
_symmetry_Int_Tables_number   1
_chemical_formula_structural   AgSbTe2
_chemical_formula_sum   'Ag16 Sb16 Te32'
_cell_volume   1826.58377144
_cell_formula_units_Z   16
loop_
 _symmetry_equiv_pos_site_id
 _symmetry_equiv_pos_as_xyz
  1  'x, y, z'
loop_
 _atom_site_type_symbol
 _atom_site_label
 _atom_site_symmetry_multiplicity
 _atom_site_fract_x
 _atom_site_fract_y
 _atom_site_fract_z
 _atom_site_occupancy
  Ag  Ag0  1  0.50244173  0.74883731  0.25012192  1
  Ag  Ag1  1  -0.00328707  0.74283639  0.24956242  1
  Ag  Ag2  1  0.00060134  0.50136340  0.49995215  1
  Ag  Ag3  1  0.49703632  -0.00239905  0.50018920  1
  Ag  Ag4  1  0.24231964  0.50079498  0.75152668  1
  Ag  Ag5  1  0.75596072  0.50339069  0.24850732  1
  Ag  Ag6  1  0.24512066  0.25210258  -0.00143160  1
  Ag  Ag7  1  0.00232091  -0.00128548  0.50204568  1
  Ag  Ag8  1  0.00057738  0.50092203  0.00009451  1
  Ag  Ag9  1  0.24610138  -0.00149415  0.74845737  1
  Ag  Ag10  1  0.00095748  0.25666668  0.24959952  1
  Ag  Ag11  1  0.75349527  0.74644445  0.00244721  1
  Ag  Ag12  1  0.49757223  0.75083170  0.74933749  1
  Ag  Ag13  1  0.49876372  0.25097273  0.25012173  1
  Ag  Ag14  1  0.00517512  0.25457976  0.75037455  1
  Ag  Ag15  1  0.00299196  0.74593972  0.74970594  1
  Sb  Sb16  1  0.75777536  0.50319250  0.75148142  1
  Sb  Sb17  1  0.24682249  0.24955772  0.50134926  1
  Sb  Sb18  1  0.24350459  0.49887909  0.24863996  1
  Sb  Sb19  1  0.24630547  0.74717999  -0.00342884  1
  Sb  Sb20  1  0.75446854  0.25404760  0.00285397  1
  Sb  Sb21  1  0.49726743  -0.00132284  -0.00060050  1
  Sb  Sb22  1  0.00222815  -0.00058589  -0.00244760  1
  Sb  Sb23  1  0.49834041  0.50146529  0.49835950  1
  Sb  Sb24  1  0.75259560  0.25128179  0.49792237  1
  Sb  Sb25  1  0.24831283  0.00072340  0.25179222  1
  Sb  Sb26  1  0.24752354  0.74987188  0.50257395  1
  Sb  Sb27  1  0.49888334  0.50137396  0.00065959  1
  Sb  Sb28  1  0.75090394  -0.00330076  0.25034684  1
  Sb  Sb29  1  0.75242035  0.74880402  0.49698840  1
  Sb  Sb30  1  0.49359091  0.24901620  0.74925680  1
  Sb  Sb31  1  0.75314944  -0.00188556  0.74895383  1
  Te  Te32  1  0.24867804  0.25025614  0.24414720  1
  Te  Te33  1  0.24707321  0.25067963  0.75350035  1
  Te  Te34  1  0.25171700  0.75018401  0.24738638  1
  Te  Te35  1  0.24855701  0.75024597  0.75188772  1
  Te  Te36  1  0.75167838  0.25500951  0.24828959  1
  Te  Te37  1  0.75776354  0.25049770  0.75249378  1
  Te  Te38  1  0.75159337  0.74713231  0.24687318  1
  Te  Te39  1  0.74964561  0.74842196  0.75590077  1
  Te  Te40  1  0.25000765  0.00768946  -0.00833379  1
  Te  Te41  1  0.24845438  0.00003204  0.50578272  1
  Te  Te42  1  0.24464157  0.49595387  -0.00449804  1
  Te  Te43  1  0.24263668  0.50013637  0.50747649  1
  Te  Te44  1  0.74928625  -0.00992902  -0.00022568  1
  Te  Te45  1  0.75103188  0.00072013  0.50034576  1
  Te  Te46  1  0.75577618  0.50455431  0.00441488  1
  Te  Te47  1  0.75771902  0.49943918  0.49333694  1
  Te  Te48  1  0.00123671  0.25110618  0.00162211  1
  Te  Te49  1  0.00033288  0.24888270  0.49838623  1
  Te  Te50  1  -0.00049843  0.74873596  0.00101541  1
  Te  Te51  1  -0.00067599  0.75086642  0.49994006  1
  Te  Te52  1  0.49730751  0.25010310  0.00577346  1
  Te  Te53  1  0.50013673  0.24583868  0.49436435  1
  Te  Te54  1  0.50276652  0.74912160  0.00226398  1
  Te  Te55  1  0.50107912  0.75312042  0.49879258  1
  Te  Te56  1  0.00155244  -0.00004288  0.25657342  1
  Te  Te57  1  0.00210670  -0.00217091  0.74660158  1
  Te  Te58  1  0.00132716  0.50098758  0.25044672  1
  Te  Te59  1  0.00062507  0.50185785  0.74958006  1
  Te  Te60  1  0.49932041  -0.00204570  0.25494476  1
  Te  Te61  1  0.49718792  -0.00316584  0.74563189  1
  Te  Te62  1  0.50257773  0.50250528  0.25191545  1
  Te  Te63  1  0.49511655  0.50447384  0.74805643  1
