# generated using pymatgen
data_AgSbTe2
_symmetry_space_group_name_H-M   'P 1'
_cell_length_a   12.21776015
_cell_length_b   12.22872264
_cell_length_c   12.22125964
_cell_angle_alpha   90.00469493
_cell_angle_beta   90.00516314
_cell_angle_gamma   90.00249541
_symmetry_Int_Tables_number   1
_chemical_formula_structural   AgSbTe2
_chemical_formula_sum   'Ag16 Sb16 Te32'
_cell_volume   1825.94905652
_cell_formula_units_Z   16
loop_
 _symmetry_equiv_pos_site_id
 _symmetry_equiv_pos_as_xyz
  1  'x, y, z'
loop_
 _atom_site_type_symbol
 _atom_site_label
 _atom_site_symmetry_multiplicity
 _atom_site_fract_x
 _atom_site_fract_y
 _atom_site_fract_z
 _atom_site_occupancy
  Ag  Ag0  1  0.75264216  0.74711146  0.49743382  1
  Ag  Ag1  1  0.50718217  0.24892112  0.75083020  1
  Ag  Ag2  1  0.24587536  0.00008041  0.24752647  1
  Ag  Ag3  1  0.00068762  0.73542062  0.24730215  1
  Ag  Ag4  1  0.23475356  0.50015741  0.24766728  1
  Ag  Ag5  1  0.75260006  0.49641484  0.75075068  1
  Ag  Ag6  1  0.75342630  0.25278968  0.00227632  1
  Ag  Ag7  1  0.50296813  0.00216597  0.49837764  1
  Ag  Ag8  1  -0.00490034  0.50040221  0.48451232  1
  Ag  Ag9  1  0.74941134  0.00366584  0.75018000  1
  Ag  Ag10  1  -0.00110692  0.00078485  0.00644443  1
  Ag  Ag11  1  -0.00316806  0.49921172  0.01536367  1
  Ag  Ag12  1  0.24366207  0.74957248  0.00686783  1
  Ag  Ag13  1  -0.00275328  0.26468802  0.24639585  1
  Ag  Ag14  1  0.50289097  0.25063178  0.24949509  1
  Ag  Ag15  1  0.76514458  0.49678526  0.24938825  1
  Sb  Sb16  1  0.25035564  0.00102894  0.75209706  1
  Sb  Sb17  1  -0.00642754  0.25112850  0.75381103  1
  Sb  Sb18  1  0.50394269  0.49888480  0.49719936  1
  Sb  Sb19  1  0.24545354  0.25097598  0.00456426  1
  Sb  Sb20  1  0.24988398  0.25071732  0.49583643  1
  Sb  Sb21  1  0.50387421  0.75042363  0.74863963  1
  Sb  Sb22  1  0.75476664  0.74807964  0.00249144  1
  Sb  Sb23  1  0.24747163  0.49912424  0.75203018  1
  Sb  Sb24  1  0.50036905  0.74970380  0.25092155  1
  Sb  Sb25  1  0.75016242  0.25236439  0.49787909  1
  Sb  Sb26  1  -0.00204956  -0.00024705  0.49459959  1
  Sb  Sb27  1  0.24760709  0.74926643  0.49432284  1
  Sb  Sb28  1  0.50162840  0.00319597  0.00138657  1
  Sb  Sb29  1  -0.00192953  0.74907353  0.75185765  1
  Sb  Sb30  1  0.75218243  0.00330720  0.24952400  1
  Sb  Sb31  1  0.50382526  0.49778115  0.00179485  1
  Te  Te32  1  0.25041181  0.25063714  0.24872382  1
  Te  Te33  1  0.26123548  0.25038788  0.75080452  1
  Te  Te34  1  0.24820195  0.74928856  0.24763781  1
  Te  Te35  1  0.25080540  0.74936841  0.75763340  1
  Te  Te36  1  0.75015985  0.25192380  0.24750602  1
  Te  Te37  1  0.74774000  0.25084991  0.75244518  1
  Te  Te38  1  0.75206912  0.74623181  0.25246976  1
  Te  Te39  1  0.74940272  0.74860650  0.74667735  1
  Te  Te40  1  0.24466865  -0.00209910  0.00409806  1
  Te  Te41  1  0.25383191  -0.00159059  0.49539368  1
  Te  Te42  1  0.24436091  0.50197500  0.00351861  1
  Te  Te43  1  0.24367573  0.50160874  0.49552214  1
  Te  Te44  1  0.75372562  0.00075868  -0.00305842  1
  Te  Te45  1  0.74809190  -0.00354032  0.50330182  1
  Te  Te46  1  0.75328584  0.49927598  0.00088130  1
  Te  Te47  1  0.75273846  0.50257566  0.49915235  1
  Te  Te48  1  -0.00503368  0.25056305  0.00339894  1
  Te  Te49  1  0.00092520  0.25428054  0.49346898  1
  Te  Te50  1  0.00156596  0.74963350  0.00387120  1
  Te  Te51  1  -0.00429749  0.74757903  0.49560487  1
  Te  Te52  1  0.50736210  0.24973018  0.00268991  1
  Te  Te53  1  0.49935266  0.24578106  0.49697781  1
  Te  Te54  1  0.49104172  0.75008377  0.00033416  1
  Te  Te55  1  0.50558275  0.75587520  0.50007844  1
  Te  Te56  1  0.00269301  0.00071657  0.24749435  1
  Te  Te57  1  -0.00425368  0.00146823  0.75427932  1
  Te  Te58  1  -0.00101698  0.49944174  0.24850011  1
  Te  Te59  1  -0.00477900  0.49853469  0.75047439  1
  Te  Te60  1  0.49733371  0.00472232  0.25268387  1
  Te  Te61  1  0.50310019  0.00367851  0.74707303  1
  Te  Te62  1  0.49977627  0.49351717  0.25129156  1
  Te  Te63  1  0.50580980  0.49452423  0.74930413  1
