# generated using pymatgen
data_AgSbTe2
_symmetry_space_group_name_H-M   'P 1'
_cell_length_a   12.21912051
_cell_length_b   12.22143897
_cell_length_c   12.21629767
_cell_angle_alpha   90.00275320
_cell_angle_beta   89.99854715
_cell_angle_gamma   90.00668465
_symmetry_Int_Tables_number   1
_chemical_formula_structural   AgSbTe2
_chemical_formula_sum   'Ag16 Sb16 Te32'
_cell_volume   1824.32367470
_cell_formula_units_Z   16
loop_
 _symmetry_equiv_pos_site_id
 _symmetry_equiv_pos_as_xyz
  1  'x, y, z'
loop_
 _atom_site_type_symbol
 _atom_site_label
 _atom_site_symmetry_multiplicity
 _atom_site_fract_x
 _atom_site_fract_y
 _atom_site_fract_z
 _atom_site_occupancy
  Ag  Ag0  1  0.49331618  -0.00509421  0.49258205  1
  Ag  Ag1  1  0.00399505  0.75232698  0.25829487  1
  Ag  Ag2  1  0.49591822  0.75441697  0.25689824  1
  Ag  Ag3  1  0.74960919  0.74764591  0.49673295  1
  Ag  Ag4  1  0.50233527  0.50548149  0.49575084  1
  Ag  Ag5  1  0.25168829  0.24455739  0.49731648  1
  Ag  Ag6  1  0.25525189  -0.00580362  0.25619010  1
  Ag  Ag7  1  0.75079292  0.50298676  0.74353781  1
  Ag  Ag8  1  0.24992545  0.75609810  0.49416264  1
  Ag  Ag9  1  0.74636616  0.50480279  0.25699260  1
  Ag  Ag10  1  0.49596749  -0.00356933  0.00812541  1
  Ag  Ag11  1  0.00041235  0.24961232  0.74446305  1
  Ag  Ag12  1  0.00547183  -0.00657981  0.49813536  1
  Ag  Ag13  1  0.49777376  0.24588043  0.25531384  1
  Ag  Ag14  1  0.25196007  0.75397666  0.00612276  1
  Ag  Ag15  1  0.00014081  0.75038469  0.74135253  1
  Sb  Sb16  1  0.75163736  -0.00351642  0.74603996  1
  Sb  Sb17  1  0.00489512  -0.00363447  0.00276967  1
  Sb  Sb18  1  0.74876826  0.25309739  0.49909014  1
  Sb  Sb19  1  0.74866827  0.24976380  0.00076205  1
  Sb  Sb20  1  0.25324317  0.50788092  0.25450972  1
  Sb  Sb21  1  0.49996250  0.50334624  0.00464704  1
  Sb  Sb22  1  0.74329730  -0.00527151  0.25414600  1
  Sb  Sb23  1  0.24916205  0.50233723  0.74546930  1
  Sb  Sb24  1  0.24919291  -0.00157074  0.74089392  1
  Sb  Sb25  1  0.49950118  0.25045538  0.74375075  1
  Sb  Sb26  1  -0.00397262  0.50873879  0.49984696  1
  Sb  Sb27  1  0.74783196  0.75000630  0.00238875  1
  Sb  Sb28  1  0.25227544  0.24472849  0.00281744  1
  Sb  Sb29  1  0.50019197  0.74944486  0.74153247  1
  Sb  Sb30  1  0.00222890  0.24817198  0.25744489  1
  Sb  Sb31  1  0.00005677  0.50196945  0.00049903  1
  Te  Te32  1  0.25263445  0.24556310  0.25392080  1
  Te  Te33  1  0.24488481  0.25103075  0.74529842  1
  Te  Te34  1  0.25076571  0.75067629  0.25393530  1
  Te  Te35  1  0.24452312  0.74918243  0.74770022  1
  Te  Te36  1  0.74593369  0.25833541  0.25023815  1
  Te  Te37  1  0.75543548  0.25678209  0.75010770  1
  Te  Te38  1  0.74932975  0.74725208  0.25244269  1
  Te  Te39  1  0.75447416  0.74607347  0.74725972  1
  Te  Te40  1  0.25471972  -0.00515720  0.00722965  1
  Te  Te41  1  0.25108701  -0.00239290  0.49787350  1
  Te  Te42  1  0.25116382  0.50905427  -0.00101901  1
  Te  Te43  1  0.25737711  0.50001661  0.49951184  1
  Te  Te44  1  0.74038347  -0.00053874  -0.00095196  1
  Te  Te45  1  0.75064517  -0.00660796  0.49968815  1
  Te  Te46  1  0.74910704  0.50030482  -0.00122347  1
  Te  Te47  1  0.74697429  0.50379541  0.49903754  1
  Te  Te48  1  0.00129588  0.24869853  -0.00882402  1
  Te  Te49  1  0.00342714  0.24436164  0.50187567  1
  Te  Te50  1  0.00464646  0.75218283  0.00040881  1
  Te  Te51  1  0.00101840  0.75057561  0.49900666  1
  Te  Te52  1  0.49821901  0.24468106  0.00664277  1
  Te  Te53  1  0.49779176  0.24778803  0.49696062  1
  Te  Te54  1  0.49662432  0.75334270  0.00450786  1
  Te  Te55  1  0.49932795  0.75161561  0.49950096  1
  Te  Te56  1  0.00360006  -0.00341822  0.25352476  1
  Te  Te57  1  -0.00051384  -0.00205413  0.74622744  1
  Te  Te58  1  -0.00704184  0.50433259  0.24963424  1
  Te  Te59  1  -0.00531077  0.50186502  0.75004878  1
  Te  Te60  1  0.49979933  -0.00253910  0.25437151  1
  Te  Te61  1  0.50043457  0.00138445  0.74827363  1
  Te  Te62  1  0.50242462  0.50198241  0.25303518  1
  Te  Te63  1  0.50695269  0.49875980  0.74517624  1
