# generated using pymatgen
data_AgSbTe2
_symmetry_space_group_name_H-M   'P 1'
_cell_length_a   12.34469128
_cell_length_b   12.36377038
_cell_length_c   12.31831371
_cell_angle_alpha   90.00635712
_cell_angle_beta   90.00038430
_cell_angle_gamma   90.00199901
_symmetry_Int_Tables_number   1
_chemical_formula_structural   AgSbTe2
_chemical_formula_sum   'Ag16 Sb16 Te32'
_cell_volume   1880.10637149
_cell_formula_units_Z   16
loop_
 _symmetry_equiv_pos_site_id
 _symmetry_equiv_pos_as_xyz
  1  'x, y, z'
loop_
 _atom_site_type_symbol
 _atom_site_label
 _atom_site_symmetry_multiplicity
 _atom_site_fract_x
 _atom_site_fract_y
 _atom_site_fract_z
 _atom_site_occupancy
  Ag  Ag0  1  0.25254251  0.50112022  0.25717461  1
  Ag  Ag1  1  0.73500457  -0.00273268  0.24939764  1
  Ag  Ag2  1  0.25507176  0.73896381  0.49021664  1
  Ag  Ag3  1  0.48849471  0.27024080  0.25218331  1
  Ag  Ag4  1  0.00887640  0.50147351  0.02129076  1
  Ag  Ag5  1  0.01432912  0.27074390  0.25429020  1
  Ag  Ag6  1  0.26301143  -0.00220518  0.25168011  1
  Ag  Ag7  1  0.49574996  0.50356551  0.01879254  1
  Ag  Ag8  1  0.25275407  0.26440135  0.48920624  1
  Ag  Ag9  1  0.01633755  0.50131819  0.48227238  1
  Ag  Ag10  1  0.01308173  0.73078467  0.25477760  1
  Ag  Ag11  1  0.49455086  0.74461693  0.74969056  1
  Ag  Ag12  1  0.49786560  -0.00878007  0.01167340  1
  Ag  Ag13  1  0.48831363  0.72925498  0.25024983  1
  Ag  Ag14  1  0.74764792  0.50142538  0.25137814  1
  Ag  Ag15  1  0.48648823  0.50433842  0.48139941  1
  Sb  Sb16  1  0.74759169  0.74827906  0.00699571  1
  Sb  Sb17  1  0.74667638  0.50104353  0.75076520  1
  Sb  Sb18  1  0.25104168  0.25291203  0.01083265  1
  Sb  Sb19  1  0.74807751  0.74714367  0.49190256  1
  Sb  Sb20  1  0.00218627  -0.00139957  0.01418992  1
  Sb  Sb21  1  0.49660882  0.25372948  0.75044686  1
  Sb  Sb22  1  0.25423105  -0.00338368  0.75035717  1
  Sb  Sb23  1  0.74723751  0.25355569  0.48955270  1
  Sb  Sb24  1  0.25220323  0.74715099  0.01018475  1
  Sb  Sb25  1  0.00427491  0.25425944  0.74510400  1
  Sb  Sb26  1  0.49743488  -0.00386644  0.48790883  1
  Sb  Sb27  1  0.74253312  -0.00361101  0.75331240  1
  Sb  Sb28  1  0.74926247  0.25211443  0.00785807  1
  Sb  Sb29  1  0.00413419  -0.00151524  0.49157853  1
  Sb  Sb30  1  0.00651920  0.74593993  0.74579576  1
  Sb  Sb31  1  0.25143824  0.50031562  0.74444655  1
  Te  Te32  1  0.25153570  0.25469135  0.24883097  1
  Te  Te33  1  0.24923347  0.24694362  0.72901006  1
  Te  Te34  1  0.24899400  0.74581464  0.24867916  1
  Te  Te35  1  0.25685614  0.75164596  0.73253088  1
  Te  Te36  1  0.74711953  0.25309071  0.24834462  1
  Te  Te37  1  0.75248146  0.24649685  0.75018190  1
  Te  Te38  1  0.75208090  0.74764732  0.24873920  1
  Te  Te39  1  0.73866594  0.75187422  0.75045344  1
  Te  Te40  1  0.25438446  0.00109686  0.00391413  1
  Te  Te41  1  0.25057853  -0.00215631  0.49522734  1
  Te  Te42  1  0.25186398  0.50006629  0.00082988  1
  Te  Te43  1  0.25130117  0.50123224  0.49952373  1
  Te  Te44  1  0.74435270  -0.00065436  0.00603877  1
  Te  Te45  1  0.75041799  0.00076650  0.49385727  1
  Te  Te46  1  0.74466313  0.50040003  0.00345396  1
  Te  Te47  1  0.74975918  0.50054320  0.49754897  1
  Te  Te48  1  0.00116483  0.25596049  0.00051192  1
  Te  Te49  1  0.00018369  0.25180404  0.49817232  1
  Te  Te50  1  0.00116287  0.74456678  -0.00248620  1
  Te  Te51  1  0.00160411  0.74899787  0.49974622  1
  Te  Te52  1  0.49872861  0.25989808  -0.00145779  1
  Te  Te53  1  0.50029277  0.25380798  0.50036814  1
  Te  Te54  1  0.49816985  0.74493683  0.01034595  1
  Te  Te55  1  0.50013465  0.74976656  0.48869937  1
  Te  Te56  1  0.00165668  -0.00118615  0.24882995  1
  Te  Te57  1  -0.00413913  -0.00008343  0.75417335  1
  Te  Te58  1  -0.00308662  0.50011944  0.25169939  1
  Te  Te59  1  -0.00139766  0.50104920  0.75420244  1
  Te  Te60  1  0.49850388  0.00103088  0.25013508  1
  Te  Te61  1  0.50024443  -0.00355709  0.76534255  1
  Te  Te62  1  0.50054919  0.49750078  0.25215213  1
  Te  Te63  1  0.50036835  0.50469096  0.75549585  1
