# generated using pymatgen
data_AgSbTe2
_symmetry_space_group_name_H-M   'P 1'
_cell_length_a   12.22929792
_cell_length_b   12.21688536
_cell_length_c   12.22304443
_cell_angle_alpha   89.97824145
_cell_angle_beta   89.99893402
_cell_angle_gamma   89.99862242
_symmetry_Int_Tables_number   1
_chemical_formula_structural   AgSbTe2
_chemical_formula_sum   'Ag16 Sb16 Te32'
_cell_volume   1826.17075001
_cell_formula_units_Z   16
loop_
 _symmetry_equiv_pos_site_id
 _symmetry_equiv_pos_as_xyz
  1  'x, y, z'
loop_
 _atom_site_type_symbol
 _atom_site_label
 _atom_site_symmetry_multiplicity
 _atom_site_fract_x
 _atom_site_fract_y
 _atom_site_fract_z
 _atom_site_occupancy
  Ag  Ag0  1  0.74778084  -0.00056194  0.24967375  1
  Ag  Ag1  1  -0.00465329  0.74699503  0.25399832  1
  Ag  Ag2  1  0.25294092  0.25277477  -0.00427451  1
  Ag  Ag3  1  0.74910241  0.48502688  0.74285927  1
  Ag  Ag4  1  0.74909525  0.25618737  0.51480895  1
  Ag  Ag5  1  0.50543985  0.00492860  -0.00048909  1
  Ag  Ag6  1  0.74941962  0.74440119  0.49775364  1
  Ag  Ag7  1  -0.00679682  0.49913426  0.50248645  1
  Ag  Ag8  1  0.50659010  0.49874917  0.50282179  1
  Ag  Ag9  1  0.51501572  0.25311989  0.75176744  1
  Ag  Ag10  1  0.50446242  0.74815322  0.25249696  1
  Ag  Ag11  1  0.74802008  0.01548401  0.75076566  1
  Ag  Ag12  1  0.25096010  0.49348062  0.74815884  1
  Ag  Ag13  1  -0.01531377  0.25405968  0.74884895  1
  Ag  Ag14  1  0.74717206  0.24827084  -0.01482446  1
  Ag  Ag15  1  0.25063870  0.49963654  0.25160302  1
  Sb  Sb16  1  0.74928982  0.50087117  0.25729270  1
  Sb  Sb17  1  0.25190349  0.00736896  0.75336283  1
  Sb  Sb18  1  0.74776276  0.75093996  0.00148907  1
  Sb  Sb19  1  0.25135146  0.25500914  0.50313243  1
  Sb  Sb20  1  0.50139212  0.49620606  -0.00208185  1
  Sb  Sb21  1  -0.00550893  0.00300624  -0.00045524  1
  Sb  Sb22  1  0.25059370  0.74511369  0.49837807  1
  Sb  Sb23  1  0.50336538  0.74727434  0.74769743  1
  Sb  Sb24  1  0.50534925  0.00186003  0.50057441  1
  Sb  Sb25  1  0.50274904  0.25158584  0.24903767  1
  Sb  Sb26  1  -0.00534707  0.00097616  0.50060442  1
  Sb  Sb27  1  0.25157551  0.00137087  0.24681210  1
  Sb  Sb28  1  -0.00324895  0.25206307  0.25215485  1
  Sb  Sb29  1  0.25288062  0.74717969  0.00091896  1
  Sb  Sb30  1  -0.00152872  0.49810095  -0.00165701  1
  Sb  Sb31  1  -0.00481310  0.74574173  0.74670997  1
  Te  Te32  1  0.24927357  0.25482340  0.24476765  1
  Te  Te33  1  0.25092311  0.25408528  0.75306578  1
  Te  Te34  1  0.25111265  0.74526590  0.24929880  1
  Te  Te35  1  0.24900885  0.74096229  0.75088914  1
  Te  Te36  1  0.75105489  0.24525100  0.24965036  1
  Te  Te37  1  0.74888076  0.25062125  0.74913874  1
  Te  Te38  1  0.74848658  0.75172200  0.25238428  1
  Te  Te39  1  0.75081563  0.75004069  0.74565621  1
  Te  Te40  1  0.25723479  0.00716623  -0.00047698  1
  Te  Te41  1  0.24950579  -0.00058188  0.50000802  1
  Te  Te42  1  0.25026699  0.49517975  -0.00070023  1
  Te  Te43  1  0.25096894  0.49925329  0.50053843  1
  Te  Te44  1  0.74635245  0.00166573  -0.00082372  1
  Te  Te45  1  0.74968065  0.00074257  0.50023480  1
  Te  Te46  1  0.74958091  0.49493069  -0.00785525  1
  Te  Te47  1  0.74909726  0.49874591  0.50028449  1
  Te  Te48  1  -0.00172818  0.24952176  -0.00425083  1
  Te  Te49  1  -0.00361382  0.25519840  0.50380200  1
  Te  Te50  1  0.00094900  0.75072739  0.00914073  1
  Te  Te51  1  -0.00470932  0.74502460  0.49603737  1
  Te  Te52  1  0.50278280  0.24771237  -0.00177263  1
  Te  Te53  1  0.50345841  0.25445460  0.50338575  1
  Te  Te54  1  0.49980442  0.75680203  0.00621397  1
  Te  Te55  1  0.50475041  0.74555077  0.49619178  1
  Te  Te56  1  -0.00437678  -0.00558950  0.25028925  1
  Te  Te57  1  -0.00460737  0.00450789  0.74998181  1
  Te  Te58  1  0.00264824  0.50309935  0.25411831  1
  Te  Te59  1  -0.00057820  0.49801431  0.74671503  1
  Te  Te60  1  0.50349570  -0.00333632  0.24861660  1
  Te  Te61  1  0.50366765  0.00241284  0.75206735  1
  Te  Te62  1  0.49759348  0.50331390  0.25304188  1
  Te  Te63  1  0.50057919  0.49820346  0.74793531  1
