# generated using pymatgen
data_AgSbTe2
_symmetry_space_group_name_H-M   'P 1'
_cell_length_a   12.22019708
_cell_length_b   12.25612775
_cell_length_c   12.23466854
_cell_angle_alpha   90.00000001
_cell_angle_beta   90.00893365
_cell_angle_gamma   89.99999999
_symmetry_Int_Tables_number   1
_chemical_formula_structural   AgSbTe2
_chemical_formula_sum   'Ag16 Sb16 Te32'
_cell_volume   1832.41438074
_cell_formula_units_Z   16
loop_
 _symmetry_equiv_pos_site_id
 _symmetry_equiv_pos_as_xyz
  1  'x, y, z'
loop_
 _atom_site_type_symbol
 _atom_site_label
 _atom_site_symmetry_multiplicity
 _atom_site_fract_x
 _atom_site_fract_y
 _atom_site_fract_z
 _atom_site_occupancy
  Ag  Ag0  1  0.00296841  0.24999998  0.75494072  1
  Ag  Ag1  1  0.00541752  0.75000000  0.75386690  1
  Ag  Ag2  1  0.49372877  0.75000001  0.74920590  1
  Ag  Ag3  1  0.49576922  0.49686118  -0.00415378  1
  Ag  Ag4  1  0.00836636  0.75000001  0.24520676  1
  Ag  Ag5  1  0.25507730  0.25000001  0.50116892  1
  Ag  Ag6  1  0.25353116  0.75000001  0.49841848  1
  Ag  Ag7  1  0.25038071  0.50197279  0.25114348  1
  Ag  Ag8  1  0.49205061  0.49945023  0.50389552  1
  Ag  Ag9  1  0.00376475  0.00004013  -0.00129515  1
  Ag  Ag10  1  0.25038073  -0.00197279  0.25114344  1
  Ag  Ag11  1  0.74884158  0.25000002  -0.00338238  1
  Ag  Ag12  1  0.00376476  0.49995988  -0.00129515  1
  Ag  Ag13  1  0.49711868  0.25000000  0.75170634  1
  Ag  Ag14  1  0.49576923  0.00313882  -0.00415379  1
  Ag  Ag15  1  0.49205053  0.00054976  0.50389554  1
  Sb  Sb16  1  0.74840518  0.00088208  0.75208486  1
  Sb  Sb17  1  0.25197309  0.50069667  0.74916868  1
  Sb  Sb18  1  0.75005578  0.50027417  0.24680944  1
  Sb  Sb19  1  0.25079039  0.25000001  -0.00306138  1
  Sb  Sb20  1  0.49447186  0.75000001  0.25068716  1
  Sb  Sb21  1  0.00541594  0.25000000  0.24542500  1
  Sb  Sb22  1  0.74674009  0.25000001  0.50341816  1
  Sb  Sb23  1  0.75076836  0.74999999  -0.00102840  1
  Sb  Sb24  1  0.24884170  0.75000001  0.00125546  1
  Sb  Sb25  1  0.00639263  0.50043533  0.50057001  1
  Sb  Sb26  1  0.74729972  0.74999997  0.50110130  1
  Sb  Sb27  1  0.00639264  -0.00043533  0.50057000  1
  Sb  Sb28  1  0.25197309  -0.00069668  0.74916867  1
  Sb  Sb29  1  0.49643711  0.25000000  0.24800455  1
  Sb  Sb30  1  0.75005578  -0.00027415  0.24680941  1
  Sb  Sb31  1  0.74840519  0.49911792  0.75208487  1
  Te  Te32  1  0.24952781  0.25000000  0.25976762  1
  Te  Te33  1  0.25117773  0.25000001  0.74302209  1
  Te  Te34  1  0.24675153  0.75000000  0.25383304  1
  Te  Te35  1  0.25053355  0.74999998  0.74281610  1
  Te  Te36  1  0.75194686  0.25000000  0.24105321  1
  Te  Te37  1  0.75056705  0.25000001  0.75532618  1
  Te  Te38  1  0.76615261  0.74999999  0.25042496  1
  Te  Te39  1  0.75294277  0.75000000  0.74921825  1
  Te  Te40  1  0.25134785  -0.00004413  0.00747435  1
  Te  Te41  1  0.25292737  -0.00083235  0.49518909  1
  Te  Te42  1  0.25134784  0.50004412  0.00747435  1
  Te  Te43  1  0.25292734  0.50083234  0.49518908  1
  Te  Te44  1  0.74832629  0.00488287  0.00132530  1
  Te  Te45  1  0.73635376  0.00079969  0.49784772  1
  Te  Te46  1  0.74832629  0.49511712  0.00132528  1
  Te  Te47  1  0.73635371  0.49920032  0.49784772  1
  Te  Te48  1  0.00236579  0.24999999  -0.00463907  1
  Te  Te49  1  0.00050897  0.25000000  0.50949245  1
  Te  Te50  1  -0.00117289  0.74999999  -0.00514790  1
  Te  Te51  1  0.00232283  0.74999999  0.50626803  1
  Te  Te52  1  0.49846729  0.24999999  -0.00328354  1
  Te  Te53  1  0.49888972  0.24999999  0.50381649  1
  Te  Te54  1  0.50086246  0.75000001  -0.00464908  1
  Te  Te55  1  0.49716744  0.75000001  0.50215030  1
  Te  Te56  1  0.00387596  -0.00173876  0.24732219  1
  Te  Te57  1  0.00020714  -0.00152059  0.75442536  1
  Te  Te58  1  0.00387595  0.50173876  0.24732219  1
  Te  Te59  1  0.00020714  0.50152059  0.75442536  1
  Te  Te60  1  0.49556411  -0.00136327  0.24567448  1
  Te  Te61  1  0.50019239  -0.00064770  0.75431719  1
  Te  Te62  1  0.49556411  0.50136328  0.24567448  1
  Te  Te63  1  0.50019237  0.50064770  0.75431718  1
