# generated using pymatgen
data_AgSbTe2
_symmetry_space_group_name_H-M   'P 1'
_cell_length_a   12.22464414
_cell_length_b   12.22800906
_cell_length_c   12.23098029
_cell_angle_alpha   90.00000113
_cell_angle_beta   90.00323822
_cell_angle_gamma   90.00435102
_symmetry_Int_Tables_number   1
_chemical_formula_structural   AgSbTe2
_chemical_formula_sum   'Ag16 Sb16 Te32'
_cell_volume   1828.32434535
_cell_formula_units_Z   16
loop_
 _symmetry_equiv_pos_site_id
 _symmetry_equiv_pos_as_xyz
  1  'x, y, z'
loop_
 _atom_site_type_symbol
 _atom_site_label
 _atom_site_symmetry_multiplicity
 _atom_site_fract_x
 _atom_site_fract_y
 _atom_site_fract_z
 _atom_site_occupancy
  Ag  Ag0  1  0.00386916  0.25374101  0.74859608  1
  Ag  Ag1  1  0.00879083  0.49849284  0.49482242  1
  Ag  Ag2  1  0.24366685  0.49893437  0.25655258  1
  Ag  Ag3  1  0.24283286  0.74143222  0.49542350  1
  Ag  Ag4  1  0.24241431  0.25803826  0.49842021  1
  Ag  Ag5  1  0.75540360  0.00166329  0.25096376  1
  Ag  Ag6  1  0.00331736  0.49283571  0.00446875  1
  Ag  Ag7  1  0.75857026  0.25127499  0.00166863  1
  Ag  Ag8  1  0.24139627  0.25487261  0.00101261  1
  Ag  Ag9  1  0.00286522  0.74651534  0.74236774  1
  Ag  Ag10  1  0.49680256  0.74658834  0.25423026  1
  Ag  Ag11  1  0.00210752  0.00149553  0.49621460  1
  Ag  Ag12  1  0.49662009  0.25292647  0.74751410  1
  Ag  Ag13  1  0.00397541  0.74516982  0.25721961  1
  Ag  Ag14  1  0.00384069  0.25517076  0.25168673  1
  Ag  Ag15  1  0.49041963  0.49812973  0.49657219  1
  Sb  Sb16  1  0.75422488  0.00356529  0.74916087  1
  Sb  Sb17  1  0.75402901  0.49749237  0.75006854  1
  Sb  Sb18  1  0.24523475  0.74372696  0.00457077  1
  Sb  Sb19  1  -0.00128513  0.00786548  0.00403117  1
  Sb  Sb20  1  0.75816014  0.49819818  0.24979457  1
  Sb  Sb21  1  0.49727123  0.25341851  0.25328736  1
  Sb  Sb22  1  0.75911085  0.25034033  0.49805183  1
  Sb  Sb23  1  0.50087954  0.00203167  0.00266418  1
  Sb  Sb24  1  0.49643337  0.74640854  0.74367244  1
  Sb  Sb25  1  0.24560292  0.00090081  0.25228787  1
  Sb  Sb26  1  0.49810076  0.00148707  0.49713284  1
  Sb  Sb27  1  0.49554897  0.49665733  0.00296315  1
  Sb  Sb28  1  0.24662563  0.00281595  0.74810970  1
  Sb  Sb29  1  0.75433167  0.74880286  0.00391860  1
  Sb  Sb30  1  0.75931376  0.74974069  0.49769494  1
  Sb  Sb31  1  0.24655471  0.49704617  0.74231912  1
  Te  Te32  1  0.24813237  0.25110630  0.25301694  1
  Te  Te33  1  0.24635571  0.25013797  0.74864167  1
  Te  Te34  1  0.24627378  0.74903391  0.25200064  1
  Te  Te35  1  0.24526995  0.75160690  0.74543360  1
  Te  Te36  1  0.75183458  0.24774454  0.24705973  1
  Te  Te37  1  0.75254682  0.24882846  0.75530568  1
  Te  Te38  1  0.75188675  0.75358466  0.24889417  1
  Te  Te39  1  0.75613715  0.75135907  0.75138599  1
  Te  Te40  1  0.25025740  0.01106670  0.00011722  1
  Te  Te41  1  0.24474086  0.00143160  0.49943306  1
  Te  Te42  1  0.24543480  0.49485214  0.00835579  1
  Te  Te43  1  0.24716976  0.49865696  0.49660624  1
  Te  Te44  1  0.75023256  0.00654306  0.00622816  1
  Te  Te45  1  0.75599330  0.00005016  0.49397456  1
  Te  Te46  1  0.75622546  0.49381413  0.00022839  1
  Te  Te47  1  0.74823311  0.49985727  0.49965999  1
  Te  Te48  1  0.00187751  0.25107811  -0.00031540  1
  Te  Te49  1  0.00101623  0.25306845  0.49967581  1
  Te  Te50  1  0.00128524  0.74428699  0.00026811  1
  Te  Te51  1  0.00203389  0.74662002  0.49832221  1
  Te  Te52  1  0.49818924  0.25171188  -0.00462485  1
  Te  Te53  1  0.49491254  0.25250234  0.50250543  1
  Te  Te54  1  0.49942506  0.74954131  0.00325086  1
  Te  Te55  1  0.49379749  0.74763793  0.49942611  1
  Te  Te56  1  -0.00218213  0.00010340  0.25308615  1
  Te  Te57  1  -0.00093238  0.00073847  0.74349665  1
  Te  Te58  1  0.00133421  0.49862483  0.25253545  1
  Te  Te59  1  0.00029171  0.49802125  0.74874542  1
  Te  Te60  1  0.50673667  -0.00729632  0.25113591  1
  Te  Te61  1  0.50186889  0.00576633  0.75010333  1
  Te  Te62  1  0.49532982  0.50362203  0.25401983  1
  Te  Te63  1  0.50126199  0.49651966  0.74456541  1
