# generated using pymatgen
data_AgSbTe2
_symmetry_space_group_name_H-M   'P 1'
_cell_length_a   12.21209927
_cell_length_b   12.20735433
_cell_length_c   12.21070041
_cell_angle_alpha   89.99101492
_cell_angle_beta   89.99686042
_cell_angle_gamma   90.00026175
_symmetry_Int_Tables_number   1
_chemical_formula_structural   AgSbTe2
_chemical_formula_sum   'Ag16 Sb16 Te32'
_cell_volume   1820.33972263
_cell_formula_units_Z   16
loop_
 _symmetry_equiv_pos_site_id
 _symmetry_equiv_pos_as_xyz
  1  'x, y, z'
loop_
 _atom_site_type_symbol
 _atom_site_label
 _atom_site_symmetry_multiplicity
 _atom_site_fract_x
 _atom_site_fract_y
 _atom_site_fract_z
 _atom_site_occupancy
  Ag  Ag0  1  -0.00431579  -0.00078269  0.49900086  1
  Ag  Ag1  1  0.00246943  0.75020079  0.25256308  1
  Ag  Ag2  1  -0.00860431  0.24781046  0.74646957  1
  Ag  Ag3  1  -0.00341465  0.50082930  0.49717023  1
  Ag  Ag4  1  0.75286462  0.00637301  0.74874095  1
  Ag  Ag5  1  0.24578876  0.74912486  0.49231480  1
  Ag  Ag6  1  0.75378345  0.50241515  0.25414543  1
  Ag  Ag7  1  0.49809219  0.75096379  0.24931924  1
  Ag  Ag8  1  0.75309651  -0.00212157  0.25069642  1
  Ag  Ag9  1  0.50261580  -0.00188051  0.00070908  1
  Ag  Ag10  1  -0.00289673  -0.00204746  0.00112060  1
  Ag  Ag11  1  0.75269122  0.49344477  0.74574574  1
  Ag  Ag12  1  0.75355840  0.24987795  0.50535136  1
  Ag  Ag13  1  0.50888815  0.24810664  0.74954836  1
  Ag  Ag14  1  0.24879119  0.75141294  0.00730251  1
  Ag  Ag15  1  0.24689854  0.50766795  0.25209865  1
  Sb  Sb16  1  0.75490507  0.74991503  0.49586159  1
  Sb  Sb17  1  0.75174846  0.75400414  0.00448929  1
  Sb  Sb18  1  0.24611426  -0.00909213  0.25035363  1
  Sb  Sb19  1  0.24856497  0.24837438  0.00140647  1
  Sb  Sb20  1  0.50447803  0.50063502  0.49934083  1
  Sb  Sb21  1  0.24616374  0.25041251  0.49896581  1
  Sb  Sb22  1  0.50006084  0.50246282  0.00080479  1
  Sb  Sb23  1  0.24718930  0.50024802  0.74763311  1
  Sb  Sb24  1  0.50453524  0.24792587  0.24957208  1
  Sb  Sb25  1  0.75100918  0.24683355  -0.00767373  1
  Sb  Sb26  1  0.50178960  0.75220047  0.75129592  1
  Sb  Sb27  1  0.50546193  -0.00113086  0.49908188  1
  Sb  Sb28  1  -0.00025413  0.50296741  0.00243487  1
  Sb  Sb29  1  -0.00382003  0.24897062  0.25296222  1
  Sb  Sb30  1  -0.00140121  0.75210860  0.74753220  1
  Sb  Sb31  1  0.24664014  0.00003887  0.74945514  1
  Te  Te32  1  0.25178509  0.26222367  0.25081237  1
  Te  Te33  1  0.25070312  0.25182477  0.74929479  1
  Te  Te34  1  0.24864236  0.74817189  0.25043446  1
  Te  Te35  1  0.25096080  0.74832421  0.75034650  1
  Te  Te36  1  0.74898864  0.25107370  0.25729968  1
  Te  Te37  1  0.75110495  0.24934109  0.74780087  1
  Te  Te38  1  0.75063234  0.74947806  0.25094681  1
  Te  Te39  1  0.74901726  0.74940645  0.74933668  1
  Te  Te40  1  0.24914942  -0.00486660  0.00057418  1
  Te  Te41  1  0.24157139  -0.00400883  0.49958169  1
  Te  Te42  1  0.24928635  0.50666006  0.00507139  1
  Te  Te43  1  0.24383650  0.50287361  0.49667717  1
  Te  Te44  1  0.75170866  -0.00069514  0.00095200  1
  Te  Te45  1  0.75421239  0.00096241  0.49995581  1
  Te  Te46  1  0.75080669  0.50051731  0.00193190  1
  Te  Te47  1  0.75407240  0.49908271  0.49861108  1
  Te  Te48  1  0.00183268  0.24184260  -0.00740342  1
  Te  Te49  1  -0.00308001  0.24923611  0.50335136  1
  Te  Te50  1  0.00483896  0.75474991  0.00436065  1
  Te  Te51  1  0.00354446  0.75021153  0.49724213  1
  Te  Te52  1  0.49808507  0.24209415  -0.00556770  1
  Te  Te53  1  0.50500653  0.24907977  0.50599621  1
  Te  Te54  1  0.49436176  0.75487198  0.00356201  1
  Te  Te55  1  0.49037382  0.75091751  0.49441739  1
  Te  Te56  1  -0.00342182  -0.00129888  0.25027753  1
  Te  Te57  1  -0.00384666  0.00171447  0.74931964  1
  Te  Te58  1  -0.00360203  0.50134951  0.25178927  1
  Te  Te59  1  -0.00457978  0.49724236  0.74723547  1
  Te  Te60  1  0.50549419  -0.00320741  0.24684070  1
  Te  Te61  1  0.50561628  0.00270071  0.75315529  1
  Te  Te62  1  0.50307426  0.50454746  0.24928324  1
  Te  Te63  1  0.50633174  0.49530914  0.75069985  1
