# generated using pymatgen
data_AgSbTe2
_symmetry_space_group_name_H-M   'P 1'
_cell_length_a   12.21417002
_cell_length_b   12.21471920
_cell_length_c   12.20897440
_cell_angle_alpha   90.00793162
_cell_angle_beta   89.99123960
_cell_angle_gamma   90.00820332
_symmetry_Int_Tables_number   1
_chemical_formula_structural   AgSbTe2
_chemical_formula_sum   'Ag16 Sb16 Te32'
_cell_volume   1821.48927344
_cell_formula_units_Z   16
loop_
 _symmetry_equiv_pos_site_id
 _symmetry_equiv_pos_as_xyz
  1  'x, y, z'
loop_
 _atom_site_type_symbol
 _atom_site_label
 _atom_site_symmetry_multiplicity
 _atom_site_fract_x
 _atom_site_fract_y
 _atom_site_fract_z
 _atom_site_occupancy
  Ag  Ag0  1  0.75012367  0.75322398  0.00693808  1
  Ag  Ag1  1  0.49773725  0.00162684  0.49537425  1
  Ag  Ag2  1  0.75024317  0.24867571  0.49133021  1
  Ag  Ag3  1  0.49985747  0.75436108  0.25098087  1
  Ag  Ag4  1  0.49911174  0.24567947  0.74960651  1
  Ag  Ag5  1  0.00015431  0.49738798  0.49258704  1
  Ag  Ag6  1  0.25197673  0.00299685  0.74966911  1
  Ag  Ag7  1  -0.00347478  0.24899739  0.24833163  1
  Ag  Ag8  1  0.75232397  0.49401932  0.25041856  1
  Ag  Ag9  1  0.24747053  0.49750163  0.25173815  1
  Ag  Ag10  1  0.25082655  0.00213605  0.25027484  1
  Ag  Ag11  1  0.24861709  0.24506476  0.00531072  1
  Ag  Ag12  1  0.75228622  0.24602866  0.00926208  1
  Ag  Ag13  1  0.74984258  0.00560815  0.24745528  1
  Ag  Ag14  1  -0.00046731  0.00407383  0.00552331  1
  Ag  Ag15  1  0.25098386  0.75338541  0.49436220  1
  Sb  Sb16  1  0.25012929  0.24729549  0.49363935  1
  Sb  Sb17  1  0.74859670  0.75091471  0.49251240  1
  Sb  Sb18  1  0.50476410  0.24516377  0.25077889  1
  Sb  Sb19  1  0.24998602  0.49691924  0.74808208  1
  Sb  Sb20  1  0.00112959  0.75276425  0.75017257  1
  Sb  Sb21  1  0.50040116  0.49868309  0.00458466  1
  Sb  Sb22  1  0.74777749  0.00303368  0.75222995  1
  Sb  Sb23  1  0.00179892  0.24733602  0.75239172  1
  Sb  Sb24  1  0.75022353  0.49669487  0.74890303  1
  Sb  Sb25  1  0.50090133  0.00145792  0.00480461  1
  Sb  Sb26  1  -0.00036351  0.49553376  0.00737255  1
  Sb  Sb27  1  0.49974632  0.49762487  0.49544187  1
  Sb  Sb28  1  0.25005931  0.75460234  0.00625387  1
  Sb  Sb29  1  -0.00008899  0.75098277  0.24970223  1
  Sb  Sb30  1  0.49806542  0.75465951  0.74822750  1
  Sb  Sb31  1  0.00107156  0.00242881  0.49374927  1
  Te  Te32  1  0.25008355  0.24877648  0.24809864  1
  Te  Te33  1  0.25284518  0.24551861  0.75476061  1
  Te  Te34  1  0.25242100  0.75143462  0.25163304  1
  Te  Te35  1  0.25179407  0.75576934  0.74522443  1
  Te  Te36  1  0.74756157  0.24907017  0.24847810  1
  Te  Te37  1  0.74575981  0.25036107  0.75135482  1
  Te  Te38  1  0.74778942  0.75114876  0.24746120  1
  Te  Te39  1  0.74834068  0.74934417  0.75946294  1
  Te  Te40  1  0.24834378  0.00203941  0.00393862  1
  Te  Te41  1  0.25060113  -0.00135200  0.49607012  1
  Te  Te42  1  0.24846513  0.49560793  0.00639966  1
  Te  Te43  1  0.24760548  0.50260747  0.49513170  1
  Te  Te44  1  0.75153519  0.00398072  0.00306071  1
  Te  Te45  1  0.74902116  0.00265639  0.49632527  1
  Te  Te46  1  0.75126824  0.49714161  0.00643950  1
  Te  Te47  1  0.75295513  0.49765926  0.49477718  1
  Te  Te48  1  -0.00109940  0.24676048  0.00352502  1
  Te  Te49  1  -0.00467930  0.25246981  0.49528897  1
  Te  Te50  1  -0.00589962  0.75619564  -0.00041919  1
  Te  Te51  1  0.00501604  0.74516450  0.50044469  1
  Te  Te52  1  0.50033649  0.24957527  -0.00491195  1
  Te  Te53  1  0.50405819  0.24570747  0.50328936  1
  Te  Te54  1  0.50561665  0.74978578  0.00498990  1
  Te  Te55  1  0.49677078  0.75522472  0.49674500  1
  Te  Te56  1  -0.00002333  0.00405182  0.24744574  1
  Te  Te57  1  0.00757067  0.00053126  0.75669346  1
  Te  Te58  1  -0.00010234  0.49572616  0.25301546  1
  Te  Te59  1  0.00104129  0.50020993  0.73968010  1
  Te  Te60  1  0.49916056  -0.00366652  0.25448970  1
  Te  Te61  1  0.49524551  0.00389403  0.74320456  1
  Te  Te62  1  0.49986232  0.50760929  0.25132553  1
  Te  Te63  1  0.49892368  0.49213416  0.74856771  1
