# generated using pymatgen
data_AgSbTe2
_symmetry_space_group_name_H-M   'P 1'
_cell_length_a   12.23665081
_cell_length_b   12.21543032
_cell_length_c   12.21783074
_cell_angle_alpha   89.99429991
_cell_angle_beta   90.00248974
_cell_angle_gamma   90.00329859
_symmetry_Int_Tables_number   1
_chemical_formula_structural   AgSbTe2
_chemical_formula_sum   'Ag16 Sb16 Te32'
_cell_volume   1826.27190805
_cell_formula_units_Z   16
loop_
 _symmetry_equiv_pos_site_id
 _symmetry_equiv_pos_as_xyz
  1  'x, y, z'
loop_
 _atom_site_type_symbol
 _atom_site_label
 _atom_site_symmetry_multiplicity
 _atom_site_fract_x
 _atom_site_fract_y
 _atom_site_fract_z
 _atom_site_occupancy
  Ag  Ag0  1  0.00186992  0.74897138  0.25051143  1
  Ag  Ag1  1  0.49813335  0.00912033  0.00336163  1
  Ag  Ag2  1  0.50249704  0.49857300  0.49590207  1
  Ag  Ag3  1  0.75035622  0.25059336  0.00190847  1
  Ag  Ag4  1  0.74840184  0.49435794  0.74883421  1
  Ag  Ag5  1  0.00187759  0.00842977  0.00473252  1
  Ag  Ag6  1  0.24788253  0.00567664  0.24596848  1
  Ag  Ag7  1  0.24977422  0.74728167  0.49376962  1
  Ag  Ag8  1  0.74979313  0.74363704  0.49626346  1
  Ag  Ag9  1  0.24965378  0.24698715  0.00736351  1
  Ag  Ag10  1  0.74937034  0.49600794  0.25223724  1
  Ag  Ag11  1  0.25011355  0.49461325  0.25104494  1
  Ag  Ag12  1  0.50233760  0.25245079  0.75710936  1
  Ag  Ag13  1  0.00334748  0.25031068  0.24157863  1
  Ag  Ag14  1  0.49667789  0.25241697  0.24339080  1
  Ag  Ag15  1  -0.00246019  0.25089728  0.75872195  1
  Sb  Sb16  1  -0.00183524  0.50055665  0.49645697  1
  Sb  Sb17  1  -0.00185412  0.74871078  0.75107029  1
  Sb  Sb18  1  0.49913720  0.74738162  0.25107775  1
  Sb  Sb19  1  0.25129682  0.49518695  0.74829663  1
  Sb  Sb20  1  0.25126465  0.25223700  0.49105542  1
  Sb  Sb21  1  0.50037802  0.49074152  0.00358665  1
  Sb  Sb22  1  0.49774014  0.00160804  0.49799673  1
  Sb  Sb23  1  0.24785696  0.75185182  0.00597308  1
  Sb  Sb24  1  0.50164920  0.74748847  0.74974589  1
  Sb  Sb25  1  0.74845049  0.25526952  0.49863439  1
  Sb  Sb26  1  0.75010854  0.00595695  0.75168139  1
  Sb  Sb27  1  0.00175137  0.00056799  0.49597333  1
  Sb  Sb28  1  0.24984811  0.00292714  0.75374261  1
  Sb  Sb29  1  0.00001072  0.49064606  0.00337582  1
  Sb  Sb30  1  0.75144450  0.00403088  0.24790749  1
  Sb  Sb31  1  0.75193013  0.74787255  0.00290293  1
  Te  Te32  1  0.24883848  0.25125152  0.24849948  1
  Te  Te33  1  0.24974090  0.25119952  0.75608588  1
  Te  Te34  1  0.24759118  0.74770560  0.25200350  1
  Te  Te35  1  0.24868362  0.74924400  0.74087041  1
  Te  Te36  1  0.75109713  0.25367264  0.24889064  1
  Te  Te37  1  0.74983415  0.25423043  0.75045037  1
  Te  Te38  1  0.75314833  0.74408665  0.25157815  1
  Te  Te39  1  0.75131163  0.74072322  0.74613911  1
  Te  Te40  1  0.24986496  0.00223355  0.00385162  1
  Te  Te41  1  0.25093016  -0.00626471  0.49217390  1
  Te  Te42  1  0.25094239  0.49655724  0.00621624  1
  Te  Te43  1  0.25534625  0.50299910  0.49528336  1
  Te  Te44  1  0.74954761  0.00518281  0.00013428  1
  Te  Te45  1  0.74958043  -0.01215289  0.50068945  1
  Te  Te46  1  0.74942324  0.49557817  0.00142583  1
  Te  Te47  1  0.74625817  0.50248263  0.49642796  1
  Te  Te48  1  -0.00043868  0.24793610  0.00276858  1
  Te  Te49  1  0.00018734  0.24843197  0.50024283  1
  Te  Te50  1  -0.00036606  0.76072191  0.00532004  1
  Te  Te51  1  0.00043859  0.75090717  0.49553989  1
  Te  Te52  1  0.50053788  0.24869607  0.00204905  1
  Te  Te53  1  0.49970933  0.25365414  0.49929581  1
  Te  Te54  1  0.50026026  0.76329996  -0.00189668  1
  Te  Te55  1  0.50078121  0.74646503  0.50055413  1
  Te  Te56  1  0.00152866  0.00312843  0.24744353  1
  Te  Te57  1  -0.00001352  0.00654878  0.75626944  1
  Te  Te58  1  0.00008865  0.49844675  0.25009615  1
  Te  Te59  1  -0.00444982  0.49460538  0.74953702  1
  Te  Te60  1  0.49733575  0.00494479  0.24740677  1
  Te  Te61  1  0.50001984  0.00736552  0.75371350  1
  Te  Te62  1  0.50091215  0.49693875  0.25231768  1
  Te  Te63  1  0.50252602  0.49582062  0.74644641  1
