# generated using pymatgen
data_AgSbTe2
_symmetry_space_group_name_H-M   'P 1'
_cell_length_a   12.20327393
_cell_length_b   12.20555420
_cell_length_c   12.20165504
_cell_angle_alpha   89.99653536
_cell_angle_beta   90.00010047
_cell_angle_gamma   89.99965151
_symmetry_Int_Tables_number   1
_chemical_formula_structural   AgSbTe2
_chemical_formula_sum   'Ag16 Sb16 Te32'
_cell_volume   1817.40871098
_cell_formula_units_Z   16
loop_
 _symmetry_equiv_pos_site_id
 _symmetry_equiv_pos_as_xyz
  1  'x, y, z'
loop_
 _atom_site_type_symbol
 _atom_site_label
 _atom_site_symmetry_multiplicity
 _atom_site_fract_x
 _atom_site_fract_y
 _atom_site_fract_z
 _atom_site_occupancy
  Ag  Ag0  1  -0.00549787  0.75015440  0.25293993  1
  Ag  Ag1  1  0.74800375  0.24660560  0.00238208  1
  Ag  Ag2  1  0.25129751  0.49866443  0.75043714  1
  Ag  Ag3  1  -0.00322855  0.50141986  0.49565971  1
  Ag  Ag4  1  0.75095974  0.24980021  0.49710927  1
  Ag  Ag5  1  0.50321656  0.00216294  0.00119582  1
  Ag  Ag6  1  -0.00533232  -0.00160609  0.49549092  1
  Ag  Ag7  1  0.50582624  0.75004970  0.24991523  1
  Ag  Ag8  1  0.75185111  0.50344771  0.25282743  1
  Ag  Ag9  1  0.75208104  0.75012567  0.49359669  1
  Ag  Ag10  1  0.50130256  0.74985114  0.75049648  1
  Ag  Ag11  1  0.50055887  0.25013868  0.75322402  1
  Ag  Ag12  1  0.24830741  0.50064547  0.24993587  1
  Ag  Ag13  1  0.75240284  -0.00278903  0.24974597  1
  Ag  Ag14  1  -0.00353116  0.00105208  0.00432139  1
  Ag  Ag15  1  0.25164670  0.25033104  -0.00004439  1
  Sb  Sb16  1  0.24755514  0.74847641  0.49912558  1
  Sb  Sb17  1  0.50033292  0.49657865  0.00034610  1
  Sb  Sb18  1  0.24745146  -0.00014797  0.24798923  1
  Sb  Sb19  1  0.50485754  0.50037118  0.49896418  1
  Sb  Sb20  1  0.74895104  -0.00000878  0.75144038  1
  Sb  Sb21  1  0.25245318  0.00155460  0.75138711  1
  Sb  Sb22  1  0.50680311  -0.00069140  0.49704652  1
  Sb  Sb23  1  -0.00308060  0.24902628  0.25019631  1
  Sb  Sb24  1  -0.00005781  0.25112049  0.75054902  1
  Sb  Sb25  1  0.74884977  0.50008317  0.74736814  1
  Sb  Sb26  1  0.25014048  0.25285886  0.49996697  1
  Sb  Sb27  1  0.50356412  0.24907788  0.24605506  1
  Sb  Sb28  1  -0.00192153  0.74855761  0.74731969  1
  Sb  Sb29  1  0.74876611  0.75481025  0.00898830  1
  Sb  Sb30  1  0.25110129  0.74894236  0.00065825  1
  Sb  Sb31  1  -0.00103025  0.49995273  0.00598432  1
  Te  Te32  1  0.25232861  0.25719490  0.24551822  1
  Te  Te33  1  0.25525111  0.25473301  0.75335688  1
  Te  Te34  1  0.25102296  0.74357000  0.24990536  1
  Te  Te35  1  0.25744731  0.74322206  0.74993672  1
  Te  Te36  1  0.74803968  0.24970333  0.25055554  1
  Te  Te37  1  0.74427585  0.25121875  0.75051113  1
  Te  Te38  1  0.74961458  0.74967416  0.25102656  1
  Te  Te39  1  0.74362168  0.74826190  0.74229866  1
  Te  Te40  1  0.24982900  0.00709776  0.00110175  1
  Te  Te41  1  0.23904191  0.00143102  0.49940448  1
  Te  Te42  1  0.24911323  0.49374667  0.00096025  1
  Te  Te43  1  0.24290920  0.49813731  0.49805865  1
  Te  Te44  1  0.75023519  0.00359239  0.00314418  1
  Te  Te45  1  0.75396940  0.00076121  0.49592692  1
  Te  Te46  1  0.75153772  0.49161803  0.00627772  1
  Te  Te47  1  0.75374961  0.49918331  0.49604590  1
  Te  Te48  1  -0.00104202  0.24395264  -0.00096331  1
  Te  Te49  1  -0.00604437  0.24950672  0.50088965  1
  Te  Te50  1  -0.00026140  0.75682469  0.00429026  1
  Te  Te51  1  -0.00396489  0.75037096  0.49733055  1
  Te  Te52  1  0.50148599  0.24680691  -0.00282414  1
  Te  Te53  1  0.50588521  0.24871622  0.50694561  1
  Te  Te54  1  0.50049657  0.75612675  -0.00032912  1
  Te  Te55  1  0.50552960  0.75120458  0.49949350  1
  Te  Te56  1  -0.00204424  -0.00348548  0.24996902  1
  Te  Te57  1  0.00070518  -0.00158014  0.75061357  1
  Te  Te58  1  -0.00097647  0.50428058  0.25256035  1
  Te  Te59  1  0.00624106  0.50186988  0.74367814  1
  Te  Te60  1  0.50283900  -0.00505435  0.24636100  1
  Te  Te61  1  0.49903880  -0.00095964  0.75545531  1
  Te  Te62  1  0.50021556  0.50643444  0.25007989  1
  Te  Te63  1  0.49530894  0.50122330  0.74980208  1
