# generated using pymatgen
data_AgSbTe2
_symmetry_space_group_name_H-M   'P 1'
_cell_length_a   12.21558076
_cell_length_b   12.21742015
_cell_length_c   12.21224345
_cell_angle_alpha   90.00029665
_cell_angle_beta   89.99581547
_cell_angle_gamma   90.00467668
_symmetry_Int_Tables_number   1
_chemical_formula_structural   AgSbTe2
_chemical_formula_sum   'Ag16 Sb16 Te32'
_cell_volume   1822.59040326
_cell_formula_units_Z   16
loop_
 _symmetry_equiv_pos_site_id
 _symmetry_equiv_pos_as_xyz
  1  'x, y, z'
loop_
 _atom_site_type_symbol
 _atom_site_label
 _atom_site_symmetry_multiplicity
 _atom_site_fract_x
 _atom_site_fract_y
 _atom_site_fract_z
 _atom_site_occupancy
  Ag  Ag0  1  0.25135214  0.49822333  0.74971675  1
  Ag  Ag1  1  0.49612044  0.50005904  0.49461836  1
  Ag  Ag2  1  0.74920761  0.50161060  0.75066824  1
  Ag  Ag3  1  0.24777087  0.00174254  0.74923109  1
  Ag  Ag4  1  0.49691700  0.74223658  0.24853830  1
  Ag  Ag5  1  0.00283745  0.00004086  0.49725986  1
  Ag  Ag6  1  0.75162821  -0.00136790  0.74998912  1
  Ag  Ag7  1  0.49103071  0.25770241  0.24851237  1
  Ag  Ag8  1  0.25334791  0.49564034  0.25017395  1
  Ag  Ag9  1  0.49706383  0.50009214  0.00556601  1
  Ag  Ag10  1  0.25100117  0.25293518  0.00610296  1
  Ag  Ag11  1  0.00875294  0.25219887  0.25128438  1
  Ag  Ag12  1  0.24734116  0.00448103  0.25041428  1
  Ag  Ag13  1  0.00333738  0.74766990  0.25112102  1
  Ag  Ag14  1  0.00328132  0.49995691  0.49602030  1
  Ag  Ag15  1  0.74878130  0.74737318  0.00037932  1
  Sb  Sb16  1  0.24972335  0.25252697  0.49162166  1
  Sb  Sb17  1  0.25177171  0.74647659  0.00467924  1
  Sb  Sb18  1  0.00014736  0.74892937  0.74924012  1
  Sb  Sb19  1  0.00352352  0.25096593  0.74816993  1
  Sb  Sb20  1  0.49615364  0.25318597  0.75083777  1
  Sb  Sb21  1  0.75024172  0.25138849  0.49970492  1
  Sb  Sb22  1  0.24961042  0.74759447  0.49633175  1
  Sb  Sb23  1  0.49754871  -0.00003249  0.49738331  1
  Sb  Sb24  1  0.49856140  -0.00019621  0.00171631  1
  Sb  Sb25  1  0.74827022  0.25226717  0.00021084  1
  Sb  Sb26  1  0.74602409  0.50125763  0.24900749  1
  Sb  Sb27  1  0.75026598  0.74845851  0.50004676  1
  Sb  Sb28  1  0.75353176  -0.00188712  0.25062340  1
  Sb  Sb29  1  0.00264913  0.50011279  0.00545696  1
  Sb  Sb30  1  0.00127051  -0.00017797  0.00314400  1
  Sb  Sb31  1  0.50019472  0.74659117  0.75160159  1
  Te  Te32  1  0.25013317  0.25113320  0.24778599  1
  Te  Te33  1  0.24985233  0.25026561  0.75893612  1
  Te  Te34  1  0.24975571  0.74958980  0.24714717  1
  Te  Te35  1  0.24962205  0.75072871  0.75342432  1
  Te  Te36  1  0.75044692  0.24825207  0.24858040  1
  Te  Te37  1  0.75032314  0.24950294  0.75155141  1
  Te  Te38  1  0.74986301  0.75159866  0.24465723  1
  Te  Te39  1  0.75023980  0.74952315  0.75543055  1
  Te  Te40  1  0.25079502  0.00451373  -0.00097735  1
  Te  Te41  1  0.24602802  -0.00027781  0.50182029  1
  Te  Te42  1  0.25274019  0.49797353  -0.00008406  1
  Te  Te43  1  0.24929926  0.50006543  0.50100507  1
  Te  Te44  1  0.74986763  -0.00346573  -0.00731383  1
  Te  Te45  1  0.75481145  -0.00061447  0.50700521  1
  Te  Te46  1  0.74597682  0.50211025  -0.00605354  1
  Te  Te47  1  0.75161630  0.50068122  0.50794074  1
  Te  Te48  1  0.00479170  0.25045152  0.00856264  1
  Te  Te49  1  -0.00077891  0.25126204  0.49338291  1
  Te  Te50  1  -0.00632545  0.74943906  0.00799727  1
  Te  Te51  1  -0.00085896  0.74870212  0.49291260  1
  Te  Te52  1  0.49704888  0.25514091  0.00567536  1
  Te  Te53  1  0.50110521  0.25659852  0.49194952  1
  Te  Te54  1  0.50344906  0.74497595  0.00551416  1
  Te  Te55  1  0.50148054  0.74348467  0.49129005  1
  Te  Te56  1  0.00315762  -0.00028126  0.25325508  1
  Te  Te57  1  0.00344602  -0.00010178  0.74420840  1
  Te  Te58  1  0.00075113  0.50035239  0.25277350  1
  Te  Te59  1  0.00262861  0.50020328  0.74326259  1
  Te  Te60  1  0.49444301  -0.00019028  0.25237535  1
  Te  Te61  1  0.49726283  -0.00011919  0.74772812  1
  Te  Te62  1  0.50110978  0.50030627  0.25054376  1
  Te  Te63  1  0.49665845  0.50013923  0.74834060  1
