# generated using pymatgen
data_AgSbTe2
_symmetry_space_group_name_H-M   'P 1'
_cell_length_a   12.21178560
_cell_length_b   12.20893163
_cell_length_c   12.21318440
_cell_angle_alpha   90.00287421
_cell_angle_beta   89.99651424
_cell_angle_gamma   89.99921369
_symmetry_Int_Tables_number   1
_chemical_formula_structural   AgSbTe2
_chemical_formula_sum   'Ag16 Sb16 Te32'
_cell_volume   1820.89853131
_cell_formula_units_Z   16
loop_
 _symmetry_equiv_pos_site_id
 _symmetry_equiv_pos_as_xyz
  1  'x, y, z'
loop_
 _atom_site_type_symbol
 _atom_site_label
 _atom_site_symmetry_multiplicity
 _atom_site_fract_x
 _atom_site_fract_y
 _atom_site_fract_z
 _atom_site_occupancy
  Ag  Ag0  1  0.24902544  0.75051914  0.00033712  1
  Ag  Ag1  1  0.00230210  0.24353403  0.24827149  1
  Ag  Ag2  1  0.00036248  -0.00193908  0.00386170  1
  Ag  Ag3  1  0.75182486  0.24663764  0.49803407  1
  Ag  Ag4  1  -0.00215508  0.00147563  0.49651368  1
  Ag  Ag5  1  0.25041727  0.49826064  0.24295194  1
  Ag  Ag6  1  0.49927957  -0.00171282  0.00175459  1
  Ag  Ag7  1  0.49827399  0.49861205  0.49933950  1
  Ag  Ag8  1  0.75576934  0.00153778  0.24527068  1
  Ag  Ag9  1  0.24912889  0.24939937  0.00383580  1
  Ag  Ag10  1  0.24464239  0.00226824  0.24246718  1
  Ag  Ag11  1  0.25075507  0.50126690  0.75666339  1
  Ag  Ag12  1  0.75381441  -0.00139927  0.75489277  1
  Ag  Ag13  1  0.00047006  0.75363948  0.75483996  1
  Ag  Ag14  1  0.49316366  0.50114683  0.00073564  1
  Ag  Ag15  1  0.75159043  0.75676919  -0.00087074  1
  Sb  Sb16  1  0.50219351  0.00142184  0.49868471  1
  Sb  Sb17  1  0.00130019  0.75865120  0.24416352  1
  Sb  Sb18  1  0.00839592  0.50283500  0.00074550  1
  Sb  Sb19  1  0.75165327  0.24213339  0.00202401  1
  Sb  Sb20  1  0.74988569  0.50157717  0.75305574  1
  Sb  Sb21  1  0.49892625  0.25000796  0.75158264  1
  Sb  Sb22  1  0.49682694  0.24970921  0.24836346  1
  Sb  Sb23  1  0.49883498  0.75016455  0.24606523  1
  Sb  Sb24  1  0.24782150  0.24942257  0.49615191  1
  Sb  Sb25  1  0.75255892  0.75300369  0.50063601  1
  Sb  Sb26  1  0.24783271  0.75084954  0.50006267  1
  Sb  Sb27  1  0.75021236  0.49799695  0.24678355  1
  Sb  Sb28  1  0.49922218  0.74994914  0.75477029  1
  Sb  Sb29  1  0.00068576  0.24641244  0.75253127  1
  Sb  Sb30  1  0.24603445  -0.00193543  0.75974016  1
  Sb  Sb31  1  0.00092103  0.49840615  0.49880334  1
  Te  Te32  1  0.24638808  0.24876043  0.24663488  1
  Te  Te33  1  0.24884165  0.25577483  0.75591949  1
  Te  Te34  1  0.24869548  0.74968878  0.24423097  1
  Te  Te35  1  0.24548125  0.74689743  0.75511546  1
  Te  Te36  1  0.75608456  0.24645001  0.25241822  1
  Te  Te37  1  0.75170588  0.24526170  0.74524516  1
  Te  Te38  1  0.75160607  0.75543710  0.24403419  1
  Te  Te39  1  0.75491832  0.75330620  0.75451392  1
  Te  Te40  1  0.25028455  -0.00096896  0.00070853  1
  Te  Te41  1  0.24843166  0.00051371  0.49308455  1
  Te  Te42  1  0.25139108  0.50118522  0.00167018  1
  Te  Te43  1  0.25374060  0.49963850  0.49867327  1
  Te  Te44  1  0.74994394  -0.00013255  0.00120686  1
  Te  Te45  1  0.75005140  0.00195322  0.49838632  1
  Te  Te46  1  0.74120833  0.50561244  0.00023262  1
  Te  Te47  1  0.74535599  0.49617463  0.49962680  1
  Te  Te48  1  0.00289353  0.24535942  0.00332906  1
  Te  Te49  1  -0.00283481  0.24529635  0.49663620  1
  Te  Te50  1  0.00063205  0.75277103  -0.00295092  1
  Te  Te51  1  -0.00059319  0.75633075  0.50794924  1
  Te  Te52  1  0.49533129  0.25013170  -0.00002540  1
  Te  Te53  1  0.50507115  0.25471300  0.50024657  1
  Te  Te54  1  0.49860556  0.75107359  -0.00098373  1
  Te  Te55  1  0.50036287  0.74196060  0.50167668  1
  Te  Te56  1  0.00071148  0.00097774  0.24830903  1
  Te  Te57  1  -0.00211866  -0.00249825  0.75097419  1
  Te  Te58  1  0.00520484  0.49237912  0.25152011  1
  Te  Te59  1  0.00449325  0.50528778  0.74890139  1
  Te  Te60  1  0.49919134  0.00000254  0.24569788  1
  Te  Te61  1  0.50600269  0.00024207  0.75401737  1
  Te  Te62  1  0.49525017  0.50009781  0.24747163  1
  Te  Te63  1  0.49569711  0.49970091  0.75246651  1
