# generated using pymatgen
data_AgSbTe2
_symmetry_space_group_name_H-M   'P 1'
_cell_length_a   12.21931889
_cell_length_b   12.22238565
_cell_length_c   12.22026774
_cell_angle_alpha   89.99583062
_cell_angle_beta   89.99246277
_cell_angle_gamma   89.99570019
_symmetry_Int_Tables_number   1
_chemical_formula_structural   AgSbTe2
_chemical_formula_sum   'Ag16 Sb16 Te32'
_cell_volume   1825.08752530
_cell_formula_units_Z   16
loop_
 _symmetry_equiv_pos_site_id
 _symmetry_equiv_pos_as_xyz
  1  'x, y, z'
loop_
 _atom_site_type_symbol
 _atom_site_label
 _atom_site_symmetry_multiplicity
 _atom_site_fract_x
 _atom_site_fract_y
 _atom_site_fract_z
 _atom_site_occupancy
  Ag  Ag0  1  0.00164267  0.50174181  0.00632089  1
  Ag  Ag1  1  0.00341098  0.75420438  0.24999414  1
  Ag  Ag2  1  0.49653914  0.75405220  0.24996188  1
  Ag  Ag3  1  0.75302396  0.00109263  0.24947892  1
  Ag  Ag4  1  0.24890126  0.24399692  0.49474027  1
  Ag  Ag5  1  0.49220390  0.00109230  0.49228494  1
  Ag  Ag6  1  0.00452624  0.50182005  0.49310406  1
  Ag  Ag7  1  0.24674636  0.50002155  0.25024240  1
  Ag  Ag8  1  0.75119580  0.24886225  0.00530662  1
  Ag  Ag9  1  0.24567941  -0.00023226  0.74469791  1
  Ag  Ag10  1  0.00293046  0.75347614  0.74989120  1
  Ag  Ag11  1  0.49820092  0.49865924  0.00641157  1
  Ag  Ag12  1  0.24719147  0.00022726  0.25578075  1
  Ag  Ag13  1  0.49706289  0.24639514  0.24982490  1
  Ag  Ag14  1  0.00123224  -0.00177466  0.00733837  1
  Ag  Ag15  1  0.00760409  -0.00184992  0.49279185  1
  Sb  Sb16  1  0.24652488  0.50059448  0.74808464  1
  Sb  Sb17  1  0.00427015  0.24381557  0.24988729  1
  Sb  Sb18  1  0.00273614  0.24608742  0.75022784  1
  Sb  Sb19  1  0.75286382  0.75177322  0.00384280  1
  Sb  Sb20  1  0.75220454  0.49984934  0.75190774  1
  Sb  Sb21  1  0.75492542  0.49750804  0.24798026  1
  Sb  Sb22  1  0.75410237  0.00028242  0.75129637  1
  Sb  Sb23  1  0.24735449  0.75103384  0.00397375  1
  Sb  Sb24  1  0.49686257  0.24847264  0.75065620  1
  Sb  Sb25  1  0.49884534  0.00125580  0.00966307  1
  Sb  Sb26  1  0.49549220  0.75324725  0.75089666  1
  Sb  Sb27  1  0.24713434  0.75827639  0.49606935  1
  Sb  Sb28  1  0.75049461  0.24704269  0.49431513  1
  Sb  Sb29  1  0.75277885  0.75218638  0.49583431  1
  Sb  Sb30  1  0.49305987  0.49917837  0.49107537  1
  Sb  Sb31  1  0.24975101  0.24947117  0.00652599  1
  Te  Te32  1  0.25403937  0.24949292  0.25321092  1
  Te  Te33  1  0.25083276  0.24323402  0.74103600  1
  Te  Te34  1  0.24885177  0.74976757  0.24995430  1
  Te  Te35  1  0.24377509  0.75639586  0.75041719  1
  Te  Te36  1  0.74185031  0.24486780  0.24610452  1
  Te  Te37  1  0.74869741  0.24937532  0.75972874  1
  Te  Te38  1  0.75075549  0.75780091  0.24983383  1
  Te  Te39  1  0.75932934  0.75046934  0.75034653  1
  Te  Te40  1  0.24501033  0.00242200  0.00205080  1
  Te  Te41  1  0.24769009  0.00164929  0.49567670  1
  Te  Te42  1  0.24675471  0.49730661  0.00406110  1
  Te  Te43  1  0.24564228  0.49295465  0.49691582  1
  Te  Te44  1  0.75424220  0.00434340  0.00300785  1
  Te  Te45  1  0.75196992  0.00187946  0.49559348  1
  Te  Te46  1  0.75338841  0.49401006  0.00065500  1
  Te  Te47  1  0.76028521  0.49707757  0.50083996  1
  Te  Te48  1  -0.00235610  0.25146304  -0.00048654  1
  Te  Te49  1  0.00196578  0.24885990  0.50045886  1
  Te  Te50  1  -0.00111755  0.74957249  0.00407813  1
  Te  Te51  1  -0.00050625  0.75123966  0.49614664  1
  Te  Te52  1  0.50175639  0.25274650  0.00354217  1
  Te  Te53  1  0.49812544  0.24743000  0.49638392  1
  Te  Te54  1  0.50215891  0.74436412  0.00479301  1
  Te  Te55  1  0.50211781  0.75346370  0.49481345  1
  Te  Te56  1  0.00260745  0.00080446  0.25048597  1
  Te  Te57  1  0.00263226  -0.00350227  0.74933092  1
  Te  Te58  1  0.00086016  0.50277642  0.24844412  1
  Te  Te59  1  0.00207087  0.50660114  0.75239768  1
  Te  Te60  1  0.49714944  -0.00161844  0.25048835  1
  Te  Te61  1  0.49476799  -0.00307198  0.74240275  1
  Te  Te62  1  0.49760570  0.50161788  0.24841977  1
  Te  Te63  1  0.49955461  0.50234656  0.75846063  1
