# generated using pymatgen
data_AgSbTe2
_symmetry_space_group_name_H-M   'P 1'
_cell_length_a   12.22731207
_cell_length_b   12.22114039
_cell_length_c   12.25067349
_cell_angle_alpha   90.00079810
_cell_angle_beta   90.00013745
_cell_angle_gamma   89.97976475
_symmetry_Int_Tables_number   1
_chemical_formula_structural   AgSbTe2
_chemical_formula_sum   'Ag16 Sb16 Te32'
_cell_volume   1830.63881885
_cell_formula_units_Z   16
loop_
 _symmetry_equiv_pos_site_id
 _symmetry_equiv_pos_as_xyz
  1  'x, y, z'
loop_
 _atom_site_type_symbol
 _atom_site_label
 _atom_site_symmetry_multiplicity
 _atom_site_fract_x
 _atom_site_fract_y
 _atom_site_fract_z
 _atom_site_occupancy
  Ag  Ag0  1  0.49908361  0.24175816  0.75152074  1
  Ag  Ag1  1  0.50213066  0.00347129  0.50505380  1
  Ag  Ag2  1  0.74799320  0.75509292  0.50067236  1
  Ag  Ag3  1  0.24749388  0.24410280  -0.00427537  1
  Ag  Ag4  1  0.25062452  0.24296898  0.50397377  1
  Ag  Ag5  1  0.74349981  0.00345762  0.75172685  1
  Ag  Ag6  1  0.00113518  0.24812612  0.75305792  1
  Ag  Ag7  1  0.75345769  0.49822478  0.24638867  1
  Ag  Ag8  1  0.25618475  0.00951386  0.75108611  1
  Ag  Ag9  1  -0.00568030  0.49388042  -0.00072807  1
  Ag  Ag10  1  0.75150572  0.49651212  0.75364648  1
  Ag  Ag11  1  0.50288714  0.00377331  -0.00510690  1
  Ag  Ag12  1  0.25148341  0.00720560  0.24887088  1
  Ag  Ag13  1  0.74785621  0.00074831  0.24834844  1
  Ag  Ag14  1  0.75013241  0.75289450  -0.00066730  1
  Ag  Ag15  1  -0.00006655  0.24833734  0.24664810  1
  Sb  Sb16  1  -0.00438506  0.75096539  0.24778660  1
  Sb  Sb17  1  -0.00304542  0.49552805  0.50125448  1
  Sb  Sb18  1  0.25011043  0.75579791  -0.00067632  1
  Sb  Sb19  1  0.25267748  0.75776705  0.50064872  1
  Sb  Sb20  1  -0.00178489  0.00430650  -0.00061817  1
  Sb  Sb21  1  0.50450785  0.75891686  0.75047191  1
  Sb  Sb22  1  0.50375677  0.49608141  0.50289995  1
  Sb  Sb23  1  0.50427492  0.49628836  -0.00300889  1
  Sb  Sb24  1  0.49983253  0.24521566  0.24816633  1
  Sb  Sb25  1  0.50364611  0.75383312  0.24961512  1
  Sb  Sb26  1  0.74835410  0.24562542  0.50235515  1
  Sb  Sb27  1  0.75231103  0.24821221  -0.00162034  1
  Sb  Sb28  1  0.24837093  0.48957575  0.75230598  1
  Sb  Sb29  1  0.24683552  0.49214899  0.24738618  1
  Sb  Sb30  1  -0.00444388  0.75130035  0.75227931  1
  Sb  Sb31  1  -0.00218573  0.00286443  0.50042948  1
  Te  Te32  1  0.24746892  0.24640328  0.24892656  1
  Te  Te33  1  0.24827780  0.24791834  0.75146131  1
  Te  Te34  1  0.24886346  0.75974857  0.25080869  1
  Te  Te35  1  0.24903970  0.75880352  0.74934150  1
  Te  Te36  1  0.75401354  0.24748746  0.25195198  1
  Te  Te37  1  0.75159122  0.24748700  0.74823178  1
  Te  Te38  1  0.75145910  0.75401886  0.24874768  1
  Te  Te39  1  0.75080915  0.75186225  0.75122414  1
  Te  Te40  1  0.25081801  0.00156067  0.00026522  1
  Te  Te41  1  0.25313912  0.00215792  0.49973512  1
  Te  Te42  1  0.24655687  0.49784486  0.00081679  1
  Te  Te43  1  0.25073412  0.49651114  0.49876853  1
  Te  Te44  1  0.74869330  -0.00200757  0.00018240  1
  Te  Te45  1  0.74737139  -0.00197918  0.49969767  1
  Te  Te46  1  0.75087151  0.50163144  -0.00073110  1
  Te  Te47  1  0.74803427  0.50528466  0.50018861  1
  Te  Te48  1  0.00300632  0.25300610  -0.00056861  1
  Te  Te49  1  0.00657782  0.25030411  0.50073473  1
  Te  Te50  1  -0.00573709  0.74005524  -0.00021836  1
  Te  Te51  1  -0.00784855  0.74829154  0.50008034  1
  Te  Te52  1  0.49361359  0.24479798  -0.00441224  1
  Te  Te53  1  0.49543570  0.24483966  0.50457783  1
  Te  Te54  1  0.50529658  0.75649846  -0.00015758  1
  Te  Te55  1  0.50485490  0.75742602  0.49997768  1
  Te  Te56  1  -0.00211405  0.00654110  0.24990448  1
  Te  Te57  1  -0.00196268  0.00657373  0.75033909  1
  Te  Te58  1  -0.00486853  0.49376631  0.24662686  1
  Te  Te59  1  -0.00377261  0.49385502  0.75309263  1
  Te  Te60  1  0.50365008  0.00130207  0.24910087  1
  Te  Te61  1  0.50286337  0.00298294  0.75113232  1
  Te  Te62  1  0.50925169  0.49977594  0.25024065  1
  Te  Te63  1  0.50545793  0.49075500  0.75004045  1
