# generated using pymatgen
data_AgSbTe2
_symmetry_space_group_name_H-M   'P 1'
_cell_length_a   12.21556626
_cell_length_b   12.21682039
_cell_length_c   12.21911531
_cell_angle_alpha   89.99381856
_cell_angle_beta   90.00410854
_cell_angle_gamma   90.00234825
_symmetry_Int_Tables_number   1
_chemical_formula_structural   AgSbTe2
_chemical_formula_sum   'Ag16 Sb16 Te32'
_cell_volume   1823.52428693
_cell_formula_units_Z   16
loop_
 _symmetry_equiv_pos_site_id
 _symmetry_equiv_pos_as_xyz
  1  'x, y, z'
loop_
 _atom_site_type_symbol
 _atom_site_label
 _atom_site_symmetry_multiplicity
 _atom_site_fract_x
 _atom_site_fract_y
 _atom_site_fract_z
 _atom_site_occupancy
  Ag  Ag0  1  0.25125632  -0.00153542  0.24986377  1
  Ag  Ag1  1  0.24818096  -0.00056552  0.75015958  1
  Ag  Ag2  1  0.75208888  -0.00071689  0.75020624  1
  Ag  Ag3  1  -0.00469474  0.49815577  -0.00183030  1
  Ag  Ag4  1  0.50465083  0.75750825  0.25384208  1
  Ag  Ag5  1  -0.00480096  0.75562968  0.24955710  1
  Ag  Ag6  1  0.75386913  0.50075884  0.74973483  1
  Ag  Ag7  1  0.50462700  -0.00461606  0.49650778  1
  Ag  Ag8  1  0.74851179  -0.00316944  0.25002597  1
  Ag  Ag9  1  0.75430693  0.24611900  -0.00157861  1
  Ag  Ag10  1  0.74746125  0.75367117  0.49936674  1
  Ag  Ag11  1  -0.00530995  0.75332953  0.75053332  1
  Ag  Ag12  1  0.50529959  0.50444186  0.49946903  1
  Ag  Ag13  1  -0.00355045  0.24524989  0.24632312  1
  Ag  Ag14  1  0.50448409  -0.00097396  0.00269063  1
  Ag  Ag15  1  -0.00515719  0.24697971  0.75409147  1
  Sb  Sb16  1  0.24496551  0.24593447  0.00005414  1
  Sb  Sb17  1  0.75125706  0.75415663  0.00052646  1
  Sb  Sb18  1  0.50501155  0.24668055  0.75097934  1
  Sb  Sb19  1  0.24890991  0.75424524  -0.00009477  1
  Sb  Sb20  1  0.50381028  0.24112600  0.24883109  1
  Sb  Sb21  1  -0.00476162  0.50302166  0.50179250  1
  Sb  Sb22  1  -0.00534520  -0.00205646  0.49995755  1
  Sb  Sb23  1  0.24962288  0.24601149  0.50014298  1
  Sb  Sb24  1  0.24861583  0.50040020  0.25044126  1
  Sb  Sb25  1  0.50632168  0.75339346  0.74617075  1
  Sb  Sb26  1  -0.00522206  0.00259139  0.00022525  1
  Sb  Sb27  1  0.75022561  0.24626462  0.50149939  1
  Sb  Sb28  1  0.75104841  0.50240406  0.25099256  1
  Sb  Sb29  1  0.24639329  0.50090324  0.74966020  1
  Sb  Sb30  1  0.50631462  0.50115971  0.00054253  1
  Sb  Sb31  1  0.25338835  0.75361672  0.49983222  1
  Te  Te32  1  0.24178700  0.24329661  0.25005439  1
  Te  Te33  1  0.24040282  0.24306946  0.74998903  1
  Te  Te34  1  0.24612724  0.75660675  0.24998057  1
  Te  Te35  1  0.24005496  0.75662868  0.74982336  1
  Te  Te36  1  0.75488941  0.24629178  0.24762748  1
  Te  Te37  1  0.75449941  0.24712669  0.75090695  1
  Te  Te38  1  0.75245040  0.75278126  0.25145329  1
  Te  Te39  1  0.75356618  0.75291074  0.74856208  1
  Te  Te40  1  0.25908547  0.00096707  -0.00022422  1
  Te  Te41  1  0.25943652  -0.00073905  0.50010799  1
  Te  Te42  1  0.24385701  0.49808892  -0.00116655  1
  Te  Te43  1  0.26202339  0.50007149  0.50108289  1
  Te  Te44  1  0.74662047  0.00357436  -0.00099934  1
  Te  Te45  1  0.74594505  -0.00368102  0.50054556  1
  Te  Te46  1  0.75235089  0.49394893  -0.00523657  1
  Te  Te47  1  0.74501430  0.50473078  0.50442512  1
  Te  Te48  1  -0.00451065  0.25148340  -0.00054518  1
  Te  Te49  1  -0.00040894  0.25170823  0.49915197  1
  Te  Te50  1  -0.00067327  0.74469367  0.00127836  1
  Te  Te51  1  -0.00635531  0.74877180  0.49825789  1
  Te  Te52  1  0.50789940  0.24684610  0.00057512  1
  Te  Te53  1  0.50013132  0.24995051  0.49936302  1
  Te  Te54  1  0.49999263  0.75378492  0.00745895  1
  Te  Te55  1  0.50407320  0.75324284  0.49685992  1
  Te  Te56  1  -0.00134545  -0.00239638  0.24989704  1
  Te  Te57  1  -0.00248587  -0.00099864  0.75001541  1
  Te  Te58  1  0.00080884  0.50124672  0.24734746  1
  Te  Te59  1  -0.00283321  0.50058018  0.75143378  1
  Te  Te60  1  0.50181236  -0.00081829  0.25103358  1
  Te  Te61  1  0.50163538  -0.00099923  0.74982732  1
  Te  Te62  1  0.49852439  0.50647112  0.25264293  1
  Te  Te63  1  0.50384510  0.50064022  0.74795422  1
