# generated using pymatgen
data_AgSbTe2
_symmetry_space_group_name_H-M   'P 1'
_cell_length_a   12.24453942
_cell_length_b   12.23217325
_cell_length_c   12.21501346
_cell_angle_alpha   90.01214538
_cell_angle_beta   90.00431981
_cell_angle_gamma   90.00269018
_symmetry_Int_Tables_number   1
_chemical_formula_structural   AgSbTe2
_chemical_formula_sum   'Ag16 Sb16 Te32'
_cell_volume   1829.53202414
_cell_formula_units_Z   16
loop_
 _symmetry_equiv_pos_site_id
 _symmetry_equiv_pos_as_xyz
  1  'x, y, z'
loop_
 _atom_site_type_symbol
 _atom_site_label
 _atom_site_symmetry_multiplicity
 _atom_site_fract_x
 _atom_site_fract_y
 _atom_site_fract_z
 _atom_site_occupancy
  Ag  Ag0  1  0.75194682  0.25326189  0.00612602  1
  Ag  Ag1  1  0.74667247  0.74899789  0.49562373  1
  Ag  Ag2  1  -0.00015336  0.25779780  0.24829511  1
  Ag  Ag3  1  0.50011272  0.25751728  0.25106706  1
  Ag  Ag4  1  -0.00242346  -0.00288468  0.49691579  1
  Ag  Ag5  1  0.24921058  0.50049963  0.25037213  1
  Ag  Ag6  1  0.75009213  0.00026152  0.74499461  1
  Ag  Ag7  1  -0.00039857  0.50188850  0.49012260  1
  Ag  Ag8  1  0.50037572  0.50601240  0.49163090  1
  Ag  Ag9  1  0.49732969  0.74254020  0.25684959  1
  Ag  Ag10  1  0.75080180  0.49767295  0.25336841  1
  Ag  Ag11  1  0.24772945  0.25642418  0.00811130  1
  Ag  Ag12  1  0.25389125  0.74617815  0.49250892  1
  Ag  Ag13  1  0.25012324  0.74433806  0.00770355  1
  Ag  Ag14  1  0.00273518  0.49602926  0.01117128  1
  Ag  Ag15  1  0.50254899  -0.00610164  0.49646098  1
  Sb  Sb16  1  0.50159374  0.24921436  0.74871748  1
  Sb  Sb17  1  0.75020988  0.00088878  0.25413201  1
  Sb  Sb18  1  0.00352973  0.74163109  0.25302005  1
  Sb  Sb19  1  0.24995060  0.50043726  0.74960964  1
  Sb  Sb20  1  -0.00100762  0.24955160  0.75075415  1
  Sb  Sb21  1  0.50063918  0.00022343  0.00384962  1
  Sb  Sb22  1  0.24997965  -0.00228987  0.25174696  1
  Sb  Sb23  1  0.24991865  -0.00000300  0.74620568  1
  Sb  Sb24  1  0.75083121  0.49973705  0.74769335  1
  Sb  Sb25  1  -0.00046020  0.75033616  0.74723128  1
  Sb  Sb26  1  0.49658024  0.49899934  0.00971207  1
  Sb  Sb27  1  0.24994973  0.25536237  0.49197538  1
  Sb  Sb28  1  -0.00082876  0.00195211  0.00434216  1
  Sb  Sb29  1  0.74988114  0.74659276  0.00571743  1
  Sb  Sb30  1  0.75006304  0.25151769  0.49448349  1
  Sb  Sb31  1  0.50080526  0.75069659  0.74217152  1
  Te  Te32  1  0.25096187  0.25349745  0.24731841  1
  Te  Te33  1  0.25071783  0.24943427  0.76526636  1
  Te  Te34  1  0.25228575  0.74774786  0.25150822  1
  Te  Te35  1  0.25027799  0.75032908  0.75224833  1
  Te  Te36  1  0.74903158  0.25306190  0.24745614  1
  Te  Te37  1  0.74883004  0.24689104  0.76013626  1
  Te  Te38  1  0.74479832  0.74590010  0.25367114  1
  Te  Te39  1  0.74921099  0.75404941  0.74441853  1
  Te  Te40  1  0.24905756  -0.00294043  -0.00117696  1
  Te  Te41  1  0.24945183  -0.00656062  0.50073617  1
  Te  Te42  1  0.24781073  0.50104546  0.00160879  1
  Te  Te43  1  0.24748266  0.50252777  0.49826696  1
  Te  Te44  1  0.75127020  0.00206116  -0.00552727  1
  Te  Te45  1  0.75053418  -0.00061402  0.50061962  1
  Te  Te46  1  0.75371498  0.49871837  0.00181912  1
  Te  Te47  1  0.75259198  0.50060844  0.49741919  1
  Te  Te48  1  0.00049138  0.25137942  0.00335520  1
  Te  Te49  1  0.00136844  0.25244395  0.49632978  1
  Te  Te50  1  0.00442332  0.74705672  0.00106761  1
  Te  Te51  1  0.00013411  0.74875999  0.49785059  1
  Te  Te52  1  0.49982207  0.24942307  0.00548188  1
  Te  Te53  1  0.49870642  0.24979894  0.49507505  1
  Te  Te54  1  0.49542271  0.75063886  0.00721086  1
  Te  Te55  1  0.49942756  0.74951275  0.49745150  1
  Te  Te56  1  -0.00036908  0.01099167  0.25609635  1
  Te  Te57  1  -0.00453715  0.00032004  0.74045281  1
  Te  Te58  1  0.00076661  0.49820784  0.25109551  1
  Te  Te59  1  -0.00036045  0.49990356  0.74689437  1
  Te  Te60  1  0.49985464  0.00148354  0.25489265  1
  Te  Te61  1  0.50458878  0.00091048  0.74117903  1
  Te  Te62  1  0.49925249  0.49879132  0.25200170  1
  Te  Te63  1  0.50074957  0.49933951  0.73509187  1
