# generated using pymatgen
data_AgSbTe2
_symmetry_space_group_name_H-M   'P 1'
_cell_length_a   12.31401964
_cell_length_b   12.31430903
_cell_length_c   12.31582981
_cell_angle_alpha   89.99761173
_cell_angle_beta   89.99637555
_cell_angle_gamma   89.99442957
_symmetry_Int_Tables_number   1
_chemical_formula_structural   AgSbTe2
_chemical_formula_sum   'Ag16 Sb16 Te32'
_cell_volume   1867.55570994
_cell_formula_units_Z   16
loop_
 _symmetry_equiv_pos_site_id
 _symmetry_equiv_pos_as_xyz
  1  'x, y, z'
loop_
 _atom_site_type_symbol
 _atom_site_label
 _atom_site_symmetry_multiplicity
 _atom_site_fract_x
 _atom_site_fract_y
 _atom_site_fract_z
 _atom_site_occupancy
  Ag  Ag0  1  0.75678434  0.00814857  0.74936974  1
  Ag  Ag1  1  -0.00134142  0.50519804  0.50228489  1
  Ag  Ag2  1  0.76316945  0.24256908  0.51280692  1
  Ag  Ag3  1  0.50656934  0.24917175  0.25701321  1
  Ag  Ag4  1  0.22932613  0.75203571  0.49912123  1
  Ag  Ag5  1  0.76516471  0.75726034  -0.00185633  1
  Ag  Ag6  1  0.76162827  0.24195645  -0.01250302  1
  Ag  Ag7  1  0.23359628  0.24826352  0.50356761  1
  Ag  Ag8  1  -0.00341626  0.51256024  -0.00190365  1
  Ag  Ag9  1  -0.00226687  0.75083809  0.25209529  1
  Ag  Ag10  1  0.76839531  0.75706318  0.50236208  1
  Ag  Ag11  1  0.51638516  0.24611359  0.74666301  1
  Ag  Ag12  1  0.22797618  0.75187042  0.00193684  1
  Ag  Ag13  1  -0.00920101  0.24470164  0.73910819  1
  Ag  Ag14  1  -0.00751587  -0.01064724  -0.00500846  1
  Ag  Ag15  1  -0.00536300  -0.00410692  0.50561303  1
  Sb  Sb16  1  0.24650870  0.50016396  0.25130808  1
  Sb  Sb17  1  0.24163305  0.24847539  -0.00202903  1
  Sb  Sb18  1  0.50438255  0.49708300  -0.00160111  1
  Sb  Sb19  1  0.75271449  0.49974288  0.25047020  1
  Sb  Sb20  1  0.75478320  0.49517870  0.74964090  1
  Sb  Sb21  1  0.50491660  0.75345738  0.74972668  1
  Sb  Sb22  1  0.24428345  0.50021111  0.74862154  1
  Sb  Sb23  1  -0.00126846  0.24934857  0.25251048  1
  Sb  Sb24  1  0.75306276  0.00075779  0.25104689  1
  Sb  Sb25  1  0.50288944  0.49700439  0.50159657  1
  Sb  Sb26  1  0.50073514  0.75124372  0.25049283  1
  Sb  Sb27  1  0.50725865  0.00295798  -0.00188765  1
  Sb  Sb28  1  0.24419814  0.00189331  0.74763868  1
  Sb  Sb29  1  0.24626223  -0.00036670  0.25231041  1
  Sb  Sb30  1  -0.00452673  0.75478656  0.74861755  1
  Sb  Sb31  1  0.50489096  0.00201685  0.50178579  1
  Te  Te32  1  0.25275616  0.24997098  0.25741200  1
  Te  Te33  1  0.24492416  0.24943017  0.74575587  1
  Te  Te34  1  0.24906773  0.75013051  0.25421441  1
  Te  Te35  1  0.25988005  0.75030282  0.74465600  1
  Te  Te36  1  0.74943077  0.25115949  0.24964968  1
  Te  Te37  1  0.75617876  0.24945427  0.75019457  1
  Te  Te38  1  0.75286750  0.74907453  0.25101235  1
  Te  Te39  1  0.74592481  0.75661060  0.74829848  1
  Te  Te40  1  0.24046225  -0.00506803  -0.00033570  1
  Te  Te41  1  0.24214676  -0.00247580  0.50045311  1
  Te  Te42  1  0.24105340  0.50681853  0.00044703  1
  Te  Te43  1  0.24284131  0.50270690  0.49985621  1
  Te  Te44  1  0.75233027  0.00144753  0.00237105  1
  Te  Te45  1  0.75279810  0.00047259  0.49777404  1
  Te  Te46  1  0.75431715  0.50346327  -0.00038089  1
  Te  Te47  1  0.75414684  0.50415567  0.50046417  1
  Te  Te48  1  -0.00243542  0.24781221  0.01218952  1
  Te  Te49  1  -0.00167006  0.24766752  0.49320694  1
  Te  Te50  1  -0.00171150  0.75017997  -0.01259767  1
  Te  Te51  1  -0.00214464  0.75053699  0.51177696  1
  Te  Te52  1  0.50262698  0.25053324  -0.00539486  1
  Te  Te53  1  0.50480847  0.25015970  0.50286500  1
  Te  Te54  1  0.50335864  0.74905008  0.00186288  1
  Te  Te55  1  0.49958588  0.74935465  0.49762640  1
  Te  Te56  1  0.00054734  -0.01218255  0.24993499  1
  Te  Te57  1  -0.00302601  0.00628965  0.74825781  1
  Te  Te58  1  -0.00054048  0.51374436  0.25039068  1
  Te  Te59  1  -0.00133232  0.48279214  0.74853290  1
  Te  Te60  1  0.49802741  0.00878821  0.24941158  1
  Te  Te61  1  0.51118230  0.00501584  0.74945216  1
  Te  Te62  1  0.49940263  0.48886821  0.24995880  1
  Te  Te63  1  0.49957986  0.48678439  0.74976415  1
