# generated using pymatgen
data_AgSbTe2
_symmetry_space_group_name_H-M   'P 1'
_cell_length_a   12.32009948
_cell_length_b   12.29815264
_cell_length_c   12.30706211
_cell_angle_alpha   89.99519721
_cell_angle_beta   89.99441817
_cell_angle_gamma   89.99317262
_symmetry_Int_Tables_number   1
_chemical_formula_structural   AgSbTe2
_chemical_formula_sum   'Ag16 Sb16 Te32'
_cell_volume   1864.69789091
_cell_formula_units_Z   16
loop_
 _symmetry_equiv_pos_site_id
 _symmetry_equiv_pos_as_xyz
  1  'x, y, z'
loop_
 _atom_site_type_symbol
 _atom_site_label
 _atom_site_symmetry_multiplicity
 _atom_site_fract_x
 _atom_site_fract_y
 _atom_site_fract_z
 _atom_site_occupancy
  Ag  Ag0  1  0.24181548  0.26476210  0.49941689  1
  Ag  Ag1  1  0.50536549  0.73936908  0.25545957  1
  Ag  Ag2  1  0.75899023  0.73991865  0.49724726  1
  Ag  Ag3  1  0.24259370  0.26101552  0.00375709  1
  Ag  Ag4  1  0.00208860  -0.01087235  0.49806757  1
  Ag  Ag5  1  0.49178764  0.50734750  0.49410705  1
  Ag  Ag6  1  0.00069640  0.25891486  0.24951000  1
  Ag  Ag7  1  0.75957980  0.26885054  0.00716811  1
  Ag  Ag8  1  0.75399704  0.73635043  0.00787116  1
  Ag  Ag9  1  0.50962198  0.50139608  0.00756546  1
  Ag  Ag10  1  0.75135374  0.50420882  0.24188644  1
  Ag  Ag11  1  0.23836506  0.73462791  0.50078691  1
  Ag  Ag12  1  0.00878525  0.50462921  0.50087769  1
  Ag  Ag13  1  -0.00004995  0.74200375  0.73798908  1
  Ag  Ag14  1  -0.00781255  0.49621274  0.00507465  1
  Ag  Ag15  1  0.24487414  0.50043126  0.74180889  1
  Sb  Sb16  1  0.75625997  0.26245278  0.49451861  1
  Sb  Sb17  1  0.00199179  0.25472915  0.75070154  1
  Sb  Sb18  1  0.50041989  0.74411238  0.74802131  1
  Sb  Sb19  1  -0.00030917  0.00058795  0.00244638  1
  Sb  Sb20  1  0.24691024  0.49899436  0.25250016  1
  Sb  Sb21  1  0.24859475  0.73859113  0.00074242  1
  Sb  Sb22  1  0.24560300  -0.00215686  0.74853243  1
  Sb  Sb23  1  0.49841468  -0.00417133  0.49703410  1
  Sb  Sb24  1  0.75470166  0.50078966  0.75161331  1
  Sb  Sb25  1  0.49829270  0.25691000  0.75091474  1
  Sb  Sb26  1  0.49995137  0.25796414  0.24948312  1
  Sb  Sb27  1  -0.00111270  0.74349236  0.25211334  1
  Sb  Sb28  1  0.24725461  0.00049507  0.25103869  1
  Sb  Sb29  1  0.75505351  -0.00265412  0.74837469  1
  Sb  Sb30  1  0.75294337  -0.00400187  0.25134499  1
  Sb  Sb31  1  0.49966358  -0.00199144  0.00301537  1
  Te  Te32  1  0.24865144  0.24915765  0.25143095  1
  Te  Te33  1  0.25085454  0.25417460  0.74566395  1
  Te  Te34  1  0.25501192  0.75091739  0.25478110  1
  Te  Te35  1  0.24609131  0.74734966  0.74758877  1
  Te  Te36  1  0.75115739  0.25498203  0.24634238  1
  Te  Te37  1  0.74921644  0.24855564  0.76473643  1
  Te  Te38  1  0.75115813  0.74597529  0.24894382  1
  Te  Te39  1  0.75460550  0.74939488  0.74733748  1
  Te  Te40  1  0.25081109  0.02028360  0.00001551  1
  Te  Te41  1  0.24647336  0.00315849  0.49962102  1
  Te  Te42  1  0.24519827  0.49898254  0.00284006  1
  Te  Te43  1  0.24900866  0.50046111  0.49788319  1
  Te  Te44  1  0.74914335  -0.00522889  -0.00075916  1
  Te  Te45  1  0.75277841  -0.00869342  0.50005495  1
  Te  Te46  1  0.75280143  0.50303989  -0.00224697  1
  Te  Te47  1  0.74943077  0.50122083  0.50419780  1
  Te  Te48  1  0.00017511  0.24946122  -0.00393419  1
  Te  Te49  1  -0.00022657  0.26265456  0.50376956  1
  Te  Te50  1  -0.00104345  0.75098831  0.00674871  1
  Te  Te51  1  0.00044324  0.74224947  0.49523636  1
  Te  Te52  1  0.49800072  0.25474357  0.00052529  1
  Te  Te53  1  0.49542248  0.25269464  0.49939172  1
  Te  Te54  1  0.49972420  0.74583008  -0.00138839  1
  Te  Te55  1  0.50273402  0.74617449  0.50144361  1
  Te  Te56  1  -0.00036137  0.01746735  0.25559468  1
  Te  Te57  1  0.00039999  -0.01540981  0.74105841  1
  Te  Te58  1  -0.00387825  0.49496071  0.24494196  1
  Te  Te59  1  0.00393655  0.50393744  0.74947029  1
  Te  Te60  1  0.50106820  -0.01678792  0.24895994  1
  Te  Te61  1  0.50001795  0.00196885  0.75108737  1
  Te  Te62  1  0.50676291  0.50292741  0.24971645  1
  Te  Te63  1  0.48774695  0.49909890  0.74795794  1
