# generated using pymatgen
data_AgSbTe2
_symmetry_space_group_name_H-M   'P 1'
_cell_length_a   12.32346529
_cell_length_b   12.30649075
_cell_length_c   12.30625784
_cell_angle_alpha   90.01856556
_cell_angle_beta   90.00594615
_cell_angle_gamma   90.00048875
_symmetry_Int_Tables_number   1
_chemical_formula_structural   AgSbTe2
_chemical_formula_sum   'Ag16 Sb16 Te32'
_cell_volume   1866.34986952
_cell_formula_units_Z   16
loop_
 _symmetry_equiv_pos_site_id
 _symmetry_equiv_pos_as_xyz
  1  'x, y, z'
loop_
 _atom_site_type_symbol
 _atom_site_label
 _atom_site_symmetry_multiplicity
 _atom_site_fract_x
 _atom_site_fract_y
 _atom_site_fract_z
 _atom_site_occupancy
  Ag  Ag0  1  0.47830634  0.24615712  0.74217810  1
  Ag  Ag1  1  0.49451841  0.24725347  0.26443865  1
  Ag  Ag2  1  0.75370304  0.24632825  0.50993798  1
  Ag  Ag3  1  0.00678714  0.49455584  -0.01518144  1
  Ag  Ag4  1  0.24619076  0.24562387  0.51430739  1
  Ag  Ag5  1  0.76605805  0.48229136  0.74580098  1
  Ag  Ag6  1  0.23560764  0.48160274  0.75176870  1
  Ag  Ag7  1  0.00441949  0.74844894  0.25104254  1
  Ag  Ag8  1  0.24381892  0.74449405  -0.00643089  1
  Ag  Ag9  1  0.00227972  0.48479362  0.51457038  1
  Ag  Ag10  1  0.01523830  0.25783066  0.73702634  1
  Ag  Ag11  1  0.49648190  0.01033342  0.50680785  1
  Ag  Ag12  1  0.00181505  0.01451418  0.51030679  1
  Ag  Ag13  1  0.75695690  0.01748117  0.74297324  1
  Ag  Ag14  1  0.24624723  0.25309456  -0.02016348  1
  Ag  Ag15  1  0.24482667  0.01747806  0.74462938  1
  Sb  Sb16  1  0.75373108  0.25239427  -0.01125775  1
  Sb  Sb17  1  0.24916965  0.00207600  0.25584755  1
  Sb  Sb18  1  0.00299488  0.00242402  -0.00999799  1
  Sb  Sb19  1  0.75152422  0.00535524  0.25955180  1
  Sb  Sb20  1  0.49725668  0.00468663  -0.00647442  1
  Sb  Sb21  1  0.49721945  0.75396584  0.25134136  1
  Sb  Sb22  1  0.49787707  0.75347659  0.74964119  1
  Sb  Sb23  1  0.49682871  0.49142909  0.50410289  1
  Sb  Sb24  1  0.75281230  0.75087180  0.50307996  1
  Sb  Sb25  1  0.00308653  0.24948737  0.25509439  1
  Sb  Sb26  1  0.75509547  0.49460163  0.25771413  1
  Sb  Sb27  1  0.49391849  0.49657660  -0.00560169  1
  Sb  Sb28  1  0.00056396  0.74767836  0.74839427  1
  Sb  Sb29  1  0.24817325  0.49791220  0.25035509  1
  Sb  Sb30  1  0.24745925  0.75009312  0.50509192  1
  Sb  Sb31  1  0.75594419  0.74688465  -0.00362760  1
  Te  Te32  1  0.25455280  0.24949980  0.25372109  1
  Te  Te33  1  0.24769874  0.25035742  0.74738984  1
  Te  Te34  1  0.24673999  0.75056869  0.24171049  1
  Te  Te35  1  0.25188993  0.74845644  0.75445866  1
  Te  Te36  1  0.74234253  0.24903042  0.26025358  1
  Te  Te37  1  0.75652232  0.25028219  0.74808767  1
  Te  Te38  1  0.75337503  0.74966147  0.24778823  1
  Te  Te39  1  0.74751433  0.74925785  0.75114211  1
  Te  Te40  1  0.24860578  0.00812870  -0.00811177  1
  Te  Te41  1  0.24357787  -0.00149430  0.50365678  1
  Te  Te42  1  0.24757026  0.49386623  0.00017576  1
  Te  Te43  1  0.24832301  0.50084445  0.50271590  1
  Te  Te44  1  0.74990323  -0.00145851  -0.01222551  1
  Te  Te45  1  0.75779082  -0.00021921  0.50339997  1
  Te  Te46  1  0.75938482  0.50009900  -0.00871280  1
  Te  Te47  1  0.75266547  0.49983010  0.50454430  1
  Te  Te48  1  0.00309364  0.25242405  0.00378880  1
  Te  Te49  1  0.00317985  0.25112966  0.50161551  1
  Te  Te50  1  0.00389135  0.74861779  0.00219985  1
  Te  Te51  1  0.00038660  0.74829607  0.49654006  1
  Te  Te52  1  0.49394410  0.25078975  -0.00498158  1
  Te  Te53  1  0.49643520  0.24913419  0.50518291  1
  Te  Te54  1  0.49007334  0.74995029  0.00137472  1
  Te  Te55  1  0.50093828  0.76531308  0.49812791  1
  Te  Te56  1  -0.00093914  -0.00139109  0.25911821  1
  Te  Te57  1  0.00159812  -0.00169458  0.74709553  1
  Te  Te58  1  -0.00076599  0.49980363  0.25222014  1
  Te  Te59  1  0.00260503  0.50011394  0.74728389  1
  Te  Te60  1  0.50093426  0.00449250  0.25740512  1
  Te  Te61  1  0.49780354  0.00248466  0.74765329  1
  Te  Te62  1  0.50216328  0.49553991  0.25036719  1
  Te  Te63  1  0.49929091  0.49609069  0.74774654  1
