# generated using pymatgen
data_AgSbTe2
_symmetry_space_group_name_H-M   'P 1'
_cell_length_a   12.20396704
_cell_length_b   12.20140713
_cell_length_c   12.20594977
_cell_angle_alpha   89.99804769
_cell_angle_beta   89.99575682
_cell_angle_gamma   89.99540038
_symmetry_Int_Tables_number   1
_chemical_formula_structural   AgSbTe2
_chemical_formula_sum   'Ag16 Sb16 Te32'
_cell_volume   1817.53390064
_cell_formula_units_Z   16
loop_
 _symmetry_equiv_pos_site_id
 _symmetry_equiv_pos_as_xyz
  1  'x, y, z'
loop_
 _atom_site_type_symbol
 _atom_site_label
 _atom_site_symmetry_multiplicity
 _atom_site_fract_x
 _atom_site_fract_y
 _atom_site_fract_z
 _atom_site_occupancy
  Ag  Ag0  1  0.75319478  0.00365738  0.74904508  1
  Ag  Ag1  1  0.50018551  0.49679461  -0.00293796  1
  Ag  Ag2  1  0.50386101  0.25319617  0.74976012  1
  Ag  Ag3  1  0.24993830  0.75003657  -0.00162682  1
  Ag  Ag4  1  0.74748192  0.49627156  0.75016222  1
  Ag  Ag5  1  0.75023857  0.74868357  -0.00471518  1
  Ag  Ag6  1  0.24866859  0.00330525  0.25002731  1
  Ag  Ag7  1  0.75002524  0.25013625  0.50576627  1
  Ag  Ag8  1  -0.00135257  0.75173815  0.75010384  1
  Ag  Ag9  1  0.00186432  0.24705127  0.25107082  1
  Ag  Ag10  1  0.24891564  0.75129054  0.50163185  1
  Ag  Ag11  1  -0.00493438  0.24747150  0.74783892  1
  Ag  Ag12  1  0.50106471  0.49589248  0.50304172  1
  Ag  Ag13  1  0.00030065  0.00277698  0.50285590  1
  Ag  Ag14  1  0.25192229  0.24992689  0.00105370  1
  Ag  Ag15  1  0.49818175  0.25080549  0.24951096  1
  Sb  Sb16  1  0.50183800  0.74683572  0.75153332  1
  Sb  Sb17  1  0.25131865  0.49541735  0.24950539  1
  Sb  Sb18  1  0.24644632  0.00042856  0.74911203  1
  Sb  Sb19  1  -0.00073543  0.49911821  -0.00308825  1
  Sb  Sb20  1  0.49819035  0.75024500  0.24910488  1
  Sb  Sb21  1  0.75205316  0.00372750  0.25092660  1
  Sb  Sb22  1  0.25439774  0.49947441  0.75027539  1
  Sb  Sb23  1  0.25002499  0.24829318  0.49857831  1
  Sb  Sb24  1  0.00269375  0.75413141  0.25101832  1
  Sb  Sb25  1  0.74797663  0.49757038  0.24949848  1
  Sb  Sb26  1  0.49938151  0.00428439  -0.00107801  1
  Sb  Sb27  1  0.75112533  0.74977917  0.50595160  1
  Sb  Sb28  1  0.49980118  0.00412676  0.50154482  1
  Sb  Sb29  1  0.00011643  0.00076449  -0.00407139  1
  Sb  Sb30  1  0.74741640  0.25221382  -0.00813461  1
  Sb  Sb31  1  -0.00096190  0.49688331  0.50340422  1
  Te  Te32  1  0.25019616  0.24675711  0.24758254  1
  Te  Te33  1  0.24940431  0.24899308  0.75444207  1
  Te  Te34  1  0.24879899  0.75598825  0.24721331  1
  Te  Te35  1  0.24540044  0.75049673  0.75268773  1
  Te  Te36  1  0.74994454  0.24845317  0.25553936  1
  Te  Te37  1  0.75136496  0.25036737  0.74984638  1
  Te  Te38  1  0.75071762  0.75070295  0.24123487  1
  Te  Te39  1  0.75281312  0.74995215  0.75248787  1
  Te  Te40  1  0.25006162  -0.00133327  0.00429730  1
  Te  Te41  1  0.24647293  -0.00411303  0.49714259  1
  Te  Te42  1  0.25585833  0.50130384  -0.00013610  1
  Te  Te43  1  0.25615102  0.50702939  0.49987118  1
  Te  Te44  1  0.74965843  -0.00677485  -0.00557335  1
  Te  Te45  1  0.75399414  0.00267678  0.50385350  1
  Te  Te46  1  0.74496060  0.50356798  -0.00484639  1
  Te  Te47  1  0.74505926  0.49713272  0.50469270  1
  Te  Te48  1  0.00474876  0.25079829  -0.00089604  1
  Te  Te49  1  -0.00074274  0.24835588  0.50280158  1
  Te  Te50  1  0.00303874  0.74956467  -0.00395995  1
  Te  Te51  1  0.00327843  0.75277935  0.50292736  1
  Te  Te52  1  0.49774155  0.25368141  -0.00026067  1
  Te  Te53  1  0.50065148  0.25305126  0.50113068  1
  Te  Te54  1  0.49658242  0.74379441  0.00002816  1
  Te  Te55  1  0.49516011  0.74389982  0.49950421  1
  Te  Te56  1  0.00296167  0.00544177  0.25571377  1
  Te  Te57  1  -0.00327327  0.00163788  0.74667832  1
  Te  Te58  1  -0.00042718  0.49005560  0.25057893  1
  Te  Te59  1  -0.00702789  0.49926689  0.74926983  1
  Te  Te60  1  0.49504471  0.00766409  0.25055009  1
  Te  Te61  1  0.50693932  0.00763198  0.74890176  1
  Te  Te62  1  0.50058762  0.49284233  0.24965438  1
  Te  Te63  1  0.50324037  0.49600563  0.75037216  1
