# generated using pymatgen
data_AgSbTe2
_symmetry_space_group_name_H-M   'P 1'
_cell_length_a   12.27562682
_cell_length_b   12.24320019
_cell_length_c   12.27265815
_cell_angle_alpha   90.00542607
_cell_angle_beta   90.00193473
_cell_angle_gamma   90.00256662
_symmetry_Int_Tables_number   1
_chemical_formula_structural   AgSbTe2
_chemical_formula_sum   'Ag16 Sb16 Te32'
_cell_volume   1844.49406716
_cell_formula_units_Z   16
loop_
 _symmetry_equiv_pos_site_id
 _symmetry_equiv_pos_as_xyz
  1  'x, y, z'
loop_
 _atom_site_type_symbol
 _atom_site_label
 _atom_site_symmetry_multiplicity
 _atom_site_fract_x
 _atom_site_fract_y
 _atom_site_fract_z
 _atom_site_occupancy
  Ag  Ag0  1  -0.00452454  0.00366692  0.49317151  1
  Ag  Ag1  1  -0.00393589  0.24945749  0.74299992  1
  Ag  Ag2  1  0.51423474  0.24703369  0.25298712  1
  Ag  Ag3  1  -0.01386090  0.24516405  0.25685996  1
  Ag  Ag4  1  0.50185992  0.75088371  0.74808889  1
  Ag  Ag5  1  0.76107947  0.24331051  0.48429086  1
  Ag  Ag6  1  0.24723866  0.74830041  0.00766563  1
  Ag  Ag7  1  0.24662995  0.75382297  0.49284956  1
  Ag  Ag8  1  -0.01095362  0.75407375  0.25185440  1
  Ag  Ag9  1  -0.00379328  0.50222427  0.00414876  1
  Ag  Ag10  1  0.51113456  0.75300991  0.25138922  1
  Ag  Ag11  1  0.75492546  -0.00074472  0.25420057  1
  Ag  Ag12  1  0.75669312  0.24890755  0.01532683  1
  Ag  Ag13  1  0.23851002  0.24596668  0.49440517  1
  Ag  Ag14  1  0.75377869  0.75629126  0.48436745  1
  Ag  Ag15  1  0.75325817  0.75096719  0.01508871  1
  Sb  Sb16  1  0.75399079  0.50104164  0.75126282  1
  Sb  Sb17  1  0.50281096  -0.00218229  0.00438028  1
  Sb  Sb18  1  -0.00079702  0.49612861  0.49490823  1
  Sb  Sb19  1  0.75253442  0.50016489  0.24819990  1
  Sb  Sb20  1  -0.00076655  0.75063316  0.74682670  1
  Sb  Sb21  1  -0.00304364  -0.00229808  0.00848069  1
  Sb  Sb22  1  0.50056394  0.50287364  0.49828496  1
  Sb  Sb23  1  0.24665364  0.50010018  0.75069440  1
  Sb  Sb24  1  0.50449961  0.50303447  0.00125393  1
  Sb  Sb25  1  0.50322779  0.24833601  0.74701056  1
  Sb  Sb26  1  0.24632067  -0.00021232  0.74773606  1
  Sb  Sb27  1  0.24745298  0.50387740  0.24892451  1
  Sb  Sb28  1  0.75329039  -0.00175489  0.74238123  1
  Sb  Sb29  1  0.50743530  -0.00217700  0.49570526  1
  Sb  Sb30  1  0.24115460  0.25219660  0.00802449  1
  Sb  Sb31  1  0.24119696  -0.00301042  0.25292849  1
  Te  Te32  1  0.25055898  0.24584432  0.25384326  1
  Te  Te33  1  0.25098445  0.24906705  0.74229352  1
  Te  Te34  1  0.25051641  0.75410390  0.25420370  1
  Te  Te35  1  0.25321258  0.75105100  0.74519958  1
  Te  Te36  1  0.75127212  0.25528468  0.25077700  1
  Te  Te37  1  0.74919325  0.24847463  0.75008768  1
  Te  Te38  1  0.75110336  0.74495645  0.25068574  1
  Te  Te39  1  0.74649011  0.75219731  0.75052980  1
  Te  Te40  1  0.24794297  -0.01266863  -0.00005746  1
  Te  Te41  1  0.23800914  -0.00216027  0.49778170  1
  Te  Te42  1  0.23887532  0.50942866  -0.00007471  1
  Te  Te43  1  0.24888874  0.50290108  0.50048073  1
  Te  Te44  1  0.75232245  -0.00077635  0.01147297  1
  Te  Te45  1  0.75533291  -0.00063335  0.49371824  1
  Te  Te46  1  0.75786788  0.50102316  -0.00117601  1
  Te  Te47  1  0.75184732  0.50126000  0.50287360  1
  Te  Te48  1  0.00078116  0.24725037  0.00566455  1
  Te  Te49  1  -0.00191170  0.25534513  0.49406810  1
  Te  Te50  1  -0.00454868  0.75305344  -0.00153331  1
  Te  Te51  1  -0.00072361  0.74565506  0.50226749  1
  Te  Te52  1  0.50426239  0.25212219  0.00146253  1
  Te  Te53  1  0.50123557  0.24904472  0.49862856  1
  Te  Te54  1  0.50349744  0.74772740  0.00815705  1
  Te  Te55  1  0.49970666  0.75115715  0.49208437  1
  Te  Te56  1  -0.00708368  -0.00084064  0.25652521  1
  Te  Te57  1  -0.00194387  0.01041764  0.73511049  1
  Te  Te58  1  0.00139686  0.50091448  0.24259798  1
  Te  Te59  1  -0.00050664  0.48845097  0.76370265  1
  Te  Te60  1  0.51475899  -0.00035799  0.25073943  1
  Te  Te61  1  0.50165095  -0.00952526  0.75048883  1
  Te  Te62  1  0.49698994  0.49961722  0.24868775  1
  Te  Te63  1  0.49922086  0.51152727  0.75201186  1
