# generated using pymatgen
data_AgSbTe2
_symmetry_space_group_name_H-M   'P 1'
_cell_length_a   12.21017879
_cell_length_b   12.22484869
_cell_length_c   12.21006543
_cell_angle_alpha   89.99937806
_cell_angle_beta   90.01219436
_cell_angle_gamma   89.99920297
_symmetry_Int_Tables_number   1
_chemical_formula_structural   AgSbTe2
_chemical_formula_sum   'Ag16 Sb16 Te32'
_cell_volume   1822.56697695
_cell_formula_units_Z   16
loop_
 _symmetry_equiv_pos_site_id
 _symmetry_equiv_pos_as_xyz
  1  'x, y, z'
loop_
 _atom_site_type_symbol
 _atom_site_label
 _atom_site_symmetry_multiplicity
 _atom_site_fract_x
 _atom_site_fract_y
 _atom_site_fract_z
 _atom_site_occupancy
  Ag  Ag0  1  0.00174484  0.50025309  0.00141142  1
  Ag  Ag1  1  0.00457916  0.00403049  0.49967140  1
  Ag  Ag2  1  0.00149455  0.25309078  0.25697180  1
  Ag  Ag3  1  0.49867415  0.00078980  -0.00416420  1
  Ag  Ag4  1  0.25343072  0.00054135  0.74600696  1
  Ag  Ag5  1  0.00474830  0.49558009  0.49863421  1
  Ag  Ag6  1  0.49807757  0.25102187  0.25091573  1
  Ag  Ag7  1  0.00148443  0.74669347  0.25197876  1
  Ag  Ag8  1  0.25252692  0.49945767  0.74724618  1
  Ag  Ag9  1  0.49547207  0.74930430  0.75275564  1
  Ag  Ag10  1  0.49871714  0.49950133  -0.00391030  1
  Ag  Ag11  1  0.49528594  0.25079239  0.74996388  1
  Ag  Ag12  1  0.24604431  0.25078927  0.50257318  1
  Ag  Ag13  1  0.74863595  0.74810208  -0.00101476  1
  Ag  Ag14  1  0.75320542  0.25062283  0.49951242  1
  Ag  Ag15  1  0.24668288  0.74925598  0.50408477  1
  Sb  Sb16  1  0.25060812  0.74819242  -0.00402679  1
  Sb  Sb17  1  0.74667287  0.49947867  0.74975361  1
  Sb  Sb18  1  0.74950176  0.00098564  0.25104152  1
  Sb  Sb19  1  0.49560486  0.00297572  0.50362807  1
  Sb  Sb20  1  0.00428953  0.74809449  0.74864174  1
  Sb  Sb21  1  0.49459585  0.49694907  0.50344026  1
  Sb  Sb22  1  0.74820555  0.25142558  -0.00036044  1
  Sb  Sb23  1  0.49819597  0.74842549  0.24738861  1
  Sb  Sb24  1  0.74631004  0.00091306  0.74914685  1
  Sb  Sb25  1  0.75216167  0.49907645  0.25052439  1
  Sb  Sb26  1  0.00473818  0.25172958  0.74178433  1
  Sb  Sb27  1  0.24772006  0.49885150  0.25323172  1
  Sb  Sb28  1  0.00132181  0.00032021  0.00030346  1
  Sb  Sb29  1  0.75307036  0.74922428  0.50107627  1
  Sb  Sb30  1  0.24997237  0.00148407  0.25439674  1
  Sb  Sb31  1  0.25105153  0.25121751  -0.00368069  1
  Te  Te32  1  0.24986860  0.24920171  0.25727088  1
  Te  Te33  1  0.25397082  0.25088406  0.74655133  1
  Te  Te34  1  0.24511966  0.75089399  0.25892742  1
  Te  Te35  1  0.25413630  0.74911389  0.74587180  1
  Te  Te36  1  0.74980317  0.24979187  0.25598312  1
  Te  Te37  1  0.74084256  0.24968395  0.74468239  1
  Te  Te38  1  0.75509818  0.75056386  0.24647139  1
  Te  Te39  1  0.74102273  0.75024558  0.75357468  1
  Te  Te40  1  0.25469393  -0.00010878  -0.00866367  1
  Te  Te41  1  0.24708980  0.00076787  0.50401292  1
  Te  Te42  1  0.24910727  0.50010647  -0.00779844  1
  Te  Te43  1  0.24707617  0.49915180  0.50484175  1
  Te  Te44  1  0.74558979  -0.00569221  -0.00134274  1
  Te  Te45  1  0.75835553  0.00421162  0.50115396  1
  Te  Te46  1  0.75107137  0.50403579  -0.00102546  1
  Te  Te47  1  0.75902871  0.49596019  0.50103067  1
  Te  Te48  1  -0.00149095  0.25386240  0.00819898  1
  Te  Te49  1  0.00243650  0.25154908  0.49912016  1
  Te  Te50  1  -0.00194882  0.74755764  0.00320307  1
  Te  Te51  1  0.00058845  0.74880610  0.49800478  1
  Te  Te52  1  0.50105115  0.25177001  0.00008568  1
  Te  Te53  1  0.49863293  0.25033501  0.49886316  1
  Te  Te54  1  0.50098613  0.74783709  0.00034631  1
  Te  Te55  1  0.49798508  0.74983134  0.50135814  1
  Te  Te56  1  0.00067773  0.00186520  0.25241116  1
  Te  Te57  1  0.00749427  0.00039023  0.74686914  1
  Te  Te58  1  0.00121296  0.49855053  0.24912679  1
  Te  Te59  1  0.00590671  0.49937919  0.75172920  1
  Te  Te60  1  0.49888400  0.00543235  0.24296911  1
  Te  Te61  1  0.49618136  0.00073426  0.75231743  1
  Te  Te62  1  0.49837537  0.49492993  0.24224143  1
  Te  Te63  1  0.49632767  0.49918744  0.75268676  1
