# generated using pymatgen
data_AgSbTe2
_symmetry_space_group_name_H-M   'P 1'
_cell_length_a   12.22349453
_cell_length_b   12.21565020
_cell_length_c   12.21275114
_cell_angle_alpha   89.99456546
_cell_angle_beta   89.99936166
_cell_angle_gamma   89.99814358
_symmetry_Int_Tables_number   1
_chemical_formula_structural   AgSbTe2
_chemical_formula_sum   'Ag16 Sb16 Te32'
_cell_volume   1823.58275098
_cell_formula_units_Z   16
loop_
 _symmetry_equiv_pos_site_id
 _symmetry_equiv_pos_as_xyz
  1  'x, y, z'
loop_
 _atom_site_type_symbol
 _atom_site_label
 _atom_site_symmetry_multiplicity
 _atom_site_fract_x
 _atom_site_fract_y
 _atom_site_fract_z
 _atom_site_occupancy
  Ag  Ag0  1  0.25050325  -0.00093625  0.25538860  1
  Ag  Ag1  1  0.75326241  0.74717757  0.50551496  1
  Ag  Ag2  1  0.50432275  0.74145751  0.74505251  1
  Ag  Ag3  1  0.74662615  0.25094499  -0.00121623  1
  Ag  Ag4  1  0.24709781  0.74385940  0.50204866  1
  Ag  Ag5  1  0.50260203  0.25802565  0.74796245  1
  Ag  Ag6  1  0.49680821  0.50318036  0.50575767  1
  Ag  Ag7  1  0.00328608  0.50813665  0.50338852  1
  Ag  Ag8  1  0.25508318  0.50384285  0.74093568  1
  Ag  Ag9  1  0.50088314  0.25199081  0.25157539  1
  Ag  Ag10  1  -0.00026358  -0.00807839  0.49901125  1
  Ag  Ag11  1  0.25257324  0.50132400  0.25943395  1
  Ag  Ag12  1  0.74942678  -0.00088910  0.25237711  1
  Ag  Ag13  1  0.74932130  0.74882486  -0.00549039  1
  Ag  Ag14  1  0.74520776  0.50585093  0.74610433  1
  Ag  Ag15  1  -0.00401226  0.74613772  0.74286283  1
  Sb  Sb16  1  -0.00248228  0.25488453  0.74842983  1
  Sb  Sb17  1  0.50203767  0.50022089  -0.00702119  1
  Sb  Sb18  1  -0.00300773  -0.00330854  0.00060515  1
  Sb  Sb19  1  0.75018973  -0.00623554  0.74640497  1
  Sb  Sb20  1  0.25099559  0.74911682  -0.00242845  1
  Sb  Sb21  1  0.50016849  0.74606147  0.25472490  1
  Sb  Sb22  1  -0.00147379  0.25107064  0.25103685  1
  Sb  Sb23  1  0.50246203  -0.00052997  0.00119874  1
  Sb  Sb24  1  0.74704104  0.50012983  0.25463459  1
  Sb  Sb25  1  0.24967564  -0.00316964  0.74259095  1
  Sb  Sb26  1  -0.00038432  0.74964595  0.25880838  1
  Sb  Sb27  1  0.25216333  0.25763147  0.49950598  1
  Sb  Sb28  1  -0.00245725  0.50298750  -0.00292571  1
  Sb  Sb29  1  0.74731624  0.25219440  0.50177452  1
  Sb  Sb30  1  0.25396867  0.25100954  -0.00011961  1
  Sb  Sb31  1  0.49956524  -0.00419345  0.49810841  1
  Te  Te32  1  0.25519933  0.25009377  0.24844573  1
  Te  Te33  1  0.25581387  0.25538199  0.75231833  1
  Te  Te34  1  0.25084456  0.74906112  0.25181951  1
  Te  Te35  1  0.25142834  0.74692140  0.74823672  1
  Te  Te36  1  0.74611114  0.24852489  0.24715380  1
  Te  Te37  1  0.74613862  0.25312547  0.75233953  1
  Te  Te38  1  0.74909906  0.75252896  0.24983135  1
  Te  Te39  1  0.74853425  0.75008095  0.74766091  1
  Te  Te40  1  0.24861189  -0.00066426  0.01216629  1
  Te  Te41  1  0.24720644  -0.00659474  0.49558770  1
  Te  Te42  1  0.24862970  0.50070189  0.00173100  1
  Te  Te43  1  0.25034591  0.50204819  0.50079667  1
  Te  Te44  1  0.75123599  -0.00137606  0.00701656  1
  Te  Te45  1  0.75263562  -0.00486452  0.49586434  1
  Te  Te46  1  0.75127326  0.50196157  -0.00361883  1
  Te  Te47  1  0.74988527  0.50345049  0.50184709  1
  Te  Te48  1  -0.01047679  0.24902811  -0.00089085  1
  Te  Te49  1  -0.00041156  0.24940835  0.50096674  1
  Te  Te50  1  -0.00667203  0.75031535  -0.01065230  1
  Te  Te51  1  -0.00014852  0.74815681  0.50218690  1
  Te  Te52  1  0.50538825  0.24964810  -0.00030173  1
  Te  Te53  1  0.50066484  0.25543152  0.50109799  1
  Te  Te54  1  0.50622387  0.75054521  -0.00852871  1
  Te  Te55  1  0.49994312  0.74642193  0.50350889  1
  Te  Te56  1  0.00022804  0.00010557  0.25607991  1
  Te  Te57  1  0.00163987  -0.00458678  0.74287386  1
  Te  Te58  1  0.00693497  0.49924404  0.25785458  1
  Te  Te59  1  -0.00036426  0.50217560  0.74557048  1
  Te  Te60  1  0.50008036  0.00563414  0.25115728  1
  Te  Te61  1  0.49836921  0.00276339  0.74977068  1
  Te  Te62  1  0.49640460  0.49662279  0.25601656  1
  Te  Te63  1  0.50069620  0.50033929  0.74805745  1
