# generated using pymatgen
data_AgSbTe2
_symmetry_space_group_name_H-M   'P 1'
_cell_length_a   12.29224250
_cell_length_b   12.29406517
_cell_length_c   12.27988420
_cell_angle_alpha   89.99360258
_cell_angle_beta   89.99509804
_cell_angle_gamma   90.00103676
_symmetry_Int_Tables_number   1
_chemical_formula_structural   AgSbTe2
_chemical_formula_sum   'Ag16 Sb16 Te32'
_cell_volume   1855.75610197
_cell_formula_units_Z   16
loop_
 _symmetry_equiv_pos_site_id
 _symmetry_equiv_pos_as_xyz
  1  'x, y, z'
loop_
 _atom_site_type_symbol
 _atom_site_label
 _atom_site_symmetry_multiplicity
 _atom_site_fract_x
 _atom_site_fract_y
 _atom_site_fract_z
 _atom_site_occupancy
  Ag  Ag0  1  0.50928747  0.24410417  0.24524064  1
  Ag  Ag1  1  0.24769865  0.50805034  0.75854287  1
  Ag  Ag2  1  0.50277941  0.00387844  0.50842167  1
  Ag  Ag3  1  0.76001449  0.74942574  -0.00198019  1
  Ag  Ag4  1  0.74591433  -0.00041201  0.24026792  1
  Ag  Ag5  1  0.75292935  0.50780850  0.76253488  1
  Ag  Ag6  1  0.75574088  0.50164039  0.23635422  1
  Ag  Ag7  1  -0.01257911  0.25045901  0.24253984  1
  Ag  Ag8  1  0.50345998  0.24035152  0.75388680  1
  Ag  Ag9  1  -0.00806678  0.74661413  0.23551156  1
  Ag  Ag10  1  -0.00242785  0.74613218  0.76419567  1
  Ag  Ag11  1  -0.00753377  0.51020831  -0.00089697  1
  Ag  Ag12  1  0.23884703  0.75086636  -0.00664551  1
  Ag  Ag13  1  0.74021076  -0.00451155  0.76007574  1
  Ag  Ag14  1  0.50627910  0.00064529  -0.00557762  1
  Ag  Ag15  1  0.26085251  -0.00519231  0.75582243  1
  Sb  Sb16  1  0.74999400  0.24997296  0.49850819  1
  Sb  Sb17  1  -0.00260908  0.25149549  0.75773477  1
  Sb  Sb18  1  0.25093568  0.24773090  0.50125827  1
  Sb  Sb19  1  -0.00460450  -0.00681836  0.00036983  1
  Sb  Sb20  1  0.75049028  0.24640741  0.00116067  1
  Sb  Sb21  1  0.24762129  0.50385005  0.23857739  1
  Sb  Sb22  1  0.00039074  0.50043300  0.49962893  1
  Sb  Sb23  1  0.50421069  0.49875040  -0.00212525  1
  Sb  Sb24  1  0.50315540  0.75625305  0.75268796  1
  Sb  Sb25  1  0.50009628  0.49663680  0.50291106  1
  Sb  Sb26  1  0.75094571  0.75072224  0.50368888  1
  Sb  Sb27  1  0.24835844  0.75252598  0.50794314  1
  Sb  Sb28  1  -0.00139333  -0.00058136  0.50065225  1
  Sb  Sb29  1  0.25317795  -0.00390572  0.24325341  1
  Sb  Sb30  1  0.51082286  0.75362777  0.24480002  1
  Sb  Sb31  1  0.25021898  0.24637029  -0.00108793  1
  Te  Te32  1  0.25506998  0.25010033  0.24969907  1
  Te  Te33  1  0.25007421  0.24620773  0.75116025  1
  Te  Te34  1  0.23837614  0.74908642  0.24181543  1
  Te  Te35  1  0.24777029  0.75075303  0.75395031  1
  Te  Te36  1  0.74813034  0.24800752  0.24956796  1
  Te  Te37  1  0.74874774  0.24676851  0.75071153  1
  Te  Te38  1  0.75227352  0.75012250  0.24749194  1
  Te  Te39  1  0.75096926  0.74982773  0.75239370  1
  Te  Te40  1  0.25227559  -0.00357005  -0.00424810  1
  Te  Te41  1  0.25589228  -0.00096193  0.51151197  1
  Te  Te42  1  0.25042403  0.50667236  -0.00511495  1
  Te  Te43  1  0.25271460  0.50114040  0.51982362  1
  Te  Te44  1  0.75064852  -0.00277571  -0.00047268  1
  Te  Te45  1  0.74700321  -0.00003086  0.50147027  1
  Te  Te46  1  0.74911307  0.50556143  -0.00082743  1
  Te  Te47  1  0.74804467  0.50025531  0.50344353  1
  Te  Te48  1  -0.00013651  0.26578402  0.00676172  1
  Te  Te49  1  -0.00002725  0.24899652  0.48018654  1
  Te  Te50  1  -0.00369481  0.74767078  -0.00363279  1
  Te  Te51  1  0.00081112  0.75170033  0.49849782  1
  Te  Te52  1  0.50068269  0.24550479  -0.00030275  1
  Te  Te53  1  0.50056380  0.24459733  0.50014264  1
  Te  Te54  1  0.50150216  0.75425252  0.00044056  1
  Te  Te55  1  0.49899841  0.76053101  0.49722554  1
  Te  Te56  1  -0.00405737  0.00051350  0.24910643  1
  Te  Te57  1  -0.00534101  0.00272798  0.75047182  1
  Te  Te58  1  -0.00323174  0.50356533  0.25148239  1
  Te  Te59  1  -0.00742734  0.49700201  0.74967723  1
  Te  Te60  1  0.50215902  0.00164742  0.24336446  1
  Te  Te61  1  0.50476815  0.00139657  0.75512205  1
  Te  Te62  1  0.50507894  0.49182471  0.25134701  1
  Te  Te63  1  0.50660644  0.49158106  0.74947738  1
