# generated using pymatgen
data_AgSbTe2
_symmetry_space_group_name_H-M   'P 1'
_cell_length_a   12.23610132
_cell_length_b   12.23068503
_cell_length_c   12.24006597
_cell_angle_alpha   90.00389191
_cell_angle_beta   89.99277956
_cell_angle_gamma   90.00955525
_symmetry_Int_Tables_number   1
_chemical_formula_structural   AgSbTe2
_chemical_formula_sum   'Ag16 Sb16 Te32'
_cell_volume   1831.79805859
_cell_formula_units_Z   16
loop_
 _symmetry_equiv_pos_site_id
 _symmetry_equiv_pos_as_xyz
  1  'x, y, z'
loop_
 _atom_site_type_symbol
 _atom_site_label
 _atom_site_symmetry_multiplicity
 _atom_site_fract_x
 _atom_site_fract_y
 _atom_site_fract_z
 _atom_site_occupancy
  Ag  Ag0  1  0.25335518  -0.01269750  0.24713176  1
  Ag  Ag1  1  0.00449929  0.50605592  0.50495715  1
  Ag  Ag2  1  0.25054919  -0.01439503  0.75254789  1
  Ag  Ag3  1  0.24630936  0.51471602  0.74904982  1
  Ag  Ag4  1  0.25004097  0.51239722  0.25079899  1
  Ag  Ag5  1  0.75129774  0.75054639  0.50985856  1
  Ag  Ag6  1  0.25453694  0.75365530  -0.01323475  1
  Ag  Ag7  1  0.49154797  0.75219404  0.24488855  1
  Ag  Ag8  1  0.74978741  -0.00919835  0.75499765  1
  Ag  Ag9  1  0.01367667  0.75000544  0.74846062  1
  Ag  Ag10  1  0.74432365  0.75427958  -0.00963698  1
  Ag  Ag11  1  0.75032783  0.24551880  -0.00525075  1
  Ag  Ag12  1  0.24912017  0.74823416  0.51395344  1
  Ag  Ag13  1  0.49884047  -0.00790436  -0.00364827  1
  Ag  Ag14  1  0.48735160  0.75328208  0.75461944  1
  Ag  Ag15  1  0.00062970  0.24964237  0.75094611  1
  Sb  Sb16  1  0.75434226  0.24852641  0.50635107  1
  Sb  Sb17  1  0.49866706  0.50887490  -0.00091922  1
  Sb  Sb18  1  0.00108628  -0.00575062  0.50470318  1
  Sb  Sb19  1  0.25001628  0.24660773  -0.00319962  1
  Sb  Sb20  1  0.00057911  -0.00279743  -0.00359018  1
  Sb  Sb21  1  0.24786034  0.25133427  0.50248775  1
  Sb  Sb22  1  0.75304261  0.51048257  0.74949556  1
  Sb  Sb23  1  0.49908560  -0.00523466  0.50371445  1
  Sb  Sb24  1  0.74652534  -0.00536598  0.24497750  1
  Sb  Sb25  1  0.49633199  0.50654991  0.50142293  1
  Sb  Sb26  1  0.49806205  0.24804307  0.24536254  1
  Sb  Sb27  1  0.50023550  0.24783969  0.75323937  1
  Sb  Sb28  1  0.74987186  0.50515032  0.25054605  1
  Sb  Sb29  1  0.00849751  0.74906751  0.25181691  1
  Sb  Sb30  1  0.00187132  0.50274395  -0.00365713  1
  Sb  Sb31  1  0.00079928  0.25160351  0.24868310  1
  Te  Te32  1  0.24972306  0.25019890  0.25000490  1
  Te  Te33  1  0.24587758  0.24816064  0.75048894  1
  Te  Te34  1  0.25044094  0.75045604  0.24935647  1
  Te  Te35  1  0.24967576  0.75165245  0.75016470  1
  Te  Te36  1  0.75054153  0.24931532  0.24314178  1
  Te  Te37  1  0.75207133  0.24503826  0.75321226  1
  Te  Te38  1  0.74453352  0.75056480  0.24912541  1
  Te  Te39  1  0.74919386  0.75086182  0.75048566  1
  Te  Te40  1  0.25150602  -0.00205372  -0.00313846  1
  Te  Te41  1  0.25002631  -0.00384899  0.50243269  1
  Te  Te42  1  0.25021755  0.50244476  -0.00038368  1
  Te  Te43  1  0.24752885  0.50232499  0.50190233  1
  Te  Te44  1  0.74896454  -0.00581694  -0.00258483  1
  Te  Te45  1  0.75045247  -0.00568925  0.50495260  1
  Te  Te46  1  0.74964687  0.50257975  0.00111345  1
  Te  Te47  1  0.75571713  0.50597874  0.49874318  1
  Te  Te48  1  -0.00591514  0.25161325  -0.00639127  1
  Te  Te49  1  -0.00122926  0.25784184  0.50667142  1
  Te  Te50  1  0.00016936  0.74865601  -0.00459658  1
  Te  Te51  1  0.00137810  0.74725110  0.50189945  1
  Te  Te52  1  0.50624215  0.24072949  -0.00010274  1
  Te  Te53  1  0.50251029  0.25146875  0.49880963  1
  Te  Te54  1  0.49849481  0.75212407  -0.00181728  1
  Te  Te55  1  0.49918185  0.75003863  0.50111012  1
  Te  Te56  1  0.00972194  0.00231505  0.25225292  1
  Te  Te57  1  0.00118793  -0.00232459  0.74903827  1
  Te  Te58  1  0.00636504  0.49859984  0.25638931  1
  Te  Te59  1  0.00249166  0.50327857  0.74780787  1
  Te  Te60  1  0.49545379  -0.00349827  0.24530670  1
  Te  Te61  1  0.49882510  -0.00257548  0.75266525  1
  Te  Te62  1  0.49363040  0.50450069  0.24986816  1
  Te  Te63  1  0.49230612  0.50380626  0.75019789  1
