# generated using pymatgen
data_AgSbTe2
_symmetry_space_group_name_H-M   'P 1'
_cell_length_a   12.21703347
_cell_length_b   12.21938914
_cell_length_c   12.21736302
_cell_angle_alpha   90.00190211
_cell_angle_beta   89.99894178
_cell_angle_gamma   89.99651723
_symmetry_Int_Tables_number   1
_chemical_formula_structural   AgSbTe2
_chemical_formula_sum   'Ag16 Sb16 Te32'
_cell_volume   1823.86519853
_cell_formula_units_Z   16
loop_
 _symmetry_equiv_pos_site_id
 _symmetry_equiv_pos_as_xyz
  1  'x, y, z'
loop_
 _atom_site_type_symbol
 _atom_site_label
 _atom_site_symmetry_multiplicity
 _atom_site_fract_x
 _atom_site_fract_y
 _atom_site_fract_z
 _atom_site_occupancy
  Ag  Ag0  1  0.25136759  0.00702179  0.24946575  1
  Ag  Ag1  1  0.75188115  0.74545408  0.00302917  1
  Ag  Ag2  1  0.49910971  0.74214341  0.24928992  1
  Ag  Ag3  1  0.00128428  0.74545083  0.75348636  1
  Ag  Ag4  1  0.24781384  0.25414498  0.00862487  1
  Ag  Ag5  1  0.25231612  0.25417507  0.49139699  1
  Ag  Ag6  1  0.00243903  0.49924582  0.00315997  1
  Ag  Ag7  1  0.49550911  0.49688815  0.49054072  1
  Ag  Ag8  1  0.00827941  0.25480078  0.24737154  1
  Ag  Ag9  1  0.49550128  0.00254808  0.49385553  1
  Ag  Ag10  1  0.24738023  0.49900508  0.75046735  1
  Ag  Ag11  1  0.49808702  0.49907411  0.00937880  1
  Ag  Ag12  1  0.00477604  0.49748486  0.49657601  1
  Ag  Ag13  1  0.00276414  0.00066867  0.00351803  1
  Ag  Ag14  1  0.74620488  0.50019122  0.24679931  1
  Ag  Ag15  1  0.49233080  0.25610854  0.25172964  1
  Sb  Sb16  1  0.49647659  0.25244747  0.74844480  1
  Sb  Sb17  1  0.25055226  0.74344929  0.49684782  1
  Sb  Sb18  1  0.00486716  0.00268153  0.49622747  1
  Sb  Sb19  1  0.24871229  0.74379542  0.00255400  1
  Sb  Sb20  1  0.75180999  0.25420170  0.00431963  1
  Sb  Sb21  1  0.25493237  0.49198893  0.24946259  1
  Sb  Sb22  1  0.24841827  -0.00016133  0.75074141  1
  Sb  Sb23  1  0.00169466  0.74320411  0.24708178  1
  Sb  Sb24  1  0.74985648  0.74727150  0.49598397  1
  Sb  Sb25  1  0.74729997  0.25241311  0.49609681  1
  Sb  Sb26  1  0.49669714  0.00101928  0.00624894  1
  Sb  Sb27  1  0.00405332  0.25419944  0.75237425  1
  Sb  Sb28  1  0.74938068  -0.00075795  0.24791039  1
  Sb  Sb29  1  0.49866279  0.74654719  0.75139251  1
  Sb  Sb30  1  0.75227445  0.50279509  0.75267442  1
  Sb  Sb31  1  0.75143968  -0.00306770  0.75223501  1
  Te  Te32  1  0.24989755  0.24818846  0.24950710  1
  Te  Te33  1  0.24975555  0.25542792  0.75043742  1
  Te  Te34  1  0.25587513  0.76278670  0.24992104  1
  Te  Te35  1  0.24541876  0.74430903  0.75016735  1
  Te  Te36  1  0.74984763  0.25585139  0.24929990  1
  Te  Te37  1  0.75009306  0.24969498  0.75024207  1
  Te  Te38  1  0.74557197  0.74490565  0.24562325  1
  Te  Te39  1  0.75554782  0.74968701  0.75819008  1
  Te  Te40  1  0.24644575  0.00655370  0.00169131  1
  Te  Te41  1  0.25286464  0.00673693  0.49801041  1
  Te  Te42  1  0.24872631  0.49652779  -0.00214809  1
  Te  Te43  1  0.24998679  0.49615226  0.50216858  1
  Te  Te44  1  0.75638018  -0.00634369  0.00017134  1
  Te  Te45  1  0.74274735  -0.00037197  0.50043387  1
  Te  Te46  1  0.75038589  0.50271787  0.00309141  1
  Te  Te47  1  0.74939895  0.50043311  0.49545660  1
  Te  Te48  1  0.00192379  0.25326955  0.00278152  1
  Te  Te49  1  0.00370474  0.25365531  0.49652274  1
  Te  Te50  1  -0.00104331  0.74623663  0.00017686  1
  Te  Te51  1  -0.00081259  0.74506461  0.50375850  1
  Te  Te52  1  0.49709471  0.25315353  0.00375309  1
  Te  Te53  1  0.49733398  0.25450143  0.49718095  1
  Te  Te54  1  0.50247549  0.74709595  0.00311507  1
  Te  Te55  1  0.50028434  0.74626537  0.49618525  1
  Te  Te56  1  0.00179162  0.00335545  0.24767679  1
  Te  Te57  1  0.00074986  -0.00615416  0.75466515  1
  Te  Te58  1  -0.00241476  0.49928892  0.24889964  1
  Te  Te59  1  0.00243483  0.50262023  0.75119082  1
  Te  Te60  1  0.49865611  0.00249959  0.25237673  1
  Te  Te61  1  0.49961282  -0.00118315  0.74085062  1
  Te  Te62  1  0.49893428  0.49893662  0.24985961  1
  Te  Te63  1  0.49615805  0.50170443  0.74945728  1
