# generated using pymatgen
data_AgSbTe2
_symmetry_space_group_name_H-M   'P 1'
_cell_length_a   12.20457064
_cell_length_b   12.20985253
_cell_length_c   12.19971732
_cell_angle_alpha   89.99953362
_cell_angle_beta   90.01218445
_cell_angle_gamma   90.00018604
_symmetry_Int_Tables_number   1
_chemical_formula_structural   AgSbTe2
_chemical_formula_sum   'Ag16 Sb16 Te32'
_cell_volume   1817.95312893
_cell_formula_units_Z   16
loop_
 _symmetry_equiv_pos_site_id
 _symmetry_equiv_pos_as_xyz
  1  'x, y, z'
loop_
 _atom_site_type_symbol
 _atom_site_label
 _atom_site_symmetry_multiplicity
 _atom_site_fract_x
 _atom_site_fract_y
 _atom_site_fract_z
 _atom_site_occupancy
  Ag  Ag0  1  0.50300729  0.49933862  0.00357787  1
  Ag  Ag1  1  0.50094781  0.24985728  0.75396212  1
  Ag  Ag2  1  0.25080872  0.75018057  0.00347026  1
  Ag  Ag3  1  -0.00327790  0.50040323  0.00472428  1
  Ag  Ag4  1  0.75065160  -0.00048710  0.24940691  1
  Ag  Ag5  1  0.24643265  0.24886603  0.49663685  1
  Ag  Ag6  1  -0.00097942  0.74892852  0.74900490  1
  Ag  Ag7  1  0.24933079  -0.00012622  0.24963254  1
  Ag  Ag8  1  0.50073980  0.00026541  0.00506789  1
  Ag  Ag9  1  0.50236132  0.75194996  0.24653175  1
  Ag  Ag10  1  0.75375006  0.74983019  0.49506104  1
  Ag  Ag11  1  -0.00053807  -0.00001631  0.49480933  1
  Ag  Ag12  1  -0.00224816  0.50027639  0.49558630  1
  Ag  Ag13  1  0.75302208  0.49998639  0.24715458  1
  Ag  Ag14  1  -0.00220096  0.25045442  0.25147633  1
  Ag  Ag15  1  0.74829081  0.25245743  0.00463611  1
  Sb  Sb16  1  0.50112403  0.75007104  0.75459112  1
  Sb  Sb17  1  0.24692039  0.50006930  0.24856964  1
  Sb  Sb18  1  -0.00083310  0.25080890  0.74933038  1
  Sb  Sb19  1  -0.00103441  -0.00080589  0.00609933  1
  Sb  Sb20  1  0.50119753  0.00044955  0.49446759  1
  Sb  Sb21  1  0.25078736  0.24909323  0.00295843  1
  Sb  Sb22  1  0.75055340  -0.00012718  0.75112498  1
  Sb  Sb23  1  0.50272491  0.49938583  0.49636430  1
  Sb  Sb24  1  0.24575216  0.75124330  0.49662561  1
  Sb  Sb25  1  0.24948224  0.00026934  0.75071914  1
  Sb  Sb26  1  0.75375894  0.25007916  0.49427045  1
  Sb  Sb27  1  0.74953920  0.74786383  0.00603332  1
  Sb  Sb28  1  0.75097227  0.50009975  0.75372352  1
  Sb  Sb29  1  0.50215551  0.24854978  0.24587443  1
  Sb  Sb30  1  0.24953546  0.49987205  0.75070569  1
  Sb  Sb31  1  -0.00262176  0.74884835  0.25104364  1
  Te  Te32  1  0.24568710  0.24460921  0.25381014  1
  Te  Te33  1  0.25469890  0.24924085  0.74365129  1
  Te  Te34  1  0.25547116  0.75538531  0.24589349  1
  Te  Te35  1  0.24515828  0.75057662  0.75612136  1
  Te  Te36  1  0.75305238  0.24990640  0.24671525  1
  Te  Te37  1  0.74515023  0.24927488  0.75759860  1
  Te  Te38  1  0.74670544  0.75075071  0.25274249  1
  Te  Te39  1  0.75484140  0.75065744  0.74123454  1
  Te  Te40  1  0.25350825  -0.00291560  0.00627052  1
  Te  Te41  1  0.24572441  0.00251073  0.49340206  1
  Te  Te42  1  0.24969482  0.50395849  0.00154826  1
  Te  Te43  1  0.24316556  0.49585412  0.49881781  1
  Te  Te44  1  0.74676054  0.00300170  0.00678425  1
  Te  Te45  1  0.75365912  -0.00211281  0.49276858  1
  Te  Te46  1  0.75075194  0.49804995  0.00484538  1
  Te  Te47  1  0.75474709  0.50210123  0.49320376  1
  Te  Te48  1  -0.00201785  0.25442593  0.00158341  1
  Te  Te49  1  0.00162488  0.25066338  0.49855740  1
  Te  Te50  1  0.00220408  0.74631370  -0.00296886  1
  Te  Te51  1  -0.00138762  0.74883577  0.50151097  1
  Te  Te52  1  0.50173816  0.25117863  -0.00142608  1
  Te  Te53  1  0.49508235  0.25112976  0.50570399  1
  Te  Te54  1  0.49857600  0.74942387  0.00135312  1
  Te  Te55  1  0.50424144  0.74881302  0.49620059  1
  Te  Te56  1  -0.00141582  0.00232874  0.25277660  1
  Te  Te57  1  -0.00013200  -0.00461050  0.74211159  1
  Te  Te58  1  -0.00328268  0.49809980  0.24920676  1
  Te  Te59  1  -0.00055779  0.50375629  0.75018615  1
  Te  Te60  1  0.50143348  -0.00203902  0.24616495  1
  Te  Te61  1  0.50010357  0.00356946  0.75806665  1
  Te  Te62  1  0.50465737  0.50307980  0.24476096  1
  Te  Te63  1  0.50024323  0.49624700  0.75756337  1
