# generated using pymatgen
data_AgSbTe2
_symmetry_space_group_name_H-M   'P 1'
_cell_length_a   12.27912416
_cell_length_b   12.25643571
_cell_length_c   12.28586707
_cell_angle_alpha   89.99999990
_cell_angle_beta   90.00000001
_cell_angle_gamma   90.00072222
_symmetry_Int_Tables_number   1
_chemical_formula_structural   AgSbTe2
_chemical_formula_sum   'Ag16 Sb16 Te32'
_cell_volume   1849.00205595
_cell_formula_units_Z   16
loop_
 _symmetry_equiv_pos_site_id
 _symmetry_equiv_pos_as_xyz
  1  'x, y, z'
loop_
 _atom_site_type_symbol
 _atom_site_label
 _atom_site_symmetry_multiplicity
 _atom_site_fract_x
 _atom_site_fract_y
 _atom_site_fract_z
 _atom_site_occupancy
  Ag  Ag0  1  -0.00332064  0.24417566  0.25000000  1
  Ag  Ag1  1  0.75361954  0.76139928  -0.00584835  1
  Ag  Ag2  1  0.75314089  0.23936714  0.50528099  1
  Ag  Ag3  1  0.50562623  0.75553027  0.25000005  1
  Ag  Ag4  1  0.24827891  0.24416174  0.51132247  1
  Ag  Ag5  1  0.49555968  0.24623428  0.75000001  1
  Ag  Ag6  1  -0.00536507  0.00518848  -0.01226671  1
  Ag  Ag7  1  -0.00536515  0.00518847  0.51226637  1
  Ag  Ag8  1  -0.00618414  0.76043510  0.74999998  1
  Ag  Ag9  1  0.75361955  0.76139915  0.50584835  1
  Ag  Ag10  1  0.50222113  0.24683065  0.25000000  1
  Ag  Ag11  1  0.24827891  0.24416201  -0.01132290  1
  Ag  Ag12  1  0.75314090  0.23936697  -0.00528099  1
  Ag  Ag13  1  0.76164450  0.00468700  0.74999995  1
  Ag  Ag14  1  0.24732466  0.48382398  0.75000007  1
  Ag  Ag15  1  0.24030929  0.01091137  0.74999999  1
  Sb  Sb16  1  0.00194229  0.49106430  -0.00498889  1
  Sb  Sb17  1  0.75126815  0.00359633  0.25000001  1
  Sb  Sb18  1  0.75496727  0.49097275  0.74999998  1
  Sb  Sb19  1  0.50688052  0.75278758  0.74999999  1
  Sb  Sb20  1  0.24669133  0.76062928  0.50273252  1
  Sb  Sb21  1  0.50700929  0.00258764  0.50216936  1
  Sb  Sb22  1  0.24805029  0.00363683  0.25000001  1
  Sb  Sb23  1  -0.00496757  0.75463712  0.25000001  1
  Sb  Sb24  1  0.49866040  0.49802542  0.50243985  1
  Sb  Sb25  1  0.50700930  0.00258764  -0.00216935  1
  Sb  Sb26  1  0.75006288  0.49695912  0.25000001  1
  Sb  Sb27  1  0.24669134  0.76062928  -0.00273251  1
  Sb  Sb28  1  0.24996038  0.49535846  0.25000002  1
  Sb  Sb29  1  0.00194230  0.49106433  0.50498891  1
  Sb  Sb30  1  0.00598554  0.23986515  0.74999998  1
  Sb  Sb31  1  0.49866039  0.49802543  -0.00243990  1
  Te  Te32  1  0.25792961  0.24995574  0.25000001  1
  Te  Te33  1  0.24716631  0.24440382  0.75000043  1
  Te  Te34  1  0.25967210  0.74737341  0.25000001  1
  Te  Te35  1  0.25067820  0.75742842  0.74999998  1
  Te  Te36  1  0.74384061  0.24841127  0.25000000  1
  Te  Te37  1  0.74810170  0.25031425  0.74999998  1
  Te  Te38  1  0.74653451  0.75020162  0.24999998  1
  Te  Te39  1  0.74786686  0.75092415  0.74999997  1
  Te  Te40  1  0.24082099  0.00496652  -0.00523904  1
  Te  Te41  1  0.24082091  0.00496674  0.50523902  1
  Te  Te42  1  0.24827856  0.48818915  -0.00824211  1
  Te  Te43  1  0.24827855  0.48818916  0.50824204  1
  Te  Te44  1  0.75400659  0.00409934  -0.00452451  1
  Te  Te45  1  0.75400675  0.00409933  0.50452450  1
  Te  Te46  1  0.75197078  0.49840795  -0.00181340  1
  Te  Te47  1  0.75197081  0.49840793  0.50181340  1
  Te  Te48  1  -0.00460173  0.24555709  0.00118722  1
  Te  Te49  1  -0.00460174  0.24555708  0.49881279  1
  Te  Te50  1  -0.00394694  0.75790235  0.00470632  1
  Te  Te51  1  -0.00394690  0.75790234  0.49529368  1
  Te  Te52  1  0.50287441  0.24747766  0.00346209  1
  Te  Te53  1  0.50287442  0.24747762  0.49653790  1
  Te  Te54  1  0.50812261  0.75133428  0.00385711  1
  Te  Te55  1  0.50812256  0.75133429  0.49614286  1
  Te  Te56  1  0.00081893  0.00661998  0.25000003  1
  Te  Te57  1  -0.00391357  -0.00245295  0.75000037  1
  Te  Te58  1  0.00153762  0.48832810  0.25000001  1
  Te  Te59  1  0.00532898  0.52216905  0.74999998  1
  Te  Te60  1  0.49834133  0.00470532  0.25000002  1
  Te  Te61  1  0.49891657  0.00677500  0.75000000  1
  Te  Te62  1  0.49928093  0.49356061  0.25000001  1
  Te  Te63  1  0.48950538  0.49012516  0.75000003  1
