# generated using pymatgen
data_AgSbTe2
_symmetry_space_group_name_H-M   'P 1'
_cell_length_a   12.23548222
_cell_length_b   12.22322944
_cell_length_c   12.22672408
_cell_angle_alpha   89.97810840
_cell_angle_beta   90.00219279
_cell_angle_gamma   90.00109033
_symmetry_Int_Tables_number   1
_chemical_formula_structural   AgSbTe2
_chemical_formula_sum   'Ag16 Sb16 Te32'
_cell_volume   1828.59333881
_cell_formula_units_Z   16
loop_
 _symmetry_equiv_pos_site_id
 _symmetry_equiv_pos_as_xyz
  1  'x, y, z'
loop_
 _atom_site_type_symbol
 _atom_site_label
 _atom_site_symmetry_multiplicity
 _atom_site_fract_x
 _atom_site_fract_y
 _atom_site_fract_z
 _atom_site_occupancy
  Ag  Ag0  1  0.00340183  0.50043465  0.00494212  1
  Ag  Ag1  1  0.26457751  0.49884478  0.25017088  1
  Ag  Ag2  1  0.00065967  0.00586561  0.50176035  1
  Ag  Ag3  1  0.74423948  0.25341237  0.49965345  1
  Ag  Ag4  1  0.74489083  0.00499511  0.74762495  1
  Ag  Ag5  1  0.49869562  0.49218737  0.48595385  1
  Ag  Ag6  1  0.49730098  0.00123221  -0.00149136  1
  Ag  Ag7  1  0.25468179  0.00319456  0.74878919  1
  Ag  Ag8  1  0.49797763  0.73600473  0.24750186  1
  Ag  Ag9  1  0.49941962  0.26414092  0.25527970  1
  Ag  Ag10  1  0.25557191  0.25402887  0.49966245  1
  Ag  Ag11  1  0.00119820  0.49508858  0.49508206  1
  Ag  Ag12  1  0.49691721  0.49958197  0.01452737  1
  Ag  Ag13  1  0.49940292  0.24899007  0.74601714  1
  Ag  Ag14  1  0.73556886  0.49771385  0.25271186  1
  Ag  Ag15  1  0.25537980  0.74600622  0.00207648  1
  Sb  Sb16  1  0.74522125  0.25153544  0.00078230  1
  Sb  Sb17  1  0.25256063  0.49734649  0.74946819  1
  Sb  Sb18  1  0.74501484  0.00282193  0.25203151  1
  Sb  Sb19  1  0.25486476  0.25279332  0.00074426  1
  Sb  Sb20  1  0.49811637  0.75072958  0.75105931  1
  Sb  Sb21  1  0.00070975  0.24964739  0.74631973  1
  Sb  Sb22  1  0.00076220  0.25428120  0.25347273  1
  Sb  Sb23  1  0.25216512  0.74784426  0.49870100  1
  Sb  Sb24  1  0.49957634  0.00729579  0.50231361  1
  Sb  Sb25  1  0.00239787  -0.00079622  -0.00073485  1
  Sb  Sb26  1  0.25387035  0.00222510  0.25120910  1
  Sb  Sb27  1  0.74548475  0.74816671  0.00197963  1
  Sb  Sb28  1  0.00190217  0.74545117  0.24959469  1
  Sb  Sb29  1  0.74798163  0.74749194  0.49817055  1
  Sb  Sb30  1  0.00169984  0.74995199  0.75010761  1
  Sb  Sb31  1  0.74654072  0.49639285  0.74756603  1
  Te  Te32  1  0.25434973  0.25393621  0.25487703  1
  Te  Te33  1  0.25468979  0.24558539  0.74534247  1
  Te  Te34  1  0.25470902  0.74588273  0.24666831  1
  Te  Te35  1  0.25032560  0.75823264  0.75514758  1
  Te  Te36  1  0.74540950  0.25435583  0.25456034  1
  Te  Te37  1  0.74506801  0.24596440  0.74525675  1
  Te  Te38  1  0.74294319  0.74381345  0.24949738  1
  Te  Te39  1  0.75055653  0.76115584  0.75029074  1
  Te  Te40  1  0.25025568  -0.00127901  -0.00177636  1
  Te  Te41  1  0.24784726  0.00212876  0.50226773  1
  Te  Te42  1  0.25211147  0.50071769  -0.00041658  1
  Te  Te43  1  0.24920079  0.49784362  0.50046351  1
  Te  Te44  1  0.74947515  -0.00017409  -0.00372286  1
  Te  Te45  1  0.75216040  0.00343679  0.50213501  1
  Te  Te46  1  0.74921633  0.49983586  0.00227153  1
  Te  Te47  1  0.75121138  0.49727648  0.49920087  1
  Te  Te48  1  -0.00022496  0.25723127  -0.00014473  1
  Te  Te49  1  0.00091841  0.25281246  0.49990006  1
  Te  Te50  1  0.00710174  0.74425323  0.00028996  1
  Te  Te51  1  -0.00011351  0.74650010  0.49973573  1
  Te  Te52  1  0.49982369  0.25071445  -0.00041774  1
  Te  Te53  1  0.49913924  0.25099796  0.49976360  1
  Te  Te54  1  0.49683166  0.74800366  0.00144294  1
  Te  Te55  1  0.49977508  0.74147998  0.49540175  1
  Te  Te56  1  -0.00107089  -0.00107613  0.25584057  1
  Te  Te57  1  0.00137459  0.00012570  0.74628426  1
  Te  Te58  1  0.00092168  0.49989752  0.25155929  1
  Te  Te59  1  -0.00112892  0.49944830  0.74886687  1
  Te  Te60  1  0.50073041  0.00093333  0.24340579  1
  Te  Te61  1  0.49847433  0.00188538  0.75272208  1
  Te  Te62  1  0.49807855  0.49720456  0.24932893  1
  Te  Te63  1  0.50108660  0.49597485  0.75090945  1
