# generated using pymatgen
data_AgSbTe2
_symmetry_space_group_name_H-M   'P 1'
_cell_length_a   12.28748946
_cell_length_b   12.28826221
_cell_length_c   12.25254645
_cell_angle_alpha   89.99785682
_cell_angle_beta   90.00238939
_cell_angle_gamma   89.99493952
_symmetry_Int_Tables_number   1
_chemical_formula_structural   AgSbTe2
_chemical_formula_sum   'Ag16 Sb16 Te32'
_cell_volume   1850.03516491
_cell_formula_units_Z   16
loop_
 _symmetry_equiv_pos_site_id
 _symmetry_equiv_pos_as_xyz
  1  'x, y, z'
loop_
 _atom_site_type_symbol
 _atom_site_label
 _atom_site_symmetry_multiplicity
 _atom_site_fract_x
 _atom_site_fract_y
 _atom_site_fract_z
 _atom_site_occupancy
  Ag  Ag0  1  0.24521035  -0.00588511  0.74898145  1
  Ag  Ag1  1  0.49259316  0.50072393  0.50086140  1
  Ag  Ag2  1  0.75064288  -0.00043865  0.25209670  1
  Ag  Ag3  1  0.25382358  0.50944141  0.25459630  1
  Ag  Ag4  1  0.48786997  0.74393693  0.25408758  1
  Ag  Ag5  1  0.00434348  0.25083818  0.25197679  1
  Ag  Ag6  1  0.24872112  0.74805157  -0.00133879  1
  Ag  Ag7  1  0.01144540  0.74769895  0.25155331  1
  Ag  Ag8  1  0.49714652  0.25426358  0.74526030  1
  Ag  Ag9  1  0.49538839  0.25458945  0.25472561  1
  Ag  Ag10  1  0.25017914  0.74324323  0.50035543  1
  Ag  Ag11  1  0.75043772  0.49783729  0.74504077  1
  Ag  Ag12  1  0.01041412  0.74891706  0.74867484  1
  Ag  Ag13  1  0.00269115  0.25102907  0.74797004  1
  Ag  Ag14  1  0.75329905  0.00170164  0.74818802  1
  Ag  Ag15  1  0.24981774  0.50617016  0.74437673  1
  Sb  Sb16  1  0.49795986  0.50195566  -0.00096206  1
  Sb  Sb17  1  0.00220620  -0.00171687  -0.00181372  1
  Sb  Sb18  1  0.74944579  0.25024672  -0.00125453  1
  Sb  Sb19  1  0.25255139  0.25705931  0.50049898  1
  Sb  Sb20  1  0.49723017  -0.00194200  0.50114840  1
  Sb  Sb21  1  0.74759583  0.50039699  0.25640219  1
  Sb  Sb22  1  0.74855482  0.25179244  0.50186644  1
  Sb  Sb23  1  0.00289442  -0.00196722  0.50191524  1
  Sb  Sb24  1  0.74879168  0.74802625  0.50208415  1
  Sb  Sb25  1  0.48973948  0.74456482  0.74423239  1
  Sb  Sb26  1  0.00746038  0.50228661  0.50225187  1
  Sb  Sb27  1  0.74917380  0.75020503  -0.00209196  1
  Sb  Sb28  1  0.00192411  0.50160569  -0.00180911  1
  Sb  Sb29  1  0.49766705  -0.00271786  -0.00170430  1
  Sb  Sb30  1  0.25074320  0.25134206  -0.00153218  1
  Sb  Sb31  1  0.24929868  -0.00554498  0.25241492  1
  Te  Te32  1  0.24884402  0.24998606  0.24930067  1
  Te  Te33  1  0.24696039  0.25412027  0.75084134  1
  Te  Te34  1  0.24614740  0.75215107  0.25195768  1
  Te  Te35  1  0.24992365  0.74498097  0.74876036  1
  Te  Te36  1  0.75209029  0.24792830  0.24955604  1
  Te  Te37  1  0.75395382  0.24565402  0.75028176  1
  Te  Te38  1  0.75570031  0.75088910  0.24977539  1
  Te  Te39  1  0.75802456  0.75541880  0.75073261  1
  Te  Te40  1  0.25102226  -0.01155086  -0.01387861  1
  Te  Te41  1  0.25140884  -0.01399747  0.51095864  1
  Te  Te42  1  0.24993809  0.50794888  0.00247142  1
  Te  Te43  1  0.25497127  0.50398310  0.49867374  1
  Te  Te44  1  0.74847130  -0.00157838  -0.00411164  1
  Te  Te45  1  0.74790269  -0.00200277  0.50359874  1
  Te  Te46  1  0.74915471  0.50161443  -0.01847939  1
  Te  Te47  1  0.73515502  0.50169667  0.50933236  1
  Te  Te48  1  0.00212281  0.25078781  0.00235640  1
  Te  Te49  1  0.00178490  0.25126308  0.49817089  1
  Te  Te50  1  0.00663310  0.74923020  0.00172137  1
  Te  Te51  1  0.00657184  0.74898303  0.49872110  1
  Te  Te52  1  0.49758599  0.25019323  0.00410591  1
  Te  Te53  1  0.49761005  0.25655894  0.49751931  1
  Te  Te54  1  0.49257954  0.74983140  0.01496998  1
  Te  Te55  1  0.49545121  0.74528232  0.49400885  1
  Te  Te56  1  -0.00282321  0.00319439  0.25151202  1
  Te  Te57  1  -0.00308493  0.00265020  0.74867937  1
  Te  Te58  1  -0.00159456  0.49901682  0.25208786  1
  Te  Te59  1  0.00522243  0.49790633  0.74753556  1
  Te  Te60  1  0.50240796  0.00687896  0.25144513  1
  Te  Te61  1  0.50580105  0.00864263  0.74847482  1
  Te  Te62  1  0.50298309  0.49643658  0.25054504  1
  Te  Te63  1  0.49381950  0.49819058  0.74932207  1
