# generated using pymatgen
data_AgSbTe2
_symmetry_space_group_name_H-M   'P 1'
_cell_length_a   12.34525064
_cell_length_b   12.33111914
_cell_length_c   12.32743866
_cell_angle_alpha   90.01516414
_cell_angle_beta   90.01083760
_cell_angle_gamma   89.99524550
_symmetry_Int_Tables_number   1
_chemical_formula_structural   AgSbTe2
_chemical_formula_sum   'Ag16 Sb16 Te32'
_cell_volume   1876.61520562
_cell_formula_units_Z   16
loop_
 _symmetry_equiv_pos_site_id
 _symmetry_equiv_pos_as_xyz
  1  'x, y, z'
loop_
 _atom_site_type_symbol
 _atom_site_label
 _atom_site_symmetry_multiplicity
 _atom_site_fract_x
 _atom_site_fract_y
 _atom_site_fract_z
 _atom_site_occupancy
  Ag  Ag0  1  0.00949639  0.26391816  0.25721683  1
  Ag  Ag1  1  0.23810843  0.48216486  0.73074723  1
  Ag  Ag2  1  0.00988761  0.49660407  0.49445068  1
  Ag  Ag3  1  0.00425872  0.73080473  0.26460746  1
  Ag  Ag4  1  0.76120699  0.01182266  0.75173883  1
  Ag  Ag5  1  0.47856402  0.25328609  0.74729464  1
  Ag  Ag6  1  0.24396172  0.01912010  0.74527835  1
  Ag  Ag7  1  0.24369285  0.25592964  -0.01672461  1
  Ag  Ag8  1  0.24237317  0.26775001  0.51983401  1
  Ag  Ag9  1  0.47899221  0.49518480  0.50291099  1
  Ag  Ag10  1  0.24177270  0.73280795  0.51065966  1
  Ag  Ag11  1  0.76924739  0.49434094  0.25581158  1
  Ag  Ag12  1  0.76024076  0.25286152  -0.00904792  1
  Ag  Ag13  1  0.01160100  0.25715982  0.74659041  1
  Ag  Ag14  1  0.00917041  0.73919846  0.73905100  1
  Ag  Ag15  1  0.23570495  0.48795053  0.26773985  1
  Sb  Sb16  1  0.24806508  0.74541920  -0.00336471  1
  Sb  Sb17  1  0.00212478  0.00337825  0.50293955  1
  Sb  Sb18  1  0.24800810  0.00492780  0.25102566  1
  Sb  Sb19  1  0.75621519  0.00264760  0.24755785  1
  Sb  Sb20  1  0.49459281  0.25481493  0.25144847  1
  Sb  Sb21  1  0.75504892  0.74552314  -0.00204989  1
  Sb  Sb22  1  0.49483267  0.74051425  0.25673135  1
  Sb  Sb23  1  0.49317585  0.74840068  0.74488346  1
  Sb  Sb24  1  0.00176572  0.49770896  0.00185844  1
  Sb  Sb25  1  0.75738367  0.49668856  0.74720958  1
  Sb  Sb26  1  0.49500039  0.00508009  0.50491960  1
  Sb  Sb27  1  0.49760099  0.49571254  -0.00408413  1
  Sb  Sb28  1  0.75530216  0.25141815  0.50151787  1
  Sb  Sb29  1  0.00091785  0.00374856  -0.00379739  1
  Sb  Sb30  1  0.75859677  0.74548587  0.50119071  1
  Sb  Sb31  1  0.49801518  0.00605056  -0.00454051  1
  Te  Te32  1  0.24756924  0.24965260  0.25224745  1
  Te  Te33  1  0.24926015  0.25038806  0.75110331  1
  Te  Te34  1  0.24377863  0.75468744  0.24415398  1
  Te  Te35  1  0.24702086  0.74388738  0.75233123  1
  Te  Te36  1  0.75209697  0.25060388  0.25103023  1
  Te  Te37  1  0.76094252  0.24963794  0.75087686  1
  Te  Te38  1  0.75799813  0.75095264  0.24945362  1
  Te  Te39  1  0.75625779  0.75382463  0.75193253  1
  Te  Te40  1  0.25070191  0.00786791  -0.00502289  1
  Te  Te41  1  0.25045924  0.00121084  0.50217242  1
  Te  Te42  1  0.25086580  0.49615274  -0.00153435  1
  Te  Te43  1  0.24660933  0.50174634  0.49883361  1
  Te  Te44  1  0.74940467  0.00867298  -0.00499397  1
  Te  Te45  1  0.74676932  -0.00265073  0.50814580  1
  Te  Te46  1  0.74867888  0.49476510  0.00895957  1
  Te  Te47  1  0.75625284  0.50070370  0.49525517  1
  Te  Te48  1  0.00131798  0.25047845  -0.00357959  1
  Te  Te49  1  0.00260153  0.25144877  0.49932105  1
  Te  Te50  1  -0.00139977  0.75186181  -0.00280339  1
  Te  Te51  1  0.00324669  0.74808855  0.50201392  1
  Te  Te52  1  0.49628089  0.25035128  -0.00577580  1
  Te  Te53  1  0.49528510  0.25339754  0.50352158  1
  Te  Te54  1  0.50272180  0.75198182  0.00126743  1
  Te  Te55  1  0.48856954  0.74305505  0.49993386  1
  Te  Te56  1  -0.00042279  -0.00073162  0.24932961  1
  Te  Te57  1  0.00267647  0.00443797  0.74873814  1
  Te  Te58  1  0.00221444  0.49768129  0.24914568  1
  Te  Te59  1  0.00206651  0.49898766  0.75009261  1
  Te  Te60  1  0.50259193  -0.00319352  0.25020685  1
  Te  Te61  1  0.49536553  0.00482879  0.74978478  1
  Te  Te62  1  0.49479487  0.49973137  0.25635273  1
  Te  Te63  1  0.50249752  0.49706790  0.74590103  1
