# generated using pymatgen
data_AgSbTe2
_symmetry_space_group_name_H-M   'P 1'
_cell_length_a   12.20983998
_cell_length_b   12.21322163
_cell_length_c   12.20804608
_cell_angle_alpha   89.99887534
_cell_angle_beta   90.00575181
_cell_angle_gamma   90.00551454
_symmetry_Int_Tables_number   1
_chemical_formula_structural   AgSbTe2
_chemical_formula_sum   'Ag16 Sb16 Te32'
_cell_volume   1820.48190290
_cell_formula_units_Z   16
loop_
 _symmetry_equiv_pos_site_id
 _symmetry_equiv_pos_as_xyz
  1  'x, y, z'
loop_
 _atom_site_type_symbol
 _atom_site_label
 _atom_site_symmetry_multiplicity
 _atom_site_fract_x
 _atom_site_fract_y
 _atom_site_fract_z
 _atom_site_occupancy
  Ag  Ag0  1  0.74703696  0.25033882  0.50834085  1
  Ag  Ag1  1  0.50029842  0.50295167  0.50368446  1
  Ag  Ag2  1  0.74309291  0.74938240  0.50361659  1
  Ag  Ag3  1  0.75093828  0.24830463  -0.00912887  1
  Ag  Ag4  1  0.50392969  0.25061137  0.74747446  1
  Ag  Ag5  1  0.24907794  0.25181487  -0.00483194  1
  Ag  Ag6  1  0.50038508  0.74893276  0.74459711  1
  Ag  Ag7  1  0.25252549  0.50108353  0.25040652  1
  Ag  Ag8  1  -0.00000543  0.49847964  0.50304603  1
  Ag  Ag9  1  0.49833662  0.74778037  0.25480912  1
  Ag  Ag10  1  -0.00336442  0.25070759  0.75172870  1
  Ag  Ag11  1  0.74713031  0.00554020  0.74787773  1
  Ag  Ag12  1  0.50365158  -0.00217393  0.50478769  1
  Ag  Ag13  1  0.25200298  0.74778409  -0.00172307  1
  Ag  Ag14  1  0.25309789  0.49760619  0.74960376  1
  Ag  Ag15  1  -0.00037517  0.00362154  -0.00422721  1
  Sb  Sb16  1  0.49838929  0.25272386  0.25299399  1
  Sb  Sb17  1  0.74793142  -0.00047852  0.25220161  1
  Sb  Sb18  1  0.25233002  0.25380269  0.50639097  1
  Sb  Sb19  1  0.00118064  0.25219755  0.24923322  1
  Sb  Sb20  1  0.50162105  0.00137165  -0.00487671  1
  Sb  Sb21  1  0.00034101  0.74759190  0.74856844  1
  Sb  Sb22  1  0.00367547  0.49624000  -0.00437871  1
  Sb  Sb23  1  -0.00449298  0.00224531  0.50488268  1
  Sb  Sb24  1  0.00278847  0.74705365  0.25156988  1
  Sb  Sb25  1  0.25892316  0.74610556  0.50251651  1
  Sb  Sb26  1  0.49673541  0.49949350  -0.00462779  1
  Sb  Sb27  1  0.74606547  0.50098883  0.25389545  1
  Sb  Sb28  1  0.25305726  0.00185824  0.75168047  1
  Sb  Sb29  1  0.74876184  0.75191046  -0.00492951  1
  Sb  Sb30  1  0.74611821  0.49281366  0.74607290  1
  Sb  Sb31  1  0.25292080  -0.00141253  0.24814166  1
  Te  Te32  1  0.25130921  0.25586639  0.24016202  1
  Te  Te33  1  0.25097511  0.25231190  0.75363393  1
  Te  Te34  1  0.25412787  0.74591693  0.24492073  1
  Te  Te35  1  0.25372718  0.74665035  0.75358556  1
  Te  Te36  1  0.74905398  0.25002585  0.24990021  1
  Te  Te37  1  0.74828407  0.25025853  0.74937324  1
  Te  Te38  1  0.74308939  0.74968197  0.25398154  1
  Te  Te39  1  0.74551792  0.75446639  0.74822250  1
  Te  Te40  1  0.24645827  0.00125775  -0.00035442  1
  Te  Te41  1  0.25550426  0.00035864  0.49931216  1
  Te  Te42  1  0.24953908  0.49934758  -0.00137544  1
  Te  Te43  1  0.25086691  0.49992847  0.50135438  1
  Te  Te44  1  0.75256116  0.00427221  -0.00444667  1
  Te  Te45  1  0.74747537  0.00132360  0.50342950  1
  Te  Te46  1  0.75152593  0.49283492  0.00181634  1
  Te  Te47  1  0.74852474  0.49931083  0.50036532  1
  Te  Te48  1  0.00015427  0.24832671  -0.00362720  1
  Te  Te49  1  -0.00442718  0.25222013  0.50424651  1
  Te  Te50  1  0.00359905  0.75453533  -0.00033409  1
  Te  Te51  1  -0.00855012  0.74638946  0.50030104  1
  Te  Te52  1  0.50001053  0.24942801  -0.00439699  1
  Te  Te53  1  0.50283854  0.25138268  0.50314799  1
  Te  Te54  1  0.49652874  0.75016163  -0.00158835  1
  Te  Te55  1  0.50161474  0.74758862  0.50303523  1
  Te  Te56  1  0.00055404  -0.00047732  0.24272483  1
  Te  Te57  1  -0.00394236  0.00487440  0.75258277  1
  Te  Te58  1  0.00833907  0.50044159  0.25846913  1
  Te  Te59  1  0.00636147  0.49633348  0.74509888  1
  Te  Te60  1  0.49947441  -0.00658053  0.25802196  1
  Te  Te61  1  0.50280592  0.00103115  0.74625475  1
  Te  Te62  1  0.49514125  0.50388504  0.25640182  1
  Te  Te63  1  0.49685148  0.49937571  0.74638383  1
