# generated using pymatgen
data_AgSbTe2
_symmetry_space_group_name_H-M   'P 1'
_cell_length_a   12.21040939
_cell_length_b   12.20910679
_cell_length_c   12.21148065
_cell_angle_alpha   90.00282751
_cell_angle_beta   89.99277212
_cell_angle_gamma   90.00355565
_symmetry_Int_Tables_number   1
_chemical_formula_structural   AgSbTe2
_chemical_formula_sum   'Ag16 Sb16 Te32'
_cell_volume   1820.46543944
_cell_formula_units_Z   16
loop_
 _symmetry_equiv_pos_site_id
 _symmetry_equiv_pos_as_xyz
  1  'x, y, z'
loop_
 _atom_site_type_symbol
 _atom_site_label
 _atom_site_symmetry_multiplicity
 _atom_site_fract_x
 _atom_site_fract_y
 _atom_site_fract_z
 _atom_site_occupancy
  Ag  Ag0  1  0.75144300  0.24490245  0.50103521  1
  Ag  Ag1  1  0.24908797  0.00304296  0.74741151  1
  Ag  Ag2  1  0.50023667  0.75451345  0.74759543  1
  Ag  Ag3  1  -0.00006551  0.49925132  -0.00139827  1
  Ag  Ag4  1  -0.00028281  0.24274678  0.25061406  1
  Ag  Ag5  1  0.75170532  0.49938836  0.74967756  1
  Ag  Ag6  1  0.00144469  0.00125755  0.00256825  1
  Ag  Ag7  1  0.49964001  0.00193577  0.50230676  1
  Ag  Ag8  1  0.49812569  0.24559706  0.74646510  1
  Ag  Ag9  1  -0.00044501  0.75359979  0.75082274  1
  Ag  Ag10  1  -0.00017121  0.00282931  0.49720156  1
  Ag  Ag11  1  -0.00184741  0.75821210  0.24933388  1
  Ag  Ag12  1  0.24854013  0.24347393  0.50291804  1
  Ag  Ag13  1  0.24566872  0.24666242  -0.00225636  1
  Ag  Ag14  1  0.75532544  0.00021648  0.25375048  1
  Ag  Ag15  1  0.50127159  0.75543774  0.25208890  1
  Sb  Sb16  1  0.49998202  0.49840988  -0.00241523  1
  Sb  Sb17  1  0.75479373  0.24813320  -0.00175971  1
  Sb  Sb18  1  0.24938402  0.75667300  0.50177643  1
  Sb  Sb19  1  0.00216394  0.24528187  0.74929317  1
  Sb  Sb20  1  0.75026247  0.75546646  0.50010625  1
  Sb  Sb21  1  0.24294894  0.00137580  0.25322326  1
  Sb  Sb22  1  0.75285441  0.49917892  0.25042268  1
  Sb  Sb23  1  0.50079894  0.24320533  0.25388238  1
  Sb  Sb24  1  0.24819402  0.49889240  0.24895861  1
  Sb  Sb25  1  0.24787213  0.49725095  0.75154636  1
  Sb  Sb26  1  0.75019834  0.00087784  0.74606484  1
  Sb  Sb27  1  0.49737667  0.00113764  -0.00134693  1
  Sb  Sb28  1  0.75299211  0.75182487  -0.00063009  1
  Sb  Sb29  1  0.50133499  0.49818914  0.50158987  1
  Sb  Sb30  1  0.24620126  0.75463800  -0.00147091  1
  Sb  Sb31  1  -0.00152344  0.49755177  0.50212834  1
  Te  Te32  1  0.24628496  0.25000135  0.25032936  1
  Te  Te33  1  0.25206838  0.24733342  0.74846881  1
  Te  Te34  1  0.24925317  0.74971097  0.25029354  1
  Te  Te35  1  0.25095994  0.75392295  0.74935032  1
  Te  Te36  1  0.75301894  0.24778925  0.25400380  1
  Te  Te37  1  0.74591564  0.25140533  0.74705279  1
  Te  Te38  1  0.75240743  0.75300580  0.25062955  1
  Te  Te39  1  0.74918347  0.74715692  0.74897186  1
  Te  Te40  1  0.24516825  0.00515051  -0.00656465  1
  Te  Te41  1  0.24968273  0.00513845  0.50417055  1
  Te  Te42  1  0.24265202  0.49073772  -0.00048053  1
  Te  Te43  1  0.24970218  0.48700170  0.50024298  1
  Te  Te44  1  0.75777398  0.00153034  0.00788541  1
  Te  Te45  1  0.75116539  0.00458408  0.49698217  1
  Te  Te46  1  0.75706180  0.49840849  -0.00610761  1
  Te  Te47  1  0.75052241  0.48999860  0.50579700  1
  Te  Te48  1  0.00272939  0.24760564  0.00108354  1
  Te  Te49  1  0.00018614  0.24706740  0.49910252  1
  Te  Te50  1  0.00171125  0.75172799  0.00047137  1
  Te  Te51  1  0.00040999  0.75441896  0.49943296  1
  Te  Te52  1  0.49310853  0.25021078  -0.00454883  1
  Te  Te53  1  0.49944508  0.24617604  0.50186099  1
  Te  Te54  1  0.49799649  0.74993944  -0.00168740  1
  Te  Te55  1  0.49980630  0.75528677  0.50240064  1
  Te  Te56  1  0.00026244  -0.00119503  0.25154644  1
  Te  Te57  1  0.00026436  -0.00317454  0.74872531  1
  Te  Te58  1  -0.00177278  0.50200954  0.24488787  1
  Te  Te59  1  -0.00286892  0.50683318  0.75308977  1
  Te  Te60  1  0.50438747  -0.00409601  0.25237431  1
  Te  Te61  1  0.50045202  -0.00120909  0.74821682  1
  Te  Te62  1  0.50143248  0.51146688  0.24944683  1
  Te  Te63  1  0.50411723  0.50290167  0.75106737  1
