# generated using pymatgen
data_AgSbTe2
_symmetry_space_group_name_H-M   'P 1'
_cell_length_a   12.25520508
_cell_length_b   12.25572673
_cell_length_c   12.23724379
_cell_angle_alpha   90.00000001
_cell_angle_beta   90.00195537
_cell_angle_gamma   90.00000002
_symmetry_Int_Tables_number   1
_chemical_formula_structural   AgSbTe2
_chemical_formula_sum   'Ag16 Sb16 Te32'
_cell_volume   1837.99050696
_cell_formula_units_Z   16
loop_
 _symmetry_equiv_pos_site_id
 _symmetry_equiv_pos_as_xyz
  1  'x, y, z'
loop_
 _atom_site_type_symbol
 _atom_site_label
 _atom_site_symmetry_multiplicity
 _atom_site_fract_x
 _atom_site_fract_y
 _atom_site_fract_z
 _atom_site_occupancy
  Ag  Ag0  1  0.75484339  0.24999999  0.50788062  1
  Ag  Ag1  1  0.23401939  -0.01518880  0.74955545  1
  Ag  Ag2  1  0.23401916  0.51518879  0.74955544  1
  Ag  Ag3  1  -0.00291404  0.25000006  0.74745406  1
  Ag  Ag4  1  0.00054821  0.50241845  0.51524827  1
  Ag  Ag5  1  0.00220302  -0.00471077  -0.01658170  1
  Ag  Ag6  1  0.00220293  0.50471077  -0.01658183  1
  Ag  Ag7  1  0.76563180  0.49879456  0.74826626  1
  Ag  Ag8  1  0.76563203  0.00120546  0.74826626  1
  Ag  Ag9  1  0.50316251  0.24999997  0.74818047  1
  Ag  Ag10  1  0.49627815  0.74999998  0.25192425  1
  Ag  Ag11  1  0.00054831  -0.00241842  0.51524840  1
  Ag  Ag12  1  0.01188434  0.74999995  0.74918825  1
  Ag  Ag13  1  0.24593559  0.74999997  0.51433063  1
  Ag  Ag14  1  0.48501846  0.75000002  0.74900220  1
  Ag  Ag15  1  0.24572585  0.74999998  -0.01506672  1
  Sb  Sb16  1  0.75252830  -0.00180833  0.25248629  1
  Sb  Sb17  1  0.24812969  -0.00442986  0.25084761  1
  Sb  Sb18  1  0.75268802  0.25000002  -0.01091997  1
  Sb  Sb19  1  0.75406075  0.74999997  -0.00644010  1
  Sb  Sb20  1  0.49681356  0.50335529  -0.00782029  1
  Sb  Sb21  1  -0.00058477  0.25000001  0.25249368  1
  Sb  Sb22  1  0.49854560  0.50199090  0.50627954  1
  Sb  Sb23  1  0.00296264  0.74999996  0.25076929  1
  Sb  Sb24  1  0.24703125  0.25000003  -0.00854928  1
  Sb  Sb25  1  0.49854559  -0.00199091  0.50627954  1
  Sb  Sb26  1  0.24551587  0.25000001  0.50831065  1
  Sb  Sb27  1  0.75252831  0.50180833  0.25248625  1
  Sb  Sb28  1  0.50229071  0.24999998  0.25385829  1
  Sb  Sb29  1  0.49681363  -0.00335521  -0.00782011  1
  Sb  Sb30  1  0.24812969  0.50442986  0.25084759  1
  Sb  Sb31  1  0.75371511  0.74999997  0.50624526  1
  Te  Te32  1  0.25366250  0.25000000  0.25011439  1
  Te  Te33  1  0.25031758  0.24999997  0.74930238  1
  Te  Te34  1  0.25491650  0.75000000  0.25083467  1
  Te  Te35  1  0.24891963  0.75000006  0.74951347  1
  Te  Te36  1  0.74771179  0.25000002  0.26219596  1
  Te  Te37  1  0.75140029  0.25000007  0.74836940  1
  Te  Te38  1  0.73889118  0.74999998  0.24942195  1
  Te  Te39  1  0.75112499  0.74999992  0.75019493  1
  Te  Te40  1  0.24597935  -0.00274321  -0.00286502  1
  Te  Te41  1  0.24592856  -0.00248053  0.50277544  1
  Te  Te42  1  0.24597933  0.50274321  -0.00286491  1
  Te  Te43  1  0.24592862  0.50248055  0.50277541  1
  Te  Te44  1  0.75755024  0.00056165  -0.00423485  1
  Te  Te45  1  0.75496759  0.00079534  0.50356806  1
  Te  Te46  1  0.75755033  0.49943836  -0.00423487  1
  Te  Te47  1  0.75496750  0.49920466  0.50356810  1
  Te  Te48  1  0.00031244  0.25000000  -0.00209020  1
  Te  Te49  1  -0.00132212  0.24999998  0.50225880  1
  Te  Te50  1  0.00266376  0.75000000  0.00107014  1
  Te  Te51  1  0.00267071  0.75000000  0.49915819  1
  Te  Te52  1  0.50040742  0.24999988  -0.00471126  1
  Te  Te53  1  0.50582775  0.25000005  0.50458037  1
  Te  Te54  1  0.49329544  0.75000004  -0.00641298  1
  Te  Te55  1  0.49366717  0.74999998  0.50591232  1
  Te  Te56  1  -0.00064816  0.00091727  0.24948505  1
  Te  Te57  1  0.00027830  -0.00011731  0.74943666  1
  Te  Te58  1  -0.00064816  0.49908276  0.24948510  1
  Te  Te59  1  0.00027850  0.50011728  0.74943694  1
  Te  Te60  1  0.50087659  -0.00457118  0.24876638  1
  Te  Te61  1  0.50060719  -0.00012585  0.75059950  1
  Te  Te62  1  0.50087662  0.50457118  0.24876615  1
  Te  Te63  1  0.50060750  0.50012587  0.75059977  1
