# generated using pymatgen
data_AgSbTe2
_symmetry_space_group_name_H-M   'P 1'
_cell_length_a   12.32434565
_cell_length_b   12.30368558
_cell_length_c   12.30318610
_cell_angle_alpha   89.99484501
_cell_angle_beta   90.00215178
_cell_angle_gamma   89.98437350
_symmetry_Int_Tables_number   1
_chemical_formula_structural   AgSbTe2
_chemical_formula_sum   'Ag16 Sb16 Te32'
_cell_volume   1865.59199410
_cell_formula_units_Z   16
loop_
 _symmetry_equiv_pos_site_id
 _symmetry_equiv_pos_as_xyz
  1  'x, y, z'
loop_
 _atom_site_type_symbol
 _atom_site_label
 _atom_site_symmetry_multiplicity
 _atom_site_fract_x
 _atom_site_fract_y
 _atom_site_fract_z
 _atom_site_occupancy
  Ag  Ag0  1  0.50287952  0.00429256  0.00887729  1
  Ag  Ag1  1  0.24103548  0.23754700  -0.00058754  1
  Ag  Ag2  1  0.76718943  0.49236637  0.75814997  1
  Ag  Ag3  1  -0.00012056  0.48373857  -0.00796752  1
  Ag  Ag4  1  0.74476633  0.00221655  0.23316727  1
  Ag  Ag5  1  0.50282852  0.76611632  0.24146734  1
  Ag  Ag6  1  -0.00024381  0.49232736  0.51694071  1
  Ag  Ag7  1  0.23753596  0.00939462  0.76549885  1
  Ag  Ag8  1  0.00113375  0.01002030  -0.00388136  1
  Ag  Ag9  1  0.00392123  0.24287239  0.23405203  1
  Ag  Ag10  1  0.23246170  0.48702508  0.75809443  1
  Ag  Ag11  1  0.75129068  0.76097540  0.00043727  1
  Ag  Ag12  1  0.49641814  0.23733281  0.24004404  1
  Ag  Ag13  1  0.76165021  0.00293215  0.76482863  1
  Ag  Ag14  1  0.25436029  0.00888329  0.23275558  1
  Ag  Ag15  1  0.00490015  0.25559308  0.76285132  1
  Sb  Sb16  1  0.24587535  0.49370483  0.24210288  1
  Sb  Sb17  1  0.24907184  0.74981188  0.49906704  1
  Sb  Sb18  1  -0.00010459  0.00423334  0.50254148  1
  Sb  Sb19  1  0.75700677  0.24401676  0.00034632  1
  Sb  Sb20  1  0.00073005  0.74940426  0.75200445  1
  Sb  Sb21  1  0.49994608  0.49630979  0.00014812  1
  Sb  Sb22  1  0.75043688  0.75001451  0.49969861  1
  Sb  Sb23  1  0.24974095  0.75449875  0.00102106  1
  Sb  Sb24  1  0.49988911  0.00104530  0.49431958  1
  Sb  Sb25  1  0.24945905  0.24969151  0.50164410  1
  Sb  Sb26  1  0.75040022  0.24994592  0.49976821  1
  Sb  Sb27  1  0.75442991  0.49828773  0.24115588  1
  Sb  Sb28  1  0.50151791  0.75322958  0.75545908  1
  Sb  Sb29  1  0.50020939  0.49866046  0.50197613  1
  Sb  Sb30  1  0.00129250  0.75977347  0.24608188  1
  Sb  Sb31  1  0.49844257  0.24650052  0.75891410  1
  Te  Te32  1  0.24265916  0.24832660  0.24944129  1
  Te  Te33  1  0.24877917  0.24732093  0.74988798  1
  Te  Te34  1  0.25238665  0.75868674  0.25032529  1
  Te  Te35  1  0.25136308  0.75573538  0.74854948  1
  Te  Te36  1  0.75560877  0.24653414  0.24883761  1
  Te  Te37  1  0.75072332  0.24786931  0.75103900  1
  Te  Te38  1  0.75021524  0.75341912  0.24843533  1
  Te  Te39  1  0.74993997  0.75888456  0.75164138  1
  Te  Te40  1  0.24308097  -0.00028842  -0.00022612  1
  Te  Te41  1  0.25127637  -0.00180317  0.50808488  1
  Te  Te42  1  0.25054726  0.50098738  -0.00417584  1
  Te  Te43  1  0.24832970  0.50101673  0.51303982  1
  Te  Te44  1  0.75333057  0.00151050  0.00025504  1
  Te  Te45  1  0.74852318  -0.00037930  0.50795934  1
  Te  Te46  1  0.74906625  0.50449995  -0.00448103  1
  Te  Te47  1  0.75145772  0.50047393  0.51393667  1
  Te  Te48  1  0.00274532  0.24556931  -0.00376972  1
  Te  Te49  1  -0.00089651  0.25409072  0.50365433  1
  Te  Te50  1  -0.00425646  0.75561547  -0.00012961  1
  Te  Te51  1  0.00063597  0.73337983  0.49754717  1
  Te  Te52  1  0.48685276  0.24626360  0.00365940  1
  Te  Te53  1  0.50073024  0.24968940  0.47933471  1
  Te  Te54  1  0.50270130  0.75398133  0.00218186  1
  Te  Te55  1  0.49939426  0.74971051  0.48386205  1
  Te  Te56  1  -0.00003369  0.00494282  0.25559838  1
  Te  Te57  1  -0.00010966  -0.00242104  0.74829173  1
  Te  Te58  1  0.00050544  0.49138397  0.23734757  1
  Te  Te59  1  0.00003396  0.50205518  0.75749740  1
  Te  Te60  1  0.50139278  0.00260047  0.24714117  1
  Te  Te61  1  0.50186808  0.00145084  0.75426535  1
  Te  Te62  1  0.49975842  0.49597213  0.25128595  1
  Te  Te63  1  0.50103940  0.50015863  0.74870488  1
