# generated using pymatgen
data_AgSbTe2
_symmetry_space_group_name_H-M   'P 1'
_cell_length_a   12.21150583
_cell_length_b   12.21763847
_cell_length_c   12.21779436
_cell_angle_alpha   90.00106022
_cell_angle_beta   90.00087407
_cell_angle_gamma   89.99792713
_symmetry_Int_Tables_number   1
_chemical_formula_structural   AgSbTe2
_chemical_formula_sum   'Ag16 Sb16 Te32'
_cell_volume   1822.84315418
_cell_formula_units_Z   16
loop_
 _symmetry_equiv_pos_site_id
 _symmetry_equiv_pos_as_xyz
  1  'x, y, z'
loop_
 _atom_site_type_symbol
 _atom_site_label
 _atom_site_symmetry_multiplicity
 _atom_site_fract_x
 _atom_site_fract_y
 _atom_site_fract_z
 _atom_site_occupancy
  Ag  Ag0  1  0.50384026  0.25121455  0.24245446  1
  Ag  Ag1  1  0.24723717  0.74557231  -0.00260458  1
  Ag  Ag2  1  0.74776319  0.00196157  0.24254166  1
  Ag  Ag3  1  0.25316203  0.25359963  0.50217203  1
  Ag  Ag4  1  -0.00396041  0.50351789  -0.00259456  1
  Ag  Ag5  1  0.74938949  0.49780678  0.23942026  1
  Ag  Ag6  1  -0.00040118  0.74732215  0.24571298  1
  Ag  Ag7  1  0.74920493  0.49781915  0.76038594  1
  Ag  Ag8  1  0.74359814  0.25377966  -0.00064972  1
  Ag  Ag9  1  0.25032962  0.50244275  0.75376813  1
  Ag  Ag10  1  0.50561580  0.49519747  -0.00254140  1
  Ag  Ag11  1  0.00245235  0.74554270  0.75437009  1
  Ag  Ag12  1  0.24775233  0.74711768  0.50247840  1
  Ag  Ag13  1  0.50563788  0.00513231  -0.00064140  1
  Ag  Ag14  1  0.50274369  0.25301570  0.75708825  1
  Ag  Ag15  1  0.74775378  0.00198499  0.75753104  1
  Sb  Sb16  1  0.25209902  -0.00137990  0.75268560  1
  Sb  Sb17  1  -0.00177465  0.25388127  0.75317381  1
  Sb  Sb18  1  0.50176638  0.74835856  0.24578091  1
  Sb  Sb19  1  0.00149910  0.50170173  0.50229329  1
  Sb  Sb20  1  0.50014867  0.00165386  0.50115433  1
  Sb  Sb21  1  0.25782651  0.25474792  -0.00203131  1
  Sb  Sb22  1  0.74738312  0.25116609  0.50038164  1
  Sb  Sb23  1  0.75144939  0.74881572  0.50129866  1
  Sb  Sb24  1  -0.00638666  -0.00364568  -0.00056351  1
  Sb  Sb25  1  -0.00334396  0.25225935  0.24653733  1
  Sb  Sb26  1  0.49804343  0.74701298  0.75415889  1
  Sb  Sb27  1  0.75361144  0.74390301  -0.00063555  1
  Sb  Sb28  1  0.25226900  0.00003859  0.24695994  1
  Sb  Sb29  1  0.25061803  0.50109191  0.24591148  1
  Sb  Sb30  1  0.00008342  -0.00145965  0.50038460  1
  Sb  Sb31  1  0.49813299  0.49840443  0.50287645  1
  Te  Te32  1  0.25491367  0.24993213  0.25415403  1
  Te  Te33  1  0.25261746  0.25238618  0.74822737  1
  Te  Te34  1  0.24476688  0.74940288  0.25026088  1
  Te  Te35  1  0.24805286  0.74817839  0.75102900  1
  Te  Te36  1  0.74727802  0.25110467  0.25003850  1
  Te  Te37  1  0.74795919  0.25205738  0.75061097  1
  Te  Te38  1  0.75389970  0.74946885  0.25212520  1
  Te  Te39  1  0.75352461  0.74846459  0.74760599  1
  Te  Te40  1  0.25636739  -0.00548685  0.00006320  1
  Te  Te41  1  0.25056220  -0.00182047  0.49992692  1
  Te  Te42  1  0.25013801  0.50194431  -0.00402340  1
  Te  Te43  1  0.25039997  0.50130235  0.50612238  1
  Te  Te44  1  0.74702113  0.00260705  -0.00048778  1
  Te  Te45  1  0.74932955  0.00018833  0.50017245  1
  Te  Te46  1  0.74801086  0.50055858  -0.00141222  1
  Te  Te47  1  0.74976579  0.50001639  0.50094689  1
  Te  Te48  1  -0.00705623  0.25676796  0.00058478  1
  Te  Te49  1  0.01090860  0.24989703  0.49949102  1
  Te  Te50  1  0.00368894  0.74631224  -0.00077159  1
  Te  Te51  1  0.00640919  0.74972818  0.50008370  1
  Te  Te52  1  0.50183403  0.25178853  -0.00056683  1
  Te  Te53  1  0.49491004  0.24988571  0.50045095  1
  Te  Te54  1  0.49249829  0.74841026  0.00033770  1
  Te  Te55  1  0.48924905  0.75035818  0.49908676  1
  Te  Te56  1  -0.00721694  -0.00512870  0.24929510  1
  Te  Te57  1  -0.00688971  -0.00647865  0.75096620  1
  Te  Te58  1  -0.00420778  0.50360743  0.24517143  1
  Te  Te59  1  -0.00085084  0.50328417  0.75348854  1
  Te  Te60  1  0.50534834  0.00331453  0.24530121  1
  Te  Te61  1  0.50499396  0.00401828  0.75426130  1
  Te  Te62  1  0.50460290  0.49702056  0.24495171  1
  Te  Te63  1  0.50162657  0.49733204  0.75324951  1
