# generated using pymatgen
data_AgSbTe2
_symmetry_space_group_name_H-M   'P 1'
_cell_length_a   12.23181707
_cell_length_b   12.22145162
_cell_length_c   12.22416364
_cell_angle_alpha   90.00671600
_cell_angle_beta   89.99597124
_cell_angle_gamma   90.00213482
_symmetry_Int_Tables_number   1
_chemical_formula_structural   AgSbTe2
_chemical_formula_sum   'Ag16 Sb16 Te32'
_cell_volume   1827.39705732
_cell_formula_units_Z   16
loop_
 _symmetry_equiv_pos_site_id
 _symmetry_equiv_pos_as_xyz
  1  'x, y, z'
loop_
 _atom_site_type_symbol
 _atom_site_label
 _atom_site_symmetry_multiplicity
 _atom_site_fract_x
 _atom_site_fract_y
 _atom_site_fract_z
 _atom_site_occupancy
  Ag  Ag0  1  0.24860376  0.24552299  0.00324689  1
  Ag  Ag1  1  0.49843576  0.24318389  0.24489704  1
  Ag  Ag2  1  0.75590520  0.00424796  0.24222851  1
  Ag  Ag3  1  0.00244569  0.23971962  0.24875964  1
  Ag  Ag4  1  0.74939081  0.75958045  -0.00240944  1
  Ag  Ag5  1  0.24567410  0.24682093  0.49812782  1
  Ag  Ag6  1  0.75032723  0.49725856  0.75452995  1
  Ag  Ag7  1  0.24931934  0.49465835  0.75138982  1
  Ag  Ag8  1  -0.00128470  0.24656106  0.75210581  1
  Ag  Ag9  1  0.50654117  0.00398498  0.00120170  1
  Ag  Ag10  1  -0.00171346  0.76197229  0.24835454  1
  Ag  Ag11  1  0.75105297  0.00262848  0.75986206  1
  Ag  Ag12  1  0.50384274  0.75249038  0.75427170  1
  Ag  Ag13  1  0.75058649  0.24109992  -0.00060133  1
  Ag  Ag14  1  0.24327824  0.00783723  0.24752064  1
  Ag  Ag15  1  -0.00004128  0.00459200  0.49434887  1
  Sb  Sb16  1  0.50183127  0.75717913  0.24612078  1
  Sb  Sb17  1  0.00163893  0.49490488  0.50227732  1
  Sb  Sb18  1  0.49962425  0.00284472  0.49904742  1
  Sb  Sb19  1  0.75188950  0.49617504  0.24531948  1
  Sb  Sb20  1  -0.00696293  0.00344016  0.00657948  1
  Sb  Sb21  1  0.75347997  0.24720219  0.50059421  1
  Sb  Sb22  1  -0.00046241  0.49595602  -0.00191083  1
  Sb  Sb23  1  0.24955419  0.75503512  0.00025617  1
  Sb  Sb24  1  0.50058331  0.49595017  -0.00168574  1
  Sb  Sb25  1  -0.00315171  0.75476089  0.75160085  1
  Sb  Sb26  1  0.24728949  0.75313856  0.49966852  1
  Sb  Sb27  1  0.75180417  0.75268258  0.50111708  1
  Sb  Sb28  1  0.24789983  0.49139222  0.24817421  1
  Sb  Sb29  1  0.50111228  0.24819038  0.75377036  1
  Sb  Sb30  1  0.24790369  0.00486875  0.75322670  1
  Sb  Sb31  1  0.49873421  0.49678836  0.50264948  1
  Te  Te32  1  0.24588711  0.24879654  0.24639994  1
  Te  Te33  1  0.24952362  0.25091537  0.75234000  1
  Te  Te34  1  0.24690483  0.75418439  0.24886351  1
  Te  Te35  1  0.25126467  0.74444172  0.75140291  1
  Te  Te36  1  0.75303519  0.24922488  0.24827589  1
  Te  Te37  1  0.75092385  0.24719862  0.75144640  1
  Te  Te38  1  0.75191077  0.75117260  0.24567331  1
  Te  Te39  1  0.75045309  0.75265939  0.75372146  1
  Te  Te40  1  0.25765028  0.00433372  0.00295725  1
  Te  Te41  1  0.24634063  0.00413376  0.49667589  1
  Te  Te42  1  0.25065088  0.49345635  -0.00527429  1
  Te  Te43  1  0.25006668  0.49378910  0.50565193  1
  Te  Te44  1  0.74816128  0.00258865  0.00026966  1
  Te  Te45  1  0.75415509  0.00039800  0.49793376  1
  Te  Te46  1  0.74964400  0.49834393  -0.00603168  1
  Te  Te47  1  0.74984003  0.50032854  0.51144552  1
  Te  Te48  1  -0.00035690  0.24972764  -0.00118290  1
  Te  Te49  1  0.00355243  0.24635803  0.49965916  1
  Te  Te50  1  -0.00462259  0.74853652  0.00563375  1
  Te  Te51  1  0.00090395  0.75748951  0.49327078  1
  Te  Te52  1  0.50184508  0.24602158  0.00284163  1
  Te  Te53  1  0.49166917  0.24948057  0.49242528  1
  Te  Te54  1  0.50385696  0.75533699  -0.00324449  1
  Te  Te55  1  0.49912852  0.74914024  0.50760783  1
  Te  Te56  1  -0.00114688  0.00312841  0.25035643  1
  Te  Te57  1  -0.00288695  0.00340147  0.74400443  1
  Te  Te58  1  -0.00024378  0.49916497  0.25193822  1
  Te  Te59  1  -0.00073624  0.49596773  0.74867334  1
  Te  Te60  1  0.50201287  0.00339265  0.24826805  1
  Te  Te61  1  0.50344624  -0.00275040  0.75237066  1
  Te  Te62  1  0.50034325  0.49304128  0.25080171  1
  Te  Te63  1  0.50169076  0.50392899  0.75018493  1
