# generated using pymatgen
data_AgSbTe2
_symmetry_space_group_name_H-M   'P 1'
_cell_length_a   12.28570161
_cell_length_b   12.29174098
_cell_length_c   12.27408461
_cell_angle_alpha   90.00277470
_cell_angle_beta   90.00076573
_cell_angle_gamma   89.99664257
_symmetry_Int_Tables_number   1
_chemical_formula_structural   AgSbTe2
_chemical_formula_sum   'Ag16 Sb16 Te32'
_cell_volume   1853.54218319
_cell_formula_units_Z   16
loop_
 _symmetry_equiv_pos_site_id
 _symmetry_equiv_pos_as_xyz
  1  'x, y, z'
loop_
 _atom_site_type_symbol
 _atom_site_label
 _atom_site_symmetry_multiplicity
 _atom_site_fract_x
 _atom_site_fract_y
 _atom_site_fract_z
 _atom_site_occupancy
  Ag  Ag0  1  0.24986602  0.75650403  0.50846584  1
  Ag  Ag1  1  0.75023976  0.76328795  0.50996422  1
  Ag  Ag2  1  0.24383963  -0.00143372  0.74615190  1
  Ag  Ag3  1  0.74785689  0.50021192  0.24377303  1
  Ag  Ag4  1  0.75031395  0.24280288  -0.01323729  1
  Ag  Ag5  1  -0.01748769  0.00234242  -0.01616330  1
  Ag  Ag6  1  -0.01379747  0.00045240  0.51496997  1
  Ag  Ag7  1  0.25062741  0.50180093  0.75056744  1
  Ag  Ag8  1  0.74815625  0.75669260  -0.01041763  1
  Ag  Ag9  1  0.51432350  -0.00204044  0.51369879  1
  Ag  Ag10  1  0.75581450  0.00603700  0.75040263  1
  Ag  Ag11  1  0.51112565  0.50013669  -0.00683952  1
  Ag  Ag12  1  0.51694294  0.00001809  -0.01190246  1
  Ag  Ag13  1  0.75226363  0.23694976  0.51449737  1
  Ag  Ag14  1  0.74884134  0.49387819  0.75536181  1
  Ag  Ag15  1  -0.00935973  0.24070064  0.75012236  1
  Sb  Sb16  1  0.50506219  0.75435917  0.74989880  1
  Sb  Sb17  1  0.50507493  0.25003997  0.24971952  1
  Sb  Sb18  1  0.24808465  0.24407903  0.50754727  1
  Sb  Sb19  1  0.25092942  0.75245878  -0.00988035  1
  Sb  Sb20  1  0.50271999  0.74962475  0.24995845  1
  Sb  Sb21  1  0.51171000  0.24660610  0.74977453  1
  Sb  Sb22  1  0.74997535  -0.00151739  0.24959625  1
  Sb  Sb23  1  0.50501303  0.50150814  0.50899460  1
  Sb  Sb24  1  -0.00458671  0.76114228  0.75009593  1
  Sb  Sb25  1  0.24988236  -0.00164293  0.25498940  1
  Sb  Sb26  1  -0.00297545  0.49934794  0.50539464  1
  Sb  Sb27  1  -0.01169278  0.49774603  -0.00714488  1
  Sb  Sb28  1  -0.00523433  0.24904707  0.25011980  1
  Sb  Sb29  1  0.24855728  0.24893009  -0.00612932  1
  Sb  Sb30  1  -0.00268843  0.75040869  0.25054926  1
  Sb  Sb31  1  0.25451712  0.50290739  0.24832469  1
  Te  Te32  1  0.24746370  0.25380404  0.25092618  1
  Te  Te33  1  0.23393761  0.24997585  0.74943747  1
  Te  Te34  1  0.24830139  0.74748957  0.26759372  1
  Te  Te35  1  0.24743748  0.74931491  0.74432396  1
  Te  Te36  1  0.75158081  0.26309928  0.24984252  1
  Te  Te37  1  0.75476840  0.24511044  0.74976859  1
  Te  Te38  1  0.74976639  0.73777228  0.25263461  1
  Te  Te39  1  0.75147320  0.75223126  0.74869524  1
  Te  Te40  1  0.25430162  -0.00279241  -0.00892755  1
  Te  Te41  1  0.25153093  -0.00129022  0.50581240  1
  Te  Te42  1  0.25832485  0.50275586  -0.00576136  1
  Te  Te43  1  0.25207513  0.50476519  0.50636460  1
  Te  Te44  1  0.74780891  -0.00043362  0.00924845  1
  Te  Te45  1  0.74905639  -0.00220083  0.49065520  1
  Te  Te46  1  0.74949171  0.50155550  -0.01097493  1
  Te  Te47  1  0.74725621  0.50314133  0.51118455  1
  Te  Te48  1  -0.00552864  0.24390207  -0.00315438  1
  Te  Te49  1  -0.00626836  0.24426041  0.50300450  1
  Te  Te50  1  -0.00707703  0.76001091  0.00016332  1
  Te  Te51  1  -0.00771025  0.75755716  0.50012678  1
  Te  Te52  1  0.50771251  0.24395175  -0.00005954  1
  Te  Te53  1  0.50904173  0.24090252  0.49995093  1
  Te  Te54  1  0.50647615  0.75598077  -0.00025537  1
  Te  Te55  1  0.50788560  0.75656271  0.50016315  1
  Te  Te56  1  0.00273882  0.00043850  0.24941254  1
  Te  Te57  1  -0.00611713  0.00371835  0.74973600  1
  Te  Te58  1  -0.00525420  0.49927763  0.24970332  1
  Te  Te59  1  0.00005046  0.48628517  0.75096891  1
  Te  Te60  1  0.49707409  0.00080135  0.24444983  1
  Te  Te61  1  0.50385525  0.00210825  0.75147156  1
  Te  Te62  1  0.50356712  0.49958741  0.23726626  1
  Te  Te63  1  0.50106392  0.49697019  0.75500480  1
