# generated using pymatgen
data_AgSbTe2
_symmetry_space_group_name_H-M   'P 1'
_cell_length_a   12.22747741
_cell_length_b   12.22982165
_cell_length_c   12.23315993
_cell_angle_alpha   90.00187462
_cell_angle_beta   89.99865157
_cell_angle_gamma   90.01065446
_symmetry_Int_Tables_number   1
_chemical_formula_structural   AgSbTe2
_chemical_formula_sum   'Ag16 Sb16 Te32'
_cell_volume   1829.34508720
_cell_formula_units_Z   16
loop_
 _symmetry_equiv_pos_site_id
 _symmetry_equiv_pos_as_xyz
  1  'x, y, z'
loop_
 _atom_site_type_symbol
 _atom_site_label
 _atom_site_symmetry_multiplicity
 _atom_site_fract_x
 _atom_site_fract_y
 _atom_site_fract_z
 _atom_site_occupancy
  Ag  Ag0  1  0.75399214  0.25348254  -0.01397637  1
  Ag  Ag1  1  -0.00058550  0.50301608  0.50446241  1
  Ag  Ag2  1  0.51504586  0.25151488  0.75048712  1
  Ag  Ag3  1  0.75261253  0.01350517  0.75146031  1
  Ag  Ag4  1  0.75315688  0.25261249  0.51477925  1
  Ag  Ag5  1  0.75680579  0.48693883  0.75254560  1
  Ag  Ag6  1  0.24511100  0.74756174  0.48591918  1
  Ag  Ag7  1  -0.00362801  0.74249671  0.75576239  1
  Ag  Ag8  1  0.24527371  0.51345548  0.24926145  1
  Ag  Ag9  1  -0.00302369  0.50646042  -0.00417781  1
  Ag  Ag10  1  0.24168929  0.74708449  0.01363095  1
  Ag  Ag11  1  0.75895178  0.74613771  -0.00366863  1
  Ag  Ag12  1  0.01281561  0.74553369  0.24485928  1
  Ag  Ag13  1  0.48570909  0.74865616  0.24844087  1
  Ag  Ag14  1  0.24829835  -0.01469220  0.24957148  1
  Ag  Ag15  1  -0.01337183  0.25707001  0.75130165  1
  Sb  Sb16  1  -0.00044231  -0.00293387  0.50119586  1
  Sb  Sb17  1  0.50069076  -0.00080602  -0.00006349  1
  Sb  Sb18  1  0.50045579  -0.00052670  0.50020113  1
  Sb  Sb19  1  -0.00064041  -0.00773744  -0.00080178  1
  Sb  Sb20  1  0.24680824  0.25240608  0.50099747  1
  Sb  Sb21  1  0.75128134  -0.00409003  0.24871251  1
  Sb  Sb22  1  0.50078223  0.25151998  0.24913609  1
  Sb  Sb23  1  0.75521430  0.74754479  0.50363217  1
  Sb  Sb24  1  0.50340843  0.74884104  0.75074116  1
  Sb  Sb25  1  0.24250066  0.50287692  0.75086456  1
  Sb  Sb26  1  0.75392180  0.50268191  0.24812494  1
  Sb  Sb27  1  -0.00109622  0.25381123  0.24907691  1
  Sb  Sb28  1  0.50046533  0.50089602  0.50072281  1
  Sb  Sb29  1  0.24482575  0.25292064  -0.00102316  1
  Sb  Sb30  1  0.50299891  0.50144256  -0.00052292  1
  Sb  Sb31  1  0.24813229  -0.00351970  0.75036612  1
  Te  Te32  1  0.25123525  0.24881840  0.24971227  1
  Te  Te33  1  0.24947031  0.24868997  0.75025842  1
  Te  Te34  1  0.24826675  0.74917742  0.24897595  1
  Te  Te35  1  0.24784920  0.75126229  0.75145134  1
  Te  Te36  1  0.74873894  0.24901004  0.24851597  1
  Te  Te37  1  0.75251834  0.25090850  0.75112680  1
  Te  Te38  1  0.75142683  0.75108673  0.24605155  1
  Te  Te39  1  0.75150215  0.74871657  0.75170921  1
  Te  Te40  1  0.25014126  -0.00506809  0.00393653  1
  Te  Te41  1  0.25007156  -0.00460944  0.49627372  1
  Te  Te42  1  0.24506781  0.50338316  0.00164833  1
  Te  Te43  1  0.24504140  0.50308157  0.49818783  1
  Te  Te44  1  0.75010194  -0.00019568  -0.00266137  1
  Te  Te45  1  0.75039203  0.00561185  0.50403114  1
  Te  Te46  1  0.75292732  0.50189225  -0.00079429  1
  Te  Te47  1  0.75477927  0.49797253  0.50175853  1
  Te  Te48  1  -0.00296551  0.25679692  -0.00195540  1
  Te  Te49  1  -0.00240189  0.25509397  0.50121862  1
  Te  Te50  1  -0.00107863  0.74773876  -0.00188430  1
  Te  Te51  1  0.00122655  0.74655622  0.50126937  1
  Te  Te52  1  0.50577543  0.25048895  -0.00370014  1
  Te  Te53  1  0.50452810  0.25037192  0.50372525  1
  Te  Te54  1  0.50003695  0.74937523  0.00269473  1
  Te  Te55  1  0.49380160  0.74930921  0.49631747  1
  Te  Te56  1  0.00388929  -0.00592529  0.25045406  1
  Te  Te57  1  -0.00341991  0.00097335  0.74961059  1
  Te  Te58  1  0.00217713  0.50248646  0.24966212  1
  Te  Te59  1  -0.00135802  0.50167773  0.75061984  1
  Te  Te60  1  0.49580569  -0.00480264  0.25003154  1
  Te  Te61  1  0.50522864  0.00416496  0.74992256  1
  Te  Te62  1  0.49250083  0.50380260  0.25011811  1
  Te  Te63  1  0.50856349  0.49599200  0.74969410  1
