# generated using pymatgen
data_AgSbTe2
_symmetry_space_group_name_H-M   'P 1'
_cell_length_a   12.21180500
_cell_length_b   12.21210078
_cell_length_c   12.21109376
_cell_angle_alpha   89.99678769
_cell_angle_beta   89.99915185
_cell_angle_gamma   90.00080367
_symmetry_Int_Tables_number   1
_chemical_formula_structural   AgSbTe2
_chemical_formula_sum   'Ag16 Sb16 Te32'
_cell_volume   1821.06230794
_cell_formula_units_Z   16
loop_
 _symmetry_equiv_pos_site_id
 _symmetry_equiv_pos_as_xyz
  1  'x, y, z'
loop_
 _atom_site_type_symbol
 _atom_site_label
 _atom_site_symmetry_multiplicity
 _atom_site_fract_x
 _atom_site_fract_y
 _atom_site_fract_z
 _atom_site_occupancy
  Ag  Ag0  1  0.74688840  0.25197733  0.00003730  1
  Ag  Ag1  1  0.25575811  0.24603793  0.49889139  1
  Ag  Ag2  1  0.74496961  -0.00348194  0.75017734  1
  Ag  Ag3  1  0.50471854  0.50015173  -0.00125586  1
  Ag  Ag4  1  0.25801211  -0.00034042  0.25375882  1
  Ag  Ag5  1  -0.00445468  0.50225697  -0.00144731  1
  Ag  Ag6  1  0.49814612  0.00008517  0.49709235  1
  Ag  Ag7  1  -0.00133376  0.75156987  0.24852355  1
  Ag  Ag8  1  0.50330818  0.75170956  0.74894557  1
  Ag  Ag9  1  0.50131078  0.75532370  0.25141357  1
  Ag  Ag10  1  0.74235677  -0.00115680  0.24997009  1
  Ag  Ag11  1  0.25529277  -0.00162929  0.74659450  1
  Ag  Ag12  1  0.74625311  0.50257344  0.75364358  1
  Ag  Ag13  1  0.50048922  0.24500274  0.25154837  1
  Ag  Ag14  1  0.50096039  0.50025428  0.50066647  1
  Ag  Ag15  1  -0.00299642  0.75013691  0.75151402  1
  Sb  Sb16  1  0.00279020  -0.00065833  0.50035291  1
  Sb  Sb17  1  0.25425962  0.50299398  0.74813234  1
  Sb  Sb18  1  -0.00123946  0.25022544  0.75185817  1
  Sb  Sb19  1  0.74353125  0.24874948  0.49822035  1
  Sb  Sb20  1  -0.00233135  0.50147013  0.50177513  1
  Sb  Sb21  1  -0.00114671  0.24837973  0.24747949  1
  Sb  Sb22  1  0.50332661  -0.00057635  0.00383224  1
  Sb  Sb23  1  0.74577755  0.75150331  0.50155296  1
  Sb  Sb24  1  0.50099404  0.24727001  0.74865129  1
  Sb  Sb25  1  0.74888585  0.74653327  -0.00208736  1
  Sb  Sb26  1  -0.00327949  -0.00399691  -0.00033609  1
  Sb  Sb27  1  0.25129338  0.75084554  0.00014220  1
  Sb  Sb28  1  0.74680835  0.50186676  0.24556052  1
  Sb  Sb29  1  0.25498243  0.75505632  0.49992688  1
  Sb  Sb30  1  0.25444307  0.24959654  0.00153082  1
  Sb  Sb31  1  0.25295536  0.50138173  0.25186400  1
  Te  Te32  1  0.25349698  0.24365989  0.25181569  1
  Te  Te33  1  0.24945220  0.24146318  0.74667234  1
  Te  Te34  1  0.25145502  0.75651042  0.24993674  1
  Te  Te35  1  0.25063011  0.75585955  0.75008262  1
  Te  Te36  1  0.74718157  0.24480267  0.24750060  1
  Te  Te37  1  0.75033961  0.24822492  0.75418197  1
  Te  Te38  1  0.74843684  0.75538218  0.24943238  1
  Te  Te39  1  0.74853012  0.75240278  0.75044601  1
  Te  Te40  1  0.24854872  0.00199670  -0.00093868  1
  Te  Te41  1  0.25394206  0.00366993  0.49963094  1
  Te  Te42  1  0.25058372  0.49763176  -0.00060359  1
  Te  Te43  1  0.25773586  0.49103066  0.50062257  1
  Te  Te44  1  0.75059145  0.00771143  -0.00156264  1
  Te  Te45  1  0.74359301  0.00228788  0.50125744  1
  Te  Te46  1  0.74786568  0.49623835  -0.00339089  1
  Te  Te47  1  0.74351933  0.49680505  0.50846946  1
  Te  Te48  1  -0.00615697  0.25973426  0.00121611  1
  Te  Te49  1  0.00992463  0.25179900  0.49909789  1
  Te  Te50  1  0.00055817  0.74395806  -0.00005894  1
  Te  Te51  1  0.00157130  0.74795698  0.49944993  1
  Te  Te52  1  0.50349853  0.25695145  0.00547556  1
  Te  Te53  1  0.49716214  0.24871814  0.49599420  1
  Te  Te54  1  0.49962039  0.74246547  0.00034311  1
  Te  Te55  1  0.49887837  0.75024376  0.49905806  1
  Te  Te56  1  -0.00103637  -0.00587162  0.25016379  1
  Te  Te57  1  -0.00252761  -0.00679669  0.74972476  1
  Te  Te58  1  -0.00064618  0.50723655  0.24655030  1
  Te  Te59  1  -0.00319985  0.50580671  0.75219934  1
  Te  Te60  1  0.50064510  -0.00247158  0.24796096  1
  Te  Te61  1  0.50180624  -0.00249904  0.74975160  1
  Te  Te62  1  0.50089030  0.50257520  0.25107610  1
  Te  Te63  1  0.50137957  0.50340418  0.74991464  1
