# generated using pymatgen
data_AgSbTe2
_symmetry_space_group_name_H-M   'P 1'
_cell_length_a   12.21539669
_cell_length_b   12.21122616
_cell_length_c   12.21119043
_cell_angle_alpha   89.99728887
_cell_angle_beta   90.00583391
_cell_angle_gamma   90.00493832
_symmetry_Int_Tables_number   1
_chemical_formula_structural   AgSbTe2
_chemical_formula_sum   'Ag16 Sb16 Te32'
_cell_volume   1821.48185612
_cell_formula_units_Z   16
loop_
 _symmetry_equiv_pos_site_id
 _symmetry_equiv_pos_as_xyz
  1  'x, y, z'
loop_
 _atom_site_type_symbol
 _atom_site_label
 _atom_site_symmetry_multiplicity
 _atom_site_fract_x
 _atom_site_fract_y
 _atom_site_fract_z
 _atom_site_occupancy
  Ag  Ag0  1  0.25373831  0.75421058  -0.00113602  1
  Ag  Ag1  1  -0.00003918  0.50112925  0.50408312  1
  Ag  Ag2  1  0.74648442  0.75356770  -0.00495926  1
  Ag  Ag3  1  -0.00019039  0.75344689  0.75317523  1
  Ag  Ag4  1  -0.00385635  0.24677871  0.75329197  1
  Ag  Ag5  1  -0.00002957  -0.00093467  -0.00458206  1
  Ag  Ag6  1  0.25154829  -0.00432994  0.24654836  1
  Ag  Ag7  1  0.25149536  0.75312070  0.50129763  1
  Ag  Ag8  1  0.24826630  0.24543172  -0.00186085  1
  Ag  Ag9  1  0.50013967  0.50618530  -0.00109764  1
  Ag  Ag10  1  0.75166601  0.24719054  0.50542856  1
  Ag  Ag11  1  0.49647573  0.75286149  0.24566618  1
  Ag  Ag12  1  0.75204733  -0.00038411  0.75361208  1
  Ag  Ag13  1  0.75199422  0.24516280  -0.00522710  1
  Ag  Ag14  1  0.49993495  0.75295740  0.75524591  1
  Ag  Ag15  1  0.49981511  -0.00399281  0.50151703  1
  Sb  Sb16  1  0.24994653  0.50317895  0.75116126  1
  Sb  Sb17  1  0.00083392  0.24787118  0.24621978  1
  Sb  Sb18  1  0.25182161  0.50478912  0.24794059  1
  Sb  Sb19  1  0.74867505  0.50169609  0.24893558  1
  Sb  Sb20  1  -0.00031507  -0.00066030  0.50554389  1
  Sb  Sb21  1  0.50387956  0.24551700  0.75324682  1
  Sb  Sb22  1  0.74827775  -0.00189276  0.24656507  1
  Sb  Sb23  1  -0.00014246  0.50110290  -0.00320559  1
  Sb  Sb24  1  0.24814375  -0.00344146  0.75381517  1
  Sb  Sb25  1  0.75037568  0.50005907  0.75073954  1
  Sb  Sb26  1  0.49862072  0.24617318  0.24739755  1
  Sb  Sb27  1  0.49938146  -0.00803469  -0.00176580  1
  Sb  Sb28  1  0.00292942  0.75260706  0.24723497  1
  Sb  Sb29  1  0.24835247  0.24641565  0.50233455  1
  Sb  Sb30  1  0.50010203  0.50434903  0.50169586  1
  Sb  Sb31  1  0.74982236  0.75260640  0.50609626  1
  Te  Te32  1  0.25060383  0.24243366  0.24328727  1
  Te  Te33  1  0.24439053  0.24838141  0.75627246  1
  Te  Te34  1  0.25287221  0.75376882  0.24817248  1
  Te  Te35  1  0.24908257  0.75178231  0.75155495  1
  Te  Te36  1  0.74959796  0.24895798  0.24713026  1
  Te  Te37  1  0.75230553  0.24575993  0.75325506  1
  Te  Te38  1  0.74391995  0.75137772  0.24235983  1
  Te  Te39  1  0.75137491  0.75439440  0.75303260  1
  Te  Te40  1  0.24901008  -0.00190312  0.00253296  1
  Te  Te41  1  0.25274970  -0.00319299  0.49541025  1
  Te  Te42  1  0.25318740  0.50103809  0.00120623  1
  Te  Te43  1  0.24706670  0.50466698  0.49850717  1
  Te  Te44  1  0.75184603  0.00079332  -0.00219930  1
  Te  Te45  1  0.74808107  0.00414422  0.50261943  1
  Te  Te46  1  0.74704535  0.49983261  0.00044128  1
  Te  Te47  1  0.75308474  0.49287876  0.49929220  1
  Te  Te48  1  -0.00160410  0.25035189  -0.00382636  1
  Te  Te49  1  -0.00215308  0.25089996  0.50523037  1
  Te  Te50  1  0.00089372  0.74952345  -0.00364427  1
  Te  Te51  1  0.00206556  0.74882248  0.50442218  1
  Te  Te52  1  0.50105261  0.25550143  -0.00114578  1
  Te  Te53  1  0.50303536  0.24799809  0.50022779  1
  Te  Te54  1  0.49875684  0.75076968  -0.00242867  1
  Te  Te55  1  0.49804241  0.75010280  0.50148256  1
  Te  Te56  1  0.00617553  -0.00069907  0.24169532  1
  Te  Te57  1  -0.00443560  -0.00135586  0.75434290  1
  Te  Te58  1  0.00010064  0.50009752  0.26055607  1
  Te  Te59  1  0.00015879  0.50094835  0.74479393  1
  Te  Te60  1  0.49614327  -0.00526924  0.25628687  1
  Te  Te61  1  0.50593096  -0.00518678  0.74464805  1
  Te  Te62  1  0.49969204  0.50849706  0.24429632  1
  Te  Te63  1  0.49973151  0.50914617  0.75522894  1
