# generated using pymatgen
data_AgSbTe2
_symmetry_space_group_name_H-M   'P 1'
_cell_length_a   12.23428102
_cell_length_b   12.21383710
_cell_length_c   12.24105485
_cell_angle_alpha   90.00080587
_cell_angle_beta   89.99941262
_cell_angle_gamma   90.01487890
_symmetry_Int_Tables_number   1
_chemical_formula_structural   AgSbTe2
_chemical_formula_sum   'Ag16 Sb16 Te32'
_cell_volume   1829.15034997
_cell_formula_units_Z   16
loop_
 _symmetry_equiv_pos_site_id
 _symmetry_equiv_pos_as_xyz
  1  'x, y, z'
loop_
 _atom_site_type_symbol
 _atom_site_label
 _atom_site_symmetry_multiplicity
 _atom_site_fract_x
 _atom_site_fract_y
 _atom_site_fract_z
 _atom_site_occupancy
  Ag  Ag0  1  0.50715057  -0.00765432  0.00107450  1
  Ag  Ag1  1  0.00000000  0.75000000  0.75000000  1
  Ag  Ag2  1  0.24776699  0.74144992  0.49987156  1
  Ag  Ag3  1  0.24778030  0.75009224  0.00009509  1
  Ag  Ag4  1  0.75489281  -0.00612170  0.75674455  1
  Ag  Ag5  1  0.49284952  0.50765451  0.49892550  1
  Ag  Ag6  1  -0.00000001  0.25000001  0.75000000  1
  Ag  Ag7  1  0.49999999  0.75000001  0.24999999  1
  Ag  Ag8  1  0.75219638  -0.00633342  0.24327876  1
  Ag  Ag9  1  0.00592224  0.50609441  0.50233997  1
  Ag  Ag10  1  0.24510721  0.50612169  0.74325557  1
  Ag  Ag11  1  0.75221972  0.74990783  0.49990490  1
  Ag  Ag12  1  0.75223299  0.75855043  0.00012844  1
  Ag  Ag13  1  0.24780364  0.50633351  0.25672119  1
  Ag  Ag14  1  0.00000002  0.24999997  0.24999999  1
  Ag  Ag15  1  -0.00592234  -0.00609441  -0.00233996  1
  Sb  Sb16  1  -0.00000001  0.75000002  0.25000000  1
  Sb  Sb17  1  0.00162729  0.50485847  -0.00163002  1
  Sb  Sb18  1  0.49736690  0.50679559  0.00075507  1
  Sb  Sb19  1  0.75342707  0.24974403  0.50020587  1
  Sb  Sb20  1  0.50263310  -0.00679566  0.49924494  1
  Sb  Sb21  1  0.24637803  -0.00442346  0.75203827  1
  Sb  Sb22  1  0.75128617  0.50453265  0.25184738  1
  Sb  Sb23  1  0.75327829  0.24125418  -0.00021676  1
  Sb  Sb24  1  0.24657295  0.25025591  -0.00020587  1
  Sb  Sb25  1  0.49999998  0.25000002  0.25000004  1
  Sb  Sb26  1  0.24871381  -0.00453266  0.24815263  1
  Sb  Sb27  1  0.75362193  0.50442346  0.74796175  1
  Sb  Sb28  1  -0.00162732  -0.00485846  0.50163003  1
  Sb  Sb29  1  0.50000001  0.74999997  0.75000002  1
  Sb  Sb30  1  0.50000002  0.25000001  0.74999996  1
  Sb  Sb31  1  0.24672172  0.25874563  0.50021678  1
  Te  Te32  1  0.24417733  0.25638693  0.25002857  1
  Te  Te33  1  0.24257378  0.25542444  0.75004063  1
  Te  Te34  1  0.25210012  0.74730751  0.24982341  1
  Te  Te35  1  0.24757795  0.74776085  0.75021568  1
  Te  Te36  1  0.75582264  0.24361305  0.24997137  1
  Te  Te37  1  0.75742622  0.24457554  0.74995942  1
  Te  Te38  1  0.74789989  0.75269243  0.25017664  1
  Te  Te39  1  0.75242205  0.75223916  0.74978427  1
  Te  Te40  1  0.24774571  -0.00706443  -0.00009790  1
  Te  Te41  1  0.25200929  -0.01110217  0.50027166  1
  Te  Te42  1  0.25068346  0.50690532  0.00074828  1
  Te  Te43  1  0.24717984  0.50333973  0.49949376  1
  Te  Te44  1  0.75282017  -0.00333975  0.00050621  1
  Te  Te45  1  0.74931652  -0.00690535  0.49925169  1
  Te  Te46  1  0.74799074  0.51110212  -0.00027170  1
  Te  Te47  1  0.75225430  0.50706443  0.50009789  1
  Te  Te48  1  0.00074198  0.24448566  -0.00104914  1
  Te  Te49  1  -0.00074206  0.25551432  0.50104913  1
  Te  Te50  1  0.00014476  0.75305024  -0.00227071  1
  Te  Te51  1  -0.00014472  0.74694975  0.50227071  1
  Te  Te52  1  0.50019294  0.23969877  -0.00005362  1
  Te  Te53  1  0.49980710  0.26030118  0.50005363  1
  Te  Te54  1  0.49980155  0.75339306  0.00241621  1
  Te  Te55  1  0.50019839  0.74660684  0.49758378  1
  Te  Te56  1  -0.00262859  0.00450058  0.24820553  1
  Te  Te57  1  -0.00238497  -0.00251268  0.75101972  1
  Te  Te58  1  0.00262863  0.49549942  0.25179447  1
  Te  Te59  1  0.00238497  0.50251267  0.74898028  1
  Te  Te60  1  0.50279894  -0.00246466  0.24750294  1
  Te  Te61  1  0.50599693  0.00292270  0.75388836  1
  Te  Te62  1  0.49720107  0.50246463  0.25249705  1
  Te  Te63  1  0.49400309  0.49707731  0.74611165  1
