# generated using pymatgen
data_AgSbTe2
_symmetry_space_group_name_H-M   'P 1'
_cell_length_a   12.22477212
_cell_length_b   12.22407756
_cell_length_c   12.22159586
_cell_angle_alpha   90.00627235
_cell_angle_beta   89.99890248
_cell_angle_gamma   89.99574805
_symmetry_Int_Tables_number   1
_chemical_formula_structural   AgSbTe2
_chemical_formula_sum   'Ag16 Sb16 Te32'
_cell_volume   1826.35325849
_cell_formula_units_Z   16
loop_
 _symmetry_equiv_pos_site_id
 _symmetry_equiv_pos_as_xyz
  1  'x, y, z'
loop_
 _atom_site_type_symbol
 _atom_site_label
 _atom_site_symmetry_multiplicity
 _atom_site_fract_x
 _atom_site_fract_y
 _atom_site_fract_z
 _atom_site_occupancy
  Ag  Ag0  1  0.00511664  0.74273828  0.24687163  1
  Ag  Ag1  1  0.24366967  0.25410604  0.00600347  1
  Ag  Ag2  1  -0.00101282  0.49446232  0.00716392  1
  Ag  Ag3  1  0.24806097  0.00377268  0.75078738  1
  Ag  Ag4  1  0.49471861  0.74249960  0.24902001  1
  Ag  Ag5  1  0.50131019  0.49984871  0.00905317  1
  Ag  Ag6  1  0.00684831  0.25710969  0.24348787  1
  Ag  Ag7  1  0.24860306  0.25274165  0.49386703  1
  Ag  Ag8  1  0.24986540  0.49904361  0.24896667  1
  Ag  Ag9  1  0.49447694  0.50085080  0.49033638  1
  Ag  Ag10  1  0.75006110  0.50044446  0.24296642  1
  Ag  Ag11  1  0.00475762  0.25184342  0.75672171  1
  Ag  Ag12  1  0.75604275  0.25884209  0.00431650  1
  Ag  Ag13  1  0.24868810  0.00176197  0.25026639  1
  Ag  Ag14  1  0.25106428  0.74663422  0.49237383  1
  Ag  Ag15  1  0.75124078  0.74094145  0.00559689  1
  Sb  Sb16  1  0.75167673  0.25568791  0.49423090  1
  Sb  Sb17  1  0.49432693  -0.00043410  0.49596810  1
  Sb  Sb18  1  0.00376934  0.00742503  0.00178018  1
  Sb  Sb19  1  0.00443142  0.00049778  0.49816533  1
  Sb  Sb20  1  0.49622187  -0.00002272  0.00383285  1
  Sb  Sb21  1  0.24836619  0.49624418  0.75093070  1
  Sb  Sb22  1  0.24840359  0.74349677  0.00937270  1
  Sb  Sb23  1  0.75122820  0.49867429  0.75924516  1
  Sb  Sb24  1  0.75350780  0.00281518  0.75343408  1
  Sb  Sb25  1  0.74845393  0.74435583  0.49272940  1
  Sb  Sb26  1  0.75154406  0.00031689  0.24756211  1
  Sb  Sb27  1  0.00738755  0.49939697  0.48895452  1
  Sb  Sb28  1  0.49007659  0.26016505  0.24887387  1
  Sb  Sb29  1  0.49504574  0.25109822  0.75210637  1
  Sb  Sb30  1  0.00433165  0.74750441  0.75488321  1
  Sb  Sb31  1  0.49701093  0.74803440  0.75225089  1
  Te  Te32  1  0.24928573  0.25177254  0.24957199  1
  Te  Te33  1  0.24624445  0.24752834  0.74996074  1
  Te  Te34  1  0.24856335  0.74789510  0.25044722  1
  Te  Te35  1  0.24824503  0.75744343  0.74078818  1
  Te  Te36  1  0.75699945  0.25092337  0.24621862  1
  Te  Te37  1  0.75811840  0.24826204  0.75596189  1
  Te  Te38  1  0.75194295  0.74920362  0.24626372  1
  Te  Te39  1  0.75104798  0.75198053  0.75825648  1
  Te  Te40  1  0.25128640  0.00701891  0.00213386  1
  Te  Te41  1  0.25106073  0.00197064  0.49606348  1
  Te  Te42  1  0.25017638  0.49783775  0.00169405  1
  Te  Te43  1  0.25231268  0.49921602  0.49835670  1
  Te  Te44  1  0.74778054  0.00131211  -0.00010073  1
  Te  Te45  1  0.74708155  -0.00005136  0.50186141  1
  Te  Te46  1  0.74959477  0.49830303  0.00352867  1
  Te  Te47  1  0.74083957  0.49989284  0.49143383  1
  Te  Te48  1  0.00172461  0.25154776  0.00335613  1
  Te  Te49  1  0.00454638  0.25124941  0.49849786  1
  Te  Te50  1  -0.00199720  0.74400140  0.00379536  1
  Te  Te51  1  0.00449211  0.74909072  0.49483596  1
  Te  Te52  1  0.50066635  0.25597490  -0.00044689  1
  Te  Te53  1  0.49457393  0.25619851  0.50071824  1
  Te  Te54  1  0.50230522  0.74419828  0.00291320  1
  Te  Te55  1  0.49684291  0.74468006  0.49651976  1
  Te  Te56  1  0.00580871  -0.00058064  0.25004310  1
  Te  Te57  1  0.00610891  0.00558262  0.74957319  1
  Te  Te58  1  0.00179449  0.49955693  0.24797297  1
  Te  Te59  1  -0.00036482  0.49526925  0.75943292  1
  Te  Te60  1  0.49358402  -0.01181599  0.24995745  1
  Te  Te61  1  0.49131242  -0.00028435  0.74949453  1
  Te  Te62  1  0.49831533  0.50154711  0.24761078  1
  Te  Te63  1  0.50041256  0.50037800  0.75116569  1
