# generated using pymatgen
data_AgSbTe2
_symmetry_space_group_name_H-M   'P 1'
_cell_length_a   12.28952364
_cell_length_b   12.27213924
_cell_length_c   12.29566383
_cell_angle_alpha   90.00596099
_cell_angle_beta   90.01458807
_cell_angle_gamma   89.99644106
_symmetry_Int_Tables_number   1
_chemical_formula_structural   AgSbTe2
_chemical_formula_sum   'Ag16 Sb16 Te32'
_cell_volume   1854.41651707
_cell_formula_units_Z   16
loop_
 _symmetry_equiv_pos_site_id
 _symmetry_equiv_pos_as_xyz
  1  'x, y, z'
loop_
 _atom_site_type_symbol
 _atom_site_label
 _atom_site_symmetry_multiplicity
 _atom_site_fract_x
 _atom_site_fract_y
 _atom_site_fract_z
 _atom_site_occupancy
  Ag  Ag0  1  0.49588572  0.49298972  0.48848143  1
  Ag  Ag1  1  0.74685531  0.24703067  0.49569763  1
  Ag  Ag2  1  0.00303367  0.49324848  0.49708816  1
  Ag  Ag3  1  0.26227438  0.25841789  0.00150485  1
  Ag  Ag4  1  0.25313226  0.00759116  0.75441362  1
  Ag  Ag5  1  0.01221052  0.49244917  0.00380014  1
  Ag  Ag6  1  0.25198948  0.49158281  0.75856660  1
  Ag  Ag7  1  0.74700669  0.00734467  0.75098338  1
  Ag  Ag8  1  0.73641111  0.24673893  0.00516743  1
  Ag  Ag9  1  0.50258014  0.25482536  0.24128573  1
  Ag  Ag10  1  0.49052145  0.48566997  0.01103634  1
  Ag  Ag11  1  -0.00585531  0.01089726  0.50051005  1
  Ag  Ag12  1  0.25936205  0.49465542  0.24167338  1
  Ag  Ag13  1  0.50323447  0.01374065  0.00483096  1
  Ag  Ag14  1  0.50068394  0.74160408  0.24778749  1
  Ag  Ag15  1  0.74283883  0.00835262  0.24836060  1
  Sb  Sb16  1  0.74752417  0.75148020  0.49825108  1
  Sb  Sb17  1  0.25275705  0.00626248  0.24649521  1
  Sb  Sb18  1  0.00118893  0.25021210  0.74804191  1
  Sb  Sb19  1  0.00023370  0.74913473  0.74981787  1
  Sb  Sb20  1  -0.00052114  0.00797819  0.00003603  1
  Sb  Sb21  1  0.50172979  0.00905548  0.49937260  1
  Sb  Sb22  1  0.74812557  0.49385642  0.75110560  1
  Sb  Sb23  1  -0.00180096  0.74633011  0.25076767  1
  Sb  Sb24  1  0.25548897  0.25303186  0.49767005  1
  Sb  Sb25  1  -0.00305058  0.25218271  0.25092766  1
  Sb  Sb26  1  0.74714927  0.75348599  0.00192968  1
  Sb  Sb27  1  0.25154005  0.74245440  0.00082920  1
  Sb  Sb28  1  0.49954075  0.25022043  0.75869359  1
  Sb  Sb29  1  0.49990200  0.74771971  0.75055500  1
  Sb  Sb30  1  0.74266143  0.49359082  0.24985029  1
  Sb  Sb31  1  0.25192360  0.74904384  0.49926109  1
  Te  Te32  1  0.25565027  0.25372623  0.24649809  1
  Te  Te33  1  0.25041431  0.25053448  0.75532993  1
  Te  Te34  1  0.25762513  0.74214408  0.24944277  1
  Te  Te35  1  0.25006681  0.75421802  0.75040663  1
  Te  Te36  1  0.74834715  0.24743456  0.24767164  1
  Te  Te37  1  0.74883451  0.24480679  0.75039236  1
  Te  Te38  1  0.74360947  0.76440131  0.24958117  1
  Te  Te39  1  0.74952859  0.76922705  0.75026731  1
  Te  Te40  1  0.24593694  0.00567531  -0.00115477  1
  Te  Te41  1  0.24610989  0.00269867  0.50489174  1
  Te  Te42  1  0.25369966  0.49776146  -0.00232312  1
  Te  Te43  1  0.24831533  0.49720765  0.50402715  1
  Te  Te44  1  0.75395094  0.00432655  0.00042440  1
  Te  Te45  1  0.74895710  0.00434837  0.50112728  1
  Te  Te46  1  0.74576399  0.49179973  -0.00206454  1
  Te  Te47  1  0.75399566  0.49388822  0.50201826  1
  Te  Te48  1  -0.00113105  0.25662367  0.00124421  1
  Te  Te49  1  -0.00637228  0.25240989  0.49923153  1
  Te  Te50  1  -0.00114651  0.73095862  0.00138549  1
  Te  Te51  1  0.00003089  0.74125180  0.49902242  1
  Te  Te52  1  0.50152050  0.24899162  0.00094109  1
  Te  Te53  1  0.50390208  0.25476618  0.49033396  1
  Te  Te54  1  0.50047118  0.75045326  0.00512285  1
  Te  Te55  1  0.50010817  0.73534216  0.49219486  1
  Te  Te56  1  -0.00032932  -0.00153556  0.25450804  1
  Te  Te57  1  0.00422883  0.00087756  0.74696914  1
  Te  Te58  1  0.00716538  0.50091584  0.25421810  1
  Te  Te59  1  0.00479946  0.49927229  0.74476870  1
  Te  Te60  1  0.49774442  0.00630971  0.24815715  1
  Te  Te61  1  0.49481761  -0.00049863  0.75186349  1
  Te  Te62  1  0.50002795  0.49583798  0.24816233  1
  Te  Te63  1  0.49679961  0.50064680  0.75054804  1
