# generated using pymatgen
data_AgSbTe2
_symmetry_space_group_name_H-M   'P 1'
_cell_length_a   12.22327485
_cell_length_b   12.22107317
_cell_length_c   12.22986498
_cell_angle_alpha   90.00822356
_cell_angle_beta   89.99563015
_cell_angle_gamma   89.99750764
_symmetry_Int_Tables_number   1
_chemical_formula_structural   AgSbTe2
_chemical_formula_sum   'Ag16 Sb16 Te32'
_cell_volume   1826.91599409
_cell_formula_units_Z   16
loop_
 _symmetry_equiv_pos_site_id
 _symmetry_equiv_pos_as_xyz
  1  'x, y, z'
loop_
 _atom_site_type_symbol
 _atom_site_label
 _atom_site_symmetry_multiplicity
 _atom_site_fract_x
 _atom_site_fract_y
 _atom_site_fract_z
 _atom_site_occupancy
  Ag  Ag0  1  0.74641258  -0.00534993  0.75430991  1
  Ag  Ag1  1  0.74868444  0.50555227  0.75269512  1
  Ag  Ag2  1  0.25366999  0.25602260  0.00568076  1
  Ag  Ag3  1  0.25073173  0.49998019  0.75343663  1
  Ag  Ag4  1  0.24893129  0.49271943  0.24706196  1
  Ag  Ag5  1  -0.00067585  0.49819414  0.49741211  1
  Ag  Ag6  1  0.50552928  0.74810186  0.75502928  1
  Ag  Ag7  1  0.50276457  0.00031590  -0.00147984  1
  Ag  Ag8  1  0.00272258  0.25627721  0.24924774  1
  Ag  Ag9  1  0.74496213  0.74679252  -0.00619365  1
  Ag  Ag10  1  0.24957621  0.25611473  0.49471999  1
  Ag  Ag11  1  0.25443732  0.74432172  -0.00160878  1
  Ag  Ag12  1  0.74647733  0.25372193  0.00227028  1
  Ag  Ag13  1  0.74882427  0.74468422  0.50584439  1
  Ag  Ag14  1  0.49766288  0.25308446  0.24506556  1
  Ag  Ag15  1  0.75134707  0.49719122  0.24700622  1
  Sb  Sb16  1  0.75021607  0.25519784  0.49839626  1
  Sb  Sb17  1  0.50040289  0.74700634  0.24462329  1
  Sb  Sb18  1  0.50050832  0.25177819  0.75517308  1
  Sb  Sb19  1  0.25198655  0.00822814  0.24816078  1
  Sb  Sb20  1  0.50099772  0.49954189  0.50000811  1
  Sb  Sb21  1  -0.00272942  0.00155840  -0.00007886  1
  Sb  Sb22  1  0.50030543  0.49886706  -0.00004920  1
  Sb  Sb23  1  -0.00048545  0.49873277  0.00326405  1
  Sb  Sb24  1  -0.00225432  0.00196799  0.49980812  1
  Sb  Sb25  1  0.25170067  0.74246945  0.50185259  1
  Sb  Sb26  1  0.25371022  -0.00163926  0.75330142  1
  Sb  Sb27  1  0.74789278  0.00218853  0.24646495  1
  Sb  Sb28  1  -0.00063986  0.74388676  0.24999638  1
  Sb  Sb29  1  0.50220749  0.00110184  0.50152853  1
  Sb  Sb30  1  -0.00590574  0.74621210  0.75014156  1
  Sb  Sb31  1  0.00021488  0.25381341  0.75066449  1
  Te  Te32  1  0.25090880  0.25281327  0.24614259  1
  Te  Te33  1  0.25093366  0.25474082  0.75336858  1
  Te  Te34  1  0.25029719  0.74247223  0.24575003  1
  Te  Te35  1  0.25375472  0.74635584  0.75341081  1
  Te  Te36  1  0.74871804  0.25341894  0.24750269  1
  Te  Te37  1  0.74898594  0.25504713  0.75374002  1
  Te  Te38  1  0.74954937  0.74468374  0.24703603  1
  Te  Te39  1  0.74910421  0.74440648  0.75412228  1
  Te  Te40  1  0.25387612  -0.00013183  -0.00152454  1
  Te  Te41  1  0.24949522  0.00738218  0.50072194  1
  Te  Te42  1  0.24886800  0.49871919  -0.00079205  1
  Te  Te43  1  0.24742300  0.49790222  0.50021330  1
  Te  Te44  1  0.74752339  -0.00037499  -0.00220967  1
  Te  Te45  1  0.75007814  -0.00666716  0.50588362  1
  Te  Te46  1  0.75106648  0.49948037  -0.00035761  1
  Te  Te47  1  0.75211140  0.50156036  0.50065749  1
  Te  Te48  1  0.00028724  0.24897763  0.00449663  1
  Te  Te49  1  0.00292616  0.25345482  0.49596584  1
  Te  Te50  1  0.00083059  0.75151162  0.00122578  1
  Te  Te51  1  -0.00484503  0.74536956  0.49875525  1
  Te  Te52  1  0.50052161  0.24689159  0.00158368  1
  Te  Te53  1  0.49499443  0.24827827  0.49315579  1
  Te  Te54  1  0.50164247  0.75423439  -0.00174346  1
  Te  Te55  1  0.50468243  0.75178276  0.50539354  1
  Te  Te56  1  0.00011111  0.01041433  0.25082094  1
  Te  Te57  1  -0.01014504  0.00164392  0.74926111  1
  Te  Te58  1  -0.00056032  0.49588297  0.25365542  1
  Te  Te59  1  0.00036853  0.49901682  0.74194150  1
  Te  Te60  1  0.50010793  0.00652400  0.24407488  1
  Te  Te61  1  0.50495982  -0.00376318  0.75401346  1
  Te  Te62  1  0.50027918  0.49562797  0.25050735  1
  Te  Te63  1  0.50095917  0.50370779  0.74947357  1
