# generated using pymatgen
data_AgSbTe2
_symmetry_space_group_name_H-M   'P 1'
_cell_length_a   12.22878209
_cell_length_b   12.22530655
_cell_length_c   12.21779153
_cell_angle_alpha   89.99399122
_cell_angle_beta   89.99461810
_cell_angle_gamma   90.00013950
_symmetry_Int_Tables_number   1
_chemical_formula_structural   AgSbTe2
_chemical_formula_sum   'Ag16 Sb16 Te32'
_cell_volume   1826.56726545
_cell_formula_units_Z   16
loop_
 _symmetry_equiv_pos_site_id
 _symmetry_equiv_pos_as_xyz
  1  'x, y, z'
loop_
 _atom_site_type_symbol
 _atom_site_label
 _atom_site_symmetry_multiplicity
 _atom_site_fract_x
 _atom_site_fract_y
 _atom_site_fract_z
 _atom_site_occupancy
  Ag  Ag0  1  0.25217001  0.49238972  0.24459503  1
  Ag  Ag1  1  0.74544408  0.24921106  0.00079960  1
  Ag  Ag2  1  0.49962631  0.49906407  -0.00008311  1
  Ag  Ag3  1  0.50234315  0.75047150  0.75791889  1
  Ag  Ag4  1  0.25403830  0.24560815  0.00582471  1
  Ag  Ag5  1  0.74872231  0.75073675  0.50354093  1
  Ag  Ag6  1  0.00758843  0.24791200  0.24540989  1
  Ag  Ag7  1  0.25596368  0.75618409  -0.00127815  1
  Ag  Ag8  1  0.25083187  0.00048175  0.75764563  1
  Ag  Ag9  1  0.00535408  0.00339074  -0.00016281  1
  Ag  Ag10  1  0.00283524  0.00240412  0.49992672  1
  Ag  Ag11  1  0.24916665  0.24703316  0.49408707  1
  Ag  Ag12  1  0.49452190  0.00075458  -0.00136453  1
  Ag  Ag13  1  0.74298495  0.74988873  -0.00415723  1
  Ag  Ag14  1  0.74621620  0.50355189  0.75566563  1
  Ag  Ag15  1  0.49232835  0.25102462  0.24173402  1
  Sb  Sb16  1  0.00187530  0.75238231  0.24681490  1
  Sb  Sb17  1  0.24954726  0.00797458  0.24120335  1
  Sb  Sb18  1  0.00108120  0.24708608  0.75445236  1
  Sb  Sb19  1  0.49888878  0.24952378  0.75898867  1
  Sb  Sb20  1  0.00062944  0.49777056  0.49730703  1
  Sb  Sb21  1  0.49793035  0.00083265  0.50089650  1
  Sb  Sb22  1  0.25051116  0.75334897  0.50061063  1
  Sb  Sb23  1  0.74792918  -0.00258956  0.75439385  1
  Sb  Sb24  1  -0.00215393  0.75239058  0.75193702  1
  Sb  Sb25  1  0.49950729  0.49970732  0.49999319  1
  Sb  Sb26  1  0.25318868  0.49978347  0.75477404  1
  Sb  Sb27  1  0.75033571  0.24950179  0.49954217  1
  Sb  Sb28  1  0.74733649  0.49889936  0.24535714  1
  Sb  Sb29  1  0.75047958  0.00078881  0.24662812  1
  Sb  Sb30  1  0.49770424  0.75018927  0.24190299  1
  Sb  Sb31  1  0.00044964  0.49650890  0.00219587  1
  Te  Te32  1  0.25044913  0.25106077  0.24697027  1
  Te  Te33  1  0.25100583  0.24862976  0.75078073  1
  Te  Te34  1  0.25043718  0.74002702  0.24577954  1
  Te  Te35  1  0.25367347  0.75111953  0.75383584  1
  Te  Te36  1  0.75012558  0.25101672  0.24590895  1
  Te  Te37  1  0.74938712  0.25508596  0.75471654  1
  Te  Te38  1  0.74996143  0.74850592  0.24856314  1
  Te  Te39  1  0.74725347  0.74817990  0.75511370  1
  Te  Te40  1  0.25008633  0.00052521  -0.00126655  1
  Te  Te41  1  0.24677799  0.00179309  0.50629789  1
  Te  Te42  1  0.25139214  0.49805211  0.00014940  1
  Te  Te43  1  0.24974342  0.49517467  0.49760411  1
  Te  Te44  1  0.75025673  0.00021253  -0.00198848  1
  Te  Te45  1  0.75456944  -0.00418265  0.50200756  1
  Te  Te46  1  0.74855765  0.50115306  -0.00204445  1
  Te  Te47  1  0.74991684  0.50477246  0.50522722  1
  Te  Te48  1  0.00077699  0.24599022  0.00289937  1
  Te  Te49  1  0.00199341  0.24575430  0.49552994  1
  Te  Te50  1  0.00014694  0.75715473  0.00183349  1
  Te  Te51  1  -0.00372147  0.75613323  0.49883624  1
  Te  Te52  1  0.49965386  0.24937008  0.00090267  1
  Te  Te53  1  0.49694368  0.24863663  0.49193062  1
  Te  Te54  1  0.50062693  0.75121027  -0.00056239  1
  Te  Te55  1  0.50465289  0.75134838  0.50541569  1
  Te  Te56  1  -0.00010980  0.00538348  0.24863578  1
  Te  Te57  1  0.00650697  0.00032338  0.75203862  1
  Te  Te58  1  0.00616130  0.49192028  0.25026725  1
  Te  Te59  1  -0.00793724  0.49973463  0.74916853  1
  Te  Te60  1  0.50027429  0.00539284  0.24366452  1
  Te  Te61  1  0.49530470  -0.00345064  0.75485976  1
  Te  Te62  1  0.49638499  0.49563055  0.24464503  1
  Te  Te63  1  0.50337191  0.50413579  0.75517936  1
