# generated using pymatgen
data_AgSbTe2
_symmetry_space_group_name_H-M   'P 1'
_cell_length_a   12.27349823
_cell_length_b   12.27962806
_cell_length_c   12.26652981
_cell_angle_alpha   89.99629535
_cell_angle_beta   90.00271799
_cell_angle_gamma   90.01239540
_symmetry_Int_Tables_number   1
_chemical_formula_structural   AgSbTe2
_chemical_formula_sum   'Ag16 Sb16 Te32'
_cell_volume   1848.73764137
_cell_formula_units_Z   16
loop_
 _symmetry_equiv_pos_site_id
 _symmetry_equiv_pos_as_xyz
  1  'x, y, z'
loop_
 _atom_site_type_symbol
 _atom_site_label
 _atom_site_symmetry_multiplicity
 _atom_site_fract_x
 _atom_site_fract_y
 _atom_site_fract_z
 _atom_site_occupancy
  Ag  Ag0  1  0.00466715  0.00097925  0.00289639  1
  Ag  Ag1  1  -0.00549416  0.49822790  -0.00231346  1
  Ag  Ag2  1  0.24764970  0.50205307  0.75622071  1
  Ag  Ag3  1  -0.00011340  0.75860102  0.24176538  1
  Ag  Ag4  1  0.50043999  0.24687890  0.76129866  1
  Ag  Ag5  1  0.75133548  0.25336414  0.00250573  1
  Ag  Ag6  1  0.75754003  0.49318338  0.23868056  1
  Ag  Ag7  1  0.24728546  -0.00195447  0.75810279  1
  Ag  Ag8  1  0.00413366  -0.00043296  0.49603771  1
  Ag  Ag9  1  0.50446615  0.24514305  0.23930829  1
  Ag  Ag10  1  0.00297797  0.75177537  0.75720800  1
  Ag  Ag11  1  0.49674148  0.75168318  0.75636766  1
  Ag  Ag12  1  0.49704209  0.00723586  -0.00460170  1
  Ag  Ag13  1  0.75371612  0.49838604  0.75977810  1
  Ag  Ag14  1  -0.00282875  0.24305671  0.24094996  1
  Ag  Ag15  1  0.24003674  0.00258876  0.24180920  1
  Sb  Sb16  1  -0.00221965  0.24922070  0.76010874  1
  Sb  Sb17  1  0.24426328  0.49861727  0.24026320  1
  Sb  Sb18  1  0.50023614  0.49928209  0.50174664  1
  Sb  Sb19  1  0.75299659  0.74385451  -0.00108222  1
  Sb  Sb20  1  0.24797089  0.75116401  0.50225201  1
  Sb  Sb21  1  0.24701409  0.75209674  -0.00271029  1
  Sb  Sb22  1  0.50143674  0.75610741  0.24008798  1
  Sb  Sb23  1  0.24973545  0.24781119  -0.00044492  1
  Sb  Sb24  1  0.75942671  0.00755932  0.24485771  1
  Sb  Sb25  1  0.75149012  0.00285727  0.75379400  1
  Sb  Sb26  1  -0.00059932  0.49884910  0.50128908  1
  Sb  Sb27  1  0.75247373  0.25030368  0.49984572  1
  Sb  Sb28  1  0.24628512  0.24928827  0.50108471  1
  Sb  Sb29  1  0.49486852  0.00124582  0.50261744  1
  Sb  Sb30  1  0.75184551  0.75035701  0.50076287  1
  Sb  Sb31  1  0.50576707  0.49109524  -0.00281797  1
  Te  Te32  1  0.25184607  0.24699265  0.24984490  1
  Te  Te33  1  0.25694254  0.24656799  0.75030693  1
  Te  Te34  1  0.24597544  0.75356024  0.25053555  1
  Te  Te35  1  0.24670862  0.75333221  0.75095484  1
  Te  Te36  1  0.74849382  0.25355290  0.24741318  1
  Te  Te37  1  0.74653948  0.25497853  0.75300407  1
  Te  Te38  1  0.75333091  0.73623549  0.24995101  1
  Te  Te39  1  0.75348265  0.74059313  0.75055422  1
  Te  Te40  1  0.24671125  0.00078504  -0.00220853  1
  Te  Te41  1  0.24237766  0.00072138  0.50211426  1
  Te  Te42  1  0.23737336  0.49933270  -0.00784483  1
  Te  Te43  1  0.24975013  0.49917130  0.51842855  1
  Te  Te44  1  0.75009234  0.01147404  0.00032870  1
  Te  Te45  1  0.76387934  0.00024758  0.50039781  1
  Te  Te46  1  0.75434599  0.49459992  -0.00064751  1
  Te  Te47  1  0.75043904  0.49983025  0.50233419  1
  Te  Te48  1  -0.00420696  0.24841919  0.00306974  1
  Te  Te49  1  -0.00102858  0.24340142  0.48399241  1
  Te  Te50  1  -0.00162983  0.75307742  -0.00183405  1
  Te  Te51  1  -0.00044560  0.75649006  0.50215431  1
  Te  Te52  1  0.50423486  0.24648308  0.00092090  1
  Te  Te53  1  0.50146550  0.24888708  0.49664775  1
  Te  Te54  1  0.50309067  0.76352444  -0.00587954  1
  Te  Te55  1  0.50154610  0.75108081  0.51523033  1
  Te  Te56  1  0.00122110  -0.00174061  0.24057972  1
  Te  Te57  1  0.00151780  0.00105804  0.76004005  1
  Te  Te58  1  0.00295651  0.49982853  0.24992792  1
  Te  Te59  1  -0.00127615  0.49811995  0.75021848  1
  Te  Te60  1  0.49512154  -0.00145641  0.25061306  1
  Te  Te61  1  0.49867958  0.00255889  0.74932358  1
  Te  Te62  1  0.49859238  0.49818215  0.24868674  1
  Te  Te63  1  0.49928572  0.49963177  0.75317258  1
