# generated using pymatgen
data_AgSbTe2
_symmetry_space_group_name_H-M   'P 1'
_cell_length_a   12.21507404
_cell_length_b   12.21427397
_cell_length_c   12.20457974
_cell_angle_alpha   89.99413376
_cell_angle_beta   90.00862643
_cell_angle_gamma   90.00104071
_symmetry_Int_Tables_number   1
_chemical_formula_structural   AgSbTe2
_chemical_formula_sum   'Ag16 Sb16 Te32'
_cell_volume   1820.90204225
_cell_formula_units_Z   16
loop_
 _symmetry_equiv_pos_site_id
 _symmetry_equiv_pos_as_xyz
  1  'x, y, z'
loop_
 _atom_site_type_symbol
 _atom_site_label
 _atom_site_symmetry_multiplicity
 _atom_site_fract_x
 _atom_site_fract_y
 _atom_site_fract_z
 _atom_site_occupancy
  Ag  Ag0  1  0.00111674  0.00108160  -0.00364467  1
  Ag  Ag1  1  0.24872526  0.24912727  -0.00615704  1
  Ag  Ag2  1  0.00052771  0.50182646  0.50387963  1
  Ag  Ag3  1  0.75174965  0.50228658  0.24224068  1
  Ag  Ag4  1  0.49758023  0.75066173  0.75358481  1
  Ag  Ag5  1  0.24906376  0.50085418  0.75275856  1
  Ag  Ag6  1  0.74838663  0.74470804  -0.00188677  1
  Ag  Ag7  1  0.50536341  0.50165386  -0.00512949  1
  Ag  Ag8  1  0.75059554  0.25497309  -0.00331452  1
  Ag  Ag9  1  0.49707717  -0.00363890  0.50659625  1
  Ag  Ag10  1  0.25042054  0.74965154  0.50514535  1
  Ag  Ag11  1  0.00198458  0.25290594  0.75509796  1
  Ag  Ag12  1  0.49883097  -0.00154966  -0.00557726  1
  Ag  Ag13  1  -0.00127563  0.74746591  0.24754366  1
  Ag  Ag14  1  0.75028409  0.50049644  0.75761375  1
  Ag  Ag15  1  0.25304035  -0.00113317  0.75385094  1
  Sb  Sb16  1  0.49896646  0.50300070  0.50623527  1
  Sb  Sb17  1  0.50162543  0.74866440  0.24657311  1
  Sb  Sb18  1  0.00325054  -0.00215016  0.50428463  1
  Sb  Sb19  1  0.49839470  0.24970545  0.75491993  1
  Sb  Sb20  1  0.74981927  0.74783553  0.50234856  1
  Sb  Sb21  1  -0.00222830  0.25223541  0.24463341  1
  Sb  Sb22  1  0.24807987  0.50254873  0.24648999  1
  Sb  Sb23  1  -0.00611173  0.49931404  -0.00350842  1
  Sb  Sb24  1  0.24941842  -0.00195296  0.24558957  1
  Sb  Sb25  1  0.75155189  0.25285968  0.50455381  1
  Sb  Sb26  1  0.75111753  -0.00242168  0.24528440  1
  Sb  Sb27  1  0.74720336  -0.00044647  0.75455626  1
  Sb  Sb28  1  0.25140161  0.75007099  -0.00535921  1
  Sb  Sb29  1  0.24843789  0.25046736  0.50687525  1
  Sb  Sb30  1  0.00147288  0.74736883  0.75198061  1
  Sb  Sb31  1  0.50154687  0.25104937  0.24604446  1
  Te  Te32  1  0.24902692  0.25064746  0.23955249  1
  Te  Te33  1  0.24644713  0.25099056  0.75498832  1
  Te  Te34  1  0.24405521  0.74885272  0.25843015  1
  Te  Te35  1  0.25200841  0.74927156  0.74734042  1
  Te  Te36  1  0.75136588  0.25811396  0.24199623  1
  Te  Te37  1  0.75519708  0.25515314  0.75561376  1
  Te  Te38  1  0.75374609  0.74470810  0.24514939  1
  Te  Te39  1  0.74668478  0.74514974  0.75451319  1
  Te  Te40  1  0.25182961  0.00073679  -0.00412834  1
  Te  Te41  1  0.25331636  -0.00229081  0.50534041  1
  Te  Te42  1  0.25397192  0.49852030  -0.00464251  1
  Te  Te43  1  0.24783844  0.50208355  0.50454485  1
  Te  Te44  1  0.74818958  0.00034738  -0.00045564  1
  Te  Te45  1  0.74278506  0.00061598  0.49917740  1
  Te  Te46  1  0.75054360  0.50035008  -0.00265028  1
  Te  Te47  1  0.75264866  0.49940303  0.50189844  1
  Te  Te48  1  -0.00050740  0.24677746  -0.00352249  1
  Te  Te49  1  0.00011890  0.25450047  0.50584427  1
  Te  Te50  1  -0.00295934  0.75433259  0.00248483  1
  Te  Te51  1  0.00268572  0.74743880  0.49741685  1
  Te  Te52  1  0.50154598  0.24881265  -0.00097880  1
  Te  Te53  1  0.49949047  0.24155108  0.49846894  1
  Te  Te54  1  0.50181193  0.75065545  -0.00329579  1
  Te  Te55  1  0.49639314  0.75366412  0.50389126  1
  Te  Te56  1  -0.00017191  -0.00532700  0.24518780  1
  Te  Te57  1  0.00359080  0.00257222  0.75357448  1
  Te  Te58  1  -0.00320383  0.50365469  0.25482034  1
  Te  Te59  1  0.00136991  0.49891370  0.74748811  1
  Te  Te60  1  0.49986473  -0.00074183  0.24637163  1
  Te  Te61  1  0.49758240  -0.00265034  0.75446730  1
  Te  Te62  1  0.50565539  0.50100461  0.24433212  1
  Te  Te63  1  0.49966066  0.50266766  0.75267745  1
