# generated using pymatgen
data_AgSbTe2
_symmetry_space_group_name_H-M   'P 1'
_cell_length_a   12.22411382
_cell_length_b   12.22189946
_cell_length_c   12.22815263
_cell_angle_alpha   89.99501636
_cell_angle_beta   90.00480836
_cell_angle_gamma   90.00483906
_symmetry_Int_Tables_number   1
_chemical_formula_structural   AgSbTe2
_chemical_formula_sum   'Ag16 Sb16 Te32'
_cell_volume   1826.90909546
_cell_formula_units_Z   16
loop_
 _symmetry_equiv_pos_site_id
 _symmetry_equiv_pos_as_xyz
  1  'x, y, z'
loop_
 _atom_site_type_symbol
 _atom_site_label
 _atom_site_symmetry_multiplicity
 _atom_site_fract_x
 _atom_site_fract_y
 _atom_site_fract_z
 _atom_site_occupancy
  Ag  Ag0  1  0.00238449  0.49538142  0.00188847  1
  Ag  Ag1  1  0.74291268  0.00054970  0.24377810  1
  Ag  Ag2  1  0.25214036  0.24498658  0.49930908  1
  Ag  Ag3  1  0.25684325  0.00088781  0.24687235  1
  Ag  Ag4  1  0.25816710  0.00360436  0.75305310  1
  Ag  Ag5  1  0.25827312  0.75499752  0.00283431  1
  Ag  Ag6  1  0.74100471  0.75554182  0.00237724  1
  Ag  Ag7  1  0.49671256  0.75828974  0.24089329  1
  Ag  Ag8  1  0.75021383  0.24585303  0.00104299  1
  Ag  Ag9  1  0.49589374  0.24020421  0.75344316  1
  Ag  Ag10  1  0.49792477  -0.00510514  0.00077085  1
  Ag  Ag11  1  0.49541389  0.00157670  0.50000776  1
  Ag  Ag12  1  0.00304789  0.24763702  0.75503910  1
  Ag  Ag13  1  0.49688881  0.75968179  0.75940238  1
  Ag  Ag14  1  0.25006706  0.49820029  0.24607631  1
  Ag  Ag15  1  0.00393838  0.24851131  0.24477810  1
  Sb  Sb16  1  0.49632902  0.49665688  0.49791560  1
  Sb  Sb17  1  0.00089968  0.00441847  0.00029905  1
  Sb  Sb18  1  0.75001481  0.49932615  0.75382646  1
  Sb  Sb19  1  0.00496085  0.00314796  0.49966495  1
  Sb  Sb20  1  0.25402406  0.75439117  0.49790958  1
  Sb  Sb21  1  0.00203983  0.75135844  0.24561439  1
  Sb  Sb22  1  0.74463714  0.75523784  0.49745653  1
  Sb  Sb23  1  0.00228001  0.75315902  0.75678377  1
  Sb  Sb24  1  0.49722923  0.50345789  0.00141979  1
  Sb  Sb25  1  0.49673268  0.24145094  0.24635667  1
  Sb  Sb26  1  0.25043771  0.24598488  -0.00023646  1
  Sb  Sb27  1  0.74772086  0.24526537  0.49873614  1
  Sb  Sb28  1  0.00427285  0.49573058  0.49762168  1
  Sb  Sb29  1  0.24979646  0.49781748  0.75368350  1
  Sb  Sb30  1  0.74929441  0.49930227  0.24521503  1
  Sb  Sb31  1  0.74052349  0.00099467  0.75720487  1
  Te  Te32  1  0.24945802  0.24654907  0.25010418  1
  Te  Te33  1  0.25176012  0.24812035  0.75036333  1
  Te  Te34  1  0.25174632  0.75457115  0.24826371  1
  Te  Te35  1  0.25368930  0.75252463  0.75208448  1
  Te  Te36  1  0.75277005  0.24756714  0.24650308  1
  Te  Te37  1  0.75062452  0.24883674  0.75368562  1
  Te  Te38  1  0.74775773  0.75355551  0.24547379  1
  Te  Te39  1  0.74553536  0.75089568  0.75625587  1
  Te  Te40  1  0.25148280  -0.00364402  0.00095893  1
  Te  Te41  1  0.25410180  0.00407486  0.49899376  1
  Te  Te42  1  0.24622925  0.50587097  0.00491836  1
  Te  Te43  1  0.25008043  0.49216975  0.49177682  1
  Te  Te44  1  0.74870725  0.00020954  0.00377240  1
  Te  Te45  1  0.74210927  0.00012522  0.48979018  1
  Te  Te46  1  0.75594613  0.49804977  0.00112757  1
  Te  Te47  1  0.75023633  0.50030546  0.49973680  1
  Te  Te48  1  -0.00156367  0.25177790  0.00057887  1
  Te  Te49  1  0.00386479  0.24963502  0.50070026  1
  Te  Te50  1  -0.00060342  0.74422245  -0.00135309  1
  Te  Te51  1  -0.00093981  0.74947165  0.50195072  1
  Te  Te52  1  0.50373526  0.24821128  -0.00358014  1
  Te  Te53  1  0.49605139  0.24553148  0.50527319  1
  Te  Te54  1  0.49934452  0.74996373  0.00007671  1
  Te  Te55  1  0.50007555  0.75572872  0.50169607  1
  Te  Te56  1  0.00266706  0.00445749  0.25057714  1
  Te  Te57  1  0.00838684  0.00599068  0.74867203  1
  Te  Te58  1  0.00446267  0.49552006  0.24692382  1
  Te  Te59  1  0.00061650  0.49308153  0.75466871  1
  Te  Te60  1  0.49704246  -0.00040503  0.24580673  1
  Te  Te61  1  0.49806666  0.00034436  0.75345804  1
  Te  Te62  1  0.49433380  0.50836383  0.25057753  1
  Te  Te63  1  0.49920501  0.49982483  0.74912638  1
