# generated using pymatgen
data_AgSbTe2
_symmetry_space_group_name_H-M   'P 1'
_cell_length_a   12.21755095
_cell_length_b   12.22100247
_cell_length_c   12.21164020
_cell_angle_alpha   90.00572261
_cell_angle_beta   89.99785528
_cell_angle_gamma   90.00007228
_symmetry_Int_Tables_number   1
_chemical_formula_structural   AgSbTe2
_chemical_formula_sum   'Ag16 Sb16 Te32'
_cell_volume   1823.32878477
_cell_formula_units_Z   16
loop_
 _symmetry_equiv_pos_site_id
 _symmetry_equiv_pos_as_xyz
  1  'x, y, z'
loop_
 _atom_site_type_symbol
 _atom_site_label
 _atom_site_symmetry_multiplicity
 _atom_site_fract_x
 _atom_site_fract_y
 _atom_site_fract_z
 _atom_site_occupancy
  Ag  Ag0  1  0.25587363  0.75007315  0.00453504  1
  Ag  Ag1  1  0.74752317  0.74961938  0.49928537  1
  Ag  Ag2  1  -0.00007752  0.50092421  0.49926068  1
  Ag  Ag3  1  0.25260331  0.75001614  0.49613664  1
  Ag  Ag4  1  0.74539482  0.00263066  0.75263234  1
  Ag  Ag5  1  -0.00192248  0.25014270  0.75195528  1
  Ag  Ag6  1  0.25410428  -0.00279089  0.24655594  1
  Ag  Ag7  1  0.74417135  0.74938209  0.00076561  1
  Ag  Ag8  1  0.74270349  0.25009952  -0.00361582  1
  Ag  Ag9  1  0.74847385  0.50188301  0.24673084  1
  Ag  Ag10  1  0.49967104  0.00369543  -0.00219473  1
  Ag  Ag11  1  0.25725415  0.24990211  0.00014586  1
  Ag  Ag12  1  0.50014976  0.49700486  0.00117191  1
  Ag  Ag13  1  0.49982832  -0.00166314  0.50152085  1
  Ag  Ag14  1  0.50217797  0.24636791  0.75719638  1
  Ag  Ag15  1  0.25149520  0.50303059  0.24685429  1
  Sb  Sb16  1  0.50152081  0.75373693  0.75294900  1
  Sb  Sb17  1  0.00065000  -0.00075280  0.50248928  1
  Sb  Sb18  1  0.25510205  0.00170949  0.75259916  1
  Sb  Sb19  1  0.25214826  0.25017252  0.49847099  1
  Sb  Sb20  1  0.74881143  0.49738931  0.75314547  1
  Sb  Sb21  1  -0.00195920  0.74963452  0.74934104  1
  Sb  Sb22  1  0.74600074  -0.00166706  0.24733394  1
  Sb  Sb23  1  0.49958718  0.25022509  0.24152014  1
  Sb  Sb24  1  0.00138826  0.74814942  0.25071859  1
  Sb  Sb25  1  0.00078396  0.00141696  -0.00161659  1
  Sb  Sb26  1  0.25101439  0.49899454  0.75368260  1
  Sb  Sb27  1  0.00003110  0.49821198  0.00037627  1
  Sb  Sb28  1  0.74809752  0.25009356  0.50259068  1
  Sb  Sb29  1  0.49982027  0.50143281  0.49909811  1
  Sb  Sb30  1  0.49781580  0.74971687  0.24659609  1
  Sb  Sb31  1  -0.00024188  0.25221921  0.24902696  1
  Te  Te32  1  0.24912622  0.25208634  0.24452272  1
  Te  Te33  1  0.25024148  0.24910304  0.75578488  1
  Te  Te34  1  0.24914524  0.74798934  0.24792564  1
  Te  Te35  1  0.24860013  0.75044169  0.75055233  1
  Te  Te36  1  0.75152679  0.25439878  0.24346641  1
  Te  Te37  1  0.74869047  0.24753816  0.75351014  1
  Te  Te38  1  0.75149534  0.74639237  0.24829990  1
  Te  Te39  1  0.75128888  0.75489396  0.75150963  1
  Te  Te40  1  0.25324486  -0.00190617  0.00138910  1
  Te  Te41  1  0.25262539  -0.00380220  0.49766416  1
  Te  Te42  1  0.25073377  0.50199242  0.00358916  1
  Te  Te43  1  0.25087643  0.50377740  0.49394438  1
  Te  Te44  1  0.74656481  -0.00165383  0.00177470  1
  Te  Te45  1  0.74712358  -0.00432324  0.49834389  1
  Te  Te46  1  0.74919560  0.50232203  0.00280878  1
  Te  Te47  1  0.74910897  0.50451379  0.49573312  1
  Te  Te48  1  0.00005310  0.25086848  -0.00621325  1
  Te  Te49  1  0.00017509  0.25518036  0.50701909  1
  Te  Te50  1  -0.00011209  0.74962415  -0.00207237  1
  Te  Te51  1  -0.00009818  0.74551018  0.50182083  1
  Te  Te52  1  0.49991839  0.24867524  -0.00247418  1
  Te  Te53  1  0.49983268  0.24429351  0.50984771  1
  Te  Te54  1  0.50006245  0.75037224  -0.00252234  1
  Te  Te55  1  0.50009329  0.75376517  0.50322098  1
  Te  Te56  1  0.01065011  0.00211378  0.25093754  1
  Te  Te57  1  -0.00911776  0.00709690  0.74893961  1
  Te  Te58  1  0.00066075  0.49878352  0.25611523  1
  Te  Te59  1  0.00006921  0.49355735  0.74288235  1
  Te  Te60  1  0.49434527  0.00100741  0.25019825  1
  Te  Te61  1  0.50420948  0.00412870  0.75245955  1
  Te  Te62  1  0.49949926  0.49932039  0.24539999  1
  Te  Te63  1  0.50017596  0.49093766  0.75636388  1
