# generated using pymatgen
data_AgSbTe2
_symmetry_space_group_name_H-M   'P 1'
_cell_length_a   12.21145800
_cell_length_b   12.21825071
_cell_length_c   12.21659370
_cell_angle_alpha   90.00242181
_cell_angle_beta   90.00283889
_cell_angle_gamma   90.00003110
_symmetry_Int_Tables_number   1
_chemical_formula_structural   AgSbTe2
_chemical_formula_sum   'Ag16 Sb16 Te32'
_cell_volume   1822.74821482
_cell_formula_units_Z   16
loop_
 _symmetry_equiv_pos_site_id
 _symmetry_equiv_pos_as_xyz
  1  'x, y, z'
loop_
 _atom_site_type_symbol
 _atom_site_label
 _atom_site_symmetry_multiplicity
 _atom_site_fract_x
 _atom_site_fract_y
 _atom_site_fract_z
 _atom_site_occupancy
  Ag  Ag0  1  0.50180386  0.25431760  0.25276967  1
  Ag  Ag1  1  -0.00389662  0.25143072  0.74774645  1
  Ag  Ag2  1  0.74710303  0.74802490  -0.00012997  1
  Ag  Ag3  1  -0.00550810  0.74834481  0.74948317  1
  Ag  Ag4  1  0.74667233  0.24898402  0.49976428  1
  Ag  Ag5  1  0.50214241  0.50038803  0.49638118  1
  Ag  Ag6  1  0.25686565  0.50078500  0.24958317  1
  Ag  Ag7  1  0.74729818  -0.00238532  0.25426184  1
  Ag  Ag8  1  0.50583225  0.74545521  0.74899663  1
  Ag  Ag9  1  0.25314513  -0.00077326  0.25291832  1
  Ag  Ag10  1  -0.00442991  -0.00054682  0.49941422  1
  Ag  Ag11  1  0.74694793  0.75133458  0.49952998  1
  Ag  Ag12  1  0.50096172  0.50294148  0.00398870  1
  Ag  Ag13  1  -0.00186634  0.50222867  -0.00053111  1
  Ag  Ag14  1  0.50332082  0.74570966  0.25097059  1
  Ag  Ag15  1  0.50408350  0.25437526  0.74636634  1
  Sb  Sb16  1  0.25320359  0.50014225  0.74997145  1
  Sb  Sb17  1  0.75042880  -0.00221852  0.74493333  1
  Sb  Sb18  1  0.74720693  0.50231779  0.74997621  1
  Sb  Sb19  1  0.74120715  0.50289143  0.25030230  1
  Sb  Sb20  1  -0.00186241  0.50088907  0.50061772  1
  Sb  Sb21  1  -0.00364781  0.25096109  0.25251489  1
  Sb  Sb22  1  0.25417690  0.75025574  0.49757206  1
  Sb  Sb23  1  0.25008288  -0.00044361  0.74651374  1
  Sb  Sb24  1  0.25457941  0.24973118  0.49789681  1
  Sb  Sb25  1  0.74816556  0.25207492  0.00049067  1
  Sb  Sb26  1  0.50251537  -0.00414164  0.00288058  1
  Sb  Sb27  1  0.50465041  -0.00039633  0.49616414  1
  Sb  Sb28  1  -0.00539542  0.74908516  0.25047092  1
  Sb  Sb29  1  0.25148644  0.25151963  0.00173366  1
  Sb  Sb30  1  0.25296599  0.74809395  0.00192756  1
  Sb  Sb31  1  -0.00304538  -0.00220244  -0.00014643  1
  Te  Te32  1  0.25652267  0.24910470  0.25042661  1
  Te  Te33  1  0.25184906  0.24857723  0.74966292  1
  Te  Te34  1  0.25710803  0.75058728  0.25042096  1
  Te  Te35  1  0.25115881  0.75149000  0.74969164  1
  Te  Te36  1  0.74587892  0.24499798  0.25291235  1
  Te  Te37  1  0.74741895  0.24774123  0.74646394  1
  Te  Te38  1  0.74658226  0.75242376  0.25219509  1
  Te  Te39  1  0.74771253  0.75190782  0.74874073  1
  Te  Te40  1  0.24884826  0.00012131  0.01142416  1
  Te  Te41  1  0.24029864  -0.00002662  0.49295798  1
  Te  Te42  1  0.25155593  0.50017233  0.00622479  1
  Te  Te43  1  0.25665101  0.50009769  0.49270711  1
  Te  Te44  1  0.75066216  -0.00788871  0.00989840  1
  Te  Te45  1  0.75362527  -0.00112509  0.49589739  1
  Te  Te46  1  0.74994870  0.50544206  0.00081023  1
  Te  Te47  1  0.74508708  0.50019462  0.49937701  1
  Te  Te48  1  -0.00207738  0.25509262  -0.00787235  1
  Te  Te49  1  -0.00649406  0.25023238  0.50440865  1
  Te  Te50  1  -0.00483987  0.74675768  -0.00453379  1
  Te  Te51  1  -0.00664061  0.74959929  0.50407870  1
  Te  Te52  1  0.50189474  0.25724446  -0.00154701  1
  Te  Te53  1  0.50387491  0.25084874  0.50126548  1
  Te  Te54  1  0.50332844  0.74623221  -0.00137612  1
  Te  Te55  1  0.50389745  0.74926953  0.50110200  1
  Te  Te56  1  0.00039007  0.00070893  0.25335158  1
  Te  Te57  1  0.00139571  0.00009427  0.74659206  1
  Te  Te58  1  0.00916799  0.49918714  0.24547623  1
  Te  Te59  1  0.00338973  0.50049360  0.75299295  1
  Te  Te60  1  0.50004769  -0.00022012  0.25040430  1
  Te  Te61  1  0.49804527  0.00076601  0.75075971  1
  Te  Te62  1  0.49922564  0.50045580  0.24930426  1
  Te  Te63  1  0.49729174  0.50024568  0.75044902  1
