# generated using pymatgen
data_AgSbTe2
_symmetry_space_group_name_H-M   'P 1'
_cell_length_a   12.20510883
_cell_length_b   12.20594914
_cell_length_c   12.20559810
_cell_angle_alpha   89.99985459
_cell_angle_beta   90.00106639
_cell_angle_gamma   90.00542606
_symmetry_Int_Tables_number   1
_chemical_formula_structural   AgSbTe2
_chemical_formula_sum   'Ag16 Sb16 Te32'
_cell_volume   1818.32820635
_cell_formula_units_Z   16
loop_
 _symmetry_equiv_pos_site_id
 _symmetry_equiv_pos_as_xyz
  1  'x, y, z'
loop_
 _atom_site_type_symbol
 _atom_site_label
 _atom_site_symmetry_multiplicity
 _atom_site_fract_x
 _atom_site_fract_y
 _atom_site_fract_z
 _atom_site_occupancy
  Ag  Ag0  1  0.74507800  0.00175892  0.74832746  1
  Ag  Ag1  1  0.74605976  0.25108616  0.50262791  1
  Ag  Ag2  1  0.25482895  0.74837074  0.50063962  1
  Ag  Ag3  1  -0.00234474  0.50030467  -0.00179436  1
  Ag  Ag4  1  0.50186865  0.25227091  0.25298725  1
  Ag  Ag5  1  -0.00094286  0.74616435  0.25060162  1
  Ag  Ag6  1  0.50222075  -0.00128896  -0.00172085  1
  Ag  Ag7  1  0.50062781  0.74767468  0.25115150  1
  Ag  Ag8  1  0.50265272  0.50140679  -0.00083082  1
  Ag  Ag9  1  0.74771635  0.49749000  0.75119257  1
  Ag  Ag10  1  -0.00242464  0.25391551  0.74878905  1
  Ag  Ag11  1  0.25402776  0.25147348  0.50210361  1
  Ag  Ag12  1  0.74621256  0.49999526  0.24921742  1
  Ag  Ag13  1  0.50031003  0.74844717  0.74879293  1
  Ag  Ag14  1  0.25238894  0.49952098  0.74887176  1
  Ag  Ag15  1  0.50098345  0.00031586  0.50140647  1
  Sb  Sb16  1  0.74665544  0.74689375  0.00030304  1
  Sb  Sb17  1  -0.00254210  -0.00052009  0.50103383  1
  Sb  Sb18  1  -0.00051030  0.50023871  0.50196800  1
  Sb  Sb19  1  0.74757585  0.25321813  -0.00384946  1
  Sb  Sb20  1  0.50264210  0.25215131  0.74493097  1
  Sb  Sb21  1  0.25369295  -0.00043814  0.25196906  1
  Sb  Sb22  1  0.25632889  0.00065471  0.74708604  1
  Sb  Sb23  1  0.50028126  0.49951171  0.50122760  1
  Sb  Sb24  1  0.00024962  0.74484148  0.74958687  1
  Sb  Sb25  1  0.25297842  0.25276676  -0.00380243  1
  Sb  Sb26  1  -0.00384632  -0.00126102  -0.00231892  1
  Sb  Sb27  1  0.74529180  0.00114962  0.25165318  1
  Sb  Sb28  1  -0.00254072  0.25569221  0.25078564  1
  Sb  Sb29  1  0.25375123  0.74757578  -0.00113890  1
  Sb  Sb30  1  0.25493371  0.50093591  0.25145938  1
  Sb  Sb31  1  0.74335519  0.74942051  0.50002916  1
  Te  Te32  1  0.25405930  0.25036362  0.25930508  1
  Te  Te33  1  0.24672943  0.25388910  0.74438376  1
  Te  Te34  1  0.25322703  0.74901833  0.25701541  1
  Te  Te35  1  0.25295170  0.74593847  0.74425749  1
  Te  Te36  1  0.74707568  0.25411943  0.25674491  1
  Te  Te37  1  0.75121257  0.25335889  0.74591681  1
  Te  Te38  1  0.74713580  0.74452333  0.25242468  1
  Te  Te39  1  0.74632844  0.74779641  0.74752932  1
  Te  Te40  1  0.25910300  0.00081300  -0.00085830  1
  Te  Te41  1  0.25638814  0.00097129  0.50145658  1
  Te  Te42  1  0.25140019  0.49953386  -0.00693759  1
  Te  Te43  1  0.24956181  0.49921349  0.50573231  1
  Te  Te44  1  0.74327640  0.00138375  -0.00673166  1
  Te  Te45  1  0.74512856  0.00503781  0.50430446  1
  Te  Te46  1  0.74803599  0.49885882  -0.00164233  1
  Te  Te47  1  0.75053939  0.49475293  0.50120672  1
  Te  Te48  1  0.00197384  0.25501934  -0.00384755  1
  Te  Te49  1  0.00086976  0.24932291  0.50331163  1
  Te  Te50  1  0.00281241  0.74546905  0.00558418  1
  Te  Te51  1  0.00803535  0.75100727  0.49477763  1
  Te  Te52  1  0.49849751  0.25083647  0.00721544  1
  Te  Te53  1  0.49986834  0.24742340  0.49808703  1
  Te  Te54  1  0.49808146  0.74903317  0.00121158  1
  Te  Te55  1  0.49749602  0.75322060  0.49920698  1
  Te  Te56  1  -0.00226249  -0.00769732  0.24722033  1
  Te  Te57  1  -0.00809541  0.00473863  0.75290921  1
  Te  Te58  1  -0.00450961  0.50257875  0.24409182  1
  Te  Te59  1  -0.00257236  0.49883731  0.75404777  1
  Te  Te60  1  0.50264632  -0.00197408  0.24980774  1
  Te  Te61  1  0.50337685  -0.00226093  0.74986806  1
  Te  Te62  1  0.50195955  0.50176527  0.24602570  1
  Te  Te63  1  0.50210853  0.50136977  0.75308859  1
