# generated using pymatgen
data_AgSbTe2
_symmetry_space_group_name_H-M   'P 1'
_cell_length_a   12.32718791
_cell_length_b   12.35554696
_cell_length_c   12.32940532
_cell_angle_alpha   89.99796383
_cell_angle_beta   89.97642718
_cell_angle_gamma   89.98321319
_symmetry_Int_Tables_number   1
_chemical_formula_structural   AgSbTe2
_chemical_formula_sum   'Ag16 Sb16 Te32'
_cell_volume   1877.88099285
_cell_formula_units_Z   16
loop_
 _symmetry_equiv_pos_site_id
 _symmetry_equiv_pos_as_xyz
  1  'x, y, z'
loop_
 _atom_site_type_symbol
 _atom_site_label
 _atom_site_symmetry_multiplicity
 _atom_site_fract_x
 _atom_site_fract_y
 _atom_site_fract_z
 _atom_site_occupancy
  Ag  Ag0  1  0.51298846  0.25392429  0.73987557  1
  Ag  Ag1  1  0.50956911  -0.00779478  0.51259471  1
  Ag  Ag2  1  0.74124892  0.00979583  0.73989502  1
  Ag  Ag3  1  0.51480695  0.50920890  0.50658810  1
  Ag  Ag4  1  0.73627630  0.49317319  0.73404810  1
  Ag  Ag5  1  -0.01578417  0.25518669  0.73794263  1
  Ag  Ag6  1  -0.01640159  0.73672715  0.26122370  1
  Ag  Ag7  1  0.75073050  0.50634915  0.26585826  1
  Ag  Ag8  1  -0.01091226  0.26329398  0.26708668  1
  Ag  Ag9  1  0.50735627  0.50205278  -0.01390282  1
  Ag  Ag10  1  0.26516443  0.00295482  0.74469503  1
  Ag  Ag11  1  0.75052671  0.26688656  0.51006102  1
  Ag  Ag12  1  0.74030758  0.73283611  0.50005322  1
  Ag  Ag13  1  0.51249298  0.74069630  0.26581363  1
  Ag  Ag14  1  0.51094922  0.74509014  0.73740854  1
  Ag  Ag15  1  -0.01382058  0.49384654  0.49659224  1
  Sb  Sb16  1  0.74922868  -0.00123616  0.25790379  1
  Sb  Sb17  1  0.25775036  0.74934079  0.50103732  1
  Sb  Sb18  1  0.74892061  0.74987024  -0.00022647  1
  Sb  Sb19  1  0.74883480  0.25103462  -0.00855825  1
  Sb  Sb20  1  0.25244253  0.74957057  -0.00094677  1
  Sb  Sb21  1  0.25755308  0.49940054  0.74790337  1
  Sb  Sb22  1  0.50830718  0.25688403  0.25927457  1
  Sb  Sb23  1  0.25213693  -0.00034585  0.25628080  1
  Sb  Sb24  1  0.50100544  -0.00148969  -0.00782306  1
  Sb  Sb25  1  0.25088680  0.25109058  -0.00257195  1
  Sb  Sb26  1  0.25012516  0.25066019  0.50116053  1
  Sb  Sb27  1  -0.00736276  0.74811895  0.74190472  1
  Sb  Sb28  1  0.25035261  0.49982671  0.25174340  1
  Sb  Sb29  1  -0.00654813  0.49955954  -0.00046743  1
  Sb  Sb30  1  -0.00707889  0.00057895  0.50198201  1
  Sb  Sb31  1  -0.00140992  -0.00071847  -0.00238481  1
  Te  Te32  1  0.23156728  0.24820818  0.24808423  1
  Te  Te33  1  0.24925173  0.24956429  0.75163830  1
  Te  Te34  1  0.25117034  0.75185017  0.24916183  1
  Te  Te35  1  0.25385066  0.75260821  0.75058596  1
  Te  Te36  1  0.75327290  0.24754907  0.25505563  1
  Te  Te37  1  0.74902587  0.25689085  0.74776161  1
  Te  Te38  1  0.74736199  0.75108035  0.24936234  1
  Te  Te39  1  0.74883226  0.73970956  0.75080917  1
  Te  Te40  1  0.24785654  0.00031988  -0.01245104  1
  Te  Te41  1  0.26389946  -0.00102757  0.50512424  1
  Te  Te42  1  0.26672603  0.50031189  0.00083233  1
  Te  Te43  1  0.24167457  0.50108457  0.49903487  1
  Te  Te44  1  0.75182847  0.00115922  -0.01795017  1
  Te  Te45  1  0.74621656  -0.00000525  0.50248004  1
  Te  Te46  1  0.74508588  0.49934796  0.00253009  1
  Te  Te47  1  0.75558932  0.49998106  0.49675001  1
  Te  Te48  1  0.00076529  0.24914639  -0.00344806  1
  Te  Te49  1  0.00082254  0.24892254  0.50320046  1
  Te  Te50  1  0.00191323  0.75054619  0.01779044  1
  Te  Te51  1  -0.00541105  0.75046179  0.49680857  1
  Te  Te52  1  0.49966751  0.25161671  -0.00514318  1
  Te  Te53  1  0.49874419  0.25296793  0.50178616  1
  Te  Te54  1  0.49854591  0.74830754  0.00106940  1
  Te  Te55  1  0.50172635  0.74772557  0.50182283  1
  Te  Te56  1  0.00151277  -0.00028068  0.24878519  1
  Te  Te57  1  -0.00647167  0.00055759  0.74968238  1
  Te  Te58  1  0.00031997  0.49962218  0.24828269  1
  Te  Te59  1  0.00259156  0.49799386  0.75250087  1
  Te  Te60  1  0.49854316  -0.00445995  0.24786999  1
  Te  Te61  1  0.50375392  0.00071858  0.75014050  1
  Te  Te62  1  0.49927905  0.50022340  0.26328937  1
  Te  Te63  1  0.49984410  0.50092475  0.74470754  1
