# generated using pymatgen
data_AgSbTe2
_symmetry_space_group_name_H-M   'P 1'
_cell_length_a   12.21549193
_cell_length_b   12.21688232
_cell_length_c   12.21081004
_cell_angle_alpha   90.00518388
_cell_angle_beta   89.99810606
_cell_angle_gamma   90.00383214
_symmetry_Int_Tables_number   1
_chemical_formula_structural   AgSbTe2
_chemical_formula_sum   'Ag16 Sb16 Te32'
_cell_volume   1822.28299911
_cell_formula_units_Z   16
loop_
 _symmetry_equiv_pos_site_id
 _symmetry_equiv_pos_as_xyz
  1  'x, y, z'
loop_
 _atom_site_type_symbol
 _atom_site_label
 _atom_site_symmetry_multiplicity
 _atom_site_fract_x
 _atom_site_fract_y
 _atom_site_fract_z
 _atom_site_occupancy
  Ag  Ag0  1  0.74651006  0.00755193  0.74431224  1
  Ag  Ag1  1  0.25086473  0.75043006  0.00611494  1
  Ag  Ag2  1  0.00695808  0.75061143  0.25138027  1
  Ag  Ag3  1  0.25400231  0.75059061  0.49387218  1
  Ag  Ag4  1  0.24933159  0.24895385  -0.00101570  1
  Ag  Ag5  1  0.74765911  0.49169849  0.74525603  1
  Ag  Ag6  1  0.50166061  0.00073358  0.50202546  1
  Ag  Ag7  1  0.00122260  0.24841826  0.25133210  1
  Ag  Ag8  1  0.50304610  0.24693028  0.74565119  1
  Ag  Ag9  1  0.49307415  0.75074459  0.25444054  1
  Ag  Ag10  1  0.74925848  0.00187679  0.25571678  1
  Ag  Ag11  1  0.25260403  0.00382748  0.74809490  1
  Ag  Ag12  1  0.74735108  0.24665482  0.50511784  1
  Ag  Ag13  1  -0.00269508  0.24793928  0.74852498  1
  Ag  Ag14  1  0.25076555  0.50420699  0.25183984  1
  Ag  Ag15  1  0.49940646  0.49954341  0.50027847  1
  Sb  Sb16  1  0.74939545  0.49731255  0.25488293  1
  Sb  Sb17  1  0.49823323  0.75225722  0.74636105  1
  Sb  Sb18  1  0.00232522  0.75192264  0.74914755  1
  Sb  Sb19  1  0.74923808  0.75125396  0.00239526  1
  Sb  Sb20  1  0.00242773  0.00047431  0.00049387  1
  Sb  Sb21  1  0.49719772  0.49963940  -0.00027127  1
  Sb  Sb22  1  0.00213103  0.49937670  0.00038586  1
  Sb  Sb23  1  0.00068441  0.49928245  0.49982588  1
  Sb  Sb24  1  0.74658098  0.75310597  0.49839427  1
  Sb  Sb25  1  0.25127570  -0.00415570  0.25285329  1
  Sb  Sb26  1  0.25196539  0.24868231  0.50024519  1
  Sb  Sb27  1  -0.00213235  0.00063988  0.49955540  1
  Sb  Sb28  1  0.25187388  0.49601123  0.74797943  1
  Sb  Sb29  1  0.49924270  0.24889311  0.25351272  1
  Sb  Sb30  1  0.75023510  0.24886202  -0.00469081  1
  Sb  Sb31  1  0.49728255  0.00014979  -0.00190174  1
  Te  Te32  1  0.24674119  0.25037574  0.24886220  1
  Te  Te33  1  0.24875588  0.24897874  0.75031583  1
  Te  Te34  1  0.24952085  0.75259891  0.25022816  1
  Te  Te35  1  0.24815698  0.75263674  0.75088340  1
  Te  Te36  1  0.75284728  0.24771120  0.25077821  1
  Te  Te37  1  0.75055369  0.24663549  0.75069053  1
  Te  Te38  1  0.75163661  0.75316181  0.24936562  1
  Te  Te39  1  0.75180620  0.75384529  0.75086721  1
  Te  Te40  1  0.25119359  0.00067944  -0.00659441  1
  Te  Te41  1  0.25595256  -0.00256125  0.50430000  1
  Te  Te42  1  0.25102053  0.50062250  0.00498158  1
  Te  Te43  1  0.25516425  0.50331939  0.49634931  1
  Te  Te44  1  0.74871949  -0.00051994  -0.00154548  1
  Te  Te45  1  0.74611906  0.00212867  0.50165954  1
  Te  Te46  1  0.74889479  0.50075731  -0.00972785  1
  Te  Te47  1  0.74467462  0.49666114  0.50381582  1
  Te  Te48  1  0.00624059  0.25020968  0.00103576  1
  Te  Te49  1  -0.00480280  0.25048887  0.49933357  1
  Te  Te50  1  0.00742844  0.74951897  0.00679622  1
  Te  Te51  1  0.00717418  0.74957731  0.49404049  1
  Te  Te52  1  0.49314204  0.25066876  -0.00695813  1
  Te  Te53  1  0.50270004  0.24881139  0.50302941  1
  Te  Te54  1  0.49327680  0.74953647  0.00771340  1
  Te  Te55  1  0.49700059  0.75040074  0.49697058  1
  Te  Te56  1  -0.00486935  0.00229374  0.25033444  1
  Te  Te57  1  -0.00067117  0.00443060  0.74966683  1
  Te  Te58  1  0.00295153  0.49887487  0.25060531  1
  Te  Te59  1  -0.00482327  0.49412026  0.74920423  1
  Te  Te60  1  0.50362725  -0.00224020  0.25537411  1
  Te  Te61  1  0.50104475  0.00152678  0.74584137  1
  Te  Te62  1  0.49750379  0.50247190  0.25545526  1
  Te  Te63  1  0.50234232  0.49785899  0.74421652  1
