# generated using pymatgen
data_AgSbTe2
_symmetry_space_group_name_H-M   'P 1'
_cell_length_a   12.27358571
_cell_length_b   12.27370051
_cell_length_c   12.28605597
_cell_angle_alpha   90.00789748
_cell_angle_beta   89.99246266
_cell_angle_gamma   89.99240554
_symmetry_Int_Tables_number   1
_chemical_formula_structural   AgSbTe2
_chemical_formula_sum   'Ag16 Sb16 Te32'
_cell_volume   1850.79986542
_cell_formula_units_Z   16
loop_
 _symmetry_equiv_pos_site_id
 _symmetry_equiv_pos_as_xyz
  1  'x, y, z'
loop_
 _atom_site_type_symbol
 _atom_site_label
 _atom_site_symmetry_multiplicity
 _atom_site_fract_x
 _atom_site_fract_y
 _atom_site_fract_z
 _atom_site_occupancy
  Ag  Ag0  1  0.00128575  0.50006271  0.50752057  1
  Ag  Ag1  1  0.76054281  0.50344276  0.74314472  1
  Ag  Ag2  1  0.50258082  0.00141144  0.49916150  1
  Ag  Ag3  1  0.25231804  0.00249526  0.25422606  1
  Ag  Ag4  1  0.75160768  0.24465446  0.50314592  1
  Ag  Ag5  1  0.24839766  0.24700569  0.50135857  1
  Ag  Ag6  1  0.24691887  0.00054833  0.74463444  1
  Ag  Ag7  1  -0.01073373  -0.00260226  -0.00113106  1
  Ag  Ag8  1  0.74864965  0.00055077  0.24526623  1
  Ag  Ag9  1  0.24235755  0.49951390  0.74240987  1
  Ag  Ag10  1  -0.00476896  0.74868912  0.74877883  1
  Ag  Ag11  1  0.24460285  0.49538119  0.26077188  1
  Ag  Ag12  1  0.75325986  0.76288148  -0.00456173  1
  Ag  Ag13  1  0.50971045  -0.00072409  0.00224112  1
  Ag  Ag14  1  0.75114190  0.23597023  -0.00213551  1
  Ag  Ag15  1  0.75367413  0.75548394  0.50693958  1
  Sb  Sb16  1  -0.00152014  0.75208858  0.25148200  1
  Sb  Sb17  1  0.50430970  0.75309223  0.74940029  1
  Sb  Sb18  1  -0.00152580  -0.00064689  0.50137129  1
  Sb  Sb19  1  0.24861133  0.24518397  -0.00150775  1
  Sb  Sb20  1  0.75483965  0.49902373  0.25429110  1
  Sb  Sb21  1  0.49961855  0.49897807  0.50096207  1
  Sb  Sb22  1  0.75551799  -0.00192060  0.75109610  1
  Sb  Sb23  1  0.00024282  0.24784262  0.25072269  1
  Sb  Sb24  1  -0.00099594  0.25034113  0.74910185  1
  Sb  Sb25  1  0.50326540  0.50060399  -0.00076371  1
  Sb  Sb26  1  0.50111521  0.75261436  0.25083101  1
  Sb  Sb27  1  0.50018080  0.24773427  0.25012448  1
  Sb  Sb28  1  0.24712908  0.75137018  0.50203864  1
  Sb  Sb29  1  -0.00173381  0.50208491  -0.00395430  1
  Sb  Sb30  1  0.50170714  0.24648146  0.74969221  1
  Sb  Sb31  1  0.24720505  0.75386711  -0.00277860  1
  Te  Te32  1  0.25009841  0.24499934  0.25528776  1
  Te  Te33  1  0.24969889  0.25175952  0.74594214  1
  Te  Te34  1  0.24958057  0.75604608  0.24915744  1
  Te  Te35  1  0.24273179  0.74730498  0.75063613  1
  Te  Te36  1  0.74999530  0.24496349  0.25494465  1
  Te  Te37  1  0.74999027  0.25839757  0.74347483  1
  Te  Te38  1  0.75066246  0.75424626  0.24946434  1
  Te  Te39  1  0.75404076  0.74740559  0.74782297  1
  Te  Te40  1  0.25234298  0.00214696  0.00429982  1
  Te  Te41  1  0.24462971  -0.00048718  0.49747470  1
  Te  Te42  1  0.25075581  0.49861926  -0.00443939  1
  Te  Te43  1  0.25299619  0.50155401  0.50316315  1
  Te  Te44  1  0.75024212  0.00108505  -0.00507760  1
  Te  Te45  1  0.75496432  0.00466900  0.50524018  1
  Te  Te46  1  0.74903504  0.49893117  0.00091480  1
  Te  Te47  1  0.74620442  0.49543092  0.49864377  1
  Te  Te48  1  -0.00734265  0.24358297  0.00000158  1
  Te  Te49  1  -0.00134689  0.25632240  0.49995137  1
  Te  Te50  1  -0.00423543  0.75210785  -0.00464957  1
  Te  Te51  1  -0.00552636  0.74577429  0.50382497  1
  Te  Te52  1  0.51006168  0.24227525  -0.00038331  1
  Te  Te53  1  0.50184712  0.24207476  0.50045787  1
  Te  Te54  1  0.51079022  0.75698806  -0.00007369  1
  Te  Te55  1  0.51326208  0.76094239  0.49982998  1
  Te  Te56  1  -0.00030487  -0.00050715  0.24324759  1
  Te  Te57  1  0.00654854  -0.00369142  0.75356202  1
  Te  Te58  1  0.00758892  0.50051267  0.25726371  1
  Te  Te59  1  -0.00000020  0.50164154  0.74782337  1
  Te  Te60  1  0.49953396  0.00014203  0.25063832  1
  Te  Te61  1  0.48643765  -0.00124120  0.74759752  1
  Te  Te62  1  0.48313875  0.50120073  0.24848318  1
  Te  Te63  1  0.49206607  0.50129874  0.75159503  1
