# generated using pymatgen
data_AgSbTe2
_symmetry_space_group_name_H-M   'P 1'
_cell_length_a   12.23812359
_cell_length_b   12.23003939
_cell_length_c   12.24281542
_cell_angle_alpha   90.00052178
_cell_angle_beta   89.99854385
_cell_angle_gamma   89.99394093
_symmetry_Int_Tables_number   1
_chemical_formula_structural   AgSbTe2
_chemical_formula_sum   'Ag16 Sb16 Te32'
_cell_volume   1832.41564009
_cell_formula_units_Z   16
loop_
 _symmetry_equiv_pos_site_id
 _symmetry_equiv_pos_as_xyz
  1  'x, y, z'
loop_
 _atom_site_type_symbol
 _atom_site_label
 _atom_site_symmetry_multiplicity
 _atom_site_fract_x
 _atom_site_fract_y
 _atom_site_fract_z
 _atom_site_occupancy
  Ag  Ag0  1  -0.00913943  -0.00850746  -0.00107304  1
  Ag  Ag1  1  0.75138736  0.50137116  0.75791694  1
  Ag  Ag2  1  -0.00578243  0.74241463  0.75924474  1
  Ag  Ag3  1  -0.00486891  0.74534908  0.24054798  1
  Ag  Ag4  1  0.24860238  0.50114182  0.75252769  1
  Ag  Ag5  1  0.24902479  0.50331761  0.24749480  1
  Ag  Ag6  1  -0.00107149  0.50387177  0.50424468  1
  Ag  Ag7  1  0.75208872  -0.00547662  0.23916245  1
  Ag  Ag8  1  0.75657216  0.74751811  -0.00054759  1
  Ag  Ag9  1  0.74995204  0.25340157  -0.00389803  1
  Ag  Ag10  1  -0.00701220  0.50775229  -0.00447392  1
  Ag  Ag11  1  0.50515097  0.25806409  0.75306087  1
  Ag  Ag12  1  0.50110336  0.50134949  0.50373788  1
  Ag  Ag13  1  0.50692518  0.50190215  -0.00437378  1
  Ag  Ag14  1  0.75275191  -0.00197830  0.76017511  1
  Ag  Ag15  1  0.50519030  0.74403486  0.24552977  1
  Sb  Sb16  1  -0.00327833  0.25530645  0.24696988  1
  Sb  Sb17  1  0.75054460  0.74577061  0.50005914  1
  Sb  Sb18  1  0.24843074  -0.00363180  0.24621649  1
  Sb  Sb19  1  -0.00406734  0.25812944  0.75298677  1
  Sb  Sb20  1  -0.00396294  -0.00480069  0.50043232  1
  Sb  Sb21  1  0.50625144  0.74264602  0.75499248  1
  Sb  Sb22  1  0.25081717  0.25555789  -0.00192931  1
  Sb  Sb23  1  0.24775288  -0.00169878  0.75347932  1
  Sb  Sb24  1  0.74845629  0.25458166  0.50353665  1
  Sb  Sb25  1  0.75060622  0.50557755  0.24121210  1
  Sb  Sb26  1  0.50416001  0.25647802  0.24747157  1
  Sb  Sb27  1  0.24995964  0.74538701  0.50016753  1
  Sb  Sb28  1  0.25094881  0.25617365  0.50187760  1
  Sb  Sb29  1  0.50404062  -0.00260825  0.50094075  1
  Sb  Sb30  1  0.50968516  -0.00274722  -0.00042559  1
  Sb  Sb31  1  0.24346431  0.74506695  0.00000716  1
  Te  Te32  1  0.25096880  0.25731852  0.25033572  1
  Te  Te33  1  0.25790449  0.25505064  0.75061284  1
  Te  Te34  1  0.24878953  0.74425243  0.24963583  1
  Te  Te35  1  0.24294945  0.74569854  0.75000764  1
  Te  Te36  1  0.74973462  0.23932035  0.24294675  1
  Te  Te37  1  0.74777179  0.25140777  0.75318748  1
  Te  Te38  1  0.75205918  0.75209913  0.24797608  1
  Te  Te39  1  0.75219879  0.74888371  0.75226939  1
  Te  Te40  1  0.23760101  0.00273445  -0.00032005  1
  Te  Te41  1  0.25031738  0.00305361  0.49988792  1
  Te  Te42  1  0.25021447  0.49967544  -0.00155912  1
  Te  Te43  1  0.24991490  0.49981287  0.50181250  1
  Te  Te44  1  0.75218012  -0.00245095  -0.00216760  1
  Te  Te45  1  0.74957178  0.00213497  0.50247639  1
  Te  Te46  1  0.75075381  0.50222650  -0.00103433  1
  Te  Te47  1  0.75017399  0.49911549  0.50801408  1
  Te  Te48  1  -0.00644454  0.25133638  0.00002063  1
  Te  Te49  1  0.00010690  0.25954513  0.49924996  1
  Te  Te50  1  -0.00267499  0.74707307  0.00007566  1
  Te  Te51  1  0.00041258  0.74376986  0.49876340  1
  Te  Te52  1  0.50529524  0.25359582  -0.00314370  1
  Te  Te53  1  0.50028510  0.25721216  0.50393645  1
  Te  Te54  1  0.50593566  0.74680679  0.00353684  1
  Te  Te55  1  0.49964258  0.74364688  0.49302680  1
  Te  Te56  1  -0.00148187  -0.00559484  0.25009298  1
  Te  Te57  1  -0.00264236  -0.00402070  0.75080632  1
  Te  Te58  1  -0.00012807  0.50334181  0.24797120  1
  Te  Te59  1  -0.00120474  0.50065322  0.75295978  1
  Te  Te60  1  0.50095064  -0.00641532  0.25103160  1
  Te  Te61  1  0.50258966  0.00354289  0.74914429  1
  Te  Te62  1  0.50064483  0.50279020  0.24909551  1
  Te  Te63  1  0.50092530  0.50166837  0.75207933  1
