# generated using pymatgen
data_AgSbTe2
_symmetry_space_group_name_H-M   'P 1'
_cell_length_a   12.22092558
_cell_length_b   12.22116041
_cell_length_c   12.22421421
_cell_angle_alpha   89.99594421
_cell_angle_beta   90.00655446
_cell_angle_gamma   89.99913756
_symmetry_Int_Tables_number   1
_chemical_formula_structural   AgSbTe2
_chemical_formula_sum   'Ag16 Sb16 Te32'
_cell_volume   1825.73395134
_cell_formula_units_Z   16
loop_
 _symmetry_equiv_pos_site_id
 _symmetry_equiv_pos_as_xyz
  1  'x, y, z'
loop_
 _atom_site_type_symbol
 _atom_site_label
 _atom_site_symmetry_multiplicity
 _atom_site_fract_x
 _atom_site_fract_y
 _atom_site_fract_z
 _atom_site_occupancy
  Ag  Ag0  1  0.25016635  0.74912607  0.00075895  1
  Ag  Ag1  1  0.24532152  -0.00437426  0.74661954  1
  Ag  Ag2  1  0.49707367  0.73542234  0.25376886  1
  Ag  Ag3  1  0.26478856  0.50361030  0.25455733  1
  Ag  Ag4  1  0.73491949  0.50134852  0.25817605  1
  Ag  Ag5  1  0.74681185  0.25888777  0.49796776  1
  Ag  Ag6  1  0.50331596  0.50134220  0.48625088  1
  Ag  Ag7  1  0.49927141  0.26494570  0.25479209  1
  Ag  Ag8  1  0.00373451  -0.00407848  0.50338528  1
  Ag  Ag9  1  0.00360987  -0.00435639  -0.00354545  1
  Ag  Ag10  1  0.00276616  0.75263979  0.74631912  1
  Ag  Ag11  1  0.25278435  0.25285460  0.49787089  1
  Ag  Ag12  1  0.74864399  0.74184922  0.49949109  1
  Ag  Ag13  1  0.74781487  0.50233108  0.74046415  1
  Ag  Ag14  1  0.49866883  0.50240263  0.01499406  1
  Ag  Ag15  1  0.25028760  0.74815873  0.49912003  1
  Sb  Sb16  1  0.25239512  0.25128542  0.00261225  1
  Sb  Sb17  1  0.00048209  0.24834352  0.74718165  1
  Sb  Sb18  1  0.74931520  -0.00163568  0.25288266  1
  Sb  Sb19  1  0.25013417  -0.00267079  0.25275541  1
  Sb  Sb20  1  0.00061143  0.25122486  0.25336019  1
  Sb  Sb21  1  0.75408007  -0.00201293  0.74587709  1
  Sb  Sb22  1  0.00172772  0.50365320  -0.00076398  1
  Sb  Sb23  1  0.25140010  0.50287643  0.74491870  1
  Sb  Sb24  1  0.49891113  0.74724082  0.74616921  1
  Sb  Sb25  1  0.49701556  -0.00086439  0.49905678  1
  Sb  Sb26  1  -0.00370072  0.50394460  0.50041718  1
  Sb  Sb27  1  0.74920607  0.74733141  0.00113683  1
  Sb  Sb28  1  0.49692797  -0.00292577  0.00135040  1
  Sb  Sb29  1  0.00194962  0.74897210  0.25305827  1
  Sb  Sb30  1  0.50001266  0.25342245  0.74433269  1
  Sb  Sb31  1  0.74776127  0.25330065  0.00272945  1
  Te  Te32  1  0.25269081  0.25402062  0.25452658  1
  Te  Te33  1  0.24985047  0.24622111  0.74351439  1
  Te  Te34  1  0.25167438  0.74739932  0.25264270  1
  Te  Te35  1  0.24822325  0.75080300  0.74734710  1
  Te  Te36  1  0.74675308  0.25349872  0.25456512  1
  Te  Te37  1  0.74969621  0.25477849  0.74338296  1
  Te  Te38  1  0.74677066  0.74718466  0.25380833  1
  Te  Te39  1  0.75235349  0.74700783  0.74588660  1
  Te  Te40  1  0.24703080  -0.00342655  -0.00249863  1
  Te  Te41  1  0.24765546  -0.00270560  0.50140939  1
  Te  Te42  1  0.25321471  0.50302842  0.00171288  1
  Te  Te43  1  0.25028507  0.50142407  0.49951898  1
  Te  Te44  1  0.75679200  0.00056116  -0.00106657  1
  Te  Te45  1  0.75457852  -0.00139447  0.50111696  1
  Te  Te46  1  0.74649321  0.49962488  0.00203022  1
  Te  Te47  1  0.75112826  0.50122906  0.49871552  1
  Te  Te48  1  0.00039729  0.24132362  -0.00030948  1
  Te  Te49  1  0.00139432  0.24278700  0.49991559  1
  Te  Te50  1  0.00387271  0.75326227  -0.00311429  1
  Te  Te51  1  0.00222766  0.75346965  0.50220934  1
  Te  Te52  1  0.49989075  0.25501741  0.00776699  1
  Te  Te53  1  0.49954515  0.25053126  0.49646540  1
  Te  Te54  1  0.49644963  0.74664299  0.00427272  1
  Te  Te55  1  0.49915799  0.74898588  0.49748090  1
  Te  Te56  1  -0.00036950  0.00031381  0.25039879  1
  Te  Te57  1  0.00292907  -0.00396461  0.74759793  1
  Te  Te58  1  -0.00017251  0.50007922  0.24795924  1
  Te  Te59  1  -0.00571541  0.50634372  0.75201139  1
  Te  Te60  1  0.50055341  0.00003517  0.24862243  1
  Te  Te61  1  0.49219426  0.00092711  0.75203085  1
  Te  Te62  1  0.49957205  0.50140839  0.25340208  1
  Te  Te63  1  0.50467430  0.49998665  0.74861218  1
