# generated using pymatgen
data_AgSbTe2
_symmetry_space_group_name_H-M   'P 1'
_cell_length_a   12.22358517
_cell_length_b   12.21707603
_cell_length_c   12.22342701
_cell_angle_alpha   89.99849408
_cell_angle_beta   89.99297022
_cell_angle_gamma   89.99461852
_symmetry_Int_Tables_number   1
_chemical_formula_structural   AgSbTe2
_chemical_formula_sum   'Ag16 Sb16 Te32'
_cell_volume   1825.40341098
_cell_formula_units_Z   16
loop_
 _symmetry_equiv_pos_site_id
 _symmetry_equiv_pos_as_xyz
  1  'x, y, z'
loop_
 _atom_site_type_symbol
 _atom_site_label
 _atom_site_symmetry_multiplicity
 _atom_site_fract_x
 _atom_site_fract_y
 _atom_site_fract_z
 _atom_site_occupancy
  Ag  Ag0  1  -0.01431356  0.25044548  0.74674405  1
  Ag  Ag1  1  0.25323532  0.50022507  0.25597099  1
  Ag  Ag2  1  0.24867835  0.74715005  0.49634298  1
  Ag  Ag3  1  0.25069273  0.00006101  0.25334655  1
  Ag  Ag4  1  0.25340543  0.49635712  0.74395386  1
  Ag  Ag5  1  0.50335838  0.25323002  0.25161888  1
  Ag  Ag6  1  0.74614352  0.24981843  -0.01378860  1
  Ag  Ag7  1  0.50053637  0.49516220  0.49986632  1
  Ag  Ag8  1  0.51412271  0.25270271  0.74865307  1
  Ag  Ag9  1  0.74641269  0.49418085  0.25455696  1
  Ag  Ag10  1  0.50187527  0.00667083  -0.00001072  1
  Ag  Ag11  1  0.74768358  0.25286645  0.51350880  1
  Ag  Ag12  1  0.74711918  0.48593450  0.74573472  1
  Ag  Ag13  1  -0.00029121  0.00189142  0.49966184  1
  Ag  Ag14  1  0.00309788  0.74981520  0.25439497  1
  Ag  Ag15  1  0.74900437  0.01490105  0.74844256  1
  Sb  Sb16  1  0.25107575  0.00339404  0.74678624  1
  Sb  Sb17  1  0.25021015  0.74977824  0.00269685  1
  Sb  Sb18  1  0.49993045  0.74678499  0.74780991  1
  Sb  Sb19  1  0.25295311  0.25306810  0.50022195  1
  Sb  Sb20  1  0.75073547  0.74775259  0.49878881  1
  Sb  Sb21  1  -0.00038737  0.49744060  0.50005889  1
  Sb  Sb22  1  0.50189661  0.49515649  0.00005135  1
  Sb  Sb23  1  -0.00137985  0.00338683  0.00006776  1
  Sb  Sb24  1  0.00029189  0.74971138  0.74638453  1
  Sb  Sb25  1  -0.00094532  0.49676796  0.00003654  1
  Sb  Sb26  1  0.25418075  0.24906924  -0.00022436  1
  Sb  Sb27  1  0.74937437  0.00617716  0.25084815  1
  Sb  Sb28  1  0.49860918  0.74728615  0.25219684  1
  Sb  Sb29  1  0.50046122  0.00505740  0.49993620  1
  Sb  Sb30  1  -0.00228546  0.25023295  0.25312141  1
  Sb  Sb31  1  0.74947385  0.74984483  0.00108256  1
  Te  Te32  1  0.25218852  0.25239973  0.24973738  1
  Te  Te33  1  0.25135295  0.25537844  0.75037423  1
  Te  Te34  1  0.24841226  0.74717040  0.25253944  1
  Te  Te35  1  0.24853859  0.74274924  0.74547255  1
  Te  Te36  1  0.74778938  0.25340476  0.25189139  1
  Te  Te37  1  0.74805326  0.25084049  0.74782320  1
  Te  Te38  1  0.75410683  0.74179885  0.24976674  1
  Te  Te39  1  0.75165654  0.74776801  0.75046841  1
  Te  Te40  1  0.25400050  -0.00016919  0.00577401  1
  Te  Te41  1  0.24840865  -0.00258731  0.49645194  1
  Te  Te42  1  0.25016766  0.50041181  0.00156216  1
  Te  Te43  1  0.25026656  0.50061579  0.49800696  1
  Te  Te44  1  0.74717424  0.00307382  -0.00261802  1
  Te  Te45  1  0.75166566  0.00143630  0.50296311  1
  Te  Te46  1  0.74925612  0.49602109  -0.00103956  1
  Te  Te47  1  0.74909573  0.49844854  0.50055066  1
  Te  Te48  1  -0.00838707  0.24957762  -0.00784191  1
  Te  Te49  1  -0.00460563  0.24547379  0.50373452  1
  Te  Te50  1  -0.00012859  0.75115542  0.00984360  1
  Te  Te51  1  0.00347395  0.75585340  0.49586269  1
  Te  Te52  1  0.50334620  0.24630845  0.00016211  1
  Te  Te53  1  0.50242802  0.25455529  0.49951733  1
  Te  Te54  1  0.50049405  0.76300895  -0.00032474  1
  Te  Te55  1  0.49436026  0.74124541  0.50006089  1
  Te  Te56  1  0.00267207  -0.00032701  0.25282184  1
  Te  Te57  1  -0.00123023  0.00171301  0.74734875  1
  Te  Te58  1  0.00229651  0.50106517  0.25006323  1
  Te  Te59  1  -0.00122174  0.49762486  0.75003917  1
  Te  Te60  1  0.49749072  0.00350767  0.25019358  1
  Te  Te61  1  0.50171423  0.00407845  0.75005068  1
  Te  Te62  1  0.49923123  0.49702526  0.25017048  1
  Te  Te63  1  0.50097677  0.49705219  0.74971234  1
