# generated using pymatgen
data_AgSbTe2
_symmetry_space_group_name_H-M   'P 1'
_cell_length_a   12.22258982
_cell_length_b   12.22580266
_cell_length_c   12.23311822
_cell_angle_alpha   90.00211274
_cell_angle_beta   89.99338474
_cell_angle_gamma   89.99988837
_symmetry_Int_Tables_number   1
_chemical_formula_structural   AgSbTe2
_chemical_formula_sum   'Ag16 Sb16 Te32'
_cell_volume   1828.00672212
_cell_formula_units_Z   16
loop_
 _symmetry_equiv_pos_site_id
 _symmetry_equiv_pos_as_xyz
  1  'x, y, z'
loop_
 _atom_site_type_symbol
 _atom_site_label
 _atom_site_symmetry_multiplicity
 _atom_site_fract_x
 _atom_site_fract_y
 _atom_site_fract_z
 _atom_site_occupancy
  Ag  Ag0  1  0.23570129  0.25080446  -0.00455223  1
  Ag  Ag1  1  0.76427948  0.25768261  0.00010273  1
  Ag  Ag2  1  0.24779691  0.25168959  0.50474427  1
  Ag  Ag3  1  0.25140781  0.49314197  0.75452298  1
  Ag  Ag4  1  0.00358025  0.01496038  -0.00052253  1
  Ag  Ag5  1  -0.00324727  0.48558735  -0.00102786  1
  Ag  Ag6  1  0.50044401  0.74504319  0.75149537  1
  Ag  Ag7  1  0.75101486  0.49871471  0.24281867  1
  Ag  Ag8  1  0.74669307  0.74479972  0.50150680  1
  Ag  Ag9  1  0.00239856  0.25100875  0.23467832  1
  Ag  Ag10  1  0.50018968  0.50097583  0.50401451  1
  Ag  Ag11  1  0.50346878  0.49830799  -0.00273848  1
  Ag  Ag12  1  0.00644596  0.25153012  0.76469482  1
  Ag  Ag13  1  0.24772062  0.00926409  0.75401357  1
  Ag  Ag14  1  0.75028607  0.74132561  -0.00049507  1
  Ag  Ag15  1  0.24612353  0.00642017  0.24482012  1
  Sb  Sb16  1  0.00001465  0.74857467  0.75373428  1
  Sb  Sb17  1  0.49738805  0.00173010  -0.00247551  1
  Sb  Sb18  1  0.75293218  0.00139511  0.24615846  1
  Sb  Sb19  1  0.49763764  0.25185154  0.24765160  1
  Sb  Sb20  1  0.25170395  0.74802329  0.50275113  1
  Sb  Sb21  1  -0.00118719  0.74844864  0.24657364  1
  Sb  Sb22  1  0.00213426  0.00253552  0.50052643  1
  Sb  Sb23  1  0.74811407  0.49972897  0.75708251  1
  Sb  Sb24  1  0.24972218  0.74916288  -0.00200861  1
  Sb  Sb25  1  -0.00006966  0.49712402  0.50216025  1
  Sb  Sb26  1  0.75232471  0.00106368  0.75239190  1
  Sb  Sb27  1  0.49231420  0.25418357  0.75237003  1
  Sb  Sb28  1  0.24900515  0.49495784  0.24650162  1
  Sb  Sb29  1  0.49752863  0.00021569  0.50303209  1
  Sb  Sb30  1  0.75120464  0.25482995  0.50018855  1
  Sb  Sb31  1  0.50159901  0.74752591  0.24791447  1
  Te  Te32  1  0.24733711  0.24816447  0.24756835  1
  Te  Te33  1  0.24898479  0.25125828  0.75259879  1
  Te  Te34  1  0.24944827  0.75997290  0.25212508  1
  Te  Te35  1  0.25349050  0.74756373  0.74868545  1
  Te  Te36  1  0.75404709  0.25300387  0.24799997  1
  Te  Te37  1  0.75784062  0.24849797  0.75320410  1
  Te  Te38  1  0.75013972  0.74730828  0.24690286  1
  Te  Te39  1  0.74644249  0.75056383  0.75163018  1
  Te  Te40  1  0.24796555  0.00015717  -0.00239421  1
  Te  Te41  1  0.25047118  0.00415375  0.50349424  1
  Te  Te42  1  0.25012712  0.49913126  -0.00031082  1
  Te  Te43  1  0.25272988  0.49670968  0.50070970  1
  Te  Te44  1  0.75322760  0.00104597  0.00116666  1
  Te  Te45  1  0.74916531  -0.00748871  0.49930335  1
  Te  Te46  1  0.74997242  0.49894378  0.00024956  1
  Te  Te47  1  0.74704737  0.50216263  0.49562075  1
  Te  Te48  1  0.00162845  0.25098534  -0.00035928  1
  Te  Te49  1  0.00389503  0.25004195  0.50052296  1
  Te  Te50  1  -0.00571273  0.74829442  -0.00013393  1
  Te  Te51  1  -0.00808592  0.74997798  0.49961951  1
  Te  Te52  1  0.50142853  0.25443832  -0.00119165  1
  Te  Te53  1  0.49645173  0.25578353  0.50075578  1
  Te  Te54  1  0.50426199  0.74600900  -0.00260326  1
  Te  Te55  1  0.50333543  0.74490476  0.50292916  1
  Te  Te56  1  0.00377214  0.00415560  0.24614204  1
  Te  Te57  1  0.00443506  0.00246085  0.75389375  1
  Te  Te58  1  -0.00287052  0.49692834  0.24598432  1
  Te  Te59  1  0.00573248  0.49745391  0.75330818  1
  Te  Te60  1  0.49221576  -0.00024813  0.25066965  1
  Te  Te61  1  0.49365295  -0.00713963  0.74996407  1
  Te  Te62  1  0.50333633  0.49985271  0.24740894  1
  Te  Te63  1  0.49741626  0.50234430  0.75190693  1
