# generated using pymatgen
data_AgSbTe2
_symmetry_space_group_name_H-M   'P 1'
_cell_length_a   12.28794037
_cell_length_b   12.27606625
_cell_length_c   12.28364988
_cell_angle_alpha   89.99610091
_cell_angle_beta   90.00317140
_cell_angle_gamma   90.01156453
_symmetry_Int_Tables_number   1
_chemical_formula_structural   AgSbTe2
_chemical_formula_sum   'Ag16 Sb16 Te32'
_cell_volume   1852.95869113
_cell_formula_units_Z   16
loop_
 _symmetry_equiv_pos_site_id
 _symmetry_equiv_pos_as_xyz
  1  'x, y, z'
loop_
 _atom_site_type_symbol
 _atom_site_label
 _atom_site_symmetry_multiplicity
 _atom_site_fract_x
 _atom_site_fract_y
 _atom_site_fract_z
 _atom_site_occupancy
  Ag  Ag0  1  0.49584307  0.24834930  0.24544054  1
  Ag  Ag1  1  0.74549890  0.49571659  0.24739859  1
  Ag  Ag2  1  0.74841464  0.49875516  0.75335997  1
  Ag  Ag3  1  0.48207488  0.00243389  0.00637865  1
  Ag  Ag4  1  0.25555408  0.49437087  0.24005031  1
  Ag  Ag5  1  0.00536877  0.00461088  0.49682759  1
  Ag  Ag6  1  0.25511898  0.00450558  0.23302837  1
  Ag  Ag7  1  0.25629568  0.23068507  0.00704355  1
  Ag  Ag8  1  0.02169042  -0.00021656  0.00430628  1
  Ag  Ag9  1  0.25448541  0.76847451  0.00332432  1
  Ag  Ag10  1  0.74422316  0.74848620  0.00199639  1
  Ag  Ag11  1  0.49295045  0.00695964  0.49206551  1
  Ag  Ag12  1  0.25057777  0.00093309  0.77157786  1
  Ag  Ag13  1  -0.00474542  0.49190919  0.49562615  1
  Ag  Ag14  1  0.74972426  0.25183476  0.49574422  1
  Ag  Ag15  1  0.49769939  0.49845869  0.00850201  1
  Sb  Sb16  1  0.75001457  0.00099090  0.75171364  1
  Sb  Sb17  1  0.74667440  0.25010875  0.00309432  1
  Sb  Sb18  1  0.25014855  0.49919724  0.75670320  1
  Sb  Sb19  1  0.50092779  0.49270321  0.49081653  1
  Sb  Sb20  1  0.49954651  0.24986545  0.75403777  1
  Sb  Sb21  1  0.00014196  0.24982515  0.74994744  1
  Sb  Sb22  1  0.00006345  0.75024110  0.75070128  1
  Sb  Sb23  1  0.25110778  0.24703239  0.49534207  1
  Sb  Sb24  1  0.74618320  0.00498588  0.24847574  1
  Sb  Sb25  1  -0.00104440  0.75190690  0.24956987  1
  Sb  Sb26  1  0.25041079  0.75355335  0.49469579  1
  Sb  Sb27  1  0.74906737  0.74975012  0.49659128  1
  Sb  Sb28  1  0.50004093  0.75257525  0.24817840  1
  Sb  Sb29  1  0.00379638  0.24876825  0.25001806  1
  Sb  Sb30  1  0.00207726  0.49853315  0.00345488  1
  Sb  Sb31  1  0.50027206  0.75016721  0.75252978  1
  Te  Te32  1  0.25301229  0.25149911  0.24731673  1
  Te  Te33  1  0.25001347  0.24723505  0.75933439  1
  Te  Te34  1  0.24989712  0.74796792  0.24621772  1
  Te  Te35  1  0.25053584  0.75341112  0.75930488  1
  Te  Te36  1  0.74358554  0.25340758  0.25283764  1
  Te  Te37  1  0.74996294  0.25570936  0.74179745  1
  Te  Te38  1  0.75045348  0.73811598  0.24281471  1
  Te  Te39  1  0.74955403  0.74226655  0.75911686  1
  Te  Te40  1  0.24977443  0.00035423  0.00105293  1
  Te  Te41  1  0.24729835  -0.00087332  0.49495597  1
  Te  Te42  1  0.24722624  0.50079034  0.00160737  1
  Te  Te43  1  0.24950182  0.50124976  0.49846856  1
  Te  Te44  1  0.74772643  -0.00081169  0.00034066  1
  Te  Te45  1  0.75514171  -0.00159718  0.49980264  1
  Te  Te46  1  0.75377908  0.49686939  0.00437215  1
  Te  Te47  1  0.74829674  0.50124343  0.49451060  1
  Te  Te48  1  0.00407506  0.24433185  0.00005888  1
  Te  Te49  1  -0.00292327  0.24680647  0.49923607  1
  Te  Te50  1  0.00001497  0.75552548  0.00111955  1
  Te  Te51  1  0.00069531  0.75811819  0.49950532  1
  Te  Te52  1  0.49991999  0.24964123  0.00316586  1
  Te  Te53  1  0.50057228  0.24475429  0.49406145  1
  Te  Te54  1  0.50044809  0.75081847  0.00126477  1
  Te  Te55  1  0.49949201  0.76766446  0.50089705  1
  Te  Te56  1  0.00334183  0.00069034  0.25221367  1
  Te  Te57  1  0.00215686  0.00033237  0.74599592  1
  Te  Te58  1  0.00264361  0.49909669  0.25455481  1
  Te  Te59  1  -0.00236166  0.49942135  0.74104427  1
  Te  Te60  1  0.50043809  0.00188515  0.24629872  1
  Te  Te61  1  0.49844519  0.00059677  0.75351182  1
  Te  Te62  1  0.49495190  0.49713856  0.24773574  1
  Te  Te63  1  0.50212718  0.49986957  0.75694447  1
