# generated using pymatgen
data_AgSbTe2
_symmetry_space_group_name_H-M   'P 1'
_cell_length_a   12.21806961
_cell_length_b   12.21427216
_cell_length_c   12.21533544
_cell_angle_alpha   89.99791596
_cell_angle_beta   90.00083803
_cell_angle_gamma   90.00252407
_symmetry_Int_Tables_number   1
_chemical_formula_structural   AgSbTe2
_chemical_formula_sum   'Ag16 Sb16 Te32'
_cell_volume   1822.95347296
_cell_formula_units_Z   16
loop_
 _symmetry_equiv_pos_site_id
 _symmetry_equiv_pos_as_xyz
  1  'x, y, z'
loop_
 _atom_site_type_symbol
 _atom_site_label
 _atom_site_symmetry_multiplicity
 _atom_site_fract_x
 _atom_site_fract_y
 _atom_site_fract_z
 _atom_site_occupancy
  Ag  Ag0  1  0.49812302  0.74735453  0.25192340  1
  Ag  Ag1  1  0.25054087  0.00033426  0.25487198  1
  Ag  Ag2  1  0.00240846  0.50020285  0.49354020  1
  Ag  Ag3  1  0.49673075  0.50002345  0.49352725  1
  Ag  Ag4  1  0.00106695  0.74550794  0.74879248  1
  Ag  Ag5  1  0.75301593  0.49999728  0.75208322  1
  Ag  Ag6  1  0.00288480  0.74370520  0.25091232  1
  Ag  Ag7  1  0.49530129  0.00017014  0.49430397  1
  Ag  Ag8  1  0.00237637  0.25598581  0.25059655  1
  Ag  Ag9  1  0.24950707  0.25066383  0.49534418  1
  Ag  Ag10  1  0.24938016  -0.00018463  0.74515075  1
  Ag  Ag11  1  0.50195043  0.49982976  0.00558800  1
  Ag  Ag12  1  0.75017918  0.00057124  0.25125165  1
  Ag  Ag13  1  0.75169292  0.25492189  0.00334170  1
  Ag  Ag14  1  -0.00169440  0.49974784  0.00561592  1
  Ag  Ag15  1  0.24649524  0.49998967  0.25370344  1
  Sb  Sb16  1  0.24711748  0.50069481  0.74501789  1
  Sb  Sb17  1  0.24977837  0.74927840  0.49655754  1
  Sb  Sb18  1  0.75185331  0.25176802  0.49662851  1
  Sb  Sb19  1  0.49737236  0.25354903  0.25092761  1
  Sb  Sb20  1  -0.00051538  0.00020116  0.00312674  1
  Sb  Sb21  1  0.49833957  0.74845733  0.74839887  1
  Sb  Sb22  1  0.75024460  0.00012139  0.74894804  1
  Sb  Sb23  1  0.49912567  0.25129049  0.74950307  1
  Sb  Sb24  1  0.75103574  0.74493536  0.00193197  1
  Sb  Sb25  1  0.24810377  0.25289441  0.00473451  1
  Sb  Sb26  1  0.75365581  0.49846416  0.24783888  1
  Sb  Sb27  1  0.75053761  0.74807133  0.49757226  1
  Sb  Sb28  1  0.00546108  0.00024481  0.49686050  1
  Sb  Sb29  1  0.50045115  -0.00038538  0.00647232  1
  Sb  Sb30  1  0.00095508  0.25334347  0.74945771  1
  Sb  Sb31  1  0.24910163  0.74756084  0.00334711  1
  Te  Te32  1  0.24620447  0.25062376  0.25326205  1
  Te  Te33  1  0.24877898  0.24365493  0.74331223  1
  Te  Te34  1  0.24768745  0.74951597  0.24941632  1
  Te  Te35  1  0.24401531  0.75569769  0.75111138  1
  Te  Te36  1  0.75594192  0.24518906  0.24670976  1
  Te  Te37  1  0.75119057  0.25311479  0.75624524  1
  Te  Te38  1  0.75147501  0.75766104  0.24911265  1
  Te  Te39  1  0.75664288  0.74664326  0.75113423  1
  Te  Te40  1  0.25177615  0.00281142  0.00217819  1
  Te  Te41  1  0.25244767  0.00428849  0.49538571  1
  Te  Te42  1  0.24979669  0.49789816  0.00465978  1
  Te  Te43  1  0.25097851  0.49599848  0.49767635  1
  Te  Te44  1  0.74822058  0.00844417  0.00309646  1
  Te  Te45  1  0.74209604  0.00252066  0.49632303  1
  Te  Te46  1  0.75059237  0.49608482  -0.00214534  1
  Te  Te47  1  0.74890459  0.49813912  0.50535858  1
  Te  Te48  1  -0.00222449  0.25550313  0.00427935  1
  Te  Te49  1  0.00299861  0.25473961  0.49556910  1
  Te  Te50  1  -0.00031316  0.74330302  0.00323332  1
  Te  Te51  1  -0.00069504  0.74377615  0.49684155  1
  Te  Te52  1  0.50460915  0.25761944  -0.00002299  1
  Te  Te53  1  0.49576037  0.25263309  0.49973255  1
  Te  Te54  1  0.50055520  0.74253214  0.00611166  1
  Te  Te55  1  0.50100232  0.74698010  0.49504800  1
  Te  Te56  1  0.00267412  -0.00280907  0.25059417  1
  Te  Te57  1  0.00279051  -0.00615229  0.74975997  1
  Te  Te58  1  -0.00261662  0.50226596  0.25083311  1
  Te  Te59  1  -0.00007860  0.50323824  0.74996546  1
  Te  Te60  1  0.49650529  -0.00277583  0.25178489  1
  Te  Te61  1  0.49672797  -0.00301925  0.74456149  1
  Te  Te62  1  0.50081142  0.50182421  0.25251146  1
  Te  Te63  1  0.50216686  0.50274481  0.74848975  1
