# generated using pymatgen
data_AgSbTe2
_symmetry_space_group_name_H-M   'P 1'
_cell_length_a   12.22834142
_cell_length_b   12.23155599
_cell_length_c   12.21686687
_cell_angle_alpha   89.99933490
_cell_angle_beta   89.99892061
_cell_angle_gamma   89.99545689
_symmetry_Int_Tables_number   1
_chemical_formula_structural   AgSbTe2
_chemical_formula_sum   'Ag16 Sb16 Te32'
_cell_volume   1827.29684084
_cell_formula_units_Z   16
loop_
 _symmetry_equiv_pos_site_id
 _symmetry_equiv_pos_as_xyz
  1  'x, y, z'
loop_
 _atom_site_type_symbol
 _atom_site_label
 _atom_site_symmetry_multiplicity
 _atom_site_fract_x
 _atom_site_fract_y
 _atom_site_fract_z
 _atom_site_occupancy
  Ag  Ag0  1  0.00016705  0.25292770  0.74557243  1
  Ag  Ag1  1  0.50624218  0.50071518  0.49422043  1
  Ag  Ag2  1  0.74670643  0.25463477  0.49434140  1
  Ag  Ag3  1  0.50263175  -0.00044960  0.49279860  1
  Ag  Ag4  1  0.75016904  0.50238084  0.25727365  1
  Ag  Ag5  1  0.74471439  -0.00199260  0.25591413  1
  Ag  Ag6  1  0.50601093  0.75250840  0.25830016  1
  Ag  Ag7  1  0.74398551  0.74612579  0.49280282  1
  Ag  Ag8  1  -0.00568289  0.74617527  0.25459247  1
  Ag  Ag9  1  -0.00594488  0.49734939  0.49514052  1
  Ag  Ag10  1  0.24925485  0.25071601  0.00510966  1
  Ag  Ag11  1  0.50250159  0.74932747  0.73951359  1
  Ag  Ag12  1  0.25298498  0.25020927  0.49499746  1
  Ag  Ag13  1  0.25574814  0.00403717  0.25335914  1
  Ag  Ag14  1  0.50005207  0.24711258  0.25792929  1
  Ag  Ag15  1  -0.00064608  0.49770680  0.00521965  1
  Sb  Sb16  1  0.75092995  0.25233432  0.00620662  1
  Sb  Sb17  1  0.24919195  0.74937172  0.00510861  1
  Sb  Sb18  1  0.25610575  0.75022985  0.49605042  1
  Sb  Sb19  1  0.74971753  0.50007373  0.74065210  1
  Sb  Sb20  1  0.74732856  0.00010534  0.74275998  1
  Sb  Sb21  1  0.49863467  0.00057843  0.00907246  1
  Sb  Sb22  1  0.00166311  0.00289409  0.00477601  1
  Sb  Sb23  1  0.75048734  0.74849280  0.00933422  1
  Sb  Sb24  1  0.25260653  0.00285547  0.74560187  1
  Sb  Sb25  1  -0.00214472  0.00195476  0.49596206  1
  Sb  Sb26  1  -0.00259102  0.74737367  0.74459142  1
  Sb  Sb27  1  0.25058002  0.49637016  0.25212171  1
  Sb  Sb28  1  0.50102698  0.49848752  0.00631783  1
  Sb  Sb29  1  0.50047123  0.25090027  0.74108853  1
  Sb  Sb30  1  0.25009434  0.49863668  0.74803168  1
  Sb  Sb31  1  -0.00001800  0.25440868  0.25394937  1
  Te  Te32  1  0.25037313  0.24720057  0.25339646  1
  Te  Te33  1  0.24727001  0.24911251  0.74796347  1
  Te  Te34  1  0.25099252  0.75687880  0.25002921  1
  Te  Te35  1  0.25617396  0.75096454  0.75159873  1
  Te  Te36  1  0.74893599  0.25052815  0.25372821  1
  Te  Te37  1  0.75329471  0.24931634  0.74396054  1
  Te  Te38  1  0.74838856  0.74906105  0.25310328  1
  Te  Te39  1  0.74544072  0.75051305  0.74208616  1
  Te  Te40  1  0.24991456  0.00690753  0.00686295  1
  Te  Te41  1  0.25311878  0.00471817  0.49523974  1
  Te  Te42  1  0.24469023  0.49376688  0.00039387  1
  Te  Te43  1  0.24932863  0.49445683  0.49945360  1
  Te  Te44  1  0.75019153  0.00024711  0.00999318  1
  Te  Te45  1  0.74817996  0.00049780  0.49479858  1
  Te  Te46  1  0.75517215  0.49946426  0.00934140  1
  Te  Te47  1  0.74922869  0.49900185  0.49671968  1
  Te  Te48  1  0.00227730  0.25397999  -0.00269769  1
  Te  Te49  1  -0.00054532  0.25224930  0.50024506  1
  Te  Te50  1  0.00084548  0.74323449  0.00128211  1
  Te  Te51  1  -0.00248023  0.74597280  0.49876515  1
  Te  Te52  1  0.49564365  0.25122899  0.00397861  1
  Te  Te53  1  0.50105794  0.25151581  0.49825412  1
  Te  Te54  1  0.49947450  0.74924854  0.00124106  1
  Te  Te55  1  0.49944698  0.74830053  0.49602930  1
  Te  Te56  1  -0.00122789  -0.00808577  0.25008843  1
  Te  Te57  1  0.00004524  0.00510961  0.75172237  1
  Te  Te58  1  -0.00075851  0.50289871  0.25390665  1
  Te  Te59  1  -0.00023558  0.49678447  0.74743689  1
  Te  Te60  1  0.50106464  0.00049507  0.25290282  1
  Te  Te61  1  0.50034041  -0.00430011  0.74206779  1
  Te  Te62  1  0.50103406  0.50003634  0.25290998  1
  Te  Te63  1  0.50034389  0.50414386  0.74448802  1
