# generated using pymatgen
data_AgSbTe2
_symmetry_space_group_name_H-M   'P 1'
_cell_length_a   12.21522814
_cell_length_b   12.21439017
_cell_length_c   12.22046107
_cell_angle_alpha   90.00045530
_cell_angle_beta   89.99849901
_cell_angle_gamma   89.99677987
_symmetry_Int_Tables_number   1
_chemical_formula_structural   AgSbTe2
_chemical_formula_sum   'Ag16 Sb16 Te32'
_cell_volume   1823.31188366
_cell_formula_units_Z   16
loop_
 _symmetry_equiv_pos_site_id
 _symmetry_equiv_pos_as_xyz
  1  'x, y, z'
loop_
 _atom_site_type_symbol
 _atom_site_label
 _atom_site_symmetry_multiplicity
 _atom_site_fract_x
 _atom_site_fract_y
 _atom_site_fract_z
 _atom_site_occupancy
  Ag  Ag0  1  0.24625121  0.25120746  0.49971450  1
  Ag  Ag1  1  0.75322385  0.50142293  0.24747550  1
  Ag  Ag2  1  0.49250669  -0.00154410  0.49959297  1
  Ag  Ag3  1  0.00492574  0.25737307  0.25276191  1
  Ag  Ag4  1  0.24938823  0.00253728  0.74240638  1
  Ag  Ag5  1  0.25055379  0.74980089  0.49677875  1
  Ag  Ag6  1  0.00501685  0.25306397  0.74715693  1
  Ag  Ag7  1  0.00161098  0.49928778  0.00445344  1
  Ag  Ag8  1  0.25031541  -0.00047137  0.25802333  1
  Ag  Ag9  1  0.24581173  0.49734361  0.74528089  1
  Ag  Ag10  1  0.75099936  0.00027417  0.74859414  1
  Ag  Ag11  1  0.74919802  0.74558465  0.00199598  1
  Ag  Ag12  1  0.00734191  0.49646325  0.49628556  1
  Ag  Ag13  1  0.49877512  0.50320166  0.00415530  1
  Ag  Ag14  1  0.49638016  0.74685817  0.25046321  1
  Ag  Ag15  1  0.24558479  0.49975233  0.25419845  1
  Sb  Sb16  1  0.75038028  -0.00089400  0.25114571  1
  Sb  Sb17  1  0.00369117  0.74193395  0.25095981  1
  Sb  Sb18  1  0.74976160  0.74892135  0.49864507  1
  Sb  Sb19  1  0.49943072  -0.00310729  0.00051341  1
  Sb  Sb20  1  0.75375388  0.49945446  0.75188348  1
  Sb  Sb21  1  0.49436635  0.25232396  0.25243655  1
  Sb  Sb22  1  0.49164169  0.50177297  0.49654563  1
  Sb  Sb23  1  0.49813706  0.74939864  0.74932795  1
  Sb  Sb24  1  0.75436489  0.25064613  0.49989695  1
  Sb  Sb25  1  0.00199032  0.74689141  0.74931499  1
  Sb  Sb26  1  0.25067004  0.74557283  0.00311248  1
  Sb  Sb27  1  0.00063228  -0.00083705  -0.00005541  1
  Sb  Sb28  1  0.75235225  0.25362439  0.00033613  1
  Sb  Sb29  1  0.00830044  0.00351106  0.50031486  1
  Sb  Sb30  1  0.49442698  0.25070231  0.74756822  1
  Sb  Sb31  1  0.24787729  0.25326204  0.00011236  1
  Te  Te32  1  0.24686627  0.25152658  0.25237225  1
  Te  Te33  1  0.24611297  0.25048776  0.74759197  1
  Te  Te34  1  0.25286390  0.74930916  0.25285683  1
  Te  Te35  1  0.25025681  0.75063655  0.74510877  1
  Te  Te36  1  0.75708047  0.25451036  0.25045601  1
  Te  Te37  1  0.75723519  0.24509944  0.74951546  1
  Te  Te38  1  0.74571831  0.74709612  0.24768299  1
  Te  Te39  1  0.74988061  0.75473097  0.75318518  1
  Te  Te40  1  0.25079555  -0.00212243  -0.00184828  1
  Te  Te41  1  0.25042725  -0.00086049  0.50035049  1
  Te  Te42  1  0.24834484  0.50192530  0.00057797  1
  Te  Te43  1  0.24956272  0.49963513  0.49960448  1
  Te  Te44  1  0.74892089  -0.00631444  -0.00429010  1
  Te  Te45  1  0.74331190  -0.00108621  0.50453051  1
  Te  Te46  1  0.75094196  0.50331517  0.00187410  1
  Te  Te47  1  0.75534068  0.50081103  0.49654557  1
  Te  Te48  1  -0.00018981  0.25636325  0.00014189  1
  Te  Te49  1  0.00434910  0.25298340  0.49991512  1
  Te  Te50  1  -0.00570050  0.74320524  0.00014843  1
  Te  Te51  1  0.00581575  0.74328874  0.49977352  1
  Te  Te52  1  0.50097846  0.25905000  -0.00009467  1
  Te  Te53  1  0.49218209  0.24415570  0.49982687  1
  Te  Te54  1  0.50311832  0.74541322  0.00499696  1
  Te  Te55  1  0.49539509  0.75305565  0.49518570  1
  Te  Te56  1  0.00458710  0.00783126  0.24902191  1
  Te  Te57  1  0.00339697  0.00536967  0.75067627  1
  Te  Te58  1  0.00332414  0.49888069  0.24945579  1
  Te  Te59  1  0.00274710  0.49686870  0.75015413  1
  Te  Te60  1  0.49665242  -0.00208688  0.25179315  1
  Te  Te61  1  0.49601226  0.00021269  0.74820229  1
  Te  Te62  1  0.49824117  0.50184297  0.24873670  1
  Te  Te63  1  0.49576894  0.49953286  0.75455629  1
