# generated using pymatgen
data_AgSbTe2
_symmetry_space_group_name_H-M   'P 1'
_cell_length_a   12.21327506
_cell_length_b   12.21984197
_cell_length_c   12.21252259
_cell_angle_alpha   89.99524091
_cell_angle_beta   89.99680759
_cell_angle_gamma   89.99500188
_symmetry_Int_Tables_number   1
_chemical_formula_structural   AgSbTe2
_chemical_formula_sum   'Ag16 Sb16 Te32'
_cell_volume   1822.64926236
_cell_formula_units_Z   16
loop_
 _symmetry_equiv_pos_site_id
 _symmetry_equiv_pos_as_xyz
  1  'x, y, z'
loop_
 _atom_site_type_symbol
 _atom_site_label
 _atom_site_symmetry_multiplicity
 _atom_site_fract_x
 _atom_site_fract_y
 _atom_site_fract_z
 _atom_site_occupancy
  Ag  Ag0  1  0.50047757  0.74583080  0.74676067  1
  Ag  Ag1  1  0.50263836  0.50452354  0.50980222  1
  Ag  Ag2  1  0.75063299  -0.00190426  0.25182881  1
  Ag  Ag3  1  0.75030503  0.74751832  0.50342298  1
  Ag  Ag4  1  0.74879521  0.50362433  0.74605830  1
  Ag  Ag5  1  -0.00168302  0.50345742  0.50712263  1
  Ag  Ag6  1  0.25096306  0.49996565  0.74976367  1
  Ag  Ag7  1  0.49851541  0.50096266  -0.00989847  1
  Ag  Ag8  1  -0.00083640  0.74353751  0.74539938  1
  Ag  Ag9  1  0.49844868  -0.00069534  -0.00538320  1
  Ag  Ag10  1  0.25334296  0.00037893  0.75095370  1
  Ag  Ag11  1  0.00352511  0.25526408  0.74918351  1
  Ag  Ag12  1  0.50160059  -0.00430750  0.50518373  1
  Ag  Ag13  1  -0.00022024  0.25089009  0.25083112  1
  Ag  Ag14  1  -0.00347948  0.74905915  0.25417454  1
  Ag  Ag15  1  0.24997700  0.25050142  -0.00496504  1
  Sb  Sb16  1  0.24773893  0.49884179  0.24956427  1
  Sb  Sb17  1  0.24968664  0.00137163  0.24922346  1
  Sb  Sb18  1  0.50356945  0.75070540  0.25430843  1
  Sb  Sb19  1  0.00155033  0.49892107  -0.00889795  1
  Sb  Sb20  1  0.24779906  0.25044697  0.50480954  1
  Sb  Sb21  1  0.75300352  0.50156515  0.25268963  1
  Sb  Sb22  1  0.75153514  0.25253787  0.50158782  1
  Sb  Sb23  1  0.74860899  0.74940651  -0.00375595  1
  Sb  Sb24  1  0.49604794  0.25535177  0.75088494  1
  Sb  Sb25  1  0.00126281  0.00082317  -0.00172903  1
  Sb  Sb26  1  0.50038841  0.24953738  0.24903902  1
  Sb  Sb27  1  0.74991842  0.25058940  -0.00172543  1
  Sb  Sb28  1  0.74550739  -0.00214225  0.74884579  1
  Sb  Sb29  1  0.24997611  0.74947082  0.50390538  1
  Sb  Sb30  1  -0.00217630  -0.00459210  0.50195268  1
  Sb  Sb31  1  0.25170366  0.74938317  -0.00428404  1
  Te  Te32  1  0.24222129  0.24906071  0.24247622  1
  Te  Te33  1  0.24581832  0.25024018  0.75336894  1
  Te  Te34  1  0.23876888  0.75071904  0.24844355  1
  Te  Te35  1  0.24987079  0.74942537  0.75038867  1
  Te  Te36  1  0.75749436  0.24503976  0.24986792  1
  Te  Te37  1  0.76053633  0.25514595  0.75016583  1
  Te  Te38  1  0.75496910  0.75294033  0.25483994  1
  Te  Te39  1  0.75025539  0.74733536  0.74682064  1
  Te  Te40  1  0.25571958  0.00378849  -0.00433061  1
  Te  Te41  1  0.25824477  0.00077670  0.50593550  1
  Te  Te42  1  0.25528650  0.49608512  -0.00497380  1
  Te  Te43  1  0.25077139  0.49924851  0.50553971  1
  Te  Te44  1  0.74203238  0.00006873  0.00458238  1
  Te  Te45  1  0.74521440  -0.00436085  0.49744720  1
  Te  Te46  1  0.74178245  0.49971049  -0.00548538  1
  Te  Te47  1  0.74904520  0.50309210  0.50318440  1
  Te  Te48  1  0.00485651  0.25070760  -0.00032326  1
  Te  Te49  1  0.00048776  0.25489515  0.50038617  1
  Te  Te50  1  -0.00041461  0.74966333  -0.00113683  1
  Te  Te51  1  -0.00285456  0.74759514  0.50352800  1
  Te  Te52  1  0.49528943  0.24985411  0.00148769  1
  Te  Te53  1  0.49973912  0.25155309  0.49837748  1
  Te  Te54  1  0.50025699  0.74951108  -0.00410320  1
  Te  Te55  1  0.50272500  0.74768901  0.50253882  1
  Te  Te56  1  -0.00272599  -0.00008037  0.25019089  1
  Te  Te57  1  0.00316754  -0.00103168  0.74938492  1
  Te  Te58  1  -0.00042026  0.50039604  0.25538178  1
  Te  Te59  1  0.00141763  0.50240319  0.74916973  1
  Te  Te60  1  0.50292592  -0.00102244  0.25047646  1
  Te  Te61  1  0.49958867  -0.00135737  0.74962072  1
  Te  Te62  1  0.49999578  0.50096888  0.25190301  1
  Te  Te63  1  0.49881060  0.49911475  0.74818939  1
