# generated using pymatgen
data_AgSbTe2
_symmetry_space_group_name_H-M   'P 1'
_cell_length_a   12.21503545
_cell_length_b   12.23179335
_cell_length_c   12.22625562
_cell_angle_alpha   89.99426784
_cell_angle_beta   90.00476378
_cell_angle_gamma   89.99407843
_symmetry_Int_Tables_number   1
_chemical_formula_structural   AgSbTe2
_chemical_formula_sum   'Ag16 Sb16 Te32'
_cell_volume   1826.74670466
_cell_formula_units_Z   16
loop_
 _symmetry_equiv_pos_site_id
 _symmetry_equiv_pos_as_xyz
  1  'x, y, z'
loop_
 _atom_site_type_symbol
 _atom_site_label
 _atom_site_symmetry_multiplicity
 _atom_site_fract_x
 _atom_site_fract_y
 _atom_site_fract_z
 _atom_site_occupancy
  Ag  Ag0  1  0.24861505  0.00538070  0.25035642  1
  Ag  Ag1  1  0.00569191  0.49984807  -0.00677073  1
  Ag  Ag2  1  0.24586803  0.25023718  -0.00171172  1
  Ag  Ag3  1  0.00268179  0.74555008  0.75181032  1
  Ag  Ag4  1  0.49422783  0.00021070  0.50105315  1
  Ag  Ag5  1  0.24603357  0.00335545  0.75004689  1
  Ag  Ag6  1  0.75125807  0.74995513  0.50487858  1
  Ag  Ag7  1  0.49088368  0.24870369  0.25187135  1
  Ag  Ag8  1  0.49699614  0.75000685  0.74672176  1
  Ag  Ag9  1  0.25007995  0.24745528  0.50060241  1
  Ag  Ag10  1  0.00693907  0.00018778  -0.00379159  1
  Ag  Ag11  1  0.24262097  0.49690594  0.75266153  1
  Ag  Ag12  1  0.00440511  0.74933541  0.24884653  1
  Ag  Ag13  1  0.00847768  0.25373115  0.75344153  1
  Ag  Ag14  1  0.75722276  0.50367195  0.74989408  1
  Ag  Ag15  1  0.24630637  0.49481072  0.24793251  1
  Sb  Sb16  1  0.00563090  -0.00038335  0.50218324  1
  Sb  Sb17  1  0.75542932  0.50133038  0.24972986  1
  Sb  Sb18  1  0.49610229  0.75093643  0.25236496  1
  Sb  Sb19  1  0.49121049  0.24947428  0.74904028  1
  Sb  Sb20  1  0.75446177  0.74833501  -0.00408491  1
  Sb  Sb21  1  0.24952248  0.75240988  0.50370792  1
  Sb  Sb22  1  0.74973817  0.24996692  0.50325677  1
  Sb  Sb23  1  0.75437571  0.25181153  -0.00210142  1
  Sb  Sb24  1  0.00266994  0.50072199  0.50739644  1
  Sb  Sb25  1  0.00814822  0.25117290  0.24718234  1
  Sb  Sb26  1  0.24615744  0.74913231  -0.00243731  1
  Sb  Sb27  1  0.49329273  0.49811286  -0.00175470  1
  Sb  Sb28  1  0.75306500  -0.00242875  0.74858497  1
  Sb  Sb29  1  0.49676740  0.49982235  0.50082208  1
  Sb  Sb30  1  0.49215795  0.00203773  -0.00041999  1
  Sb  Sb31  1  0.75292880  -0.00098903  0.25160041  1
  Te  Te32  1  0.25016880  0.24951533  0.25134145  1
  Te  Te33  1  0.24886330  0.24997206  0.75004645  1
  Te  Te34  1  0.24593526  0.74962188  0.25197807  1
  Te  Te35  1  0.24701014  0.74951139  0.74834650  1
  Te  Te36  1  0.73985320  0.25145101  0.25092476  1
  Te  Te37  1  0.75631302  0.25579168  0.74944091  1
  Te  Te38  1  0.75463744  0.74876002  0.25648632  1
  Te  Te39  1  0.75331055  0.74732438  0.74663027  1
  Te  Te40  1  0.24587784  0.00333126  -0.00114701  1
  Te  Te41  1  0.25343204  0.00305000  0.50080428  1
  Te  Te42  1  0.24574707  0.49709349  -0.00145342  1
  Te  Te43  1  0.25092137  0.49356887  0.49988213  1
  Te  Te44  1  0.76073525  0.00045206  0.00056302  1
  Te  Te45  1  0.74105845  -0.00347561  0.49940362  1
  Te  Te46  1  0.75847998  0.49930033  -0.00579479  1
  Te  Te47  1  0.74862957  0.50429268  0.50559330  1
  Te  Te48  1  0.00377661  0.25009038  -0.00259198  1
  Te  Te49  1  0.00412141  0.24888812  0.50512015  1
  Te  Te50  1  0.00030850  0.74972692  -0.00211957  1
  Te  Te51  1  -0.00353091  0.75074241  0.50101168  1
  Te  Te52  1  0.49357167  0.24949678  0.00448382  1
  Te  Te53  1  0.49693787  0.24500761  0.49756430  1
  Te  Te54  1  0.50228865  0.75027767  -0.00778226  1
  Te  Te55  1  0.50275000  0.75447567  0.50446047  1
  Te  Te56  1  0.00423549  -0.00250415  0.24752914  1
  Te  Te57  1  0.00362675  -0.00231134  0.75152484  1
  Te  Te58  1  0.00404320  0.50237209  0.24444059  1
  Te  Te59  1  0.00464418  0.50298397  0.75101585  1
  Te  Te60  1  0.49511147  0.00013206  0.25075757  1
  Te  Te61  1  0.49630158  -0.00259087  0.74832688  1
  Te  Te62  1  0.49392171  0.49858503  0.24881511  1
  Te  Te63  1  0.49695195  0.50425733  0.75148357  1
