# generated using pymatgen
data_AgSbTe2
_symmetry_space_group_name_H-M   'P 1'
_cell_length_a   12.29843714
_cell_length_b   12.29859830
_cell_length_c   12.30157624
_cell_angle_alpha   90.00020681
_cell_angle_beta   89.98899950
_cell_angle_gamma   89.99096676
_symmetry_Int_Tables_number   1
_chemical_formula_structural   AgSbTe2
_chemical_formula_sum   'Ag16 Sb16 Te32'
_cell_volume   1860.65687336
_cell_formula_units_Z   16
loop_
 _symmetry_equiv_pos_site_id
 _symmetry_equiv_pos_as_xyz
  1  'x, y, z'
loop_
 _atom_site_type_symbol
 _atom_site_label
 _atom_site_symmetry_multiplicity
 _atom_site_fract_x
 _atom_site_fract_y
 _atom_site_fract_z
 _atom_site_occupancy
  Ag  Ag0  1  -0.00528944  0.25999606  0.26457734  1
  Ag  Ag1  1  -0.01019310  0.73703247  0.74215899  1
  Ag  Ag2  1  0.23502095  0.26281334  0.50139233  1
  Ag  Ag3  1  0.51828983  0.50207899  -0.00430186  1
  Ag  Ag4  1  0.24203133  0.73705250  0.50511354  1
  Ag  Ag5  1  0.75192952  -0.00597438  0.74994625  1
  Ag  Ag6  1  0.75225437  0.73746447  -0.01245346  1
  Ag  Ag7  1  0.51053425  -0.00302152  -0.00502758  1
  Ag  Ag8  1  0.76346853  0.27140845  0.50576799  1
  Ag  Ag9  1  0.75728032  0.72997278  0.51322814  1
  Ag  Ag10  1  -0.01765041  0.50183347  -0.01157430  1
  Ag  Ag11  1  0.75891196  0.50544660  0.73257340  1
  Ag  Ag12  1  -0.00774669  0.26465124  0.73866927  1
  Ag  Ag13  1  0.52232544  0.50025442  0.50349851  1
  Ag  Ag14  1  0.75517306  0.49902934  0.27068964  1
  Ag  Ag15  1  -0.01933586  0.49265011  0.50927029  1
  Sb  Sb16  1  0.24681534  0.74612121  -0.00831400  1
  Sb  Sb17  1  0.51020305  0.74574509  0.75038151  1
  Sb  Sb18  1  0.75233595  0.26204079  -0.00681296  1
  Sb  Sb19  1  0.50681067  0.25370446  0.74796366  1
  Sb  Sb20  1  0.24531222  0.25218538  -0.00495716  1
  Sb  Sb21  1  -0.00916340  -0.00470317  -0.00409639  1
  Sb  Sb22  1  0.50543703  0.25403522  0.25228815  1
  Sb  Sb23  1  0.50082280  0.74686024  0.25043195  1
  Sb  Sb24  1  0.50514372  -0.00215212  0.50364876  1
  Sb  Sb25  1  0.24904113  0.00267442  0.25131521  1
  Sb  Sb26  1  0.25006772  0.00036605  0.74876701  1
  Sb  Sb27  1  0.24079974  0.49975263  0.74631564  1
  Sb  Sb28  1  0.24414330  0.49786411  0.25255023  1
  Sb  Sb29  1  -0.00375801  0.74255028  0.25777234  1
  Sb  Sb30  1  0.75094109  0.00205363  0.24870555  1
  Sb  Sb31  1  -0.00273997  0.00374892  0.50041279  1
  Te  Te32  1  0.24116900  0.24937657  0.26036392  1
  Te  Te33  1  0.23692896  0.24910343  0.74375993  1
  Te  Te34  1  0.24853550  0.75210439  0.26513031  1
  Te  Te35  1  0.23420955  0.75084431  0.74296490  1
  Te  Te36  1  0.75291084  0.25173191  0.25788402  1
  Te  Te37  1  0.75353142  0.25349121  0.74859658  1
  Te  Te38  1  0.75076364  0.74720232  0.25012929  1
  Te  Te39  1  0.75256646  0.74581828  0.75003338  1
  Te  Te40  1  0.26423463  -0.00131351  -0.00021191  1
  Te  Te41  1  0.25465865  -0.00163948  0.50050077  1
  Te  Te42  1  0.25616770  0.50156912  0.00149405  1
  Te  Te43  1  0.25142775  0.50011990  0.50146983  1
  Te  Te44  1  0.74741493  -0.00872105  -0.00098553  1
  Te  Te45  1  0.74747069  -0.00497422  0.50358290  1
  Te  Te46  1  0.75189399  0.50071282  -0.00350013  1
  Te  Te47  1  0.75055509  0.50054637  0.49998157  1
  Te  Te48  1  0.00133544  0.25823231  -0.00564198  1
  Te  Te49  1  -0.00308331  0.24872693  0.50411929  1
  Te  Te50  1  -0.00033141  0.74449392  -0.00081593  1
  Te  Te51  1  -0.00616765  0.75100609  0.50015893  1
  Te  Te52  1  0.49791197  0.26144285  -0.00018589  1
  Te  Te53  1  0.50006701  0.25556716  0.50100947  1
  Te  Te54  1  0.49954776  0.73832963  -0.00094508  1
  Te  Te55  1  0.50303062  0.74455765  0.50128867  1
  Te  Te56  1  0.00145917  0.01665470  0.24667863  1
  Te  Te57  1  -0.00818007  -0.00049228  0.75074349  1
  Te  Te58  1  -0.00491703  0.49707182  0.25201776  1
  Te  Te59  1  -0.00264488  0.50016170  0.74789939  1
  Te  Te60  1  0.49932723  0.00045615  0.23679176  1
  Te  Te61  1  0.50778646  0.00102333  0.75607342  1
  Te  Te62  1  0.51139143  0.50036826  0.24960566  1
  Te  Te63  1  0.50981204  0.50089193  0.75010778  1
