# generated using pymatgen
data_AgSbTe2
_symmetry_space_group_name_H-M   'P 1'
_cell_length_a   12.24057996
_cell_length_b   12.22871944
_cell_length_c   12.24499519
_cell_angle_alpha   89.99655499
_cell_angle_beta   89.99823987
_cell_angle_gamma   89.99874342
_symmetry_Int_Tables_number   1
_chemical_formula_structural   AgSbTe2
_chemical_formula_sum   'Ag16 Sb16 Te32'
_cell_volume   1832.91191504
_cell_formula_units_Z   16
loop_
 _symmetry_equiv_pos_site_id
 _symmetry_equiv_pos_as_xyz
  1  'x, y, z'
loop_
 _atom_site_type_symbol
 _atom_site_label
 _atom_site_symmetry_multiplicity
 _atom_site_fract_x
 _atom_site_fract_y
 _atom_site_fract_z
 _atom_site_occupancy
  Ag  Ag0  1  0.25882848  0.49236898  0.75086209  1
  Ag  Ag1  1  0.26681744  0.25427338  0.00488318  1
  Ag  Ag2  1  -0.00212016  0.25398456  0.75363471  1
  Ag  Ag3  1  0.73252708  0.25454462  -0.00456270  1
  Ag  Ag4  1  0.74477798  0.25496497  0.50440705  1
  Ag  Ag5  1  0.74186574  0.49112443  0.75440902  1
  Ag  Ag6  1  0.25356430  0.74400378  0.49933849  1
  Ag  Ag7  1  0.00661686  0.25166634  0.24600601  1
  Ag  Ag8  1  0.49876758  0.01890413  0.00175092  1
  Ag  Ag9  1  0.25587100  0.48966681  0.24860567  1
  Ag  Ag10  1  0.49302305  0.25388637  0.23326504  1
  Ag  Ag11  1  0.49996890  0.48237089  -0.00436034  1
  Ag  Ag12  1  0.74472138  0.74501977  -0.00161238  1
  Ag  Ag13  1  0.50206718  0.25854891  0.76631421  1
  Ag  Ag14  1  0.25381858  0.01125704  0.24724093  1
  Ag  Ag15  1  0.49650758  0.49291397  0.50392968  1
  Sb  Sb16  1  0.74154723  0.49285175  0.24347579  1
  Sb  Sb17  1  0.25611151  0.74375931  -0.00036226  1
  Sb  Sb18  1  0.25778185  0.25775786  0.49231283  1
  Sb  Sb19  1  0.25464205  0.01193678  0.75393121  1
  Sb  Sb20  1  0.49977445  0.73656450  0.75200979  1
  Sb  Sb21  1  0.49630316  0.01061372  0.49658762  1
  Sb  Sb22  1  0.00068401  0.74341974  0.75181055  1
  Sb  Sb23  1  0.00321502  0.74584758  0.24813168  1
  Sb  Sb24  1  0.74496276  0.73967945  0.50259381  1
  Sb  Sb25  1  -0.00052061  0.49287030  0.00003968  1
  Sb  Sb26  1  0.00355800  0.00623229  0.49820365  1
  Sb  Sb27  1  0.74609895  0.01410464  0.75333304  1
  Sb  Sb28  1  0.74318973  0.00747394  0.24634223  1
  Sb  Sb29  1  0.00522864  0.49473301  0.49993372  1
  Sb  Sb30  1  0.49846494  0.74421628  0.24813753  1
  Sb  Sb31  1  0.00305518  0.00773303  0.00208673  1
  Te  Te32  1  0.25151816  0.25250135  0.25165505  1
  Te  Te33  1  0.25102028  0.25454222  0.75275237  1
  Te  Te34  1  0.24801324  0.74771271  0.25340827  1
  Te  Te35  1  0.24748795  0.73939479  0.74544245  1
  Te  Te36  1  0.75028272  0.25154548  0.24739042  1
  Te  Te37  1  0.74859664  0.25447286  0.75336364  1
  Te  Te38  1  0.75258012  0.75024126  0.24387809  1
  Te  Te39  1  0.75227209  0.73786738  0.75429016  1
  Te  Te40  1  0.25671513  0.00206825  0.00496688  1
  Te  Te41  1  0.25324591  -0.01139838  0.49161952  1
  Te  Te42  1  0.25508607  0.49905260  -0.00044614  1
  Te  Te43  1  0.25516385  0.50211016  0.50086320  1
  Te  Te44  1  0.74047393  0.00275428  0.00041538  1
  Te  Te45  1  0.74825331  0.00539788  0.49935976  1
  Te  Te46  1  0.74528157  0.49468995  -0.00265689  1
  Te  Te47  1  0.74170629  0.49807543  0.50654148  1
  Te  Te48  1  -0.00022077  0.24950533  0.00095863  1
  Te  Te49  1  -0.01260423  0.25134149  0.49985753  1
  Te  Te50  1  -0.01364807  0.75286595  -0.00017188  1
  Te  Te51  1  0.00592800  0.75108166  0.49993838  1
  Te  Te52  1  0.49907095  0.25205749  0.00068618  1
  Te  Te53  1  0.50543317  0.25508965  0.49992099  1
  Te  Te54  1  0.50716963  0.74966665  0.00060878  1
  Te  Te55  1  0.49672887  0.74054824  0.49956721  1
  Te  Te56  1  0.01241990  0.01140752  0.24910948  1
  Te  Te57  1  0.00158137  0.01445968  0.75007219  1
  Te  Te58  1  0.01265415  0.49043933  0.25037063  1
  Te  Te59  1  0.00090321  0.48998079  0.74978529  1
  Te  Te60  1  0.49327954  0.00857364  0.24528071  1
  Te  Te61  1  0.49835656  0.01283123  0.75793556  1
  Te  Te62  1  0.49496366  0.49457545  0.24890949  1
  Te  Te63  1  0.49856696  0.49525453  0.75164804  1
