# generated using pymatgen
data_AgSbTe2
_symmetry_space_group_name_H-M   'P 1'
_cell_length_a   12.28313975
_cell_length_b   12.31212248
_cell_length_c   12.30796006
_cell_angle_alpha   90.00000009
_cell_angle_beta   90.00357950
_cell_angle_gamma   89.99999993
_symmetry_Int_Tables_number   1
_chemical_formula_structural   AgSbTe2
_chemical_formula_sum   'Ag16 Sb16 Te32'
_cell_volume   1861.35151700
_cell_formula_units_Z   16
loop_
 _symmetry_equiv_pos_site_id
 _symmetry_equiv_pos_as_xyz
  1  'x, y, z'
loop_
 _atom_site_type_symbol
 _atom_site_label
 _atom_site_symmetry_multiplicity
 _atom_site_fract_x
 _atom_site_fract_y
 _atom_site_fract_z
 _atom_site_occupancy
  Ag  Ag0  1  0.50489853  0.00233416  -0.01450351  1
  Ag  Ag1  1  0.73164149  -0.01032058  0.75526541  1
  Ag  Ag2  1  -0.00433940  0.25000003  0.24455777  1
  Ag  Ag3  1  0.73164161  0.51032060  0.75526553  1
  Ag  Ag4  1  0.50489851  0.49766580  -0.01450439  1
  Ag  Ag5  1  0.50319599  0.50926528  0.51702670  1
  Ag  Ag6  1  0.27060086  -0.00091121  0.75445762  1
  Ag  Ag7  1  0.26668605  0.25000001  -0.00205717  1
  Ag  Ag8  1  0.74035306  0.75000001  0.51235392  1
  Ag  Ag9  1  0.50413383  0.74999990  0.24676184  1
  Ag  Ag10  1  0.73984171  0.75000000  -0.01162987  1
  Ag  Ag11  1  0.27060030  0.50091117  0.75445760  1
  Ag  Ag12  1  0.50891409  0.75000003  0.75248565  1
  Ag  Ag13  1  0.73464342  0.25000001  -0.00164702  1
  Ag  Ag14  1  0.50319615  -0.00926518  0.51702694  1
  Ag  Ag15  1  0.50110569  0.25000009  0.23995663  1
  Sb  Sb16  1  -0.00605630  0.75000004  0.24938732  1
  Sb  Sb17  1  0.74491130  0.49926327  0.24441276  1
  Sb  Sb18  1  0.25693610  0.49726145  0.24319571  1
  Sb  Sb19  1  -0.00435410  0.00195613  -0.00228296  1
  Sb  Sb20  1  0.74491127  0.00073671  0.24441278  1
  Sb  Sb21  1  0.74240692  0.25000000  0.50388479  1
  Sb  Sb22  1  -0.00689261  0.49910214  0.50310890  1
  Sb  Sb23  1  0.26288503  0.74999999  0.50364178  1
  Sb  Sb24  1  0.25693617  0.00273855  0.24319571  1
  Sb  Sb25  1  0.26306909  0.74999998  -0.00384477  1
  Sb  Sb26  1  -0.00689258  0.00089790  0.50310883  1
  Sb  Sb27  1  0.50186896  0.24999992  0.76062887  1
  Sb  Sb28  1  -0.00435413  0.49804387  -0.00228304  1
  Sb  Sb29  1  -0.00179434  0.24999998  0.75283371  1
  Sb  Sb30  1  0.25760278  0.25000001  0.50419931  1
  Sb  Sb31  1  -0.01002380  0.75000000  0.75056187  1
  Te  Te32  1  0.25923995  0.25000001  0.24166824  1
  Te  Te33  1  0.24511835  0.25000007  0.75507608  1
  Te  Te34  1  0.25401412  0.74999999  0.24977725  1
  Te  Te35  1  0.25570264  0.74999995  0.75203529  1
  Te  Te36  1  0.74315564  0.24999998  0.24235985  1
  Te  Te37  1  0.75445262  0.24999995  0.75532467  1
  Te  Te38  1  0.74435786  0.75000004  0.24772306  1
  Te  Te39  1  0.74424096  0.75000002  0.75312814  1
  Te  Te40  1  0.25366177  0.00076699  -0.00446655  1
  Te  Te41  1  0.25743286  -0.00121405  0.51109973  1
  Te  Te42  1  0.25366173  0.49923303  -0.00446671  1
  Te  Te43  1  0.25743287  0.50121403  0.51109987  1
  Te  Te44  1  0.74740142  0.00329267  -0.00234973  1
  Te  Te45  1  0.74516945  0.00207937  0.50824402  1
  Te  Te46  1  0.74740148  0.49670735  -0.00234977  1
  Te  Te47  1  0.74516960  0.49792065  0.50824398  1
  Te  Te48  1  -0.00280556  0.25000000  0.00437953  1
  Te  Te49  1  0.00065565  0.25000001  0.48615115  1
  Te  Te50  1  -0.02012958  0.75000000  0.00390432  1
  Te  Te51  1  -0.01906026  0.74999998  0.49551033  1
  Te  Te52  1  0.50245621  0.24999997  0.00431323  1
  Te  Te53  1  0.50017788  0.25000001  0.47709547  1
  Te  Te54  1  0.50417973  0.75000003  -0.00394802  1
  Te  Te55  1  0.50444562  0.74999988  0.50393852  1
  Te  Te56  1  0.00295282  0.00485872  0.25169998  1
  Te  Te57  1  0.00371277  -0.00275359  0.74910480  1
  Te  Te58  1  0.00295284  0.49514119  0.25169999  1
  Te  Te59  1  0.00371283  0.50275365  0.74910484  1
  Te  Te60  1  0.50118159  -0.00467190  0.24825801  1
  Te  Te61  1  0.50180027  0.01025962  0.75247305  1
  Te  Te62  1  0.50118161  0.50467188  0.24825799  1
  Te  Te63  1  0.50180062  0.48974044  0.75247417  1
