# generated using pymatgen
data_AgSbTe2
_symmetry_space_group_name_H-M   'P 1'
_cell_length_a   12.21971483
_cell_length_b   12.21713169
_cell_length_c   12.21709330
_cell_angle_alpha   89.99377705
_cell_angle_beta   89.99645095
_cell_angle_gamma   90.00531270
_symmetry_Int_Tables_number   1
_chemical_formula_structural   AgSbTe2
_chemical_formula_sum   'Ag16 Sb16 Te32'
_cell_volume   1823.88819067
_cell_formula_units_Z   16
loop_
 _symmetry_equiv_pos_site_id
 _symmetry_equiv_pos_as_xyz
  1  'x, y, z'
loop_
 _atom_site_type_symbol
 _atom_site_label
 _atom_site_symmetry_multiplicity
 _atom_site_fract_x
 _atom_site_fract_y
 _atom_site_fract_z
 _atom_site_occupancy
  Ag  Ag0  1  -0.00010726  0.75553408  0.25483118  1
  Ag  Ag1  1  0.00193543  0.74877086  0.74625270  1
  Ag  Ag2  1  0.75304900  -0.00285657  0.25425651  1
  Ag  Ag3  1  0.74960815  0.75167635  0.49647271  1
  Ag  Ag4  1  0.49208860  0.24847465  0.25450796  1
  Ag  Ag5  1  0.00467573  0.49996176  0.00117004  1
  Ag  Ag6  1  0.00720049  0.24536002  0.25172618  1
  Ag  Ag7  1  0.25248889  0.49884632  0.74871983  1
  Ag  Ag8  1  0.25289994  0.25007882  0.49510144  1
  Ag  Ag9  1  0.00136478  -0.00219042  0.49306840  1
  Ag  Ag10  1  0.24694829  0.00483028  0.25289954  1
  Ag  Ag11  1  0.49424179  0.25364322  0.74547910  1
  Ag  Ag12  1  0.50002629  0.75129566  0.25610926  1
  Ag  Ag13  1  0.49773777  0.74620595  0.74402664  1
  Ag  Ag14  1  0.49708987  0.50033320  0.50124363  1
  Ag  Ag15  1  0.24953443  0.25200294  0.00491269  1
  Sb  Sb16  1  0.24842661  0.74757312  0.00181561  1
  Sb  Sb17  1  0.75168578  -0.00273500  0.74485117  1
  Sb  Sb18  1  0.75089644  0.75028225  0.00353370  1
  Sb  Sb19  1  0.49796071  -0.00060511  0.49660588  1
  Sb  Sb20  1  0.00608480  0.25106256  0.74895134  1
  Sb  Sb21  1  0.25064026  0.74949195  0.49817290  1
  Sb  Sb22  1  0.24998620  0.49328749  0.25181429  1
  Sb  Sb23  1  0.00317476  0.00071437  0.00770264  1
  Sb  Sb24  1  0.74731332  0.50125599  0.74742621  1
  Sb  Sb25  1  0.74986010  0.50329706  0.25266448  1
  Sb  Sb26  1  0.24904531  0.00074022  0.74668881  1
  Sb  Sb27  1  0.00310406  0.50188742  0.49975850  1
  Sb  Sb28  1  0.75108133  0.25019785  0.00305339  1
  Sb  Sb29  1  0.49693356  0.00104561  0.00274967  1
  Sb  Sb30  1  0.74805960  0.24837032  0.49684341  1
  Sb  Sb31  1  0.49591251  0.49816485  -0.00116547  1
  Te  Te32  1  0.25116379  0.25068511  0.25171484  1
  Te  Te33  1  0.25352867  0.25106042  0.74867072  1
  Te  Te34  1  0.25062586  0.75453112  0.24922150  1
  Te  Te35  1  0.25205239  0.74833838  0.75073327  1
  Te  Te36  1  0.74916969  0.24457966  0.25013053  1
  Te  Te37  1  0.73941976  0.24842591  0.75043687  1
  Te  Te38  1  0.74941650  0.75314109  0.25336468  1
  Te  Te39  1  0.74824071  0.75185691  0.74533509  1
  Te  Te40  1  0.24937883  0.00899723  0.00753818  1
  Te  Te41  1  0.24412973  0.00641121  0.49528868  1
  Te  Te42  1  0.24544712  0.49473415  -0.00647476  1
  Te  Te43  1  0.25526993  0.49396275  0.50544060  1
  Te  Te44  1  0.75077993  0.00027330  0.01036657  1
  Te  Te45  1  0.75739669  -0.00520328  0.49466726  1
  Te  Te46  1  0.76140719  0.49962739  -0.00048272  1
  Te  Te47  1  0.74154987  0.50741649  0.50012225  1
  Te  Te48  1  0.00332453  0.25297018  0.00228888  1
  Te  Te49  1  0.00110983  0.24959194  0.49676352  1
  Te  Te50  1  0.00052309  0.74610751  0.00009784  1
  Te  Te51  1  0.00043570  0.74923842  0.49742289  1
  Te  Te52  1  0.49533335  0.25161037  0.00193951  1
  Te  Te53  1  0.49893594  0.25114923  0.49784744  1
  Te  Te54  1  0.49998604  0.74842180  -0.00019604  1
  Te  Te55  1  0.49950521  0.74922473  0.49886031  1
  Te  Te56  1  0.00242644  -0.00134611  0.25178286  1
  Te  Te57  1  -0.00028918  -0.00669547  0.74360696  1
  Te  Te58  1  0.00063414  0.50101841  0.24851750  1
  Te  Te59  1  0.00354965  0.50420416  0.75065272  1
  Te  Te60  1  0.49802740  -0.00078756  0.25100630  1
  Te  Te61  1  0.49989823  -0.00282482  0.75018491  1
  Te  Te62  1  0.49942831  0.50131284  0.25223082  1
  Te  Te63  1  0.49724713  0.50196847  0.74867569  1
