# generated using pymatgen
data_AgSbTe2
_symmetry_space_group_name_H-M   'P 1'
_cell_length_a   12.22718064
_cell_length_b   12.21875732
_cell_length_c   12.22150937
_cell_angle_alpha   89.98738678
_cell_angle_beta   90.00823212
_cell_angle_gamma   90.00098153
_symmetry_Int_Tables_number   1
_chemical_formula_structural   AgSbTe2
_chemical_formula_sum   'Ag16 Sb16 Te32'
_cell_volume   1825.90508241
_cell_formula_units_Z   16
loop_
 _symmetry_equiv_pos_site_id
 _symmetry_equiv_pos_as_xyz
  1  'x, y, z'
loop_
 _atom_site_type_symbol
 _atom_site_label
 _atom_site_symmetry_multiplicity
 _atom_site_fract_x
 _atom_site_fract_y
 _atom_site_fract_z
 _atom_site_occupancy
  Ag  Ag0  1  -0.00000813  0.75701826  0.25881065  1
  Ag  Ag1  1  0.24403214  0.75559392  0.49977979  1
  Ag  Ag2  1  0.75583676  0.75413316  0.49724837  1
  Ag  Ag3  1  0.75194951  0.50102894  0.74831266  1
  Ag  Ag4  1  0.49843603  0.00318990  0.00677615  1
  Ag  Ag5  1  -0.00021551  -0.00686137  0.49754600  1
  Ag  Ag6  1  0.50245097  0.23992243  0.24651167  1
  Ag  Ag7  1  0.25472301  -0.00288377  0.25029203  1
  Ag  Ag8  1  0.49999766  0.76003548  0.25206078  1
  Ag  Ag9  1  0.74625031  0.24650624  0.00301549  1
  Ag  Ag10  1  0.00257194  0.75204720  0.74213827  1
  Ag  Ag11  1  0.24826789  0.50310576  0.74959102  1
  Ag  Ag12  1  0.24841980  -0.00319721  0.74876969  1
  Ag  Ag13  1  0.25412053  0.24484410  0.00098772  1
  Ag  Ag14  1  0.74987430  0.24577113  0.49716074  1
  Ag  Ag15  1  0.74556158  -0.00051857  0.25265939  1
  Sb  Sb16  1  0.74852523  0.75300852  0.00180768  1
  Sb  Sb17  1  0.25059924  0.24486693  0.49913191  1
  Sb  Sb18  1  0.50020643  0.50020251  0.50024262  1
  Sb  Sb19  1  0.25064711  0.50233343  0.25007264  1
  Sb  Sb20  1  0.50115063  -0.00067330  0.49310415  1
  Sb  Sb21  1  0.00006495  0.24736461  0.74822441  1
  Sb  Sb22  1  0.49897885  0.75284350  0.74649304  1
  Sb  Sb23  1  0.50049254  0.24664775  0.75253154  1
  Sb  Sb24  1  0.74971140  0.50011508  0.25148919  1
  Sb  Sb25  1  -0.00144740  0.24320235  0.25178802  1
  Sb  Sb26  1  0.49996009  0.49679917  -0.00005791  1
  Sb  Sb27  1  0.00004564  0.50011255  -0.00170315  1
  Sb  Sb28  1  0.75194610  -0.00089754  0.74748457  1
  Sb  Sb29  1  0.00136565  -0.00049123  0.00201557  1
  Sb  Sb30  1  0.25129863  0.75441885  0.00010523  1
  Sb  Sb31  1  -0.00045230  0.50769992  0.50192425  1
  Te  Te32  1  0.25142937  0.24784104  0.24842733  1
  Te  Te33  1  0.24987680  0.24903671  0.75126469  1
  Te  Te34  1  0.25042729  0.75176353  0.25112119  1
  Te  Te35  1  0.24930825  0.75166405  0.74893838  1
  Te  Te36  1  0.74895082  0.24951757  0.25001251  1
  Te  Te37  1  0.75012898  0.25219441  0.74915646  1
  Te  Te38  1  0.74968261  0.75064750  0.25179596  1
  Te  Te39  1  0.75090566  0.74821419  0.74738378  1
  Te  Te40  1  0.25091594  0.00364020  0.00242683  1
  Te  Te41  1  0.24831728  -0.00162387  0.49881570  1
  Te  Te42  1  0.25004084  0.49128558  -0.00583926  1
  Te  Te43  1  0.24957336  0.50411481  0.50632890  1
  Te  Te44  1  0.74753987  0.00433630  0.00235379  1
  Te  Te45  1  0.75132987  -0.00179025  0.49859264  1
  Te  Te46  1  0.74996819  0.49254258  -0.00628167  1
  Te  Te47  1  0.75026863  0.50031774  0.50469291  1
  Te  Te48  1  -0.00118867  0.24995928  0.00007469  1
  Te  Te49  1  -0.00606218  0.24133117  0.49956593  1
  Te  Te50  1  -0.00064972  0.75003364  -0.00098983  1
  Te  Te51  1  -0.00006075  0.75328899  0.50017222  1
  Te  Te52  1  0.50038789  0.24686623  0.00331737  1
  Te  Te53  1  0.50608330  0.25006138  0.49271157  1
  Te  Te54  1  0.50070128  0.75601591  0.00862549  1
  Te  Te55  1  0.50091352  0.74993207  0.49479587  1
  Te  Te56  1  -0.00013068  -0.00411047  0.25242461  1
  Te  Te57  1  0.00406702  -0.00481643  0.74630864  1
  Te  Te58  1  0.00091431  0.51213782  0.24978686  1
  Te  Te59  1  0.00074169  0.50668427  0.74964847  1
  Te  Te60  1  0.50003970  -0.00004634  0.24848928  1
  Te  Te61  1  0.49232526  -0.00030138  0.75938385  1
  Te  Te62  1  0.49894051  0.50120416  0.24945901  1
  Te  Te63  1  0.49895220  0.50076888  0.75072166  1
