# generated using pymatgen
data_AgSbTe2
_symmetry_space_group_name_H-M   'P 1'
_cell_length_a   12.32721802
_cell_length_b   12.32037209
_cell_length_c   12.29629387
_cell_angle_alpha   90.01696282
_cell_angle_beta   90.01314826
_cell_angle_gamma   89.99795148
_symmetry_Int_Tables_number   1
_chemical_formula_structural   AgSbTe2
_chemical_formula_sum   'Ag16 Sb16 Te32'
_cell_volume   1867.51072292
_cell_formula_units_Z   16
loop_
 _symmetry_equiv_pos_site_id
 _symmetry_equiv_pos_as_xyz
  1  'x, y, z'
loop_
 _atom_site_type_symbol
 _atom_site_label
 _atom_site_symmetry_multiplicity
 _atom_site_fract_x
 _atom_site_fract_y
 _atom_site_fract_z
 _atom_site_occupancy
  Ag  Ag0  1  0.50368250  0.24143544  0.74376380  1
  Ag  Ag1  1  0.01691958  0.76130479  0.25560628  1
  Ag  Ag2  1  0.74990294  0.24400214  0.00999480  1
  Ag  Ag3  1  0.00019887  -0.00347812  0.49264543  1
  Ag  Ag4  1  -0.00026576  0.23793485  0.25428716  1
  Ag  Ag5  1  0.74632331  0.00137625  0.73608965  1
  Ag  Ag6  1  0.75734984  -0.00964346  0.25965266  1
  Ag  Ag7  1  0.25004883  0.23541714  0.48742405  1
  Ag  Ag8  1  0.50075962  -0.00372310  0.49310088  1
  Ag  Ag9  1  0.24989077  0.76409516  0.48840923  1
  Ag  Ag10  1  0.25024615  0.75405809  0.02298668  1
  Ag  Ag11  1  0.75325738  0.50823123  0.25281343  1
  Ag  Ag12  1  0.24237755  -0.01650262  0.26082906  1
  Ag  Ag13  1  0.75034391  0.76070732  0.48924019  1
  Ag  Ag14  1  0.48058130  0.75668743  0.25651966  1
  Ag  Ag15  1  0.24673019  0.52006477  0.25387675  1
  Sb  Sb16  1  0.25297481  -0.00010105  0.74107019  1
  Sb  Sb17  1  0.74776030  0.50067888  0.74410801  1
  Sb  Sb18  1  0.75067894  0.75097318  0.01258180  1
  Sb  Sb19  1  0.50052612  -0.00192191  0.00755692  1
  Sb  Sb20  1  0.50150994  0.75511088  0.74365664  1
  Sb  Sb21  1  0.49941983  0.50315845  0.49627041  1
  Sb  Sb22  1  -0.00129625  -0.00070452  0.01026793  1
  Sb  Sb23  1  0.24966178  0.24951640  0.01030668  1
  Sb  Sb24  1  -0.00009763  0.75704840  0.74234265  1
  Sb  Sb25  1  -0.00035306  0.50053622  0.00727244  1
  Sb  Sb26  1  0.50005998  0.24577417  0.25193750  1
  Sb  Sb27  1  0.25257083  0.50061978  0.74426015  1
  Sb  Sb28  1  0.75148094  0.24229180  0.49581210  1
  Sb  Sb29  1  0.00048810  0.50286171  0.49552605  1
  Sb  Sb30  1  0.00055846  0.24324424  0.74288413  1
  Sb  Sb31  1  0.50024186  0.49971535  0.00539494  1
  Te  Te32  1  0.25153841  0.24656662  0.25405846  1
  Te  Te33  1  0.24952973  0.25093604  0.74675707  1
  Te  Te34  1  0.24987795  0.74960241  0.25120822  1
  Te  Te35  1  0.25030318  0.74833500  0.74613811  1
  Te  Te36  1  0.74783200  0.24843963  0.25075974  1
  Te  Te37  1  0.74993588  0.24988628  0.74962632  1
  Te  Te38  1  0.75330630  0.75320389  0.25025071  1
  Te  Te39  1  0.74939234  0.75123716  0.74531357  1
  Te  Te40  1  0.24893439  -0.00295706  0.00476055  1
  Te  Te41  1  0.25166969  0.00011963  0.49882265  1
  Te  Te42  1  0.25000873  0.50234475  0.00708418  1
  Te  Te43  1  0.25036178  0.50225314  0.49693956  1
  Te  Te44  1  0.75016989  0.00333857  0.00259506  1
  Te  Te45  1  0.74752174  -0.00085856  0.49595927  1
  Te  Te46  1  0.74980142  0.49660126  0.00675361  1
  Te  Te47  1  0.74979525  0.51358626  0.49419048  1
  Te  Te48  1  -0.00296018  0.24931028  0.00803270  1
  Te  Te49  1  0.00221432  0.24694377  0.49372482  1
  Te  Te50  1  0.00276407  0.75104105  0.00597609  1
  Te  Te51  1  0.00168833  0.75070969  0.49780669  1
  Te  Te52  1  0.50256647  0.24928927  -0.00434427  1
  Te  Te53  1  0.49860122  0.24575835  0.49967178  1
  Te  Te54  1  0.49734968  0.74987609  0.00306029  1
  Te  Te55  1  0.49835054  0.75177207  0.49803087  1
  Te  Te56  1  -0.00099076  0.00088612  0.25275554  1
  Te  Te57  1  -0.00891264  -0.00147656  0.73529487  1
  Te  Te58  1  -0.00191419  0.49889214  0.25167821  1
  Te  Te59  1  -0.00054302  0.49962382  0.75205155  1
  Te  Te60  1  0.50197932  -0.00416568  0.25324385  1
  Te  Te61  1  0.50341386  0.00304411  0.74211210  1
  Te  Te62  1  0.50165732  0.50816124  0.25083740  1
  Te  Te63  1  0.50022506  0.48692992  0.75036172  1
