# generated using pymatgen
data_AgSbTe2
_symmetry_space_group_name_H-M   'P 1'
_cell_length_a   12.22198152
_cell_length_b   12.22453987
_cell_length_c   12.23365484
_cell_angle_alpha   90.00000001
_cell_angle_beta   90.00000000
_cell_angle_gamma   89.99834031
_symmetry_Int_Tables_number   1
_chemical_formula_structural   AgSbTe2
_chemical_formula_sum   'Ag16 Sb16 Te32'
_cell_volume   1827.80712814
_cell_formula_units_Z   16
loop_
 _symmetry_equiv_pos_site_id
 _symmetry_equiv_pos_as_xyz
  1  'x, y, z'
loop_
 _atom_site_type_symbol
 _atom_site_label
 _atom_site_symmetry_multiplicity
 _atom_site_fract_x
 _atom_site_fract_y
 _atom_site_fract_z
 _atom_site_occupancy
  Ag  Ag0  1  0.74715718  0.49642616  0.75368554  1
  Ag  Ag1  1  0.50391361  0.24178323  0.24804634  1
  Ag  Ag2  1  0.50612833  0.75815193  0.75416899  1
  Ag  Ag3  1  0.25447637  0.24690638  0.50000000  1
  Ag  Ag4  1  -0.00375130  0.24622600  0.24528639  1
  Ag  Ag5  1  0.50612837  0.75815195  0.24583099  1
  Ag  Ag6  1  0.74460647  0.75726656  0.00000001  1
  Ag  Ag7  1  0.74291449  0.00312692  0.75821949  1
  Ag  Ag8  1  0.25170476  0.24593171  0.00000000  1
  Ag  Ag9  1  -0.00787681  0.00641195  0.00000001  1
  Ag  Ag10  1  0.74715714  0.49642617  0.24631448  1
  Ag  Ag11  1  0.50259468  0.00477108  0.50000000  1
  Ag  Ag12  1  0.50846583  0.00240924  0.00000000  1
  Ag  Ag13  1  -0.00375129  0.24622601  0.75471361  1
  Ag  Ag14  1  0.50391361  0.24178327  0.75195366  1
  Ag  Ag15  1  0.74291482  0.00312693  0.24178061  1
  Sb  Sb16  1  0.26171610  0.00618489  0.75128957  1
  Sb  Sb17  1  0.74195176  0.24608463  0.50000000  1
  Sb  Sb18  1  0.25419428  0.49316279  0.75155503  1
  Sb  Sb19  1  -0.01106183  0.75649607  0.75558061  1
  Sb  Sb20  1  0.26030011  0.75675154  0.00000001  1
  Sb  Sb21  1  -0.00759486  0.48767149  0.00000000  1
  Sb  Sb22  1  -0.00334918  0.00664554  0.49999999  1
  Sb  Sb23  1  -0.00221821  0.49374390  0.49999999  1
  Sb  Sb24  1  0.26171611  0.00618492  0.24871043  1
  Sb  Sb25  1  0.25419429  0.49316282  0.24844495  1
  Sb  Sb26  1  0.74468124  0.75383505  0.50000001  1
  Sb  Sb27  1  0.74605481  0.23605992  -0.00000000  1
  Sb  Sb28  1  0.50158963  0.49184334  0.50000001  1
  Sb  Sb29  1  0.50716697  0.49386393  0.00000000  1
  Sb  Sb30  1  0.25708320  0.75730665  0.50000000  1
  Sb  Sb31  1  -0.01106186  0.75649609  0.24441939  1
  Te  Te32  1  0.25072369  0.25235127  0.24914067  1
  Te  Te33  1  0.25072371  0.25235133  0.75085933  1
  Te  Te34  1  0.26256431  0.74513748  0.24918816  1
  Te  Te35  1  0.26256433  0.74513750  0.75081183  1
  Te  Te36  1  0.74830082  0.24915663  0.25079648  1
  Te  Te37  1  0.74830082  0.24915664  0.74920353  1
  Te  Te38  1  0.74432428  0.75089404  0.24547320  1
  Te  Te39  1  0.74432428  0.75089403  0.75452681  1
  Te  Te40  1  0.24886105  0.00718223  -0.00000002  1
  Te  Te41  1  0.25917777  0.00859316  0.50000002  1
  Te  Te42  1  0.24742613  0.48853547  0.00000001  1
  Te  Te43  1  0.24975460  0.48696318  0.50000001  1
  Te  Te44  1  0.74767127  -0.00142058  -0.00000011  1
  Te  Te45  1  0.74222205  -0.00139558  0.49999998  1
  Te  Te46  1  0.75038665  0.51447451  -0.00000001  1
  Te  Te47  1  0.74939906  0.50271811  0.50000000  1
  Te  Te48  1  0.00664722  0.24386466  0.00000001  1
  Te  Te49  1  0.01270893  0.24688014  0.50000000  1
  Te  Te50  1  -0.00609802  0.76315203  -0.00000001  1
  Te  Te51  1  0.00560655  0.75123724  0.50000001  1
  Te  Te52  1  0.49615471  0.24563805  -0.00000001  1
  Te  Te53  1  0.49453735  0.24443785  0.50000000  1
  Te  Te54  1  0.50225380  0.75714656  0.00000001  1
  Te  Te55  1  0.49777873  0.76025390  0.49999999  1
  Te  Te56  1  -0.01002261  0.00616968  0.24631426  1
  Te  Te57  1  -0.01002258  0.00616966  0.75368575  1
  Te  Te58  1  -0.01179725  0.49067105  0.24988983  1
  Te  Te59  1  -0.01179724  0.49067107  0.75011018  1
  Te  Te60  1  0.50315090  0.00255423  0.24817747  1
  Te  Te61  1  0.50315120  0.00255420  0.75182253  1
  Te  Te62  1  0.50948235  0.49862559  0.25080894  1
  Te  Te63  1  0.50948230  0.49862560  0.74919106  1
