# generated using pymatgen
data_AgSbTe2
_symmetry_space_group_name_H-M   'P 1'
_cell_length_a   12.21915389
_cell_length_b   12.22117305
_cell_length_c   12.21329574
_cell_angle_alpha   90.00350866
_cell_angle_beta   90.00285420
_cell_angle_gamma   89.99785472
_symmetry_Int_Tables_number   1
_chemical_formula_structural   AgSbTe2
_chemical_formula_sum   'Ag16 Sb16 Te32'
_cell_volume   1823.84068848
_cell_formula_units_Z   16
loop_
 _symmetry_equiv_pos_site_id
 _symmetry_equiv_pos_as_xyz
  1  'x, y, z'
loop_
 _atom_site_type_symbol
 _atom_site_label
 _atom_site_symmetry_multiplicity
 _atom_site_fract_x
 _atom_site_fract_y
 _atom_site_fract_z
 _atom_site_occupancy
  Ag  Ag0  1  0.75352878  0.50521949  0.75126992  1
  Ag  Ag1  1  0.75272733  0.75189346  -0.00664634  1
  Ag  Ag2  1  0.75288422  0.00200826  0.24592242  1
  Ag  Ag3  1  0.24828918  -0.00289597  0.74913669  1
  Ag  Ag4  1  0.00328920  0.50219830  0.50354081  1
  Ag  Ag5  1  0.75216414  -0.00565626  0.75399619  1
  Ag  Ag6  1  0.24496467  0.74816063  0.50678093  1
  Ag  Ag7  1  0.75177670  0.24729818  0.00065543  1
  Ag  Ag8  1  -0.00164817  0.75024420  0.25239200  1
  Ag  Ag9  1  0.50044608  0.24832448  0.24872340  1
  Ag  Ag10  1  0.24817492  0.24992442  -0.00109882  1
  Ag  Ag11  1  0.24629158  0.50302488  0.74638592  1
  Ag  Ag12  1  -0.00066573  0.24972807  0.24995728  1
  Ag  Ag13  1  0.50120738  0.75036784  0.74969235  1
  Ag  Ag14  1  0.24704293  0.25210518  0.50187134  1
  Ag  Ag15  1  -0.00076958  0.74790939  0.74799123  1
  Sb  Sb16  1  -0.00227518  0.00115533  -0.00169805  1
  Sb  Sb17  1  0.24697757  0.00265921  0.24921212  1
  Sb  Sb18  1  0.49992849  0.49946710  -0.00231527  1
  Sb  Sb19  1  0.49881051  0.24890845  0.75032703  1
  Sb  Sb20  1  0.24743303  0.75047624  -0.00717805  1
  Sb  Sb21  1  0.00127780  -0.00220183  0.50110476  1
  Sb  Sb22  1  -0.00009338  0.49961169  -0.00492686  1
  Sb  Sb23  1  0.50210447  0.00103663  -0.00116487  1
  Sb  Sb24  1  0.75398557  0.49938269  0.24827861  1
  Sb  Sb25  1  0.50278999  0.75228228  0.25092178  1
  Sb  Sb26  1  0.24666307  0.49838764  0.25339822  1
  Sb  Sb27  1  0.75567750  0.74879199  0.50677908  1
  Sb  Sb28  1  0.49894678  0.00032852  0.50084296  1
  Sb  Sb29  1  0.75346664  0.25119430  0.49880943  1
  Sb  Sb30  1  0.00163919  0.25224312  0.74875072  1
  Sb  Sb31  1  0.49617283  0.49993249  0.50330548  1
  Te  Te32  1  0.24702909  0.24804783  0.24889231  1
  Te  Te33  1  0.24995383  0.24942097  0.74986134  1
  Te  Te34  1  0.24700827  0.75145730  0.25164220  1
  Te  Te35  1  0.24747791  0.75021939  0.75172110  1
  Te  Te36  1  0.75325770  0.24865273  0.24789551  1
  Te  Te37  1  0.74952525  0.24785563  0.75397034  1
  Te  Te38  1  0.75083043  0.75201591  0.24696206  1
  Te  Te39  1  0.75206488  0.75181680  0.74985412  1
  Te  Te40  1  0.25037737  0.00632068  -0.00656345  1
  Te  Te41  1  0.25001375  0.00112754  0.50581172  1
  Te  Te42  1  0.25010439  0.49393201  -0.00813837  1
  Te  Te43  1  0.24687401  0.49930192  0.50395606  1
  Te  Te44  1  0.74990727  0.00197110  -0.00266639  1
  Te  Te45  1  0.74972035  0.00070672  0.50264922  1
  Te  Te46  1  0.75002638  0.49878042  -0.00663888  1
  Te  Te47  1  0.75651192  0.49905728  0.50830382  1
  Te  Te48  1  -0.00113945  0.25119807  0.00621069  1
  Te  Te49  1  0.00478724  0.25525033  0.49631628  1
  Te  Te50  1  -0.00420763  0.74862540  0.00133861  1
  Te  Te51  1  0.00380687  0.74619788  0.50014967  1
  Te  Te52  1  0.50092615  0.25094051  0.00457350  1
  Te  Te53  1  0.49183337  0.25094683  0.49479541  1
  Te  Te54  1  0.50594147  0.74877444  -0.00319156  1
  Te  Te55  1  0.49042678  0.74893736  0.50313214  1
  Te  Te56  1  -0.00488597  -0.00110141  0.25130374  1
  Te  Te57  1  -0.00156146  -0.00517377  0.74917649  1
  Te  Te58  1  -0.00048786  0.50170764  0.25732789  1
  Te  Te59  1  0.00076390  0.50179925  0.74577911  1
  Te  Te60  1  0.50769558  0.00477624  0.25113967  1
  Te  Te61  1  0.50126547  -0.00532016  0.74930257  1
  Te  Te62  1  0.50040663  0.49277053  0.25134546  1
  Te  Te63  1  0.50053761  0.50547621  0.74876979  1
