# generated using pymatgen
data_AgSbTe2
_symmetry_space_group_name_H-M   'P 1'
_cell_length_a   12.21334071
_cell_length_b   12.20807505
_cell_length_c   12.21039136
_cell_angle_alpha   89.99807589
_cell_angle_beta   90.00333093
_cell_angle_gamma   89.99263266
_symmetry_Int_Tables_number   1
_chemical_formula_structural   AgSbTe2
_chemical_formula_sum   'Ag16 Sb16 Te32'
_cell_volume   1820.58618294
_cell_formula_units_Z   16
loop_
 _symmetry_equiv_pos_site_id
 _symmetry_equiv_pos_as_xyz
  1  'x, y, z'
loop_
 _atom_site_type_symbol
 _atom_site_label
 _atom_site_symmetry_multiplicity
 _atom_site_fract_x
 _atom_site_fract_y
 _atom_site_fract_z
 _atom_site_occupancy
  Ag  Ag0  1  -0.00346056  -0.00241550  -0.00567617  1
  Ag  Ag1  1  -0.00312906  0.75776101  0.74902678  1
  Ag  Ag2  1  0.00168074  0.50315646  0.49975317  1
  Ag  Ag3  1  0.75274218  0.24363728  -0.00487520  1
  Ag  Ag4  1  0.24865511  0.24551511  0.50305929  1
  Ag  Ag5  1  0.49727398  -0.00071600  0.50198284  1
  Ag  Ag6  1  0.49908359  0.75352493  0.25191315  1
  Ag  Ag7  1  0.24717863  0.50284437  0.25395152  1
  Ag  Ag8  1  0.00085472  0.75258554  0.25159274  1
  Ag  Ag9  1  0.49994511  0.24378551  0.74813243  1
  Ag  Ag10  1  0.24845981  -0.00313625  0.25361590  1
  Ag  Ag11  1  -0.00017530  0.24168719  0.74958679  1
  Ag  Ag12  1  0.75396815  0.75363137  0.50105650  1
  Ag  Ag13  1  0.75560118  -0.00048189  0.75196413  1
  Ag  Ag14  1  0.75450542  0.75608336  -0.00154443  1
  Ag  Ag15  1  0.24481482  0.00246308  0.74661491  1
  Sb  Sb16  1  0.24624838  0.49793524  0.74605076  1
  Sb  Sb17  1  0.24641978  0.75395093  0.49806316  1
  Sb  Sb18  1  0.49762019  0.24632485  0.25156659  1
  Sb  Sb19  1  0.00206466  0.24668262  0.25144154  1
  Sb  Sb20  1  0.24725256  0.24601525  -0.00397588  1
  Sb  Sb21  1  0.75328907  0.50357127  0.25190354  1
  Sb  Sb22  1  0.50324602  0.75699675  0.74812152  1
  Sb  Sb23  1  0.50404483  -0.00061602  -0.00147384  1
  Sb  Sb24  1  0.75187199  0.50093736  0.74856706  1
  Sb  Sb25  1  0.24493176  0.75366749  0.00178606  1
  Sb  Sb26  1  -0.00040185  0.50241576  0.00128682  1
  Sb  Sb27  1  0.49794436  0.50151294  0.49812443  1
  Sb  Sb28  1  0.75285526  -0.00372585  0.24911889  1
  Sb  Sb29  1  0.50063979  0.50076551  0.00132296  1
  Sb  Sb30  1  0.75102871  0.24560435  0.50556497  1
  Sb  Sb31  1  0.00256426  -0.00273364  0.50667176  1
  Te  Te32  1  0.25071077  0.24704072  0.25457643  1
  Te  Te33  1  0.24800565  0.24681513  0.74670083  1
  Te  Te34  1  0.24833689  0.75338328  0.25039979  1
  Te  Te35  1  0.24608039  0.75516778  0.75020655  1
  Te  Te36  1  0.74898982  0.25054391  0.24220631  1
  Te  Te37  1  0.75235512  0.24617563  0.75189158  1
  Te  Te38  1  0.75211292  0.75068764  0.24989496  1
  Te  Te39  1  0.75170139  0.75339712  0.75068601  1
  Te  Te40  1  0.24409945  0.00100802  -0.00022310  1
  Te  Te41  1  0.25259700  0.00317367  0.50060835  1
  Te  Te42  1  0.24938219  0.49902166  0.01031101  1
  Te  Te43  1  0.24642586  0.49506214  0.49525489  1
  Te  Te44  1  0.75379203  -0.00173809  -0.00281487  1
  Te  Te45  1  0.74510946  -0.00372534  0.50351772  1
  Te  Te46  1  0.75053846  0.50123780  0.00028160  1
  Te  Te47  1  0.75607904  0.50653120  0.49965894  1
  Te  Te48  1  -0.00423897  0.24652287  -0.00471279  1
  Te  Te49  1  0.00196017  0.25402182  0.50327888  1
  Te  Te50  1  -0.00442250  0.75257055  -0.00042307  1
  Te  Te51  1  -0.00295299  0.74801222  0.49945622  1
  Te  Te52  1  0.50666201  0.24993792  -0.00562819  1
  Te  Te53  1  0.49846386  0.24627864  0.50350905  1
  Te  Te54  1  0.50923396  0.75033793  0.00514027  1
  Te  Te55  1  0.50487925  0.75304497  0.49675537  1
  Te  Te56  1  0.00405052  -0.00434375  0.24593047  1
  Te  Te57  1  0.00005702  -0.00054297  0.74936466  1
  Te  Te58  1  0.00473428  0.50492600  0.25383793  1
  Te  Te59  1  0.00216587  0.50102673  0.74493380  1
  Te  Te60  1  0.49450066  -0.00448850  0.25344853  1
  Te  Te61  1  0.49883549  0.00278396  0.74747040  1
  Te  Te62  1  0.49220100  0.50652243  0.25092290  1
  Te  Te63  1  0.49793560  0.49037655  0.74926385  1
