# generated using pymatgen
data_AgSbTe2
_symmetry_space_group_name_H-M   'P 1'
_cell_length_a   12.23205803
_cell_length_b   12.22457185
_cell_length_c   12.21842296
_cell_angle_alpha   90.00223369
_cell_angle_beta   89.99605791
_cell_angle_gamma   89.99855688
_symmetry_Int_Tables_number   1
_chemical_formula_structural   AgSbTe2
_chemical_formula_sum   'Ag16 Sb16 Te32'
_cell_volume   1827.04121161
_cell_formula_units_Z   16
loop_
 _symmetry_equiv_pos_site_id
 _symmetry_equiv_pos_as_xyz
  1  'x, y, z'
loop_
 _atom_site_type_symbol
 _atom_site_label
 _atom_site_symmetry_multiplicity
 _atom_site_fract_x
 _atom_site_fract_y
 _atom_site_fract_z
 _atom_site_occupancy
  Ag  Ag0  1  0.49444498  0.24467833  0.75047075  1
  Ag  Ag1  1  0.00874865  -0.00086099  -0.00130833  1
  Ag  Ag2  1  0.24925135  0.24195577  -0.00314759  1
  Ag  Ag3  1  0.24476887  -0.00186783  0.24526703  1
  Ag  Ag4  1  0.49477272  0.50454453  0.50572852  1
  Ag  Ag5  1  0.49320554  0.75488331  0.74579887  1
  Ag  Ag6  1  0.24576814  0.74843824  0.50748394  1
  Ag  Ag7  1  0.00508190  0.24494921  0.24986171  1
  Ag  Ag8  1  0.75435375  0.75015124  0.50487830  1
  Ag  Ag9  1  0.74839661  -0.00477408  0.75039133  1
  Ag  Ag10  1  0.25120441  0.50661318  0.74546436  1
  Ag  Ag11  1  0.00425573  0.50789255  0.50261274  1
  Ag  Ag12  1  0.00659412  0.75345663  0.74342760  1
  Ag  Ag13  1  0.00431641  0.75374373  0.25622414  1
  Ag  Ag14  1  0.49111340  0.00028592  -0.00801776  1
  Ag  Ag15  1  0.25250256  -0.00492966  0.75483463  1
  Sb  Sb16  1  0.49531155  0.24622787  0.24948043  1
  Sb  Sb17  1  0.24906549  0.25072154  0.50217987  1
  Sb  Sb18  1  0.24957900  0.75876561  -0.00864793  1
  Sb  Sb19  1  0.75213042  0.50249001  0.25364205  1
  Sb  Sb20  1  0.24777955  0.50231647  0.25391931  1
  Sb  Sb21  1  0.49509980  0.75383129  0.25377639  1
  Sb  Sb22  1  0.75151663  0.24836453  0.50313843  1
  Sb  Sb23  1  0.00257491  -0.00812728  0.50199821  1
  Sb  Sb24  1  0.00474672  0.50143346  -0.00238518  1
  Sb  Sb25  1  0.49410908  0.50034721  -0.00656518  1
  Sb  Sb26  1  0.75108502  0.24618714  -0.00267644  1
  Sb  Sb27  1  0.00492816  0.24627758  0.74968421  1
  Sb  Sb28  1  0.74940229  0.50386864  0.74643132  1
  Sb  Sb29  1  0.75404122  -0.00317855  0.25010325  1
  Sb  Sb30  1  0.49740037  -0.00335055  0.50910127  1
  Sb  Sb31  1  0.75114010  0.75356998  -0.00505985  1
  Te  Te32  1  0.24559080  0.24590724  0.24736902  1
  Te  Te33  1  0.25280641  0.24693892  0.75155514  1
  Te  Te34  1  0.24597317  0.75304888  0.25608117  1
  Te  Te35  1  0.24934773  0.75129262  0.74906465  1
  Te  Te36  1  0.75908524  0.24972193  0.25023708  1
  Te  Te37  1  0.74262456  0.24286249  0.74940349  1
  Te  Te38  1  0.75641681  0.75072933  0.25794004  1
  Te  Te39  1  0.75082736  0.75372290  0.74626002  1
  Te  Te40  1  0.24863691  0.00099097  -0.00189567  1
  Te  Te41  1  0.25112857  -0.00349273  0.50018717  1
  Te  Te42  1  0.25021532  0.48942285  -0.00705473  1
  Te  Te43  1  0.24893198  0.50229158  0.50408509  1
  Te  Te44  1  0.75060196  -0.00034467  -0.00563022  1
  Te  Te45  1  0.74877749  -0.00597363  0.50564944  1
  Te  Te46  1  0.74945804  0.49993976  0.00076628  1
  Te  Te47  1  0.75196993  0.50600619  0.50069324  1
  Te  Te48  1  0.00295356  0.24683589  0.00212916  1
  Te  Te49  1  -0.00104262  0.25945993  0.49612610  1
  Te  Te50  1  -0.00024538  0.75307534  -0.00019906  1
  Te  Te51  1  0.00307242  0.74921184  0.50278533  1
  Te  Te52  1  0.49644943  0.24705599  -0.00284236  1
  Te  Te53  1  0.50097828  0.25708506  0.50412613  1
  Te  Te54  1  0.50096382  0.75370964  -0.00419949  1
  Te  Te55  1  0.49741542  0.74738107  0.50276477  1
  Te  Te56  1  0.00240612  -0.00185860  0.24746821  1
  Te  Te57  1  0.00296024  -0.00132260  0.75209182  1
  Te  Te58  1  0.00087430  0.50352820  0.25300279  1
  Te  Te59  1  0.00244091  0.50268316  0.74655371  1
  Te  Te60  1  0.49564710  0.00041076  0.24117993  1
  Te  Te61  1  0.49591631  -0.00195230  0.75133812  1
  Te  Te62  1  0.50027661  0.50010271  0.25773866  1
  Te  Te63  1  0.49785177  0.50262426  0.74713458  1
