# generated using pymatgen
data_AgSbTe2
_symmetry_space_group_name_H-M   'P 1'
_cell_length_a   12.21171321
_cell_length_b   12.21196327
_cell_length_c   12.20737755
_cell_angle_alpha   90.00114147
_cell_angle_beta   89.99775659
_cell_angle_gamma   90.00126321
_symmetry_Int_Tables_number   1
_chemical_formula_structural   AgSbTe2
_chemical_formula_sum   'Ag16 Sb16 Te32'
_cell_volume   1820.47392068
_cell_formula_units_Z   16
loop_
 _symmetry_equiv_pos_site_id
 _symmetry_equiv_pos_as_xyz
  1  'x, y, z'
loop_
 _atom_site_type_symbol
 _atom_site_label
 _atom_site_symmetry_multiplicity
 _atom_site_fract_x
 _atom_site_fract_y
 _atom_site_fract_z
 _atom_site_occupancy
  Ag  Ag0  1  -0.00011905  0.00029477  -0.00523967  1
  Ag  Ag1  1  0.49803974  0.50118141  -0.00558364  1
  Ag  Ag2  1  0.74970880  0.24829894  0.50764300  1
  Ag  Ag3  1  0.74972247  0.74999614  -0.00719149  1
  Ag  Ag4  1  -0.00008895  0.25017974  0.24953775  1
  Ag  Ag5  1  0.50181671  -0.00037098  0.50641119  1
  Ag  Ag6  1  0.25251597  0.50188156  0.75257206  1
  Ag  Ag7  1  0.24986298  -0.00160947  0.74998707  1
  Ag  Ag8  1  0.50318805  0.25024063  0.74877675  1
  Ag  Ag9  1  0.25045805  0.74778237  -0.00563229  1
  Ag  Ag10  1  0.24968446  0.50067291  0.24842304  1
  Ag  Ag11  1  0.74795132  0.49836032  0.75038484  1
  Ag  Ag12  1  0.74996834  0.00180239  0.74789535  1
  Ag  Ag13  1  -0.00333810  0.24769240  0.75025548  1
  Ag  Ag14  1  0.74822801  0.75226946  0.50704725  1
  Ag  Ag15  1  0.25136777  0.75034938  0.50560728  1
  Sb  Sb16  1  0.49991884  0.25201600  0.25205250  1
  Sb  Sb17  1  0.00014499  0.49869975  0.50262645  1
  Sb  Sb18  1  -0.00016965  0.75359158  0.75116443  1
  Sb  Sb19  1  -0.00183353  0.00198504  0.50647819  1
  Sb  Sb20  1  0.75176436  0.00117514  0.25153023  1
  Sb  Sb21  1  0.00196491  0.50003521  -0.00326793  1
  Sb  Sb22  1  0.25063694  0.24891459  0.50411152  1
  Sb  Sb23  1  0.24770496  0.00006544  0.24965598  1
  Sb  Sb24  1  0.49993203  0.50001273  0.50712639  1
  Sb  Sb25  1  0.49899664  0.74804802  0.25028242  1
  Sb  Sb26  1  0.24936351  0.25286065  -0.00343888  1
  Sb  Sb27  1  0.49995326  -0.00128069  -0.00798988  1
  Sb  Sb28  1  0.00173820  0.74968942  0.24838946  1
  Sb  Sb29  1  0.75120733  0.24976068  -0.00959606  1
  Sb  Sb30  1  0.50015716  0.74877473  0.74967541  1
  Sb  Sb31  1  0.75063813  0.49814266  0.24809592  1
  Te  Te32  1  0.24540808  0.25515637  0.25176975  1
  Te  Te33  1  0.24928241  0.25030332  0.74851878  1
  Te  Te34  1  0.24895459  0.74481295  0.25011897  1
  Te  Te35  1  0.24900254  0.74900863  0.75013842  1
  Te  Te36  1  0.75477124  0.25203893  0.25864680  1
  Te  Te37  1  0.75081110  0.25004778  0.74852536  1
  Te  Te38  1  0.75057005  0.74857602  0.25190017  1
  Te  Te39  1  0.75102663  0.74969506  0.74872615  1
  Te  Te40  1  0.24974879  -0.00628300  -0.00369058  1
  Te  Te41  1  0.25217255  -0.00483176  0.50394914  1
  Te  Te42  1  0.25109235  0.50399158  -0.00485196  1
  Te  Te43  1  0.25132104  0.50628579  0.50327802  1
  Te  Te44  1  0.75036590  -0.00558837  -0.00436862  1
  Te  Te45  1  0.74901325  -0.00267953  0.50355290  1
  Te  Te46  1  0.74777847  0.50567761  -0.00366523  1
  Te  Te47  1  0.74877002  0.50285773  0.50502751  1
  Te  Te48  1  -0.00085586  0.24438641  -0.00186856  1
  Te  Te49  1  -0.00527696  0.24916560  0.50224487  1
  Te  Te50  1  -0.00026791  0.75537765  0.00104238  1
  Te  Te51  1  -0.00121507  0.75054909  0.49864547  1
  Te  Te52  1  0.50068519  0.25441226  -0.00507706  1
  Te  Te53  1  0.50461946  0.24686723  0.50381487  1
  Te  Te54  1  0.49972526  0.74680835  0.00071694  1
  Te  Te55  1  0.50168046  0.75422703  0.49938698  1
  Te  Te56  1  0.00129781  0.00747564  0.24111803  1
  Te  Te57  1  0.00031364  0.00484617  0.75360013  1
  Te  Te58  1  0.00594186  0.49279438  0.24837188  1
  Te  Te59  1  0.00034391  0.49083049  0.75169700  1
  Te  Te60  1  0.49918220  0.00272701  0.25912909  1
  Te  Te61  1  0.50001784  0.00640045  0.74739596  1
  Te  Te62  1  0.49359409  0.49798424  0.24165029  1
  Te  Te63  1  0.49904042  0.49456596  0.75276603  1
