# generated using pymatgen
data_AgSbTe2
_symmetry_space_group_name_H-M   'P 1'
_cell_length_a   12.22322632
_cell_length_b   12.22050507
_cell_length_c   12.22738512
_cell_angle_alpha   89.99445116
_cell_angle_beta   89.99488675
_cell_angle_gamma   89.98556442
_symmetry_Int_Tables_number   1
_chemical_formula_structural   AgSbTe2
_chemical_formula_sum   'Ag16 Sb16 Te32'
_cell_volume   1826.45334068
_cell_formula_units_Z   16
loop_
 _symmetry_equiv_pos_site_id
 _symmetry_equiv_pos_as_xyz
  1  'x, y, z'
loop_
 _atom_site_type_symbol
 _atom_site_label
 _atom_site_symmetry_multiplicity
 _atom_site_fract_x
 _atom_site_fract_y
 _atom_site_fract_z
 _atom_site_occupancy
  Ag  Ag0  1  0.74845680  0.75868649  0.50623686  1
  Ag  Ag1  1  0.50044657  0.00527924  -0.00135382  1
  Ag  Ag2  1  0.49675379  0.24553074  0.26468040  1
  Ag  Ag3  1  0.73496683  0.24332472  0.50323266  1
  Ag  Ag4  1  0.00155600  0.50037210  -0.00478723  1
  Ag  Ag5  1  0.25154675  0.49496256  0.74904530  1
  Ag  Ag6  1  0.50361217  0.01438426  0.50166387  1
  Ag  Ag7  1  0.25486537  0.00600467  0.25283613  1
  Ag  Ag8  1  0.74676197  -0.00150329  0.74323370  1
  Ag  Ag9  1  0.25515132  0.24855709  -0.00197312  1
  Ag  Ag10  1  0.75043222  0.75351950  -0.00633432  1
  Ag  Ag11  1  0.26525967  0.24643275  0.50160662  1
  Ag  Ag12  1  -0.00411182  0.75173304  0.74931936  1
  Ag  Ag13  1  -0.00413866  0.00170755  0.50317133  1
  Ag  Ag14  1  0.49968001  0.48424824  0.50302706  1
  Ag  Ag15  1  0.49816001  0.24689965  0.73536064  1
  Sb  Sb16  1  0.25016119  0.75136404  -0.00350762  1
  Sb  Sb17  1  0.74624450  0.00173718  0.25707422  1
  Sb  Sb18  1  0.74592920  0.24683439  -0.00256759  1
  Sb  Sb19  1  0.25298795  0.00452422  0.74781361  1
  Sb  Sb20  1  0.74856845  0.50063676  0.74843130  1
  Sb  Sb21  1  -0.00128297  0.75259741  0.25182497  1
  Sb  Sb22  1  -0.00023775  0.00013372  -0.00229196  1
  Sb  Sb23  1  0.00137516  0.24859975  0.74794780  1
  Sb  Sb24  1  0.49943157  0.49613706  -0.00256059  1
  Sb  Sb25  1  0.50310492  0.75313569  0.74791525  1
  Sb  Sb26  1  0.25283801  0.49504292  0.25094237  1
  Sb  Sb27  1  -0.00000783  0.49900642  0.50304574  1
  Sb  Sb28  1  0.00295073  0.24760865  0.25214015  1
  Sb  Sb29  1  0.50025022  0.75440849  0.25198399  1
  Sb  Sb30  1  0.25191881  0.75277629  0.50286256  1
  Sb  Sb31  1  0.74819056  0.49824475  0.25093189  1
  Te  Te32  1  0.25293413  0.24645641  0.25107352  1
  Te  Te33  1  0.25194794  0.25251611  0.74928404  1
  Te  Te34  1  0.25027814  0.75852852  0.24939347  1
  Te  Te35  1  0.24343930  0.74222641  0.75019259  1
  Te  Te36  1  0.74334975  0.24988769  0.25532924  1
  Te  Te37  1  0.74656695  0.24624405  0.74630886  1
  Te  Te38  1  0.74988420  0.74962741  0.25038143  1
  Te  Te39  1  0.75260228  0.75227217  0.74812709  1
  Te  Te40  1  0.25244697  0.00361439  0.00007066  1
  Te  Te41  1  0.25264489  0.00271837  0.50089592  1
  Te  Te42  1  0.24882574  0.49703699  -0.00213474  1
  Te  Te43  1  0.25223293  0.49691010  0.50274081  1
  Te  Te44  1  0.74790778  -0.00223981  -0.00393537  1
  Te  Te45  1  0.74792872  0.00022723  0.50113875  1
  Te  Te46  1  0.75297028  0.50439887  0.00007850  1
  Te  Te47  1  0.74764130  0.49902843  0.50025688  1
  Te  Te48  1  0.00400940  0.25299222  0.00039757  1
  Te  Te49  1  -0.00008172  0.24671062  0.49998099  1
  Te  Te50  1  -0.00355979  0.74862220  -0.00348061  1
  Te  Te51  1  -0.00451534  0.75202738  0.50308965  1
  Te  Te52  1  0.49774377  0.24724934  -0.00171592  1
  Te  Te53  1  0.49888117  0.24843661  0.50265498  1
  Te  Te54  1  0.50515529  0.75426428  0.00037137  1
  Te  Te55  1  0.50480717  0.75171251  0.50029602  1
  Te  Te56  1  0.00766634  0.00021394  0.25632516  1
  Te  Te57  1  -0.00387536  -0.00325399  0.74569868  1
  Te  Te58  1  0.00065255  0.50022285  0.24112011  1
  Te  Te59  1  0.00348300  0.50301983  0.75320044  1
  Te  Te60  1  0.49674919  0.00331261  0.25062378  1
  Te  Te61  1  0.50240390  0.00250897  0.74888794  1
  Te  Te62  1  0.49912096  0.49327632  0.25612034  1
  Te  Te63  1  0.49593643  0.49630390  0.74627634  1
