# generated using pymatgen
data_AgSbTe2
_symmetry_space_group_name_H-M   'P 1'
_cell_length_a   12.21924999
_cell_length_b   12.24655176
_cell_length_c   12.24146177
_cell_angle_alpha   89.99576347
_cell_angle_beta   89.98734159
_cell_angle_gamma   89.99103902
_symmetry_Int_Tables_number   1
_chemical_formula_structural   AgSbTe2
_chemical_formula_sum   'Ag16 Sb16 Te32'
_cell_volume   1831.85728401
_cell_formula_units_Z   16
loop_
 _symmetry_equiv_pos_site_id
 _symmetry_equiv_pos_as_xyz
  1  'x, y, z'
loop_
 _atom_site_type_symbol
 _atom_site_label
 _atom_site_symmetry_multiplicity
 _atom_site_fract_x
 _atom_site_fract_y
 _atom_site_fract_z
 _atom_site_occupancy
  Ag  Ag0  1  -0.00742803  -0.00466319  0.50146499  1
  Ag  Ag1  1  0.51141992  0.75537121  0.75274834  1
  Ag  Ag2  1  -0.00410441  0.25305607  0.24835536  1
  Ag  Ag3  1  0.75764736  0.50172809  0.25068254  1
  Ag  Ag4  1  0.75808244  0.75112216  0.50588005  1
  Ag  Ag5  1  -0.00428421  0.50410933  0.00438571  1
  Ag  Ag6  1  -0.00546425  -0.00439075  -0.00156504  1
  Ag  Ag7  1  -0.00661290  0.74671552  0.24880327  1
  Ag  Ag8  1  -0.00692895  0.50402159  0.49499686  1
  Ag  Ag9  1  0.75771956  0.75347255  -0.00634193  1
  Ag  Ag10  1  0.75591006  0.24949799  0.50142338  1
  Ag  Ag11  1  -0.01051937  0.75384653  0.75121307  1
  Ag  Ag12  1  0.24544146  0.24814716  -0.00084321  1
  Ag  Ag13  1  0.50522824  0.24416914  0.75236299  1
  Ag  Ag14  1  0.50627099  -0.00109336  -0.00641670  1
  Ag  Ag15  1  0.75212019  -0.00638786  0.75213335  1
  Sb  Sb16  1  0.75310982  0.24784630  -0.00154888  1
  Sb  Sb17  1  0.24233941  0.75066892  -0.00124726  1
  Sb  Sb18  1  0.23992184  0.75014395  0.50183228  1
  Sb  Sb19  1  0.75293501  0.50549347  0.74973063  1
  Sb  Sb20  1  0.50828380  0.75097251  0.24874418  1
  Sb  Sb21  1  0.24701237  0.00049007  0.75149817  1
  Sb  Sb22  1  0.24044862  0.49875825  0.24764154  1
  Sb  Sb23  1  0.24515975  0.00063606  0.24798852  1
  Sb  Sb24  1  0.50794207  0.50124194  0.50166806  1
  Sb  Sb25  1  0.50923966  -0.00119752  0.50686743  1
  Sb  Sb26  1  0.24524359  0.24982702  0.50136168  1
  Sb  Sb27  1  -0.00493103  0.24659608  0.74999485  1
  Sb  Sb28  1  0.50452181  0.24907606  0.24920569  1
  Sb  Sb29  1  0.24648879  0.49910506  0.75143047  1
  Sb  Sb30  1  0.50407548  0.50079637  -0.00129068  1
  Sb  Sb31  1  0.75392608  -0.00110129  0.24844288  1
  Te  Te32  1  0.24466369  0.25044440  0.24572226  1
  Te  Te33  1  0.25923616  0.25006214  0.75378320  1
  Te  Te34  1  0.24252284  0.74949441  0.25073690  1
  Te  Te35  1  0.25352223  0.74951602  0.74960461  1
  Te  Te36  1  0.75447329  0.25339749  0.25454202  1
  Te  Te37  1  0.74661756  0.24475697  0.74666983  1
  Te  Te38  1  0.75438512  0.74791479  0.25056883  1
  Te  Te39  1  0.75180270  0.75181728  0.75073025  1
  Te  Te40  1  0.24716271  0.00385048  -0.00044069  1
  Te  Te41  1  0.23993452  0.00044690  0.49917557  1
  Te  Te42  1  0.24323473  0.49450634  0.00080561  1
  Te  Te43  1  0.24083639  0.49950263  0.49927412  1
  Te  Te44  1  0.75301010  -0.00196650  -0.00249784  1
  Te  Te45  1  0.75378305  -0.00112760  0.50268523  1
  Te  Te46  1  0.75503970  0.50339596  0.00290607  1
  Te  Te47  1  0.75437651  0.50059163  0.49888225  1
  Te  Te48  1  -0.00065638  0.24808009  0.00017537  1
  Te  Te49  1  -0.00329059  0.24974474  0.50029775  1
  Te  Te50  1  -0.00069765  0.75220143  -0.00129581  1
  Te  Te51  1  -0.00221219  0.75108235  0.50121138  1
  Te  Te52  1  0.49937141  0.24890759  -0.00243291  1
  Te  Te53  1  0.50367970  0.24942130  0.50279259  1
  Te  Te54  1  0.50246577  0.75189815  -0.00279316  1
  Te  Te55  1  0.50558216  0.75082312  0.50333767  1
  Te  Te56  1  -0.00068975  0.00032024  0.24777514  1
  Te  Te57  1  -0.00299774  -0.00219435  0.75216912  1
  Te  Te58  1  -0.00328255  0.50009125  0.24886399  1
  Te  Te59  1  -0.00008878  0.50499829  0.75181171  1
  Te  Te60  1  0.49773146  -0.00009957  0.24006517  1
  Te  Te61  1  0.50330199  -0.00203583  0.75294437  1
  Te  Te62  1  0.50788611  0.50030880  0.25048050  1
  Te  Te63  1  0.49908059  0.50177363  0.74984630  1
