# generated using pymatgen
data_AgSbTe2
_symmetry_space_group_name_H-M   'P 1'
_cell_length_a   12.32890907
_cell_length_b   12.32695967
_cell_length_c   12.28845001
_cell_angle_alpha   89.99581021
_cell_angle_beta   90.01262551
_cell_angle_gamma   89.99792913
_symmetry_Int_Tables_number   1
_chemical_formula_structural   AgSbTe2
_chemical_formula_sum   'Ag16 Sb16 Te32'
_cell_volume   1867.57357232
_cell_formula_units_Z   16
loop_
 _symmetry_equiv_pos_site_id
 _symmetry_equiv_pos_as_xyz
  1  'x, y, z'
loop_
 _atom_site_type_symbol
 _atom_site_label
 _atom_site_symmetry_multiplicity
 _atom_site_fract_x
 _atom_site_fract_y
 _atom_site_fract_z
 _atom_site_occupancy
  Ag  Ag0  1  0.50581291  0.24993721  0.26790635  1
  Ag  Ag1  1  -0.01152104  0.00983770  0.50196127  1
  Ag  Ag2  1  0.25430718  0.74656442  0.50058411  1
  Ag  Ag3  1  -0.01096839  0.24884598  0.74155429  1
  Ag  Ag4  1  0.74799802  0.49627961  0.26881969  1
  Ag  Ag5  1  -0.00543579  0.00529324  -0.01142618  1
  Ag  Ag6  1  0.74620294  0.74543020  0.50097971  1
  Ag  Ag7  1  0.75516407  0.01382457  0.73986598  1
  Ag  Ag8  1  0.50462939  0.74694244  0.26169327  1
  Ag  Ag9  1  0.51061432  0.24898737  0.73589520  1
  Ag  Ag10  1  -0.00839820  0.48974377  0.50723826  1
  Ag  Ag11  1  0.25497308  0.25400270  0.50524268  1
  Ag  Ag12  1  0.51062945  0.00922077  0.50267729  1
  Ag  Ag13  1  0.74678876  0.25209308  0.50900056  1
  Ag  Ag14  1  0.75330521  0.48729720  0.73781843  1
  Ag  Ag15  1  0.24704855  0.49153100  0.74001932  1
  Sb  Sb16  1  0.50183576  0.75229010  0.73854499  1
  Sb  Sb17  1  0.50448461  0.00129258  -0.00459073  1
  Sb  Sb18  1  0.74976533  0.25020961  -0.00711434  1
  Sb  Sb19  1  0.50909438  0.49129639  0.50061975  1
  Sb  Sb20  1  -0.00280052  0.49585952  -0.00884620  1
  Sb  Sb21  1  0.74922496  0.75025885  0.00060403  1
  Sb  Sb22  1  -0.00464896  0.25172159  0.26086635  1
  Sb  Sb23  1  0.50054905  0.49954381  -0.00171645  1
  Sb  Sb24  1  0.25082021  0.25081529  -0.00534246  1
  Sb  Sb25  1  0.25076405  0.00074381  0.25494875  1
  Sb  Sb26  1  0.24739961  0.00491967  0.74396063  1
  Sb  Sb27  1  0.74831290  0.00293857  0.25989360  1
  Sb  Sb28  1  -0.00219593  0.75026285  0.25715341  1
  Sb  Sb29  1  0.25186319  0.74896270  -0.00281946  1
  Sb  Sb30  1  -0.00123584  0.75183639  0.74660044  1
  Sb  Sb31  1  0.25146365  0.49807080  0.26432476  1
  Te  Te32  1  0.25706272  0.25092797  0.25633569  1
  Te  Te33  1  0.25250673  0.25163634  0.74754725  1
  Te  Te34  1  0.25539544  0.74967623  0.25669622  1
  Te  Te35  1  0.25149983  0.74030677  0.74475576  1
  Te  Te36  1  0.74796537  0.25137994  0.25494086  1
  Te  Te37  1  0.74969981  0.24966884  0.74897319  1
  Te  Te38  1  0.74834799  0.74874876  0.25407701  1
  Te  Te39  1  0.74859914  0.74488635  0.74641319  1
  Te  Te40  1  0.24004796  -0.00133500  -0.00003647  1
  Te  Te41  1  0.24976048  0.00117359  0.50034601  1
  Te  Te42  1  0.24882122  0.50160039  -0.01633780  1
  Te  Te43  1  0.24126216  0.49764500  0.50311658  1
  Te  Te44  1  0.75499168  -0.00110164  -0.01615042  1
  Te  Te45  1  0.74934071  0.00234667  0.50242662  1
  Te  Te46  1  0.75012623  0.50172702  -0.00428741  1
  Te  Te47  1  0.75092687  0.49988977  0.50027673  1
  Te  Te48  1  0.00125441  0.24504928  -0.01128001  1
  Te  Te49  1  -0.00225883  0.24969264  0.50231445  1
  Te  Te50  1  0.00132011  0.76040282  0.00319688  1
  Te  Te51  1  -0.00265308  0.75262797  0.50018010  1
  Te  Te52  1  0.49874920  0.24938997  0.00250809  1
  Te  Te53  1  0.50152537  0.24873642  0.50214222  1
  Te  Te54  1  0.49835679  0.75105246  0.01943434  1
  Te  Te55  1  0.50244132  0.75833025  0.50049731  1
  Te  Te56  1  -0.00033393  0.00135195  0.25851146  1
  Te  Te57  1  -0.00009134  -0.00098338  0.74012901  1
  Te  Te58  1  -0.00660381  0.49844573  0.25113723  1
  Te  Te59  1  -0.00749927  0.49968455  0.74702621  1
  Te  Te60  1  0.50048083  0.00773470  0.25108292  1
  Te  Te61  1  0.50119017  0.00233250  0.74702261  1
  Te  Te62  1  0.50435470  0.49507140  0.24942191  1
  Te  Te63  1  0.50756613  0.49504998  0.75066493  1
