# generated using pymatgen
data_AgSbTe2
_symmetry_space_group_name_H-M   'P 1'
_cell_length_a   12.21749948
_cell_length_b   12.21916287
_cell_length_c   12.22140868
_cell_angle_alpha   89.99993954
_cell_angle_beta   89.99375977
_cell_angle_gamma   89.99691279
_symmetry_Int_Tables_number   1
_chemical_formula_structural   AgSbTe2
_chemical_formula_sum   'Ag16 Sb16 Te32'
_cell_volume   1824.50495294
_cell_formula_units_Z   16
loop_
 _symmetry_equiv_pos_site_id
 _symmetry_equiv_pos_as_xyz
  1  'x, y, z'
loop_
 _atom_site_type_symbol
 _atom_site_label
 _atom_site_symmetry_multiplicity
 _atom_site_fract_x
 _atom_site_fract_y
 _atom_site_fract_z
 _atom_site_occupancy
  Ag  Ag0  1  0.74528587  0.00777084  0.75272697  1
  Ag  Ag1  1  0.50270229  0.74669555  0.24940364  1
  Ag  Ag2  1  0.74640181  0.49629879  0.24377784  1
  Ag  Ag3  1  0.74468395  0.25127115  0.50379231  1
  Ag  Ag4  1  -0.00822871  0.25070421  0.75605526  1
  Ag  Ag5  1  0.50527795  0.00671600  -0.00196623  1
  Ag  Ag6  1  -0.00779726  0.49211759  0.00171489  1
  Ag  Ag7  1  0.25273145  0.25164252  -0.00067411  1
  Ag  Ag8  1  0.50737050  0.24815041  0.75483584  1
  Ag  Ag9  1  0.74746637  0.25434686  -0.00343141  1
  Ag  Ag10  1  0.50395028  0.49760236  0.49785000  1
  Ag  Ag11  1  0.74488936  0.74556274  0.00120646  1
  Ag  Ag12  1  0.50824190  0.49394035  0.00227995  1
  Ag  Ag13  1  0.50318073  0.00278495  0.50186022  1
  Ag  Ag14  1  0.25591615  0.74939646  0.49857029  1
  Ag  Ag15  1  -0.00541786  0.25335276  0.24327421  1
  Sb  Sb16  1  -0.00395694  0.00284331  0.50242626  1
  Sb  Sb17  1  0.74463565  0.74843335  0.49853821  1
  Sb  Sb18  1  -0.00331211  0.74676755  0.24683043  1
  Sb  Sb19  1  0.25669878  0.25007836  0.49952334  1
  Sb  Sb20  1  0.25537282  0.74898963  0.00136977  1
  Sb  Sb21  1  0.74667402  0.00370630  0.24766394  1
  Sb  Sb22  1  0.74868135  0.49080626  0.75815281  1
  Sb  Sb23  1  -0.00469087  0.74856614  0.75312096  1
  Sb  Sb24  1  0.25169469  0.49770792  0.75049814  1
  Sb  Sb25  1  0.25531839  0.00337034  0.75085918  1
  Sb  Sb26  1  0.50535142  0.25362894  0.24362292  1
  Sb  Sb27  1  -0.00490095  0.49626281  0.49842579  1
  Sb  Sb28  1  -0.00581234  0.00948342  -0.00233451  1
  Sb  Sb29  1  0.25449022  0.49874557  0.24919707  1
  Sb  Sb30  1  0.50332490  0.75124015  0.75085385  1
  Sb  Sb31  1  0.25342160  0.00175624  0.24959966  1
  Te  Te32  1  0.24100026  0.25052992  0.24496551  1
  Te  Te33  1  0.25119348  0.24894801  0.75475379  1
  Te  Te34  1  0.25477115  0.75018164  0.25382851  1
  Te  Te35  1  0.24775519  0.75130657  0.74356235  1
  Te  Te36  1  0.75175306  0.25327597  0.24925406  1
  Te  Te37  1  0.74730846  0.24883487  0.75082611  1
  Te  Te38  1  0.74629463  0.74541703  0.24586903  1
  Te  Te39  1  0.75127174  0.76009546  0.75574054  1
  Te  Te40  1  0.25839120  0.00324461  -0.00030027  1
  Te  Te41  1  0.25801593  -0.00224574  0.49990916  1
  Te  Te42  1  0.25207388  0.49634393  0.00043160  1
  Te  Te43  1  0.25738117  0.50273104  0.49980935  1
  Te  Te44  1  0.74588037  0.00207475  -0.00151229  1
  Te  Te45  1  0.74494679  0.00329246  0.50255021  1
  Te  Te46  1  0.74705429  0.49739603  0.00021784  1
  Te  Te47  1  0.74519134  0.49722210  0.49434156  1
  Te  Te48  1  -0.00279710  0.25135735  -0.00163786  1
  Te  Te49  1  -0.00339028  0.25066497  0.50250177  1
  Te  Te50  1  -0.00253637  0.74277174  0.00051341  1
  Te  Te51  1  0.00717274  0.75001424  0.49982772  1
  Te  Te52  1  0.50286969  0.25131050  0.00242207  1
  Te  Te53  1  0.50125108  0.25015992  0.50036599  1
  Te  Te54  1  0.50124886  0.74790886  0.00102482  1
  Te  Te55  1  0.49952152  0.74906446  0.49918532  1
  Te  Te56  1  -0.00016116  0.00655384  0.25029927  1
  Te  Te57  1  -0.00701962  0.00671162  0.74990004  1
  Te  Te58  1  -0.00583871  0.49594159  0.24670180  1
  Te  Te59  1  0.00043730  0.49364566  0.75482085  1
  Te  Te60  1  0.50161035  -0.00622798  0.25043910  1
  Te  Te61  1  0.50362887  0.00358297  0.75066435  1
  Te  Te62  1  0.50375709  0.50255553  0.24877189  1
  Te  Te63  1  0.50031740  0.49459628  0.75032848  1
