# generated using pymatgen
data_AgSbTe2
_symmetry_space_group_name_H-M   'P 1'
_cell_length_a   12.23429010
_cell_length_b   12.23080873
_cell_length_c   12.22593249
_cell_angle_alpha   89.99769676
_cell_angle_beta   90.01200399
_cell_angle_gamma   89.99820494
_symmetry_Int_Tables_number   1
_chemical_formula_structural   AgSbTe2
_chemical_formula_sum   'Ag16 Sb16 Te32'
_cell_volume   1829.43057080
_cell_formula_units_Z   16
loop_
 _symmetry_equiv_pos_site_id
 _symmetry_equiv_pos_as_xyz
  1  'x, y, z'
loop_
 _atom_site_type_symbol
 _atom_site_label
 _atom_site_symmetry_multiplicity
 _atom_site_fract_x
 _atom_site_fract_y
 _atom_site_fract_z
 _atom_site_occupancy
  Ag  Ag0  1  0.74833468  0.75574396  -0.00510012  1
  Ag  Ag1  1  0.49894518  0.76304270  0.74357952  1
  Ag  Ag2  1  0.00069716  -0.00456591  -0.00218053  1
  Ag  Ag3  1  0.49350767  0.50648103  0.50602223  1
  Ag  Ag4  1  0.25423485  0.50302199  0.74279755  1
  Ag  Ag5  1  0.25375379  0.24745115  0.50439826  1
  Ag  Ag6  1  0.26391782  -0.00230803  0.74376731  1
  Ag  Ag7  1  0.74537462  0.75289965  0.50392860  1
  Ag  Ag8  1  0.49364732  -0.00566354  0.51340116  1
  Ag  Ag9  1  0.00203147  0.75279309  0.25357064  1
  Ag  Ag10  1  0.00654150  0.50537691  0.50165143  1
  Ag  Ag11  1  0.49612945  0.23596664  0.74622021  1
  Ag  Ag12  1  0.25112081  -0.00318219  0.25614042  1
  Ag  Ag13  1  0.25482167  0.75239910  0.50424517  1
  Ag  Ag14  1  0.49963660  -0.00350317  -0.01477680  1
  Ag  Ag15  1  0.73594268  -0.00533642  0.74950237  1
  Sb  Sb16  1  0.49910479  0.50527623  -0.00803135  1
  Sb  Sb17  1  0.49677236  0.75317478  0.25771344  1
  Sb  Sb18  1  0.00119606  0.50712766  -0.00213139  1
  Sb  Sb19  1  0.74941765  -0.00381181  0.25109007  1
  Sb  Sb20  1  0.00198513  0.75206709  0.74714255  1
  Sb  Sb21  1  0.74559516  0.50703864  0.74659174  1
  Sb  Sb22  1  0.00713931  -0.00593285  0.50140594  1
  Sb  Sb23  1  0.74727754  0.24167054  -0.00509970  1
  Sb  Sb24  1  0.00450313  0.24598153  0.25333653  1
  Sb  Sb25  1  0.75031404  0.50517375  0.25320563  1
  Sb  Sb26  1  0.49600297  0.24593956  0.25530453  1
  Sb  Sb27  1  0.25222626  0.24504409  -0.00569511  1
  Sb  Sb28  1  0.74612810  0.24553139  0.50414606  1
  Sb  Sb29  1  0.25216893  0.75437020  -0.00442198  1
  Sb  Sb30  1  0.00509059  0.24722333  0.74713397  1
  Sb  Sb31  1  0.24893299  0.50466115  0.26066195  1
  Te  Te32  1  0.24997598  0.24237380  0.25852047  1
  Te  Te33  1  0.25376259  0.24709981  0.74542570  1
  Te  Te34  1  0.24658564  0.75463207  0.25451144  1
  Te  Te35  1  0.25138058  0.75249612  0.74713501  1
  Te  Te36  1  0.75076040  0.25101088  0.24923304  1
  Te  Te37  1  0.74221545  0.24168242  0.74958761  1
  Te  Te38  1  0.75568889  0.75065992  0.25300850  1
  Te  Te39  1  0.74832284  0.75349829  0.74755468  1
  Te  Te40  1  0.25149667  -0.00059833  -0.00244407  1
  Te  Te41  1  0.24914029  -0.00289369  0.50301754  1
  Te  Te42  1  0.24971335  0.49888933  -0.00859328  1
  Te  Te43  1  0.25189892  0.50294446  0.50201739  1
  Te  Te44  1  0.74819596  -0.00462300  -0.00091914  1
  Te  Te45  1  0.74718142  -0.00405454  0.50190110  1
  Te  Te46  1  0.75068457  0.50970589  0.00000291  1
  Te  Te47  1  0.74906193  0.50622152  0.50153957  1
  Te  Te48  1  -0.00057212  0.24265985  0.00084986  1
  Te  Te49  1  0.00477476  0.25921816  0.49943773  1
  Te  Te50  1  -0.00318967  0.75330684  0.00368409  1
  Te  Te51  1  0.00026983  0.74795500  0.49818554  1
  Te  Te52  1  0.50072182  0.24470843  -0.00671201  1
  Te  Te53  1  0.49743789  0.24818513  0.50359861  1
  Te  Te54  1  0.50281823  0.75305127  -0.00398813  1
  Te  Te55  1  0.49890502  0.75181648  0.50075649  1
  Te  Te56  1  0.00407704  -0.00399326  0.24645644  1
  Te  Te57  1  0.00059313  0.00037014  0.75421478  1
  Te  Te58  1  0.00080562  0.50594480  0.25369789  1
  Te  Te59  1  0.00625953  0.49894865  0.74614086  1
  Te  Te60  1  0.49449802  -0.00022343  0.24979699  1
  Te  Te61  1  0.49869669  -0.00327976  0.74892368  1
  Te  Te62  1  0.49896800  0.49856179  0.25763370  1
  Te  Te63  1  0.49637843  0.50257272  0.74630467  1
