# generated using pymatgen
data_AgSbTe2
_symmetry_space_group_name_H-M   'P 1'
_cell_length_a   12.20902965
_cell_length_b   12.21027064
_cell_length_c   12.20679491
_cell_angle_alpha   89.99619020
_cell_angle_beta   90.00529872
_cell_angle_gamma   89.99952320
_symmetry_Int_Tables_number   1
_chemical_formula_structural   AgSbTe2
_chemical_formula_sum   'Ag16 Sb16 Te32'
_cell_volume   1819.73472912
_cell_formula_units_Z   16
loop_
 _symmetry_equiv_pos_site_id
 _symmetry_equiv_pos_as_xyz
  1  'x, y, z'
loop_
 _atom_site_type_symbol
 _atom_site_label
 _atom_site_symmetry_multiplicity
 _atom_site_fract_x
 _atom_site_fract_y
 _atom_site_fract_z
 _atom_site_occupancy
  Ag  Ag0  1  -0.00449377  0.50270878  0.49651804  1
  Ag  Ag1  1  0.75239131  0.50211892  0.25046309  1
  Ag  Ag2  1  0.24659180  -0.00159924  0.24900417  1
  Ag  Ag3  1  0.75065814  0.75313933  0.00267211  1
  Ag  Ag4  1  0.75044179  0.24647233  -0.00203912  1
  Ag  Ag5  1  -0.00367927  0.75007337  0.25192135  1
  Ag  Ag6  1  -0.00345627  0.24940012  0.24743857  1
  Ag  Ag7  1  0.24765134  0.74929749  0.49633065  1
  Ag  Ag8  1  0.75264246  0.74643069  0.49649088  1
  Ag  Ag9  1  0.50601603  0.24973597  0.75392733  1
  Ag  Ag10  1  0.50794031  0.00216079  -0.00075510  1
  Ag  Ag11  1  -0.00589880  0.24852430  0.75275292  1
  Ag  Ag12  1  0.50638538  0.49797559  0.00052381  1
  Ag  Ag13  1  0.75069424  0.00334957  0.75605842  1
  Ag  Ag14  1  -0.00658120  0.00234823  0.00224667  1
  Ag  Ag15  1  0.50436571  0.50106968  0.49912848  1
  Sb  Sb16  1  0.24976560  0.49955828  0.74888126  1
  Sb  Sb17  1  0.50483823  0.25031550  0.24574110  1
  Sb  Sb18  1  0.24787994  0.75178050  0.00419726  1
  Sb  Sb19  1  -0.00203532  -0.00265229  0.49745152  1
  Sb  Sb20  1  0.75140635  0.25363658  0.50110117  1
  Sb  Sb21  1  0.75398120  -0.00209389  0.24234256  1
  Sb  Sb22  1  0.24927274  0.25000526  0.49783010  1
  Sb  Sb23  1  0.74964519  0.49605966  0.74960608  1
  Sb  Sb24  1  0.24895960  0.00055199  0.75079930  1
  Sb  Sb25  1  0.24921609  0.24920501  0.00173629  1
  Sb  Sb26  1  0.50327467  -0.00017779  0.50065528  1
  Sb  Sb27  1  0.50346749  0.75054603  0.75074790  1
  Sb  Sb28  1  0.24713216  0.50196064  0.25181575  1
  Sb  Sb29  1  -0.00384745  0.75106565  0.74865160  1
  Sb  Sb30  1  0.50485696  0.74969680  0.24984464  1
  Sb  Sb31  1  -0.00775057  0.49801944  0.00351507  1
  Te  Te32  1  0.24063112  0.24453383  0.25048725  1
  Te  Te33  1  0.24853501  0.24899971  0.74960111  1
  Te  Te34  1  0.24302254  0.75285862  0.25415978  1
  Te  Te35  1  0.24913384  0.75091491  0.74058428  1
  Te  Te36  1  0.75530187  0.25313033  0.24666119  1
  Te  Te37  1  0.75096365  0.24674448  0.75252448  1
  Te  Te38  1  0.75394982  0.74821402  0.24960538  1
  Te  Te39  1  0.75079903  0.75635733  0.75163356  1
  Te  Te40  1  0.24943367  -0.00208665  0.00382597  1
  Te  Te41  1  0.25086842  -0.00649073  0.49499761  1
  Te  Te42  1  0.26244240  0.50237488  0.00069399  1
  Te  Te43  1  0.25118786  0.50581292  0.49897105  1
  Te  Te44  1  0.75009624  -0.00014732  0.00003115  1
  Te  Te45  1  0.74846513  -0.00746990  0.50663013  1
  Te  Te46  1  0.74678600  0.50080308  0.00169201  1
  Te  Te47  1  0.74999968  0.50343183  0.49846329  1
  Te  Te48  1  -0.00285097  0.24928282  0.00017430  1
  Te  Te49  1  -0.00043323  0.25466061  0.49954639  1
  Te  Te50  1  -0.00370532  0.75153962  0.00277081  1
  Te  Te51  1  -0.00338222  0.74701014  0.49805588  1
  Te  Te52  1  0.50315944  0.24966062  -0.00219357  1
  Te  Te53  1  0.49980238  0.25597756  0.50525731  1
  Te  Te54  1  0.50483990  0.75002815  -0.00016946  1
  Te  Te55  1  0.50255876  0.74442750  0.50001968  1
  Te  Te56  1  0.00075713  0.00035074  0.24707722  1
  Te  Te57  1  -0.00209940  0.00524349  0.75463330  1
  Te  Te58  1  -0.00314377  0.50038405  0.25220082  1
  Te  Te59  1  0.00007395  0.49310710  0.74462739  1
  Te  Te60  1  0.49451303  0.00106861  0.24456282  1
  Te  Te61  1  0.50216345  0.00518857  0.75450839  1
  Te  Te62  1  0.50427985  0.49918432  0.25069345  1
  Te  Te63  1  0.50011868  0.49422147  0.75007387  1
