# generated using pymatgen
data_AgSbTe2
_symmetry_space_group_name_H-M   'P 1'
_cell_length_a   12.21142619
_cell_length_b   12.21313048
_cell_length_c   12.22008273
_cell_angle_alpha   89.99770169
_cell_angle_beta   89.99780458
_cell_angle_gamma   90.00495852
_symmetry_Int_Tables_number   1
_chemical_formula_structural   AgSbTe2
_chemical_formula_sum   'Ag16 Sb16 Te32'
_cell_volume   1822.49996902
_cell_formula_units_Z   16
loop_
 _symmetry_equiv_pos_site_id
 _symmetry_equiv_pos_as_xyz
  1  'x, y, z'
loop_
 _atom_site_type_symbol
 _atom_site_label
 _atom_site_symmetry_multiplicity
 _atom_site_fract_x
 _atom_site_fract_y
 _atom_site_fract_z
 _atom_site_occupancy
  Ag  Ag0  1  0.75311182  0.50340507  0.74958337  1
  Ag  Ag1  1  0.49724990  0.49833680  0.00060181  1
  Ag  Ag2  1  0.24480660  0.00089995  0.74696182  1
  Ag  Ag3  1  0.24578224  0.49685925  0.24839134  1
  Ag  Ag4  1  0.00203487  0.00057919  0.00366373  1
  Ag  Ag5  1  0.75782344  -0.00227277  0.25383453  1
  Ag  Ag6  1  0.49852651  0.00007136  0.49878742  1
  Ag  Ag7  1  -0.00297987  0.75321895  0.25269517  1
  Ag  Ag8  1  0.75496926  0.50266781  0.25074534  1
  Ag  Ag9  1  0.24714480  0.49825944  0.75164718  1
  Ag  Ag10  1  0.00309606  0.24800284  0.25097117  1
  Ag  Ag11  1  0.75502576  0.75135375  0.49713368  1
  Ag  Ag12  1  0.00084181  -0.00211812  0.49589702  1
  Ag  Ag13  1  0.00023494  0.75113736  0.74753734  1
  Ag  Ag14  1  0.24679469  0.25280314  0.00107855  1
  Ag  Ag15  1  0.24668552  0.24760863  0.49911582  1
  Sb  Sb16  1  0.24479457  0.75252342  0.49949636  1
  Sb  Sb17  1  0.49665553  0.00239591  0.00081788  1
  Sb  Sb18  1  0.49556166  0.24988340  0.25074921  1
  Sb  Sb19  1  0.75554534  -0.00386871  0.74651177  1
  Sb  Sb20  1  0.50264869  0.75062404  0.25241898  1
  Sb  Sb21  1  0.49715336  0.25018697  0.74952865  1
  Sb  Sb22  1  0.00287587  0.49799123  0.00213186  1
  Sb  Sb23  1  0.00402738  0.24870592  0.74833044  1
  Sb  Sb24  1  0.75444853  0.25092945  0.00222022  1
  Sb  Sb25  1  0.50041167  0.74949403  0.74770945  1
  Sb  Sb26  1  0.49885653  0.49965637  0.49941707  1
  Sb  Sb27  1  0.24118541  0.00318285  0.25205816  1
  Sb  Sb28  1  0.75387686  0.74922058  0.00328927  1
  Sb  Sb29  1  0.00045443  0.50272596  0.49848867  1
  Sb  Sb30  1  0.75397371  0.24862132  0.49703820  1
  Sb  Sb31  1  0.24683398  0.74754118  0.00019878  1
  Te  Te32  1  0.24567313  0.25328931  0.25043855  1
  Te  Te33  1  0.24813856  0.25275953  0.74932858  1
  Te  Te34  1  0.24290965  0.74207503  0.25176065  1
  Te  Te35  1  0.24374035  0.74814586  0.74907974  1
  Te  Te36  1  0.75706921  0.25278523  0.25092303  1
  Te  Te37  1  0.75121301  0.26027732  0.74977335  1
  Te  Te38  1  0.75425031  0.74774034  0.25256878  1
  Te  Te39  1  0.75589562  0.74548803  0.74575045  1
  Te  Te40  1  0.24990206  0.00418808  -0.00330307  1
  Te  Te41  1  0.24774414  0.00193478  0.50190875  1
  Te  Te42  1  0.25063996  0.49690925  -0.00127444  1
  Te  Te43  1  0.25135449  0.49589735  0.50170245  1
  Te  Te44  1  0.75167788  0.00143238  0.00353372  1
  Te  Te45  1  0.75275741  -0.00114570  0.49863352  1
  Te  Te46  1  0.74667221  0.49837114  0.00150693  1
  Te  Te47  1  0.74881649  0.50206380  0.49785946  1
  Te  Te48  1  0.00521399  0.24458980  0.00488801  1
  Te  Te49  1  0.00490842  0.24390209  0.49540959  1
  Te  Te50  1  0.00012594  0.75794826  0.00027084  1
  Te  Te51  1  -0.00353094  0.75327295  0.49899793  1
  Te  Te52  1  0.49111977  0.25469006  0.00002566  1
  Te  Te53  1  0.49211522  0.24284615  0.49959368  1
  Te  Te54  1  0.49970294  0.74281589  0.00003152  1
  Te  Te55  1  0.50827121  0.75699791  0.49999473  1
  Te  Te56  1  -0.00058125  -0.00165638  0.25101633  1
  Te  Te57  1  0.00185424  -0.00215812  0.74944161  1
  Te  Te58  1  -0.00132571  0.50049007  0.24909856  1
  Te  Te59  1  0.00157738  0.50380681  0.75085532  1
  Te  Te60  1  0.50808363  -0.00063600  0.25313037  1
  Te  Te61  1  0.49484422  -0.00063350  0.74751854  1
  Te  Te62  1  0.50081308  0.49999333  0.24750794  1
  Te  Te63  1  0.49790154  0.50089239  0.75297869  1
