# generated using pymatgen
data_AgSbTe2
_symmetry_space_group_name_H-M   'P 1'
_cell_length_a   12.33855895
_cell_length_b   12.29548333
_cell_length_c   12.32979217
_cell_angle_alpha   89.97730016
_cell_angle_beta   89.99750380
_cell_angle_gamma   90.01637302
_symmetry_Int_Tables_number   1
_chemical_formula_structural   AgSbTe2
_chemical_formula_sum   'Ag16 Sb16 Te32'
_cell_volume   1870.53461626
_cell_formula_units_Z   16
loop_
 _symmetry_equiv_pos_site_id
 _symmetry_equiv_pos_as_xyz
  1  'x, y, z'
loop_
 _atom_site_type_symbol
 _atom_site_label
 _atom_site_symmetry_multiplicity
 _atom_site_fract_x
 _atom_site_fract_y
 _atom_site_fract_z
 _atom_site_occupancy
  Ag  Ag0  1  0.49717177  -0.00025132  0.51571262  1
  Ag  Ag1  1  0.00507645  0.23816509  0.25477349  1
  Ag  Ag2  1  0.24866135  0.50291943  0.24960870  1
  Ag  Ag3  1  0.24520693  0.24126357  0.50927553  1
  Ag  Ag4  1  0.76815903  -0.00513461  0.75049327  1
  Ag  Ag5  1  0.00464418  0.00369482  0.51355389  1
  Ag  Ag6  1  0.00452915  0.76486983  0.75716816  1
  Ag  Ag7  1  0.75199937  0.75862994  -0.00588061  1
  Ag  Ag8  1  0.00680831  0.23602511  0.74615884  1
  Ag  Ag9  1  0.49226317  0.22828232  0.74339176  1
  Ag  Ag10  1  0.75640714  -0.00449817  0.24830506  1
  Ag  Ag11  1  0.49735143  0.76187267  0.75225650  1
  Ag  Ag12  1  0.23213732  -0.00185023  0.74669623  1
  Ag  Ag13  1  -0.00106374  -0.00455393  -0.01826269  1
  Ag  Ag14  1  0.49770145  0.76007641  0.24551299  1
  Ag  Ag15  1  0.24976170  0.75653651  -0.00793687  1
  Sb  Sb16  1  0.49801444  0.50577481  -0.00035574  1
  Sb  Sb17  1  -0.00047537  0.75745326  0.25070423  1
  Sb  Sb18  1  0.25051449  0.75316021  0.50197298  1
  Sb  Sb19  1  0.50116717  0.24189598  0.25407701  1
  Sb  Sb20  1  0.49926573  -0.00187832  -0.00806397  1
  Sb  Sb21  1  0.75021940  0.50201324  0.75209127  1
  Sb  Sb22  1  0.74899636  0.75694661  0.50199820  1
  Sb  Sb23  1  0.24806646  -0.00183356  0.25059704  1
  Sb  Sb24  1  0.49583586  0.50041686  0.50106572  1
  Sb  Sb25  1  0.75373707  0.24289628  -0.00327801  1
  Sb  Sb26  1  0.75044606  0.50245213  0.24577505  1
  Sb  Sb27  1  0.00391102  0.49788436  0.50061741  1
  Sb  Sb28  1  0.24764174  0.24529499  -0.00241933  1
  Sb  Sb29  1  0.25012280  0.50141467  0.75157815  1
  Sb  Sb30  1  0.00219044  0.50177182  0.00011784  1
  Sb  Sb31  1  0.75178074  0.24254458  0.50196409  1
  Te  Te32  1  0.24907814  0.25111791  0.24421829  1
  Te  Te33  1  0.24963711  0.25065144  0.75050451  1
  Te  Te34  1  0.25131039  0.74796120  0.25424276  1
  Te  Te35  1  0.25141163  0.74955595  0.74814286  1
  Te  Te36  1  0.75104135  0.24669236  0.24836830  1
  Te  Te37  1  0.75140771  0.24893195  0.75169226  1
  Te  Te38  1  0.74938347  0.75543332  0.24922936  1
  Te  Te39  1  0.74673569  0.75224203  0.75009040  1
  Te  Te40  1  0.24673345  -0.00446825  -0.00561007  1
  Te  Te41  1  0.24922697  0.00287893  0.50293433  1
  Te  Te42  1  0.24982218  0.51198271  0.00589319  1
  Te  Te43  1  0.24997110  0.48687095  0.49370301  1
  Te  Te44  1  0.75033563  -0.00203554  -0.00088981  1
  Te  Te45  1  0.74930714  0.00091388  0.50276505  1
  Te  Te46  1  0.74918410  0.51871510  -0.00047539  1
  Te  Te47  1  0.74937137  0.49915223  0.50022833  1
  Te  Te48  1  -0.00199488  0.24676972  -0.00457684  1
  Te  Te49  1  0.00178348  0.24840737  0.50252062  1
  Te  Te50  1  0.00390115  0.75243705  0.00016742  1
  Te  Te51  1  0.00010655  0.75390151  0.50526373  1
  Te  Te52  1  0.50172506  0.25271436  -0.01028060  1
  Te  Te53  1  0.49799767  0.24785602  0.50386634  1
  Te  Te54  1  0.49381212  0.75042006  -0.00036681  1
  Te  Te55  1  0.49929523  0.75224010  0.50304150  1
  Te  Te56  1  -0.00170045  0.00401453  0.25555087  1
  Te  Te57  1  0.00130577  -0.00167343  0.74927928  1
  Te  Te58  1  0.00298490  0.48729941  0.25035442  1
  Te  Te59  1  -0.00166717  0.49603961  0.74954252  1
  Te  Te60  1  0.50206898  -0.00473665  0.25295442  1
  Te  Te61  1  0.49823148  -0.00054292  0.74921615  1
  Te  Te62  1  0.49873261  0.50761580  0.24999163  1
  Te  Te63  1  0.50121063  0.50638590  0.74916916  1
