# generated using pymatgen
data_AgSbTe2
_symmetry_space_group_name_H-M   'P 1'
_cell_length_a   12.32859696
_cell_length_b   12.32294503
_cell_length_c   12.29442988
_cell_angle_alpha   90.02816678
_cell_angle_beta   89.99716868
_cell_angle_gamma   89.99784259
_symmetry_Int_Tables_number   1
_chemical_formula_structural   AgSbTe2
_chemical_formula_sum   'Ag16 Sb16 Te32'
_cell_volume   1867.82638985
_cell_formula_units_Z   16
loop_
 _symmetry_equiv_pos_site_id
 _symmetry_equiv_pos_as_xyz
  1  'x, y, z'
loop_
 _atom_site_type_symbol
 _atom_site_label
 _atom_site_symmetry_multiplicity
 _atom_site_fract_x
 _atom_site_fract_y
 _atom_site_fract_z
 _atom_site_occupancy
  Ag  Ag0  1  0.75032837  0.23596132  0.51878519  1
  Ag  Ag1  1  -0.01995910  0.24557711  0.75490597  1
  Ag  Ag2  1  0.51083683  0.76009437  0.75095861  1
  Ag  Ag3  1  0.74775576  0.48057637  0.75666303  1
  Ag  Ag4  1  -0.01350359  0.49611068  -0.00588410  1
  Ag  Ag5  1  0.25580098  0.00624277  0.74992992  1
  Ag  Ag6  1  0.74904087  0.74280536  -0.01715946  1
  Ag  Ag7  1  0.51451072  0.00088184  0.51104858  1
  Ag  Ag8  1  0.74898534  0.76262792  0.51802542  1
  Ag  Ag9  1  0.74547866  0.01731134  0.74260424  1
  Ag  Ag10  1  0.75058798  0.25974867  -0.01647167  1
  Ag  Ag11  1  -0.01417830  0.00090667  0.50889341  1
  Ag  Ag12  1  0.51454180  0.49612526  -0.00897296  1
  Ag  Ag13  1  0.24987307  0.25103897  -0.01031175  1
  Ag  Ag14  1  0.51745622  0.24212805  0.75335348  1
  Ag  Ag15  1  -0.00673491  0.75141014  0.24769948  1
  Sb  Sb16  1  -0.00123858  0.24913855  0.24872679  1
  Sb  Sb17  1  -0.00463049  0.00208759  -0.00581307  1
  Sb  Sb18  1  0.24862944  0.00076050  0.24702174  1
  Sb  Sb19  1  -0.00706902  0.49942511  0.50612108  1
  Sb  Sb20  1  -0.01047299  0.75315074  0.75029160  1
  Sb  Sb21  1  0.74995603  -0.00002210  0.25556826  1
  Sb  Sb22  1  0.25068845  0.49668374  0.75238292  1
  Sb  Sb23  1  0.74992296  0.50042081  0.24146631  1
  Sb  Sb24  1  0.24986398  0.75059242  -0.00587857  1
  Sb  Sb25  1  0.50179069  0.24905105  0.24737582  1
  Sb  Sb26  1  0.50434488  0.75105723  0.24880673  1
  Sb  Sb27  1  0.50438057  0.00166667  -0.00728796  1
  Sb  Sb28  1  0.24864304  0.50015864  0.24328037  1
  Sb  Sb29  1  0.24943443  0.75486357  0.50622257  1
  Sb  Sb30  1  0.25055500  0.24452993  0.51065474  1
  Sb  Sb31  1  0.50809905  0.50015271  0.50943046  1
  Te  Te32  1  0.25123170  0.25018780  0.23288298  1
  Te  Te33  1  0.25239746  0.24657183  0.75382189  1
  Te  Te34  1  0.23989819  0.75068580  0.24985685  1
  Te  Te35  1  0.26767484  0.75832019  0.74969766  1
  Te  Te36  1  0.74764805  0.25020265  0.25015333  1
  Te  Te37  1  0.75069736  0.25094023  0.74883618  1
  Te  Te38  1  0.75449691  0.75010480  0.24790191  1
  Te  Te39  1  0.74733779  0.75191480  0.75152599  1
  Te  Te40  1  0.24997740  0.00464817  -0.00521351  1
  Te  Te41  1  0.24796043  0.00008322  0.50651242  1
  Te  Te42  1  0.24673998  0.49599237  0.00017529  1
  Te  Te43  1  0.25019231  0.49933411  0.49546762  1
  Te  Te44  1  0.74907222  -0.00325181  -0.00403066  1
  Te  Te45  1  0.75152460  -0.00070684  0.50175685  1
  Te  Te46  1  0.75148464  0.50128937  -0.00508736  1
  Te  Te47  1  0.74954026  0.50038318  0.50988487  1
  Te  Te48  1  -0.01056909  0.24743643  -0.00060946  1
  Te  Te49  1  -0.00121764  0.25106709  0.49935182  1
  Te  Te50  1  -0.00151249  0.75109514  -0.00261795  1
  Te  Te51  1  -0.00334355  0.74822621  0.50324405  1
  Te  Te52  1  0.51011567  0.24671631  -0.00107065  1
  Te  Te53  1  0.50129783  0.25214358  0.50016126  1
  Te  Te54  1  0.50171579  0.75206754  0.00087437  1
  Te  Te55  1  0.50346573  0.74623033  0.49880335  1
  Te  Te56  1  0.00138469  -0.00204886  0.26358114  1
  Te  Te57  1  -0.00542202  0.00209999  0.74769581  1
  Te  Te58  1  -0.00019621  0.50236130  0.24115671  1
  Te  Te59  1  0.00201628  0.49524549  0.75401852  1
  Te  Te60  1  0.49763238  -0.00029701  0.27125659  1
  Te  Te61  1  0.50614439  0.00186582  0.74928332  1
  Te  Te62  1  0.49848155  0.49920549  0.23454122  1
  Te  Te63  1  0.49841442  0.49662127  0.75375040  1
