# generated using pymatgen
data_AgSbTe2
_symmetry_space_group_name_H-M   'P 1'
_cell_length_a   12.21679433
_cell_length_b   12.21244988
_cell_length_c   12.22066809
_cell_angle_alpha   90.00053065
_cell_angle_beta   89.99797415
_cell_angle_gamma   90.00134593
_symmetry_Int_Tables_number   1
_chemical_formula_structural   AgSbTe2
_chemical_formula_sum   'Ag16 Sb16 Te32'
_cell_volume   1823.28687480
_cell_formula_units_Z   16
loop_
 _symmetry_equiv_pos_site_id
 _symmetry_equiv_pos_as_xyz
  1  'x, y, z'
loop_
 _atom_site_type_symbol
 _atom_site_label
 _atom_site_symmetry_multiplicity
 _atom_site_fract_x
 _atom_site_fract_y
 _atom_site_fract_z
 _atom_site_occupancy
  Ag  Ag0  1  0.24918021  0.50634373  0.75285711  1
  Ag  Ag1  1  0.00007440  0.50592110  0.00061998  1
  Ag  Ag2  1  0.00384596  0.74858521  0.24847466  1
  Ag  Ag3  1  0.25423795  -0.01087273  0.25019610  1
  Ag  Ag4  1  0.74842066  0.24899978  -0.00064536  1
  Ag  Ag5  1  0.50043696  0.50519454  0.00213305  1
  Ag  Ag6  1  0.74863988  -0.00450963  0.75030577  1
  Ag  Ag7  1  0.74770723  0.24658162  0.50078350  1
  Ag  Ag8  1  0.74882977  0.75079080  0.00011349  1
  Ag  Ag9  1  -0.00194747  0.74820087  0.75181454  1
  Ag  Ag10  1  0.74823184  0.75407803  0.50011132  1
  Ag  Ag11  1  0.49590606  0.75248106  0.24895049  1
  Ag  Ag12  1  0.50348681  -0.00588487  0.49745484  1
  Ag  Ag13  1  0.25154294  0.75049706  0.49368133  1
  Ag  Ag14  1  0.50378977  -0.00544502  0.00295112  1
  Ag  Ag15  1  0.25059178  0.51011349  0.24786659  1
  Sb  Sb16  1  0.25089413  -0.00830862  0.75004636  1
  Sb  Sb17  1  -0.00098907  0.25150571  0.24731401  1
  Sb  Sb18  1  0.00064800  0.50426555  0.49897775  1
  Sb  Sb19  1  0.50052680  0.24788896  0.24918726  1
  Sb  Sb20  1  0.50288996  0.25013919  0.75029786  1
  Sb  Sb21  1  -0.00428094  -0.00368991  0.49894177  1
  Sb  Sb22  1  0.25247669  0.74825608  0.00713504  1
  Sb  Sb23  1  0.74908578  0.50526158  0.24666332  1
  Sb  Sb24  1  0.50159246  0.74984114  0.75249824  1
  Sb  Sb25  1  0.74552692  -0.00499399  0.25007981  1
  Sb  Sb26  1  0.49964814  0.50632337  0.49688756  1
  Sb  Sb27  1  0.25294707  0.24811125  0.49949546  1
  Sb  Sb28  1  -0.00452770  -0.00685009  0.00161969  1
  Sb  Sb29  1  0.25127100  0.25246144  0.00022715  1
  Sb  Sb30  1  -0.00368260  0.25200740  0.75243339  1
  Sb  Sb31  1  0.75066597  0.50519879  0.75348464  1
  Te  Te32  1  0.24911103  0.25132694  0.25174477  1
  Te  Te33  1  0.24813880  0.25913179  0.74807577  1
  Te  Te34  1  0.25030951  0.74944442  0.25092105  1
  Te  Te35  1  0.24534293  0.74758579  0.74345633  1
  Te  Te36  1  0.75089337  0.25034514  0.25010628  1
  Te  Te37  1  0.75156944  0.24404529  0.75016058  1
  Te  Te38  1  0.75036560  0.74988039  0.25082818  1
  Te  Te39  1  0.75245859  0.75251168  0.74920260  1
  Te  Te40  1  0.25761886  0.00257169  0.00255719  1
  Te  Te41  1  0.25566911  -0.00329782  0.49829263  1
  Te  Te42  1  0.25134238  0.49844365  0.00126425  1
  Te  Te43  1  0.25122747  0.50351025  0.49799493  1
  Te  Te44  1  0.74680731  -0.00231159  -0.00052478  1
  Te  Te45  1  0.74644071  -0.00435647  0.50047639  1
  Te  Te46  1  0.74817539  0.50202443  -0.00100806  1
  Te  Te47  1  0.74838692  0.50116919  0.50119154  1
  Te  Te48  1  -0.00819749  0.25767258  0.00041739  1
  Te  Te49  1  -0.00943575  0.25043953  0.49984051  1
  Te  Te50  1  -0.00408484  0.74713462  0.00126597  1
  Te  Te51  1  -0.00190649  0.74939799  0.49810343  1
  Te  Te52  1  0.50729265  0.25021103  0.00023640  1
  Te  Te53  1  0.50659704  0.24311204  0.49990230  1
  Te  Te54  1  0.50287375  0.75018578  0.00218254  1
  Te  Te55  1  0.50191731  0.75237381  0.49712083  1
  Te  Te56  1  0.01015730  -0.00680224  0.24895043  1
  Te  Te57  1  -0.00430068  -0.00687783  0.75072186  1
  Te  Te58  1  0.00539825  0.50533314  0.24537580  1
  Te  Te59  1  0.00345982  0.50557997  0.75490646  1
  Te  Te60  1  0.49624355  -0.00365339  0.24880449  1
  Te  Te61  1  0.50355369  0.00009527  0.75145907  1
  Te  Te62  1  0.49508649  0.50502583  0.24561738  1
  Te  Te63  1  0.49382061  0.50025420  0.75739769  1
