# generated using pymatgen
data_AgSbTe2
_symmetry_space_group_name_H-M   'P 1'
_cell_length_a   12.22833611
_cell_length_b   12.22136985
_cell_length_c   12.22322314
_cell_angle_alpha   90.00871741
_cell_angle_beta   90.00502053
_cell_angle_gamma   89.99997071
_symmetry_Int_Tables_number   1
_chemical_formula_structural   AgSbTe2
_chemical_formula_sum   'Ag16 Sb16 Te32'
_cell_volume   1826.72422233
_cell_formula_units_Z   16
loop_
 _symmetry_equiv_pos_site_id
 _symmetry_equiv_pos_as_xyz
  1  'x, y, z'
loop_
 _atom_site_type_symbol
 _atom_site_label
 _atom_site_symmetry_multiplicity
 _atom_site_fract_x
 _atom_site_fract_y
 _atom_site_fract_z
 _atom_site_occupancy
  Ag  Ag0  1  0.75166494  0.25886649  0.50290911  1
  Ag  Ag1  1  0.25170156  0.74415437  0.00404060  1
  Ag  Ag2  1  0.75474710  0.50109208  0.74544450  1
  Ag  Ag3  1  0.74833022  -0.00848961  0.25089014  1
  Ag  Ag4  1  0.74825374  0.74411743  0.00449283  1
  Ag  Ag5  1  -0.00329885  0.26107836  0.74636120  1
  Ag  Ag6  1  -0.00618015  0.50122182  0.50541744  1
  Ag  Ag7  1  0.74797595  0.50794778  0.25345741  1
  Ag  Ag8  1  0.25160252  -0.00649494  0.24784382  1
  Ag  Ag9  1  0.50351401  0.25758063  0.74970773  1
  Ag  Ag10  1  0.50392334  0.74524789  0.24720421  1
  Ag  Ag11  1  0.24584403  0.50197082  0.75197826  1
  Ag  Ag12  1  0.25253582  0.50620611  0.24682301  1
  Ag  Ag13  1  0.75133225  0.74145546  0.49617253  1
  Ag  Ag14  1  -0.00310608  0.73995518  0.74926705  1
  Ag  Ag15  1  0.50076905  0.50411571  0.00049809  1
  Sb  Sb16  1  0.50117797  -0.00516715  0.00235153  1
  Sb  Sb17  1  -0.00431344  0.74623036  0.25095523  1
  Sb  Sb18  1  0.50167695  -0.00085960  0.49859597  1
  Sb  Sb19  1  -0.00225194  0.25473238  0.25313707  1
  Sb  Sb20  1  0.50269156  0.74270562  0.75256822  1
  Sb  Sb21  1  0.24897332  0.25406223  0.50161826  1
  Sb  Sb22  1  0.50259943  0.25485137  0.25018011  1
  Sb  Sb23  1  0.50739571  0.50067196  0.49979402  1
  Sb  Sb24  1  -0.00257130  -0.00167549  0.49990642  1
  Sb  Sb25  1  0.24886772  0.74577176  0.49677333  1
  Sb  Sb26  1  -0.00073974  -0.00254600  0.00062363  1
  Sb  Sb27  1  -0.00096028  0.50260478  -0.00616016  1
  Sb  Sb28  1  0.24954976  -0.00348214  0.75281044  1
  Sb  Sb29  1  0.25147731  0.25641439  -0.00062100  1
  Sb  Sb30  1  0.74847033  0.25649466  -0.00213990  1
  Sb  Sb31  1  0.75009942  -0.00096999  0.75023502  1
  Te  Te32  1  0.25014983  0.25229199  0.24968233  1
  Te  Te33  1  0.24860460  0.25416233  0.74974632  1
  Te  Te34  1  0.24959732  0.74593859  0.24907351  1
  Te  Te35  1  0.24990006  0.74666705  0.75144247  1
  Te  Te36  1  0.74946124  0.25176567  0.25323734  1
  Te  Te37  1  0.75130061  0.24996419  0.74829553  1
  Te  Te38  1  0.75212717  0.74684533  0.24924302  1
  Te  Te39  1  0.74935078  0.74904177  0.75019785  1
  Te  Te40  1  0.25014164  -0.00840341  0.00610624  1
  Te  Te41  1  0.24987802  0.00012595  0.49107932  1
  Te  Te42  1  0.25160730  0.50391612  0.00119592  1
  Te  Te43  1  0.24302646  0.50006512  0.50037702  1
  Te  Te44  1  0.74947432  -0.00823975  0.00638258  1
  Te  Te45  1  0.75062184  -0.00128073  0.49468045  1
  Te  Te46  1  0.74836605  0.50337504  0.00054577  1
  Te  Te47  1  0.75123218  0.50090121  0.50104778  1
  Te  Te48  1  -0.00000718  0.24852721  -0.01046876  1
  Te  Te49  1  -0.00501407  0.25403374  0.50454059  1
  Te  Te50  1  -0.00056137  0.74954773  -0.00708366  1
  Te  Te51  1  -0.00502017  0.74630850  0.50608230  1
  Te  Te52  1  0.50013466  0.25859055  -0.00507193  1
  Te  Te53  1  0.50653967  0.24940606  0.50511650  1
  Te  Te54  1  0.50077284  0.74552236  0.00305305  1
  Te  Te55  1  0.50704028  0.75062260  0.49343323  1
  Te  Te56  1  0.00035067  0.00254093  0.25058456  1
  Te  Te57  1  0.00174193  0.00014832  0.74973332  1
  Te  Te58  1  -0.00004081  0.49869631  0.25606329  1
  Te  Te59  1  -0.00155635  0.50103716  0.74896497  1
  Te  Te60  1  0.50064981  -0.00402045  0.24920239  1
  Te  Te61  1  0.49813168  0.01123510  0.75053821  1
  Te  Te62  1  0.50004968  0.50252491  0.24814138  1
  Te  Te63  1  0.50019708  0.49827778  0.75170098  1
