# generated using pymatgen
data_AgSbTe2
_symmetry_space_group_name_H-M   'P 1'
_cell_length_a   12.22177699
_cell_length_b   12.22899217
_cell_length_c   12.22788671
_cell_angle_alpha   89.99861773
_cell_angle_beta   90.00279590
_cell_angle_gamma   90.00020974
_symmetry_Int_Tables_number   1
_chemical_formula_structural   AgSbTe2
_chemical_formula_sum   'Ag16 Sb16 Te32'
_cell_volume   1827.58013003
_cell_formula_units_Z   16
loop_
 _symmetry_equiv_pos_site_id
 _symmetry_equiv_pos_as_xyz
  1  'x, y, z'
loop_
 _atom_site_type_symbol
 _atom_site_label
 _atom_site_symmetry_multiplicity
 _atom_site_fract_x
 _atom_site_fract_y
 _atom_site_fract_z
 _atom_site_occupancy
  Ag  Ag0  1  -0.00444797  0.74836139  0.25240569  1
  Ag  Ag1  1  0.24533284  0.74790500  0.49731690  1
  Ag  Ag2  1  -0.00478213  0.00098141  0.49694593  1
  Ag  Ag3  1  0.50954540  0.25608315  0.24799608  1
  Ag  Ag4  1  0.75358804  0.00286358  0.75145870  1
  Ag  Ag5  1  -0.00840429  0.49833275  0.49515946  1
  Ag  Ag6  1  0.75042084  0.49750000  0.74970704  1
  Ag  Ag7  1  0.75292702  0.74591569  0.00255689  1
  Ag  Ag8  1  -0.00824918  0.25200995  0.24978902  1
  Ag  Ag9  1  0.75360647  0.25689687  0.49390344  1
  Ag  Ag10  1  -0.00597130  0.00368232  0.00248273  1
  Ag  Ag11  1  0.75093476  0.49323899  0.25095114  1
  Ag  Ag12  1  0.75129077  0.25473633  0.00657440  1
  Ag  Ag13  1  0.24779655  0.25161891  0.00414402  1
  Ag  Ag14  1  0.50933359  0.49719478  0.49645255  1
  Ag  Ag15  1  0.50787771  0.49566493  0.00384932  1
  Sb  Sb16  1  -0.00502517  0.25044129  0.75073836  1
  Sb  Sb17  1  0.75424987  0.00720402  0.24947509  1
  Sb  Sb18  1  -0.00931713  0.49605681  0.00604218  1
  Sb  Sb19  1  0.50412852  0.74741394  0.74922590  1
  Sb  Sb20  1  0.75392186  0.74384955  0.49618253  1
  Sb  Sb21  1  0.24661135  0.25046795  0.49629865  1
  Sb  Sb22  1  0.24761736  0.49903351  0.75001672  1
  Sb  Sb23  1  0.24565592  0.00081771  0.74993420  1
  Sb  Sb24  1  -0.00380509  0.74929471  0.74863154  1
  Sb  Sb25  1  0.50491669  0.25277634  0.75134124  1
  Sb  Sb26  1  0.50647171  0.00208217  0.49901725  1
  Sb  Sb27  1  0.24778245  0.49924757  0.24989632  1
  Sb  Sb28  1  0.50681077  0.00457490  0.00089242  1
  Sb  Sb29  1  0.24603950  0.74875482  0.00279863  1
  Sb  Sb30  1  0.50607165  0.74269329  0.25015883  1
  Sb  Sb31  1  0.24624216  0.00051955  0.24997514  1
  Te  Te32  1  0.24746884  0.25022644  0.24431818  1
  Te  Te33  1  0.25111012  0.24975086  0.76028952  1
  Te  Te34  1  0.24244372  0.75030166  0.25420178  1
  Te  Te35  1  0.25058999  0.75034196  0.74359555  1
  Te  Te36  1  0.75253929  0.25197263  0.25073048  1
  Te  Te37  1  0.75026951  0.25256883  0.74914734  1
  Te  Te38  1  0.75420953  0.74406504  0.24513404  1
  Te  Te39  1  0.75036995  0.74775142  0.75798194  1
  Te  Te40  1  0.24374191  0.00258528  -0.00202498  1
  Te  Te41  1  0.24322907  -0.00240923  0.50221296  1
  Te  Te42  1  0.25852646  0.49655009  -0.00198574  1
  Te  Te43  1  0.24969313  0.50164152  0.50131414  1
  Te  Te44  1  0.75306459  0.00171237  -0.00166057  1
  Te  Te45  1  0.75354275  0.00290481  0.50312666  1
  Te  Te46  1  0.75014896  0.49723665  0.00035891  1
  Te  Te47  1  0.75037720  0.49981508  0.49888852  1
  Te  Te48  1  -0.00436766  0.24966745  0.00344804  1
  Te  Te49  1  -0.00012518  0.25014783  0.49631410  1
  Te  Te50  1  -0.00081930  0.75291760  0.00437374  1
  Te  Te51  1  -0.00027677  0.75081043  0.49627019  1
  Te  Te52  1  0.50497625  0.25233562  0.00377148  1
  Te  Te53  1  0.50005609  0.25364117  0.49552793  1
  Te  Te54  1  0.50201743  0.74558881  0.00200699  1
  Te  Te55  1  0.49521103  0.74590017  0.49792196  1
  Te  Te56  1  -0.00140185  0.00076567  0.25123872  1
  Te  Te57  1  -0.00564581  -0.00050853  0.74962558  1
  Te  Te58  1  -0.00287706  0.49814816  0.25259512  1
  Te  Te59  1  -0.00622810  0.50050951  0.74058405  1
  Te  Te60  1  0.49870035  0.00898178  0.25056124  1
  Te  Te61  1  0.50969088  -0.00103445  0.74923602  1
  Te  Te62  1  0.50377335  0.49688980  0.25064644  1
  Te  Te63  1  0.50681983  0.50000939  0.74793138  1
