# generated using pymatgen
data_AgSbTe2
_symmetry_space_group_name_H-M   'P 1'
_cell_length_a   12.22202024
_cell_length_b   12.21695797
_cell_length_c   12.22016875
_cell_angle_alpha   90.00201541
_cell_angle_beta   89.99798382
_cell_angle_gamma   89.99919453
_symmetry_Int_Tables_number   1
_chemical_formula_structural   AgSbTe2
_chemical_formula_sum   'Ag16 Sb16 Te32'
_cell_volume   1824.66558439
_cell_formula_units_Z   16
loop_
 _symmetry_equiv_pos_site_id
 _symmetry_equiv_pos_as_xyz
  1  'x, y, z'
loop_
 _atom_site_type_symbol
 _atom_site_label
 _atom_site_symmetry_multiplicity
 _atom_site_fract_x
 _atom_site_fract_y
 _atom_site_fract_z
 _atom_site_occupancy
  Ag  Ag0  1  0.49826437  0.24387287  0.24712350  1
  Ag  Ag1  1  0.75320924  0.00173960  0.24945629  1
  Ag  Ag2  1  0.49856306  0.76016044  0.75082874  1
  Ag  Ag3  1  0.49921903  0.23964527  0.75259632  1
  Ag  Ag4  1  0.75023584  0.49894810  0.24960223  1
  Ag  Ag5  1  0.74329785  0.00018490  0.75047607  1
  Ag  Ag6  1  0.00016177  -0.00160443  0.49053064  1
  Ag  Ag7  1  0.24970317  0.50020452  0.24865855  1
  Ag  Ag8  1  0.25079715  0.75517624  0.00434012  1
  Ag  Ag9  1  0.25057970  0.75406592  0.49536227  1
  Ag  Ag10  1  0.00198472  0.00006355  0.00899582  1
  Ag  Ag11  1  0.00315192  0.75830973  0.24934050  1
  Ag  Ag12  1  0.25274237  0.24434460  0.00532592  1
  Ag  Ag13  1  0.50015756  -0.00064297  0.50101731  1
  Ag  Ag14  1  0.00104761  0.24186773  0.24785439  1
  Ag  Ag15  1  0.49784204  0.00206670  -0.00104461  1
  Sb  Sb16  1  0.25981215  0.00014302  0.75193036  1
  Sb  Sb17  1  0.00232478  0.75668675  0.75127964  1
  Sb  Sb18  1  0.25099948  0.24567820  0.49318475  1
  Sb  Sb19  1  0.25115832  0.49999953  0.75020261  1
  Sb  Sb20  1  0.49504164  0.75944752  0.24887092  1
  Sb  Sb21  1  0.00238726  0.50253612  0.49418283  1
  Sb  Sb22  1  0.74856714  0.75483073  0.00228390  1
  Sb  Sb23  1  0.74656811  0.24525763  0.00349217  1
  Sb  Sb24  1  0.00155894  0.24243378  0.75318000  1
  Sb  Sb25  1  0.74688422  0.49973253  0.75070136  1
  Sb  Sb26  1  0.00229587  0.49980085  0.00500994  1
  Sb  Sb27  1  0.24427102  -0.00053874  0.24736959  1
  Sb  Sb28  1  0.49808115  0.50188221  0.49630788  1
  Sb  Sb29  1  0.74874518  0.24605552  0.49654294  1
  Sb  Sb30  1  0.74925693  0.75468839  0.49773105  1
  Sb  Sb31  1  0.49804834  0.49757670  0.00364420  1
  Te  Te32  1  0.25082896  0.25370014  0.24780560  1
  Te  Te33  1  0.25579442  0.25320155  0.75713576  1
  Te  Te34  1  0.24879624  0.74688556  0.24811338  1
  Te  Te35  1  0.25443489  0.74721308  0.75198826  1
  Te  Te36  1  0.75047015  0.24740436  0.24938021  1
  Te  Te37  1  0.74339141  0.24755211  0.75055889  1
  Te  Te38  1  0.75598323  0.75130224  0.24965059  1
  Te  Te39  1  0.74340621  0.75210810  0.75029287  1
  Te  Te40  1  0.25099519  -0.00038850  -0.00086509  1
  Te  Te41  1  0.25031015  -0.00506964  0.50181900  1
  Te  Te42  1  0.24956597  0.50185093  0.00583444  1
  Te  Te43  1  0.24959440  0.50845965  0.49385118  1
  Te  Te44  1  0.74950511  -0.00040226  0.00199596  1
  Te  Te45  1  0.74906131  -0.00066168  0.49816359  1
  Te  Te46  1  0.75050894  0.50124326  0.00855749  1
  Te  Te47  1  0.75041491  0.50088341  0.49104717  1
  Te  Te48  1  0.00657567  0.24479174  0.00405579  1
  Te  Te49  1  0.00259451  0.24221223  0.49470555  1
  Te  Te50  1  0.00618440  0.75512551  0.00260096  1
  Te  Te51  1  0.00520254  0.75536819  0.49697671  1
  Te  Te52  1  0.49638085  0.24658706  0.00251110  1
  Te  Te53  1  0.49815747  0.24294090  0.49912532  1
  Te  Te54  1  0.49471312  0.75512417  -0.00181219  1
  Te  Te55  1  0.49531957  0.75567853  0.50205603  1
  Te  Te56  1  -0.00097974  0.00031873  0.24929511  1
  Te  Te57  1  -0.01153843  0.00113523  0.75007272  1
  Te  Te58  1  -0.00080639  0.49877306  0.25032690  1
  Te  Te59  1  -0.00328475  0.49852077  0.74883464  1
  Te  Te60  1  0.50458916  0.00190254  0.24927390  1
  Te  Te61  1  0.50311632  0.00082625  0.75067418  1
  Te  Te62  1  0.50109949  0.49197167  0.25070534  1
  Te  Te63  1  0.50265676  0.49882760  0.74889044  1
