# generated using pymatgen
data_AgSbTe2
_symmetry_space_group_name_H-M   'P 1'
_cell_length_a   12.22594131
_cell_length_b   12.22295840
_cell_length_c   12.23015680
_cell_angle_alpha   89.99396615
_cell_angle_beta   90.00727759
_cell_angle_gamma   90.00625625
_symmetry_Int_Tables_number   1
_chemical_formula_structural   AgSbTe2
_chemical_formula_sum   'Ag16 Sb16 Te32'
_cell_volume   1827.64001005
_cell_formula_units_Z   16
loop_
 _symmetry_equiv_pos_site_id
 _symmetry_equiv_pos_as_xyz
  1  'x, y, z'
loop_
 _atom_site_type_symbol
 _atom_site_label
 _atom_site_symmetry_multiplicity
 _atom_site_fract_x
 _atom_site_fract_y
 _atom_site_fract_z
 _atom_site_occupancy
  Ag  Ag0  1  0.74773214  0.75293345  0.49910499  1
  Ag  Ag1  1  0.00384961  0.75501045  0.75336959  1
  Ag  Ag2  1  0.48684175  -0.00588099  0.00081023  1
  Ag  Ag3  1  0.50090196  0.75442482  0.24342701  1
  Ag  Ag4  1  0.25463665  0.76328883  -0.00239073  1
  Ag  Ag5  1  0.74772944  -0.00584848  0.24578910  1
  Ag  Ag6  1  0.74406953  0.75557300  0.00158097  1
  Ag  Ag7  1  0.49547264  0.50567666  -0.00309569  1
  Ag  Ag8  1  0.25179117  -0.00323948  0.23581558  1
  Ag  Ag9  1  0.25401444  0.23611289  -0.00342267  1
  Ag  Ag10  1  0.00146071  -0.00458758  0.50141241  1
  Ag  Ag11  1  0.49885535  0.50409860  0.50349182  1
  Ag  Ag12  1  0.49469543  0.24994198  0.75448044  1
  Ag  Ag13  1  0.25498298  0.50207532  0.75491146  1
  Ag  Ag14  1  0.25003641  -0.00251580  0.76407141  1
  Ag  Ag15  1  0.01377327  -0.00476310  -0.00120100  1
  Sb  Sb16  1  0.75014279  -0.00368537  0.75349021  1
  Sb  Sb17  1  0.25213651  0.24774984  0.50326883  1
  Sb  Sb18  1  0.00258011  0.24446799  0.24811378  1
  Sb  Sb19  1  0.49532391  0.75013177  0.75717167  1
  Sb  Sb20  1  0.49944045  -0.00439124  0.49990019  1
  Sb  Sb21  1  -0.00017152  0.75449770  0.24757198  1
  Sb  Sb22  1  0.74380645  0.50386606  0.75146461  1
  Sb  Sb23  1  0.00091799  0.50623430  0.50489355  1
  Sb  Sb24  1  0.25204881  0.75216989  0.50198871  1
  Sb  Sb25  1  0.74596574  0.50707931  0.24799907  1
  Sb  Sb26  1  0.00427206  0.50591500  -0.00362453  1
  Sb  Sb27  1  0.25411455  0.50421580  0.24470757  1
  Sb  Sb28  1  0.74630532  0.24410631  -0.00021108  1
  Sb  Sb29  1  0.49753079  0.24543887  0.24692398  1
  Sb  Sb30  1  0.74730137  0.24675092  0.50000774  1
  Sb  Sb31  1  0.00567231  0.24422698  0.75287220  1
  Te  Te32  1  0.25072867  0.24310001  0.24293527  1
  Te  Te33  1  0.25348477  0.24827092  0.75326107  1
  Te  Te34  1  0.25327648  0.75435042  0.24607153  1
  Te  Te35  1  0.24742881  0.75284020  0.75232268  1
  Te  Te36  1  0.75034554  0.23983363  0.24999593  1
  Te  Te37  1  0.74154333  0.25179099  0.74994120  1
  Te  Te38  1  0.74804223  0.75450315  0.24758901  1
  Te  Te39  1  0.75664375  0.74993337  0.75083920  1
  Te  Te40  1  0.25139038  -0.00288877  -0.00127972  1
  Te  Te41  1  0.24659318  -0.00031359  0.50034203  1
  Te  Te42  1  0.25293617  0.50236718  -0.00234395  1
  Te  Te43  1  0.25403324  0.49951666  0.50435341  1
  Te  Te44  1  0.74868610  -0.00368692  0.00207074  1
  Te  Te45  1  0.75175171  -0.00447935  0.49703497  1
  Te  Te46  1  0.74489530  0.50601072  0.00073818  1
  Te  Te47  1  0.74596447  0.50571986  0.49952564  1
  Te  Te48  1  0.00454960  0.24385645  -0.00113257  1
  Te  Te49  1  -0.00078999  0.24190606  0.50049702  1
  Te  Te50  1  0.00052799  0.75310769  -0.00228010  1
  Te  Te51  1  -0.00370603  0.75400102  0.50290827  1
  Te  Te52  1  0.49770405  0.24966762  -0.00226987  1
  Te  Te53  1  0.50077546  0.25818019  0.50483513  1
  Te  Te54  1  0.49966214  0.75198536  -0.00020945  1
  Te  Te55  1  0.50341782  0.74687501  0.49553732  1
  Te  Te56  1  0.00230222  -0.00107509  0.24856275  1
  Te  Te57  1  0.00199685  -0.00256170  0.75184316  1
  Te  Te58  1  -0.00047553  0.49766090  0.25159217  1
  Te  Te59  1  0.00847098  0.50487055  0.74956265  1
  Te  Te60  1  0.49854495  -0.00326959  0.24946427  1
  Te  Te61  1  0.49646172  0.00113857  0.75155843  1
  Te  Te62  1  0.49921405  0.50494448  0.24841472  1
  Te  Te63  1  0.49536849  0.50076929  0.75302553  1
