# generated using pymatgen
data_AgSbTe2
_symmetry_space_group_name_H-M   'P 1'
_cell_length_a   12.21580166
_cell_length_b   12.21001142
_cell_length_c   12.22263218
_cell_angle_alpha   90.00180052
_cell_angle_beta   89.99622753
_cell_angle_gamma   89.99323340
_symmetry_Int_Tables_number   1
_chemical_formula_structural   AgSbTe2
_chemical_formula_sum   'Ag16 Sb16 Te32'
_cell_volume   1823.06763694
_cell_formula_units_Z   16
loop_
 _symmetry_equiv_pos_site_id
 _symmetry_equiv_pos_as_xyz
  1  'x, y, z'
loop_
 _atom_site_type_symbol
 _atom_site_label
 _atom_site_symmetry_multiplicity
 _atom_site_fract_x
 _atom_site_fract_y
 _atom_site_fract_z
 _atom_site_occupancy
  Ag  Ag0  1  0.24855569  0.50218366  0.24773537  1
  Ag  Ag1  1  -0.00608655  0.75128191  0.75101667  1
  Ag  Ag2  1  0.25136058  0.25089993  0.00214859  1
  Ag  Ag3  1  0.74627872  0.75279781  0.00130165  1
  Ag  Ag4  1  0.50426251  -0.00391187  -0.00290821  1
  Ag  Ag5  1  -0.00049248  0.25304898  0.24663450  1
  Ag  Ag6  1  0.50660185  0.75315551  0.25271151  1
  Ag  Ag7  1  0.25617941  0.75051743  0.49841725  1
  Ag  Ag8  1  0.50192785  0.24233107  0.75232080  1
  Ag  Ag9  1  -0.00109985  0.50150619  0.00447543  1
  Ag  Ag10  1  0.74563928  -0.00806570  0.24913456  1
  Ag  Ag11  1  0.50641659  0.75726379  0.74751149  1
  Ag  Ag12  1  0.75104494  0.50686535  0.24780150  1
  Ag  Ag13  1  0.74298299  -0.00717143  0.75073117  1
  Ag  Ag14  1  0.50394488  -0.00721162  0.50239229  1
  Ag  Ag15  1  0.74380087  0.75372116  0.49885152  1
  Sb  Sb16  1  -0.00133296  0.50267513  0.49594495  1
  Sb  Sb17  1  0.25368046  0.24992332  0.49830122  1
  Sb  Sb18  1  -0.00438130  -0.00351504  0.49958397  1
  Sb  Sb19  1  0.74809845  0.24784495  0.00056468  1
  Sb  Sb20  1  0.50083714  0.50903324  0.49875193  1
  Sb  Sb21  1  -0.00392048  -0.00157989  0.00047359  1
  Sb  Sb22  1  0.75026629  0.50893529  0.75209599  1
  Sb  Sb23  1  -0.00662528  0.74825597  0.24811722  1
  Sb  Sb24  1  -0.00135874  0.24868048  0.75393239  1
  Sb  Sb25  1  0.25851875  -0.00165680  0.75012904  1
  Sb  Sb26  1  0.74702309  0.24696867  0.49951270  1
  Sb  Sb27  1  0.50031325  0.24712144  0.24854107  1
  Sb  Sb28  1  0.25280489  0.74954015  0.00170913  1
  Sb  Sb29  1  0.24999962  0.50275769  0.75169604  1
  Sb  Sb30  1  0.25311132  -0.00265740  0.24983239  1
  Sb  Sb31  1  0.50161670  0.50325207  0.00197615  1
  Te  Te32  1  0.24852233  0.25362413  0.24720622  1
  Te  Te33  1  0.25249245  0.25050375  0.75410635  1
  Te  Te34  1  0.25235104  0.74692907  0.25235872  1
  Te  Te35  1  0.25144645  0.74903344  0.74635516  1
  Te  Te36  1  0.75211181  0.25155068  0.24994646  1
  Te  Te37  1  0.74575479  0.24374719  0.74925975  1
  Te  Te38  1  0.75027426  0.75093183  0.24922538  1
  Te  Te39  1  0.74695049  0.75091719  0.75035529  1
  Te  Te40  1  0.25606544  0.00452326  0.00092004  1
  Te  Te41  1  0.25655454  -0.00618886  0.49938872  1
  Te  Te42  1  0.24693808  0.49756415  0.00494979  1
  Te  Te43  1  0.24997048  0.50541512  0.49265989  1
  Te  Te44  1  0.74626623  -0.00306213  0.00130165  1
  Te  Te45  1  0.74638484  -0.00367385  0.49873677  1
  Te  Te46  1  0.75287430  0.50400489  0.00436351  1
  Te  Te47  1  0.75022749  0.50661427  0.49288717  1
  Te  Te48  1  0.00377054  0.25332552  0.00197745  1
  Te  Te49  1  0.00143133  0.24979069  0.49480338  1
  Te  Te50  1  -0.00169705  0.74708874  -0.00383457  1
  Te  Te51  1  -0.00037823  0.75032914  0.50618044  1
  Te  Te52  1  0.49702215  0.24658872  -0.00342590  1
  Te  Te53  1  0.49870268  0.24100981  0.50632939  1
  Te  Te54  1  0.50206594  0.75292683  0.00010514  1
  Te  Te55  1  0.50220029  0.75240016  0.49976047  1
  Te  Te56  1  -0.00641633  0.00512327  0.24904495  1
  Te  Te57  1  -0.00872071  -0.00399785  0.75053599  1
  Te  Te58  1  -0.00093345  0.49835046  0.24628865  1
  Te  Te59  1  -0.00085353  0.50274008  0.75714094  1
  Te  Te60  1  0.50371864  -0.00275946  0.24902433  1
  Te  Te61  1  0.50259035  -0.00349422  0.75134344  1
  Te  Te62  1  0.50139419  0.50312904  0.24945132  1
  Te  Te63  1  0.50094973  0.50022350  0.74981514  1
