# generated using pymatgen
data_AgSbTe2
_symmetry_space_group_name_H-M   'P 1'
_cell_length_a   12.22692819
_cell_length_b   12.23619480
_cell_length_c   12.24301266
_cell_angle_alpha   90.00445857
_cell_angle_beta   90.00040876
_cell_angle_gamma   89.99389404
_symmetry_Int_Tables_number   1
_chemical_formula_structural   AgSbTe2
_chemical_formula_sum   'Ag16 Sb16 Te32'
_cell_volume   1831.69027048
_cell_formula_units_Z   16
loop_
 _symmetry_equiv_pos_site_id
 _symmetry_equiv_pos_as_xyz
  1  'x, y, z'
loop_
 _atom_site_type_symbol
 _atom_site_label
 _atom_site_symmetry_multiplicity
 _atom_site_fract_x
 _atom_site_fract_y
 _atom_site_fract_z
 _atom_site_occupancy
  Ag  Ag0  1  0.25374585  -0.01456452  0.24986420  1
  Ag  Ag1  1  0.25418765  0.74377496  0.01319462  1
  Ag  Ag2  1  0.25630209  0.74857986  0.48746708  1
  Ag  Ag3  1  0.74690700  0.25496442  0.00072663  1
  Ag  Ag4  1  0.49276640  0.50321097  0.00479009  1
  Ag  Ag5  1  0.25509477  0.50524993  0.75548497  1
  Ag  Ag6  1  0.25188966  0.25615448  -0.00150038  1
  Ag  Ag7  1  0.49234202  0.74683841  0.74696282  1
  Ag  Ag8  1  0.25318671  -0.00516197  0.75024348  1
  Ag  Ag9  1  0.48728476  0.74373893  0.25309237  1
  Ag  Ag10  1  0.49431135  0.50806663  0.49485724  1
  Ag  Ag11  1  0.01595370  0.74781854  0.24950723  1
  Ag  Ag12  1  0.74160563  0.50219134  0.24725191  1
  Ag  Ag13  1  0.00608984  0.25125883  0.75339924  1
  Ag  Ag14  1  0.49352922  -0.00904274  0.49893864  1
  Ag  Ag15  1  0.25724947  0.51345123  0.24551253  1
  Sb  Sb16  1  0.25184046  0.25092515  0.50125391  1
  Sb  Sb17  1  0.74763938  0.25351474  0.49895513  1
  Sb  Sb18  1  0.74533787  0.00117839  0.75057405  1
  Sb  Sb19  1  0.00907037  0.49992472  0.00047198  1
  Sb  Sb20  1  0.00446696  0.00022111  0.00018959  1
  Sb  Sb21  1  0.49535109  -0.00365010  0.00157761  1
  Sb  Sb22  1  0.74474079  0.74440366  0.00313626  1
  Sb  Sb23  1  0.01307031  0.74978410  0.75092712  1
  Sb  Sb24  1  0.74482316  -0.00202361  0.24961397  1
  Sb  Sb25  1  0.74083916  0.74765369  0.49856278  1
  Sb  Sb26  1  0.49467567  0.25209636  0.75236851  1
  Sb  Sb27  1  0.00692596  0.50240484  0.49839355  1
  Sb  Sb28  1  0.00463109  0.25140202  0.24740676  1
  Sb  Sb29  1  0.00810012  -0.00261215  0.49908440  1
  Sb  Sb30  1  0.74414558  0.49870322  0.75280286  1
  Sb  Sb31  1  0.49703393  0.25715909  0.24808464  1
  Te  Te32  1  0.24823933  0.24992215  0.24410701  1
  Te  Te33  1  0.24866874  0.25026654  0.75253487  1
  Te  Te34  1  0.25200262  0.74988114  0.24902266  1
  Te  Te35  1  0.25124869  0.74925559  0.75083439  1
  Te  Te36  1  0.75223319  0.25412650  0.24520768  1
  Te  Te37  1  0.75672514  0.24984754  0.75515719  1
  Te  Te38  1  0.74916078  0.74634699  0.24880041  1
  Te  Te39  1  0.74293618  0.75066982  0.75060124  1
  Te  Te40  1  0.25175057  0.00086710  -0.00022396  1
  Te  Te41  1  0.25455694  0.00033272  0.49977564  1
  Te  Te42  1  0.25215684  0.50068302  0.00002470  1
  Te  Te43  1  0.25414407  0.50066214  0.49906125  1
  Te  Te44  1  0.74911631  0.01060314  -0.00010868  1
  Te  Te45  1  0.73949059  0.00082969  0.49992150  1
  Te  Te46  1  0.74267598  0.49681375  0.00325652  1
  Te  Te47  1  0.74105052  0.49965056  0.49424244  1
  Te  Te48  1  0.00401881  0.25014356  -0.00347008  1
  Te  Te49  1  -0.00175062  0.24946861  0.50813854  1
  Te  Te50  1  0.00501553  0.75024201  0.00385345  1
  Te  Te51  1  0.00750615  0.75021563  0.49601749  1
  Te  Te52  1  0.49661391  0.25536463  -0.00013425  1
  Te  Te53  1  0.50077511  0.25058621  0.50028944  1
  Te  Te54  1  0.49705806  0.74658306  0.00056817  1
  Te  Te55  1  0.49694083  0.74808309  0.49922790  1
  Te  Te56  1  0.00499386  -0.00462154  0.25092679  1
  Te  Te57  1  0.00599035  0.00151533  0.74951912  1
  Te  Te58  1  0.00181935  0.50294906  0.25058660  1
  Te  Te59  1  0.00489150  0.49797363  0.74918540  1
  Te  Te60  1  0.49633218  -0.00553924  0.25213929  1
  Te  Te61  1  0.49496300  -0.00392079  0.74782186  1
  Te  Te62  1  0.49677175  0.50043100  0.24955913  1
  Te  Te63  1  0.49676574  0.50215282  0.75036053  1
