# generated using pymatgen
data_AgSbTe2
_symmetry_space_group_name_H-M   'P 1'
_cell_length_a   12.21084965
_cell_length_b   12.21461902
_cell_length_c   12.21469652
_cell_angle_alpha   89.99892229
_cell_angle_beta   89.99989859
_cell_angle_gamma   89.99649160
_symmetry_Int_Tables_number   1
_chemical_formula_structural   AgSbTe2
_chemical_formula_sum   'Ag16 Sb16 Te32'
_cell_volume   1821.83268723
_cell_formula_units_Z   16
loop_
 _symmetry_equiv_pos_site_id
 _symmetry_equiv_pos_as_xyz
  1  'x, y, z'
loop_
 _atom_site_type_symbol
 _atom_site_label
 _atom_site_symmetry_multiplicity
 _atom_site_fract_x
 _atom_site_fract_y
 _atom_site_fract_z
 _atom_site_occupancy
  Ag  Ag0  1  0.49867125  0.75460037  0.75670740  1
  Ag  Ag1  1  0.25542862  0.00025454  0.24857319  1
  Ag  Ag2  1  0.49893411  0.74946533  0.24326656  1
  Ag  Ag3  1  0.74753505  0.50283348  0.24617416  1
  Ag  Ag4  1  0.25600019  0.24690514  0.49911612  1
  Ag  Ag5  1  0.00155489  0.50200296  0.00530832  1
  Ag  Ag6  1  0.74340734  0.74736723  0.00368715  1
  Ag  Ag7  1  0.49550435  -0.00367630  -0.00176010  1
  Ag  Ag8  1  0.74348447  0.25001714  0.49878381  1
  Ag  Ag9  1  0.25800009  0.00268481  0.75150828  1
  Ag  Ag10  1  0.25527466  0.24993782  0.00130743  1
  Ag  Ag11  1  0.49861278  0.50400220  0.00412569  1
  Ag  Ag12  1  0.25260613  0.50047109  0.24555361  1
  Ag  Ag13  1  0.49601995  0.00341531  0.50160359  1
  Ag  Ag14  1  0.00128637  0.74664565  0.24598296  1
  Ag  Ag15  1  0.49605485  0.24519477  0.75013830  1
  Sb  Sb16  1  0.00358212  0.24965035  0.75224397  1
  Sb  Sb17  1  0.00408384  0.00101854  0.49721327  1
  Sb  Sb18  1  0.25392677  0.49736327  0.75520560  1
  Sb  Sb19  1  0.00287631  0.25380073  0.24775878  1
  Sb  Sb20  1  0.49850820  0.49529423  0.49434206  1
  Sb  Sb21  1  0.74635686  0.49995692  0.75392030  1
  Sb  Sb22  1  0.74521096  0.74936117  0.49658381  1
  Sb  Sb23  1  0.49670515  0.24987769  0.24989219  1
  Sb  Sb24  1  0.25403182  0.75355590  0.49686972  1
  Sb  Sb25  1  0.00577686  -0.00270511  0.00327952  1
  Sb  Sb26  1  0.00182699  0.49996541  0.49426172  1
  Sb  Sb27  1  0.74288341  0.25270710  0.00104471  1
  Sb  Sb28  1  0.00229658  0.75047185  0.75622621  1
  Sb  Sb29  1  0.25897143  0.74932513  0.00319789  1
  Sb  Sb30  1  0.74307098  -0.00256585  0.24923935  1
  Sb  Sb31  1  0.73943046  0.00004836  0.75023828  1
  Te  Te32  1  0.25006121  0.24977645  0.24953462  1
  Te  Te33  1  0.25370987  0.24792651  0.74981426  1
  Te  Te34  1  0.25235896  0.74886030  0.25062495  1
  Te  Te35  1  0.25514451  0.75464427  0.74777918  1
  Te  Te36  1  0.75143744  0.25512820  0.25404513  1
  Te  Te37  1  0.74467863  0.25014823  0.74472672  1
  Te  Te38  1  0.74722831  0.74713539  0.24722303  1
  Te  Te39  1  0.74453324  0.74979708  0.75498661  1
  Te  Te40  1  0.25362889  0.00398979  0.00239846  1
  Te  Te41  1  0.25382354  0.00426549  0.49749441  1
  Te  Te42  1  0.25306445  0.49684405  0.00400369  1
  Te  Te43  1  0.24962359  0.49153012  0.49252000  1
  Te  Te44  1  0.74423990  -0.00292730  0.00086509  1
  Te  Te45  1  0.74438567  0.00647178  0.49938012  1
  Te  Te46  1  0.74705117  0.50081289  0.00434946  1
  Te  Te47  1  0.75046500  0.49455729  0.49300144  1
  Te  Te48  1  0.00557910  0.25494254  -0.00079751  1
  Te  Te49  1  0.00091576  0.24996428  0.50100041  1
  Te  Te50  1  -0.00696384  0.74660310  0.00355919  1
  Te  Te51  1  -0.00197027  0.74953236  0.49284505  1
  Te  Te52  1  0.49775090  0.24955360  -0.00275606  1
  Te  Te53  1  0.49744818  0.24744852  0.50251954  1
  Te  Te54  1  0.50021268  0.75005156  0.00138257  1
  Te  Te55  1  0.50131593  0.75587928  0.50024526  1
  Te  Te56  1  0.00878765  -0.00794128  0.24930028  1
  Te  Te57  1  0.01172132  -0.00177547  0.75005556  1
  Te  Te58  1  0.00174146  0.50396450  0.24501388  1
  Te  Te59  1  0.00047825  0.50207097  0.75958737  1
  Te  Te60  1  0.49591769  -0.00297207  0.24874781  1
  Te  Te61  1  0.49651735  0.00011104  0.75149952  1
  Te  Te62  1  0.49813823  0.50306701  0.24693390  1
  Te  Te63  1  0.49906143  0.50129227  0.75652223  1
