# generated using pymatgen
data_AgSbTe2
_symmetry_space_group_name_H-M   'P 1'
_cell_length_a   12.20550469
_cell_length_b   12.20737409
_cell_length_c   12.21363460
_cell_angle_alpha   89.99368116
_cell_angle_beta   89.99833483
_cell_angle_gamma   90.00680440
_symmetry_Int_Tables_number   1
_chemical_formula_structural   AgSbTe2
_chemical_formula_sum   'Ag16 Sb16 Te32'
_cell_volume   1819.79686496
_cell_formula_units_Z   16
loop_
 _symmetry_equiv_pos_site_id
 _symmetry_equiv_pos_as_xyz
  1  'x, y, z'
loop_
 _atom_site_type_symbol
 _atom_site_label
 _atom_site_symmetry_multiplicity
 _atom_site_fract_x
 _atom_site_fract_y
 _atom_site_fract_z
 _atom_site_occupancy
  Ag  Ag0  1  0.00180032  0.74985205  0.74816352  1
  Ag  Ag1  1  0.25347978  0.49987573  0.25387395  1
  Ag  Ag2  1  0.25291213  0.74662433  0.49935375  1
  Ag  Ag3  1  0.74646403  0.00167812  0.24993008  1
  Ag  Ag4  1  0.49832978  0.75009212  0.25308099  1
  Ag  Ag5  1  0.74929801  0.24755139  0.00183326  1
  Ag  Ag6  1  0.25049948  0.50155444  0.74654613  1
  Ag  Ag7  1  0.74921066  -0.00001262  0.74948954  1
  Ag  Ag8  1  0.49961451  -0.00231011  0.49641828  1
  Ag  Ag9  1  0.00046491  -0.00023950  0.49931583  1
  Ag  Ag10  1  0.50375766  0.00022928  0.00335011  1
  Ag  Ag11  1  0.49210765  0.50217299  0.49662338  1
  Ag  Ag12  1  0.00064258  0.25014018  0.25062608  1
  Ag  Ag13  1  0.00195554  0.49866020  0.00074994  1
  Ag  Ag14  1  0.49733280  0.50003273  0.00334950  1
  Ag  Ag15  1  0.25079216  0.25304969  0.49772307  1
  Sb  Sb16  1  0.24987958  0.25398122  0.00268948  1
  Sb  Sb17  1  0.75025950  0.50014511  0.75157724  1
  Sb  Sb18  1  0.25121968  0.74711200  0.00062971  1
  Sb  Sb19  1  0.24950420  -0.00156234  0.74582038  1
  Sb  Sb20  1  -0.00411959  0.00152664  0.00030512  1
  Sb  Sb21  1  0.00215722  0.75000208  0.25203271  1
  Sb  Sb22  1  0.74740544  0.75239077  0.49971602  1
  Sb  Sb23  1  0.25313772  -0.00003093  0.25355075  1
  Sb  Sb24  1  0.00881663  0.50004097  0.49919262  1
  Sb  Sb25  1  0.75073325  0.24609004  0.49768730  1
  Sb  Sb26  1  0.74880662  0.75322017  0.00005893  1
  Sb  Sb27  1  0.49747479  0.75002278  0.74648509  1
  Sb  Sb28  1  0.00075571  0.25018619  0.74871321  1
  Sb  Sb29  1  0.74730862  0.49823747  0.24851643  1
  Sb  Sb30  1  0.49910479  0.24972273  0.25064885  1
  Sb  Sb31  1  0.49942033  0.24970520  0.74956051  1
  Te  Te32  1  0.24402701  0.25503247  0.25447291  1
  Te  Te33  1  0.24899892  0.25758404  0.74235429  1
  Te  Te34  1  0.25389040  0.74490311  0.25551689  1
  Te  Te35  1  0.24599504  0.74524407  0.74433502  1
  Te  Te36  1  0.75628253  0.24522762  0.24634457  1
  Te  Te37  1  0.75123075  0.24285340  0.75681064  1
  Te  Te38  1  0.74439810  0.75736464  0.25021553  1
  Te  Te39  1  0.75744728  0.75671792  0.74974755  1
  Te  Te40  1  0.25914162  0.00058778  -0.00056476  1
  Te  Te41  1  0.25213054  0.00016799  0.50033040  1
  Te  Te42  1  0.25298602  0.49907711  0.00027307  1
  Te  Te43  1  0.25194056  0.50025938  0.49911746  1
  Te  Te44  1  0.74656959  0.00319967  0.00102671  1
  Te  Te45  1  0.74779710  0.00167465  0.49972393  1
  Te  Te46  1  0.74765621  0.49436961  -0.00107080  1
  Te  Te47  1  0.73886739  0.49879746  0.50132427  1
  Te  Te48  1  -0.00216807  0.25349389  0.00480346  1
  Te  Te49  1  0.00313521  0.24591815  0.49561969  1
  Te  Te50  1  0.00053008  0.74430462  -0.00368389  1
  Te  Te51  1  0.00455253  0.75387923  0.50188947  1
  Te  Te52  1  0.50361178  0.25084004  0.00015456  1
  Te  Te53  1  0.49483926  0.24848806  0.49970892  1
  Te  Te54  1  0.49916852  0.74837578  0.00472316  1
  Te  Te55  1  0.49640011  0.75157524  0.49711069  1
  Te  Te56  1  -0.00275496  0.00125330  0.25255175  1
  Te  Te57  1  -0.00253950  -0.00352181  0.74769061  1
  Te  Te58  1  0.00186762  0.49875213  0.24706370  1
  Te  Te59  1  0.00199974  0.50351969  0.75323454  1
  Te  Te60  1  0.50185734  -0.00157772  0.25163635  1
  Te  Te61  1  0.50463095  -0.00178203  0.74915515  1
  Te  Te62  1  0.49825639  0.50191959  0.24908285  1
  Te  Te63  1  0.49672747  0.50175981  0.75168955  1
