# generated using pymatgen
data_AgSbTe2
_symmetry_space_group_name_H-M   'P 1'
_cell_length_a   12.20089056
_cell_length_b   12.20668236
_cell_length_c   12.20296533
_cell_angle_alpha   90.00163713
_cell_angle_beta   90.00613792
_cell_angle_gamma   89.99858037
_symmetry_Int_Tables_number   1
_chemical_formula_structural   AgSbTe2
_chemical_formula_sum   'Ag16 Sb16 Te32'
_cell_volume   1817.41684828
_cell_formula_units_Z   16
loop_
 _symmetry_equiv_pos_site_id
 _symmetry_equiv_pos_as_xyz
  1  'x, y, z'
loop_
 _atom_site_type_symbol
 _atom_site_label
 _atom_site_symmetry_multiplicity
 _atom_site_fract_x
 _atom_site_fract_y
 _atom_site_fract_z
 _atom_site_occupancy
  Ag  Ag0  1  0.49922333  0.49901528  0.00172645  1
  Ag  Ag1  1  0.49711958  0.00229716  0.49871454  1
  Ag  Ag2  1  0.25084618  0.00063441  0.25282631  1
  Ag  Ag3  1  0.25283236  0.24959651  0.49677679  1
  Ag  Ag4  1  0.74843590  -0.00082691  0.24772218  1
  Ag  Ag5  1  0.49535881  0.49768324  0.49855061  1
  Ag  Ag6  1  0.00342469  0.24993310  0.24974510  1
  Ag  Ag7  1  0.49969061  0.24750226  0.74832297  1
  Ag  Ag8  1  0.74939034  0.75274625  0.00241921  1
  Ag  Ag9  1  0.24924270  0.49933199  0.25185415  1
  Ag  Ag10  1  0.00083182  0.49929082  0.00367521  1
  Ag  Ag11  1  0.50258313  0.00087398  0.00122560  1
  Ag  Ag12  1  0.25157785  0.75045153  0.49485998  1
  Ag  Ag13  1  0.00207939  0.75023935  0.24876769  1
  Ag  Ag14  1  0.74673335  0.00182473  0.75182224  1
  Ag  Ag15  1  0.00059438  0.24938574  0.75012214  1
  Sb  Sb16  1  0.74915974  0.24569871  0.00063623  1
  Sb  Sb17  1  0.00570651  0.49796790  0.49559046  1
  Sb  Sb18  1  0.25030795  0.25008946  0.00503505  1
  Sb  Sb19  1  -0.00129820  0.75079031  0.75187787  1
  Sb  Sb20  1  0.74602421  0.24811265  0.49912467  1
  Sb  Sb21  1  0.75118691  0.50066695  0.24749709  1
  Sb  Sb22  1  0.25092761  0.49763622  0.74752396  1
  Sb  Sb23  1  0.74893316  0.75308342  0.49657395  1
  Sb  Sb24  1  0.49710256  0.75187726  0.24992299  1
  Sb  Sb25  1  0.49563496  0.24771852  0.25281406  1
  Sb  Sb26  1  -0.00330556  0.00031392  0.00303503  1
  Sb  Sb27  1  0.00496916  0.00113343  0.49734983  1
  Sb  Sb28  1  0.50090524  0.75378239  0.75049846  1
  Sb  Sb29  1  0.25335504  0.00322342  0.74716017  1
  Sb  Sb30  1  0.24966487  0.75007289  0.00622757  1
  Sb  Sb31  1  0.74905172  0.49757585  0.75200547  1
  Te  Te32  1  0.24592128  0.24959113  0.25389424  1
  Te  Te33  1  0.24944488  0.24880892  0.74280047  1
  Te  Te34  1  0.24579959  0.75038377  0.25389895  1
  Te  Te35  1  0.24797056  0.75073916  0.73974151  1
  Te  Te36  1  0.75960871  0.24300181  0.25082559  1
  Te  Te37  1  0.75041400  0.24382479  0.74966286  1
  Te  Te38  1  0.75683950  0.75546162  0.24646026  1
  Te  Te39  1  0.75201195  0.75816436  0.75553892  1
  Te  Te40  1  0.25788793  -0.00110555  0.00668345  1
  Te  Te41  1  0.25444598  0.00118709  0.49600015  1
  Te  Te42  1  0.25240444  0.50066667  0.00626390  1
  Te  Te43  1  0.25473868  0.49889999  0.49564599  1
  Te  Te44  1  0.74593451  -0.00298718  0.00207039  1
  Te  Te45  1  0.74148829  -0.00165222  0.49896022  1
  Te  Te46  1  0.74711586  0.50637231  0.00087497  1
  Te  Te47  1  0.73864330  0.50154491  0.49995083  1
  Te  Te48  1  0.00020867  0.25522682  -0.00011811  1
  Te  Te49  1  0.00570685  0.25144686  0.50023790  1
  Te  Te50  1  -0.00257205  0.74542393  0.00344365  1
  Te  Te51  1  0.00486051  0.74902954  0.49462346  1
  Te  Te52  1  0.49956156  0.25141877  -0.00543259  1
  Te  Te53  1  0.49659718  0.24920810  0.50219173  1
  Te  Te54  1  0.50397138  0.74860813  -0.00043534  1
  Te  Te55  1  0.49584596  0.74997216  0.50023467  1
  Te  Te56  1  0.00107962  0.00098067  0.24912817  1
  Te  Te57  1  -0.00542129  0.00659396  0.75098720  1
  Te  Te58  1  0.00187236  0.49876911  0.24712152  1
  Te  Te59  1  -0.00042517  0.49323192  0.75651099  1
  Te  Te60  1  0.49997654  0.00165918  0.24970069  1
  Te  Te61  1  0.50266817  0.00344371  0.75054111  1
  Te  Te62  1  0.49669219  0.49861835  0.24816880  1
  Te  Te63  1  0.50041778  0.49374445  0.75181944  1
