# generated using pymatgen
data_AgSbTe2
_symmetry_space_group_name_H-M   'P 1'
_cell_length_a   12.22282488
_cell_length_b   12.21636182
_cell_length_c   12.21718996
_cell_angle_alpha   89.99156475
_cell_angle_beta   89.99418248
_cell_angle_gamma   89.99928536
_symmetry_Int_Tables_number   1
_chemical_formula_structural   AgSbTe2
_chemical_formula_sum   'Ag16 Sb16 Te32'
_cell_volume   1824.25185290
_cell_formula_units_Z   16
loop_
 _symmetry_equiv_pos_site_id
 _symmetry_equiv_pos_as_xyz
  1  'x, y, z'
loop_
 _atom_site_type_symbol
 _atom_site_label
 _atom_site_symmetry_multiplicity
 _atom_site_fract_x
 _atom_site_fract_y
 _atom_site_fract_z
 _atom_site_occupancy
  Ag  Ag0  1  0.25363916  0.00531652  0.75744559  1
  Ag  Ag1  1  -0.00356172  0.24877606  0.24522920  1
  Ag  Ag2  1  0.25085563  0.24379104  0.00077744  1
  Ag  Ag3  1  0.74650254  0.00607974  0.75343781  1
  Ag  Ag4  1  0.25760925  0.24840052  0.49876592  1
  Ag  Ag5  1  0.00371226  0.00463097  0.00184995  1
  Ag  Ag6  1  0.50101546  0.49180753  0.49581431  1
  Ag  Ag7  1  0.00093478  0.49419212  0.00419946  1
  Ag  Ag8  1  0.49858045  0.24492530  0.74845855  1
  Ag  Ag9  1  0.74630316  0.00840986  0.24750021  1
  Ag  Ag10  1  0.74315943  0.24907286  0.49341956  1
  Ag  Ag11  1  0.25193077  0.75662588  0.00117518  1
  Ag  Ag12  1  0.74704473  0.49116379  0.24994257  1
  Ag  Ag13  1  0.49670320  0.00493389  0.00120391  1
  Ag  Ag14  1  0.50074607  0.75226734  0.24729400  1
  Ag  Ag15  1  0.50450028  0.24835612  0.25248030  1
  Sb  Sb16  1  0.74623896  0.75118474  0.49709912  1
  Sb  Sb17  1  0.25254600  0.49569603  0.24961818  1
  Sb  Sb18  1  0.49972307  0.49484144  0.00394313  1
  Sb  Sb19  1  0.25438241  0.00472023  0.24100221  1
  Sb  Sb20  1  0.25200600  0.49409089  0.75149806  1
  Sb  Sb21  1  0.49809976  0.75620661  0.75240195  1
  Sb  Sb22  1  0.74704962  0.49154746  0.75070684  1
  Sb  Sb23  1  0.00060280  0.00430515  0.49579358  1
  Sb  Sb24  1  0.74912191  0.24662906  0.00790654  1
  Sb  Sb25  1  0.00065706  0.24715820  0.75642116  1
  Sb  Sb26  1  0.25524135  0.75332946  0.49858661  1
  Sb  Sb27  1  0.74630976  0.75334805  0.00163227  1
  Sb  Sb28  1  0.00133236  0.75263325  0.75364419  1
  Sb  Sb29  1  0.00035076  0.75168035  0.24546221  1
  Sb  Sb30  1  0.50012618  0.00889475  0.49715237  1
  Sb  Sb31  1  -0.00161186  0.49344615  0.49537477  1
  Te  Te32  1  0.25094427  0.24894667  0.24988926  1
  Te  Te33  1  0.25225023  0.24603236  0.75111380  1
  Te  Te34  1  0.25575399  0.75010024  0.24590859  1
  Te  Te35  1  0.25099969  0.75812961  0.75505766  1
  Te  Te36  1  0.74768407  0.24876924  0.25006536  1
  Te  Te37  1  0.74666229  0.24556691  0.74387189  1
  Te  Te38  1  0.74433395  0.75144721  0.25106520  1
  Te  Te39  1  0.74940390  0.76052393  0.74912809  1
  Te  Te40  1  0.25092970  0.00333081  -0.00005839  1
  Te  Te41  1  0.24903320  0.00542123  0.50937669  1
  Te  Te42  1  0.24643725  0.49794163  -0.00067542  1
  Te  Te43  1  0.25361820  0.49394951  0.50079763  1
  Te  Te44  1  0.74901924  -0.00039234  0.00059007  1
  Te  Te45  1  0.75034947  0.00504281  0.49897191  1
  Te  Te46  1  0.75462416  0.50218606  0.00391595  1
  Te  Te47  1  0.74756478  0.49514967  0.49651565  1
  Te  Te48  1  0.00359294  0.24748952  0.00397046  1
  Te  Te49  1  0.00076920  0.25070289  0.49195882  1
  Te  Te50  1  0.00786544  0.75282083  0.00161282  1
  Te  Te51  1  0.00199441  0.74841684  0.49969859  1
  Te  Te52  1  0.49698406  0.24826665  0.00117996  1
  Te  Te53  1  0.49927158  0.25061939  0.49736334  1
  Te  Te54  1  0.49522026  0.75248653  0.00415860  1
  Te  Te55  1  0.49843249  0.74019493  0.49328006  1
  Te  Te56  1  -0.00642215  0.00290202  0.24523019  1
  Te  Te57  1  -0.00189661  0.00097856  0.75702379  1
  Te  Te58  1  -0.00569632  0.49701658  0.24506694  1
  Te  Te59  1  -0.00096612  0.50074381  0.75895714  1
  Te  Te60  1  0.50320842  0.00352746  0.24760661  1
  Te  Te61  1  0.50076643  0.00337405  0.75378421  1
  Te  Te62  1  0.50390493  0.49592414  0.25088359  1
  Te  Te63  1  0.50151110  0.49392889  0.74545380  1
