# generated using pymatgen
data_AgSbTe2
_symmetry_space_group_name_H-M   'P 1'
_cell_length_a   12.28866864
_cell_length_b   12.28602404
_cell_length_c   12.29603030
_cell_angle_alpha   90.01490948
_cell_angle_beta   89.98375376
_cell_angle_gamma   89.99955178
_symmetry_Int_Tables_number   1
_chemical_formula_structural   AgSbTe2
_chemical_formula_sum   'Ag16 Sb16 Te32'
_cell_volume   1856.44072368
_cell_formula_units_Z   16
loop_
 _symmetry_equiv_pos_site_id
 _symmetry_equiv_pos_as_xyz
  1  'x, y, z'
loop_
 _atom_site_type_symbol
 _atom_site_label
 _atom_site_symmetry_multiplicity
 _atom_site_fract_x
 _atom_site_fract_y
 _atom_site_fract_z
 _atom_site_occupancy
  Ag  Ag0  1  0.76581582  0.73470919  0.00400917  1
  Ag  Ag1  1  0.74867412  0.25186705  0.49248356  1
  Ag  Ag2  1  -0.00757718  0.74380713  0.23285026  1
  Ag  Ag3  1  0.74975973  0.01009549  0.24832498  1
  Ag  Ag4  1  0.51005308  0.24967356  0.25237064  1
  Ag  Ag5  1  0.50415727  0.00905354  0.49361882  1
  Ag  Ag6  1  -0.00727439  0.50526544  -0.00825896  1
  Ag  Ag7  1  -0.00211653  0.26418396  0.75850789  1
  Ag  Ag8  1  0.24990508  0.25239521  0.50163470  1
  Ag  Ag9  1  0.23940430  0.26026692  -0.00448368  1
  Ag  Ag10  1  0.23479119  0.49397867  0.76000156  1
  Ag  Ag11  1  0.76374577  0.49338326  0.76287823  1
  Ag  Ag12  1  -0.00154299  0.73491299  0.76482311  1
  Ag  Ag13  1  0.75534623  0.49360735  0.23688200  1
  Ag  Ag14  1  0.23316656  0.73684558  -0.00306187  1
  Ag  Ag15  1  0.75870154  0.26261014  0.00389627  1
  Sb  Sb16  1  -0.00065930  -0.00303330  0.00041657  1
  Sb  Sb17  1  0.75160211  0.00379014  0.75158483  1
  Sb  Sb18  1  0.50419538  0.74871725  0.24823954  1
  Sb  Sb19  1  0.24831374  0.00317354  0.74960384  1
  Sb  Sb20  1  0.50585443  0.49866766  0.00022219  1
  Sb  Sb21  1  0.50104652  0.49599671  0.49819318  1
  Sb  Sb22  1  0.50241858  0.00349402  0.00298849  1
  Sb  Sb23  1  0.24245214  0.49749193  0.24154445  1
  Sb  Sb24  1  0.24743433  0.00156677  0.25077643  1
  Sb  Sb25  1  0.50197213  0.74799622  0.75189639  1
  Sb  Sb26  1  0.24739539  0.74524247  0.50375815  1
  Sb  Sb27  1  -0.00548939  0.25570700  0.24133152  1
  Sb  Sb28  1  0.50093391  0.25143717  0.74935100  1
  Sb  Sb29  1  0.75171365  0.74716214  0.49989739  1
  Sb  Sb30  1  -0.00172798  0.00455749  0.49819003  1
  Sb  Sb31  1  -0.00087829  0.49677066  0.50704180  1
  Te  Te32  1  0.25134003  0.25067386  0.24881107  1
  Te  Te33  1  0.25127255  0.25182453  0.75622958  1
  Te  Te34  1  0.24784092  0.74923021  0.24540693  1
  Te  Te35  1  0.24783798  0.74676640  0.75330850  1
  Te  Te36  1  0.75219606  0.25148986  0.24840040  1
  Te  Te37  1  0.75023353  0.25073908  0.75543912  1
  Te  Te38  1  0.75038261  0.74439443  0.24972467  1
  Te  Te39  1  0.75224851  0.74801900  0.75122144  1
  Te  Te40  1  0.25097017  0.00505304  0.00074365  1
  Te  Te41  1  0.25292258  0.01103120  0.49870148  1
  Te  Te42  1  0.24764515  0.49812792  -0.00189297  1
  Te  Te43  1  0.25000617  0.49272094  0.50732825  1
  Te  Te44  1  0.74927315  0.00314841  0.00347507  1
  Te  Te45  1  0.74930152  0.00528627  0.49809782  1
  Te  Te46  1  0.75138622  0.49881945  -0.00239187  1
  Te  Te47  1  0.75061093  0.49481495  0.50204970  1
  Te  Te48  1  -0.00069375  0.25034680  -0.00259844  1
  Te  Te49  1  0.00031252  0.25244598  0.50798208  1
  Te  Te50  1  -0.00153725  0.75054660  -0.00269517  1
  Te  Te51  1  0.00246835  0.74976887  0.50374864  1
  Te  Te52  1  0.50032691  0.25049693  0.00580089  1
  Te  Te53  1  0.50348650  0.24997824  0.49818502  1
  Te  Te54  1  0.49713997  0.75115877  -0.00031620  1
  Te  Te55  1  0.49760422  0.75988868  0.49964231  1
  Te  Te56  1  -0.00751750  -0.01134473  0.24974954  1
  Te  Te57  1  0.00019570  -0.00203584  0.74924326  1
  Te  Te58  1  -0.00518007  0.50438709  0.24125375  1
  Te  Te59  1  -0.00257364  0.49819937  0.75305067  1
  Te  Te60  1  0.50530236  0.00300625  0.25216498  1
  Te  Te61  1  0.49971960  -0.00115695  0.73924339  1
  Te  Te62  1  0.51154431  0.49548774  0.25036576  1
  Te  Te63  1  0.50234676  0.50129334  0.74901421  1
