# generated using pymatgen
data_AgSbTe2
_symmetry_space_group_name_H-M   'P 1'
_cell_length_a   12.20574427
_cell_length_b   12.20219154
_cell_length_c   12.20430223
_cell_angle_alpha   90.00437279
_cell_angle_beta   90.00478104
_cell_angle_gamma   90.00320666
_symmetry_Int_Tables_number   1
_chemical_formula_structural   AgSbTe2
_chemical_formula_sum   'Ag16 Sb16 Te32'
_cell_volume   1817.67006561
_cell_formula_units_Z   16
loop_
 _symmetry_equiv_pos_site_id
 _symmetry_equiv_pos_as_xyz
  1  'x, y, z'
loop_
 _atom_site_type_symbol
 _atom_site_label
 _atom_site_symmetry_multiplicity
 _atom_site_fract_x
 _atom_site_fract_y
 _atom_site_fract_z
 _atom_site_occupancy
  Ag  Ag0  1  -0.00360173  0.24931205  0.75243261  1
  Ag  Ag1  1  0.74770052  0.50075040  0.25221213  1
  Ag  Ag2  1  -0.00085388  0.00276530  -0.00281904  1
  Ag  Ag3  1  0.75036896  0.25149126  0.50209793  1
  Ag  Ag4  1  0.74956513  0.00172730  0.74863933  1
  Ag  Ag5  1  0.74465427  0.74893603  0.49998453  1
  Ag  Ag6  1  0.49824235  0.74603689  0.25253705  1
  Ag  Ag7  1  0.25561071  0.74794417  0.49781310  1
  Ag  Ag8  1  0.49843370  0.50238435  0.00315493  1
  Ag  Ag9  1  0.24860122  0.25256638  -0.00003045  1
  Ag  Ag10  1  -0.00291124  0.50028406  0.49921624  1
  Ag  Ag11  1  0.25285763  0.50391434  0.24776802  1
  Ag  Ag12  1  0.75192904  0.25040165  -0.00240413  1
  Ag  Ag13  1  0.50315341  -0.00605606  0.50151327  1
  Ag  Ag14  1  0.25350575  0.74685414  0.00233367  1
  Ag  Ag15  1  0.50071535  0.75060737  0.74670355  1
  Sb  Sb16  1  0.25064626  -0.00095875  0.75034888  1
  Sb  Sb17  1  0.74916533  0.49836325  0.74759110  1
  Sb  Sb18  1  0.74732321  -0.00173003  0.25164081  1
  Sb  Sb19  1  0.50095075  0.25535240  0.24981941  1
  Sb  Sb20  1  0.25100987  0.50089280  0.75241475  1
  Sb  Sb21  1  0.50373786  0.24963068  0.74985415  1
  Sb  Sb22  1  -0.00060096  0.25173087  0.24752455  1
  Sb  Sb23  1  0.24963887  0.25348971  0.49965918  1
  Sb  Sb24  1  -0.00358386  0.00016957  0.50317438  1
  Sb  Sb25  1  0.74668892  0.74891830  0.00031071  1
  Sb  Sb26  1  -0.00195186  0.75080048  0.75011728  1
  Sb  Sb27  1  0.00091168  0.49714311  0.00020978  1
  Sb  Sb28  1  0.50243310  0.50803281  0.49617184  1
  Sb  Sb29  1  0.25253662  -0.00466871  0.24959597  1
  Sb  Sb30  1  0.00153539  0.74752189  0.25027575  1
  Sb  Sb31  1  0.50107627  -0.00250627  -0.00182957  1
  Te  Te32  1  0.25073800  0.25742144  0.24418871  1
  Te  Te33  1  0.24489138  0.24951632  0.75581902  1
  Te  Te34  1  0.25364661  0.74606972  0.24979949  1
  Te  Te35  1  0.25501315  0.75078941  0.74968644  1
  Te  Te36  1  0.74890241  0.25549000  0.25013359  1
  Te  Te37  1  0.75199350  0.24737997  0.75032502  1
  Te  Te38  1  0.74542300  0.74557337  0.25353135  1
  Te  Te39  1  0.74666094  0.75394840  0.74656305  1
  Te  Te40  1  0.24741812  0.00064907  0.00001764  1
  Te  Te41  1  0.25334452  -0.00525999  0.49965027  1
  Te  Te42  1  0.25063121  0.50103112  0.00349094  1
  Te  Te43  1  0.24762870  0.50279098  0.49479600  1
  Te  Te44  1  0.75185727  0.00435552  -0.00274372  1
  Te  Te45  1  0.74925365  -0.00016048  0.50184405  1
  Te  Te46  1  0.74925858  0.49653085  0.00422542  1
  Te  Te47  1  0.75109486  0.49965862  0.49709969  1
  Te  Te48  1  -0.00113371  0.24909603  -0.00338174  1
  Te  Te49  1  -0.00367091  0.25175314  0.50453358  1
  Te  Te50  1  0.00664859  0.75366979  -0.00179869  1
  Te  Te51  1  -0.00012534  0.74773525  0.50154849  1
  Te  Te52  1  0.50012371  0.25270762  -0.00102162  1
  Te  Te53  1  0.50471095  0.24369153  0.50132223  1
  Te  Te54  1  0.49654146  0.74845752  0.00041779  1
  Te  Te55  1  0.50021709  0.74932555  0.50049745  1
  Te  Te56  1  0.00000159  -0.00019674  0.24140907  1
  Te  Te57  1  -0.00589120  0.00451046  0.75408590  1
  Te  Te58  1  -0.00119341  0.50041597  0.25570534  1
  Te  Te59  1  -0.00008243  0.49414236  0.74364525  1
  Te  Te60  1  0.50043176  -0.00920676  0.25595851  1
  Te  Te61  1  0.50569672  -0.00511166  0.74634092  1
  Te  Te62  1  0.50002747  0.50456473  0.24656857  1
  Te  Te63  1  0.50045309  0.50655915  0.75771026  1
