# generated using pymatgen
data_AgSbTe2
_symmetry_space_group_name_H-M   'P 1'
_cell_length_a   12.21332948
_cell_length_b   12.21130947
_cell_length_c   12.21119566
_cell_angle_alpha   90.00641572
_cell_angle_beta   90.00284734
_cell_angle_gamma   89.99872371
_symmetry_Int_Tables_number   1
_chemical_formula_structural   AgSbTe2
_chemical_formula_sum   'Ag16 Sb16 Te32'
_cell_volume   1821.18681626
_cell_formula_units_Z   16
loop_
 _symmetry_equiv_pos_site_id
 _symmetry_equiv_pos_as_xyz
  1  'x, y, z'
loop_
 _atom_site_type_symbol
 _atom_site_label
 _atom_site_symmetry_multiplicity
 _atom_site_fract_x
 _atom_site_fract_y
 _atom_site_fract_z
 _atom_site_occupancy
  Ag  Ag0  1  0.49972228  0.24262440  0.25070700  1
  Ag  Ag1  1  0.75716166  0.75261253  0.00286695  1
  Ag  Ag2  1  0.49945593  -0.00035159  0.00844356  1
  Ag  Ag3  1  0.24280184  0.74885183  0.00353547  1
  Ag  Ag4  1  0.75344984  0.24465757  0.49582297  1
  Ag  Ag5  1  0.75167807  0.00183809  0.25111623  1
  Ag  Ag6  1  -0.00123245  0.00289172  0.49308932  1
  Ag  Ag7  1  0.00079515  0.25053128  0.74944502  1
  Ag  Ag8  1  0.24810714  -0.00000516  0.24878739  1
  Ag  Ag9  1  0.00382382  0.50502198  0.00134289  1
  Ag  Ag10  1  0.24535696  0.50079913  0.24572244  1
  Ag  Ag11  1  0.00206993  0.74896302  0.75675663  1
  Ag  Ag12  1  0.24406015  0.50111077  0.75442065  1
  Ag  Ag13  1  0.00040776  0.24461924  0.25142919  1
  Ag  Ag14  1  0.50113564  0.00290922  0.49140050  1
  Ag  Ag15  1  0.00239418  0.75416438  0.24427350  1
  Sb  Sb16  1  0.75539813  0.49894022  0.24763102  1
  Sb  Sb17  1  0.24702011  0.24998003  0.00322693  1
  Sb  Sb18  1  0.75357357  0.24588298  0.00429217  1
  Sb  Sb19  1  0.00063761  -0.00785007  0.01005464  1
  Sb  Sb20  1  0.24694823  0.75241710  0.49610993  1
  Sb  Sb21  1  0.49574767  0.50007766  0.00374004  1
  Sb  Sb22  1  0.49861545  0.24878465  0.74838266  1
  Sb  Sb23  1  0.24565321  -0.00169198  0.75341161  1
  Sb  Sb24  1  0.00100361  0.49647432  0.49875158  1
  Sb  Sb25  1  0.49727521  0.75094158  0.75251078  1
  Sb  Sb26  1  0.49905274  0.49654608  0.49591491  1
  Sb  Sb27  1  0.75407797  0.75640340  0.49647890  1
  Sb  Sb28  1  0.75395437  -0.00024422  0.75010537  1
  Sb  Sb29  1  0.75680408  0.50015692  0.75279897  1
  Sb  Sb30  1  0.49671470  0.75895925  0.24806925  1
  Sb  Sb31  1  0.24610740  0.24695500  0.49685542  1
  Te  Te32  1  0.24743117  0.24830597  0.24951925  1
  Te  Te33  1  0.24339912  0.25495121  0.75059559  1
  Te  Te34  1  0.24720334  0.75042993  0.24686642  1
  Te  Te35  1  0.24499187  0.74712743  0.75495546  1
  Te  Te36  1  0.75248828  0.24760134  0.25180622  1
  Te  Te37  1  0.75671893  0.25056114  0.74486047  1
  Te  Te38  1  0.75480452  0.75276400  0.24641494  1
  Te  Te39  1  0.75680496  0.74922073  0.75554412  1
  Te  Te40  1  0.25402054  -0.00456487  0.00450433  1
  Te  Te41  1  0.24979283  -0.00079725  0.49378117  1
  Te  Te42  1  0.24698056  0.50379578  0.00270073  1
  Te  Te43  1  0.25065989  0.50142190  0.49836974  1
  Te  Te44  1  0.74552816  -0.00445394  0.00459613  1
  Te  Te45  1  0.75126461  0.00263567  0.49601515  1
  Te  Te46  1  0.75499167  0.50795122  0.00024286  1
  Te  Te47  1  0.74825060  0.49200092  0.50040110  1
  Te  Te48  1  -0.00166573  0.25596172  0.00039525  1
  Te  Te49  1  -0.00278073  0.24653413  0.49745563  1
  Te  Te50  1  0.00133017  0.75085114  0.00108509  1
  Te  Te51  1  -0.00175764  0.75571718  0.49922424  1
  Te  Te52  1  0.50168356  0.24455130  0.00447589  1
  Te  Te53  1  0.50508411  0.24441898  0.49695006  1
  Te  Te54  1  0.50013274  0.75417484  -0.00049927  1
  Te  Te55  1  0.50232146  0.75882362  0.50092851  1
  Te  Te56  1  0.00089553  0.00149543  0.24984016  1
  Te  Te57  1  0.00162283  0.00113770  0.74262268  1
  Te  Te58  1  0.00414825  0.49945576  0.24854047  1
  Te  Te59  1  0.00468680  0.50044004  0.75128278  1
  Te  Te60  1  0.49924239  0.00195638  0.25051018  1
  Te  Te61  1  0.49849020  0.00132886  0.74890281  1
  Te  Te62  1  0.49164720  0.49151119  0.24989330  1
  Te  Te63  1  0.48981586  0.49871920  0.74972467  1
