# generated using pymatgen
data_AgSbTe2
_symmetry_space_group_name_H-M   'P 1'
_cell_length_a   12.22316616
_cell_length_b   12.21405559
_cell_length_c   12.23313051
_cell_angle_alpha   90.00249845
_cell_angle_beta   90.00211875
_cell_angle_gamma   90.00000746
_symmetry_Int_Tables_number   1
_chemical_formula_structural   AgSbTe2
_chemical_formula_sum   'Ag16 Sb16 Te32'
_cell_volume   1826.33825430
_cell_formula_units_Z   16
loop_
 _symmetry_equiv_pos_site_id
 _symmetry_equiv_pos_as_xyz
  1  'x, y, z'
loop_
 _atom_site_type_symbol
 _atom_site_label
 _atom_site_symmetry_multiplicity
 _atom_site_fract_x
 _atom_site_fract_y
 _atom_site_fract_z
 _atom_site_occupancy
  Ag  Ag0  1  0.74775790  0.75123597  0.49978337  1
  Ag  Ag1  1  0.75489648  0.49570362  0.24657051  1
  Ag  Ag2  1  0.00253295  0.49369365  0.00668358  1
  Ag  Ag3  1  0.49733756  0.49560209  0.00057431  1
  Ag  Ag4  1  0.50213064  0.75134791  0.75013778  1
  Ag  Ag5  1  0.74404823  -0.00002900  0.75029206  1
  Ag  Ag6  1  0.25124730  0.49731668  0.75388601  1
  Ag  Ag7  1  -0.00058421  0.25740057  0.24770443  1
  Ag  Ag8  1  0.00178069  0.49686653  0.49353598  1
  Ag  Ag9  1  0.50428166  0.00368657  -0.00167008  1
  Ag  Ag10  1  0.24916247  0.25507488  0.49713319  1
  Ag  Ag11  1  0.74788004  0.00329689  0.24900124  1
  Ag  Ag12  1  0.24525177  0.49307289  0.24588380  1
  Ag  Ag13  1  0.50480794  -0.00010635  0.50116559  1
  Ag  Ag14  1  0.74839010  0.25163115  0.00463519  1
  Ag  Ag15  1  0.25101036  0.25792686  0.00284996  1
  Sb  Sb16  1  -0.00007698  0.25216805  0.75171304  1
  Sb  Sb17  1  0.50190174  0.74911070  0.25024402  1
  Sb  Sb18  1  0.74876813  0.49947269  0.75246226  1
  Sb  Sb19  1  -0.00348851  0.00673852  0.00283334  1
  Sb  Sb20  1  -0.00209237  0.74680443  0.74848184  1
  Sb  Sb21  1  0.25255183  0.74062311  -0.00095162  1
  Sb  Sb22  1  0.49885631  0.49896327  0.49995351  1
  Sb  Sb23  1  0.74769532  0.74934290  0.00060381  1
  Sb  Sb24  1  0.75042873  0.24957141  0.49514200  1
  Sb  Sb25  1  0.50169646  0.25128633  0.24719855  1
  Sb  Sb26  1  0.25530624  0.00198688  0.75183932  1
  Sb  Sb27  1  -0.00238168  0.00260372  0.49709499  1
  Sb  Sb28  1  0.50012485  0.24960063  0.75231196  1
  Sb  Sb29  1  0.25168186  0.74675315  0.50134199  1
  Sb  Sb30  1  -0.00255495  0.74167755  0.25109516  1
  Sb  Sb31  1  0.25166677  0.00786594  0.24840674  1
  Te  Te32  1  0.24566975  0.25352967  0.24848120  1
  Te  Te33  1  0.24934468  0.25402083  0.75112529  1
  Te  Te34  1  0.24924062  0.74158726  0.25042717  1
  Te  Te35  1  0.25530224  0.74536851  0.74963835  1
  Te  Te36  1  0.75298035  0.25234803  0.24696764  1
  Te  Te37  1  0.75109020  0.24519221  0.75738820  1
  Te  Te38  1  0.75024749  0.75012183  0.25579932  1
  Te  Te39  1  0.74628311  0.75292838  0.74527424  1
  Te  Te40  1  0.25490868  0.00780762  0.00020906  1
  Te  Te41  1  0.25363388  0.00416555  0.49982278  1
  Te  Te42  1  0.25202057  0.49719171  0.00124650  1
  Te  Te43  1  0.24915109  0.49715187  0.49893887  1
  Te  Te44  1  0.74771743  0.00121036  0.00259688  1
  Te  Te45  1  0.74753017  0.00035650  0.49829124  1
  Te  Te46  1  0.74808433  0.49836504  0.00135739  1
  Te  Te47  1  0.75126751  0.50036494  0.49828745  1
  Te  Te48  1  0.00016718  0.25418367  0.00267710  1
  Te  Te49  1  0.00366195  0.25453343  0.49650569  1
  Te  Te50  1  0.00109983  0.74056000  -0.00041252  1
  Te  Te51  1  -0.00517713  0.74448863  0.50022051  1
  Te  Te52  1  0.50067254  0.25087336  -0.00006566  1
  Te  Te53  1  0.49467118  0.24486497  0.50060294  1
  Te  Te54  1  0.49993775  0.75164660  -0.00490617  1
  Te  Te55  1  0.50359396  0.75415636  0.50415553  1
  Te  Te56  1  -0.00545455  0.00656999  0.24949933  1
  Te  Te57  1  -0.00811864  -0.00120494  0.75020327  1
  Te  Te58  1  -0.00182775  0.49732207  0.24944439  1
  Te  Te59  1  0.00439229  0.50083222  0.74956346  1
  Te  Te60  1  0.50407764  -0.00144835  0.24850271  1
  Te  Te61  1  0.50299270  -0.00345464  0.75185768  1
  Te  Te62  1  0.50203660  0.50175853  0.24535769  1
  Te  Te63  1  0.49678673  0.50431759  0.75300465  1
