# generated using pymatgen
data_AgSbTe2
_symmetry_space_group_name_H-M   'P 1'
_cell_length_a   12.24328403
_cell_length_b   12.21311457
_cell_length_c   12.22179004
_cell_angle_alpha   90.00073831
_cell_angle_beta   90.00047646
_cell_angle_gamma   89.99937505
_symmetry_Int_Tables_number   1
_chemical_formula_structural   AgSbTe2
_chemical_formula_sum   'Ag16 Sb16 Te32'
_cell_volume   1827.50752749
_cell_formula_units_Z   16
loop_
 _symmetry_equiv_pos_site_id
 _symmetry_equiv_pos_as_xyz
  1  'x, y, z'
loop_
 _atom_site_type_symbol
 _atom_site_label
 _atom_site_symmetry_multiplicity
 _atom_site_fract_x
 _atom_site_fract_y
 _atom_site_fract_z
 _atom_site_occupancy
  Ag  Ag0  1  0.74906992  0.25032198  0.00253799  1
  Ag  Ag1  1  0.74664441  0.75697225  0.49978187  1
  Ag  Ag2  1  0.49874107  -0.00139133  0.50303537  1
  Ag  Ag3  1  0.49866486  0.24916960  0.24309628  1
  Ag  Ag4  1  0.49714991  0.75501870  0.74571748  1
  Ag  Ag5  1  0.00352292  0.24739799  0.75621440  1
  Ag  Ag6  1  0.25086628  0.25343396  0.00047962  1
  Ag  Ag7  1  0.00083596  0.00218777  0.50012810  1
  Ag  Ag8  1  0.74919890  0.00527655  0.25397359  1
  Ag  Ag9  1  0.49690206  0.49091332  0.00072717  1
  Ag  Ag10  1  0.49603794  0.24647693  0.75635846  1
  Ag  Ag11  1  0.00142038  0.24953198  0.24355389  1
  Ag  Ag12  1  0.25370373  0.00455012  0.74597289  1
  Ag  Ag13  1  0.25339385  0.75543102  0.50191677  1
  Ag  Ag14  1  0.00363474  0.49040952  0.00179080  1
  Ag  Ag15  1  0.25070649  0.49388104  0.24584643  1
  Sb  Sb16  1  0.49799810  0.50043869  0.49946719  1
  Sb  Sb17  1  0.49942231  0.00805414  -0.00235035  1
  Sb  Sb18  1  0.74905339  0.24621785  0.49799893  1
  Sb  Sb19  1  0.25242844  0.74826442  -0.00073026  1
  Sb  Sb20  1  0.00051106  0.75138929  0.25111572  1
  Sb  Sb21  1  0.00060281  0.00839752  -0.00059966  1
  Sb  Sb22  1  0.74895267  0.49803914  0.75149459  1
  Sb  Sb23  1  0.74686868  0.75131810  -0.00019750  1
  Sb  Sb24  1  0.25133693  0.49667173  0.75277266  1
  Sb  Sb25  1  0.25048656  0.24679192  0.50049323  1
  Sb  Sb26  1  0.00182393  0.75205499  0.74819462  1
  Sb  Sb27  1  0.25014926  0.00439052  0.25213617  1
  Sb  Sb28  1  0.00273075  0.49791037  0.49944245  1
  Sb  Sb29  1  0.74804170  0.00265768  0.74693060  1
  Sb  Sb30  1  0.49944832  0.75143807  0.25196583  1
  Sb  Sb31  1  0.74924886  0.49598789  0.24751111  1
  Te  Te32  1  0.25082302  0.25222981  0.24932882  1
  Te  Te33  1  0.25178776  0.24721367  0.75053596  1
  Te  Te34  1  0.25015912  0.74514779  0.25321332  1
  Te  Te35  1  0.25386443  0.75384764  0.74694451  1
  Te  Te36  1  0.74919640  0.24655128  0.24780233  1
  Te  Te37  1  0.74887750  0.24890836  0.75430429  1
  Te  Te38  1  0.74987755  0.75771774  0.25375487  1
  Te  Te39  1  0.74466537  0.75055828  0.74652916  1
  Te  Te40  1  0.24897807  0.00389540  -0.00570718  1
  Te  Te41  1  0.25186918  -0.00286589  0.50250388  1
  Te  Te42  1  0.25097595  0.49719363  0.00300888  1
  Te  Te43  1  0.24894716  0.50806304  0.49380598  1
  Te  Te44  1  0.75046281  0.00460000  0.00790980  1
  Te  Te45  1  0.74881647  -0.00220284  0.49709837  1
  Te  Te46  1  0.74894040  0.49501444  0.00024862  1
  Te  Te47  1  0.75103517  0.51170033  0.49944320  1
  Te  Te48  1  0.00135896  0.25111341  0.00056015  1
  Te  Te49  1  -0.00086393  0.24548004  0.50063776  1
  Te  Te50  1  -0.00118017  0.73805242  -0.00124748  1
  Te  Te51  1  0.00091389  0.75509408  0.50112887  1
  Te  Te52  1  0.49856957  0.25084233  -0.00017943  1
  Te  Te53  1  0.50134893  0.24682130  0.50177688  1
  Te  Te54  1  0.50115744  0.74153659  -0.00582119  1
  Te  Te55  1  0.49838626  0.75212393  0.50284436  1
  Te  Te56  1  -0.00075393  0.00407512  0.25367347  1
  Te  Te57  1  0.00280828  0.00432095  0.74660060  1
  Te  Te58  1  0.00236368  0.49447582  0.24770698  1
  Te  Te59  1  0.00012947  0.49279460  0.75306996  1
  Te  Te60  1  0.50121762  0.00377765  0.25378154  1
  Te  Te61  1  0.49805485  0.00273221  0.74760926  1
  Te  Te62  1  0.49788940  0.49479956  0.24698133  1
  Te  Te63  1  0.49972612  0.49478360  0.75337568  1
