# generated using pymatgen
data_AgSbTe2
_symmetry_space_group_name_H-M   'P 1'
_cell_length_a   12.26577070
_cell_length_b   12.28537064
_cell_length_c   12.29425235
_cell_angle_alpha   90.00075766
_cell_angle_beta   90.01165669
_cell_angle_gamma   90.00405718
_symmetry_Int_Tables_number   1
_chemical_formula_structural   AgSbTe2
_chemical_formula_sum   'Ag16 Sb16 Te32'
_cell_volume   1852.61517819
_cell_formula_units_Z   16
loop_
 _symmetry_equiv_pos_site_id
 _symmetry_equiv_pos_as_xyz
  1  'x, y, z'
loop_
 _atom_site_type_symbol
 _atom_site_label
 _atom_site_symmetry_multiplicity
 _atom_site_fract_x
 _atom_site_fract_y
 _atom_site_fract_z
 _atom_site_occupancy
  Ag  Ag0  1  -0.00339348  0.48878691  0.00664531  1
  Ag  Ag1  1  0.00575868  0.48665423  0.49317295  1
  Ag  Ag2  1  0.23345101  0.49462759  0.26379374  1
  Ag  Ag3  1  0.76526473  0.48694079  0.25436560  1
  Ag  Ag4  1  0.76569909  0.25675115  0.49096389  1
  Ag  Ag5  1  0.49463899  0.74733525  0.74569012  1
  Ag  Ag6  1  -0.00228667  0.01089746  0.00440160  1
  Ag  Ag7  1  0.00200386  0.01418044  0.49644615  1
  Ag  Ag8  1  0.76150468  0.25435070  0.00905937  1
  Ag  Ag9  1  0.76069891  0.01482124  0.25235839  1
  Ag  Ag10  1  0.23388222  0.25902081  0.49868928  1
  Ag  Ag11  1  0.24083702  0.50125203  0.73687634  1
  Ag  Ag12  1  0.24377059  0.00000354  0.74261931  1
  Ag  Ag13  1  -0.00816084  0.25723850  0.25731690  1
  Ag  Ag14  1  0.76076171  0.49620031  0.74508758  1
  Ag  Ag15  1  0.24477841  0.74067596  0.50535947  1
  Sb  Sb16  1  0.75207272  0.74620213  -0.00055565  1
  Sb  Sb17  1  0.23545053  0.25220308  0.00351064  1
  Sb  Sb18  1  0.24837632  0.74824190  -0.00463990  1
  Sb  Sb19  1  0.00398655  0.74633132  0.74811231  1
  Sb  Sb20  1  0.50494783  0.49841255  -0.00035128  1
  Sb  Sb21  1  0.49856135  0.00085197  0.50033505  1
  Sb  Sb22  1  0.50270461  0.00209842  -0.00179353  1
  Sb  Sb23  1  0.49404524  0.49953184  0.50025190  1
  Sb  Sb24  1  0.23565436  0.00634505  0.25710303  1
  Sb  Sb25  1  0.75716901  0.00313002  0.74776410  1
  Sb  Sb26  1  0.50625967  0.24992622  0.25152343  1
  Sb  Sb27  1  0.00030123  0.25448014  0.73981901  1
  Sb  Sb28  1  0.49733120  0.75014322  0.25502619  1
  Sb  Sb29  1  0.49815732  0.25089210  0.74947542  1
  Sb  Sb30  1  0.00116480  0.74032124  0.25102055  1
  Sb  Sb31  1  0.75630057  0.74280766  0.50123962  1
  Te  Te32  1  0.24648089  0.25476427  0.25336877  1
  Te  Te33  1  0.24999556  0.25396713  0.74391130  1
  Te  Te34  1  0.25248485  0.74055012  0.25852230  1
  Te  Te35  1  0.25030982  0.74402960  0.74708455  1
  Te  Te36  1  0.75249558  0.25417518  0.25599455  1
  Te  Te37  1  0.74990764  0.25633647  0.74455899  1
  Te  Te38  1  0.74735511  0.74603510  0.25085066  1
  Te  Te39  1  0.74248639  0.74129270  0.74795550  1
  Te  Te40  1  0.24131201  0.00081025  -0.00407393  1
  Te  Te41  1  0.24521111  0.00525558  0.50065546  1
  Te  Te42  1  0.24025703  0.49825034  -0.00271288  1
  Te  Te43  1  0.24792138  0.49487694  0.50239275  1
  Te  Te44  1  0.75769243  0.00288862  -0.00303634  1
  Te  Te45  1  0.75712302  0.00102058  0.50273120  1
  Te  Te46  1  0.75631633  0.49835685  0.00089094  1
  Te  Te47  1  0.75444014  0.50020498  0.49934681  1
  Te  Te48  1  -0.00505896  0.25219418  0.00810475  1
  Te  Te49  1  -0.00085113  0.25224603  0.49838841  1
  Te  Te50  1  0.00048580  0.75247675  0.00153563  1
  Te  Te51  1  0.00636537  0.75128170  0.49884084  1
  Te  Te52  1  0.51995649  0.24856437  0.00051374  1
  Te  Te53  1  0.50142588  0.24943031  0.49874396  1
  Te  Te54  1  0.49993462  0.75124588  -0.01006708  1
  Te  Te55  1  0.48812928  0.75052642  0.50504736  1
  Te  Te56  1  -0.00316634  0.00494328  0.25141973  1
  Te  Te57  1  0.00428251  -0.00130146  0.74815177  1
  Te  Te58  1  -0.00137122  0.49805234  0.25238785  1
  Te  Te59  1  0.00093648  0.49918570  0.74937532  1
  Te  Te60  1  0.51701150  -0.00143615  0.24830914  1
  Te  Te61  1  0.49035690  -0.00408873  0.75095540  1
  Te  Te62  1  0.50231158  0.50003005  0.24787053  1
  Te  Te63  1  0.49576972  0.50217881  0.75129515  1
