# generated using pymatgen
data_AgSbTe2
_symmetry_space_group_name_H-M   'P 1'
_cell_length_a   12.22894405
_cell_length_b   12.22317207
_cell_length_c   12.22384783
_cell_angle_alpha   89.99589273
_cell_angle_beta   89.99535055
_cell_angle_gamma   89.99553257
_symmetry_Int_Tables_number   1
_chemical_formula_structural   AgSbTe2
_chemical_formula_sum   'Ag16 Sb16 Te32'
_cell_volume   1827.17781993
_cell_formula_units_Z   16
loop_
 _symmetry_equiv_pos_site_id
 _symmetry_equiv_pos_as_xyz
  1  'x, y, z'
loop_
 _atom_site_type_symbol
 _atom_site_label
 _atom_site_symmetry_multiplicity
 _atom_site_fract_x
 _atom_site_fract_y
 _atom_site_fract_z
 _atom_site_occupancy
  Ag  Ag0  1  0.00205424  0.24485304  0.24773965  1
  Ag  Ag1  1  0.75144198  0.75175015  0.00202124  1
  Ag  Ag2  1  0.49857459  0.50930200  0.00027028  1
  Ag  Ag3  1  0.24528855  -0.00225131  0.24652535  1
  Ag  Ag4  1  -0.00123801  0.50888115  0.49707041  1
  Ag  Ag5  1  0.50223860  -0.00604026  0.49691015  1
  Ag  Ag6  1  -0.00238640  -0.00824788  0.49295068  1
  Ag  Ag7  1  0.24911840  0.75158661  0.00199604  1
  Ag  Ag8  1  0.75621773  0.75448563  0.49746909  1
  Ag  Ag9  1  0.75506700  -0.00532378  0.25072112  1
  Ag  Ag10  1  0.24780416  0.24765413  0.00434849  1
  Ag  Ag11  1  0.49812926  -0.00846202  0.00207454  1
  Ag  Ag12  1  -0.00138348  0.75065600  0.75195438  1
  Ag  Ag13  1  0.50097183  0.75229034  0.75657540  1
  Ag  Ag14  1  0.00153902  0.50729304  0.00278268  1
  Ag  Ag15  1  -0.00205952  0.75451816  0.24909999  1
  Sb  Sb16  1  0.50260546  0.75437919  0.24212284  1
  Sb  Sb17  1  0.49617228  0.24497356  0.24752974  1
  Sb  Sb18  1  0.75235634  0.24295802  0.49525628  1
  Sb  Sb19  1  0.00184624  0.24813695  0.75376198  1
  Sb  Sb20  1  0.24257440  0.75330676  0.49504839  1
  Sb  Sb21  1  0.00296180  -0.01090959  0.01069518  1
  Sb  Sb22  1  0.49824504  0.24682975  0.75375275  1
  Sb  Sb23  1  0.24692216  0.24565717  0.49330542  1
  Sb  Sb24  1  0.75348927  0.24622797  0.00473323  1
  Sb  Sb25  1  0.24590068  0.50462249  0.24567347  1
  Sb  Sb26  1  0.24873123  0.50476232  0.75381437  1
  Sb  Sb27  1  0.50183315  0.51147611  0.49989433  1
  Sb  Sb28  1  0.24913943  -0.00419187  0.75588534  1
  Sb  Sb29  1  0.75062780  -0.00565309  0.75072083  1
  Sb  Sb30  1  0.75160031  0.50587549  0.75217827  1
  Sb  Sb31  1  0.75475429  0.50822906  0.24815594  1
  Te  Te32  1  0.24405525  0.24281143  0.24411329  1
  Te  Te33  1  0.24964110  0.24929019  0.76243514  1
  Te  Te34  1  0.24389056  0.75472101  0.24467337  1
  Te  Te35  1  0.24930638  0.75069807  0.75906727  1
  Te  Te36  1  0.75964264  0.23889071  0.24954106  1
  Te  Te37  1  0.75052576  0.24989635  0.74986211  1
  Te  Te38  1  0.75332323  0.75488745  0.24919136  1
  Te  Te39  1  0.75175582  0.75104369  0.75183554  1
  Te  Te40  1  0.25273717  -0.00255410  0.00414118  1
  Te  Te41  1  0.25126974  0.00007276  0.49202947  1
  Te  Te42  1  0.24920367  0.50294377  0.00190683  1
  Te  Te43  1  0.24405559  0.49867476  0.49880398  1
  Te  Te44  1  0.74374193  -0.00422083  0.00399151  1
  Te  Te45  1  0.74975669  -0.00442159  0.49600489  1
  Te  Te46  1  0.75047618  0.50579882  0.00146810  1
  Te  Te47  1  0.75454977  0.50827590  0.49876749  1
  Te  Te48  1  0.00255965  0.25821146  0.00158898  1
  Te  Te49  1  0.00028232  0.25065622  0.49609294  1
  Te  Te50  1  -0.00142302  0.74994390  -0.00029258  1
  Te  Te51  1  0.00008279  0.75035688  0.49959268  1
  Te  Te52  1  0.49547558  0.25035381  -0.00158844  1
  Te  Te53  1  0.49971382  0.24293593  0.50132019  1
  Te  Te54  1  0.50089754  0.75036036  0.00030676  1
  Te  Te55  1  0.50399837  0.75117263  0.50507055  1
  Te  Te56  1  0.00030909  -0.00242177  0.25042905  1
  Te  Te57  1  0.00040022  -0.00498188  0.73722707  1
  Te  Te58  1  0.00009044  0.50194901  0.24883935  1
  Te  Te59  1  0.00019972  0.50576425  0.75063489  1
  Te  Te60  1  0.49921838  -0.00020330  0.25077742  1
  Te  Te61  1  0.49957060  -0.00524387  0.74975409  1
  Te  Te62  1  0.50001702  0.49768436  0.24477346  1
  Te  Te63  1  0.49953818  0.50702832  0.75460315  1
