# generated using pymatgen
data_AgSbTe2
_symmetry_space_group_name_H-M   'P 1'
_cell_length_a   12.21429777
_cell_length_b   12.21021575
_cell_length_c   12.20551527
_cell_angle_alpha   89.99291050
_cell_angle_beta   89.99778379
_cell_angle_gamma   89.99750577
_symmetry_Int_Tables_number   1
_chemical_formula_structural   AgSbTe2
_chemical_formula_sum   'Ag16 Sb16 Te32'
_cell_volume   1820.32089987
_cell_formula_units_Z   16
loop_
 _symmetry_equiv_pos_site_id
 _symmetry_equiv_pos_as_xyz
  1  'x, y, z'
loop_
 _atom_site_type_symbol
 _atom_site_label
 _atom_site_symmetry_multiplicity
 _atom_site_fract_x
 _atom_site_fract_y
 _atom_site_fract_z
 _atom_site_occupancy
  Ag  Ag0  1  -0.00156617  0.25129658  0.25360810  1
  Ag  Ag1  1  0.49884904  0.75153180  0.25323625  1
  Ag  Ag2  1  0.25292055  0.74627536  0.50295271  1
  Ag  Ag3  1  0.74718692  0.00252214  0.25144496  1
  Ag  Ag4  1  0.25036930  0.49992252  0.74556904  1
  Ag  Ag5  1  0.49805544  0.00107031  0.00293309  1
  Ag  Ag6  1  0.00348831  0.25460960  0.74584035  1
  Ag  Ag7  1  0.49634676  0.25330378  0.74831962  1
  Ag  Ag8  1  0.49526717  0.74635508  0.74521131  1
  Ag  Ag9  1  0.00041855  0.49711845  0.50268984  1
  Ag  Ag10  1  0.75158973  0.25380674  0.49687822  1
  Ag  Ag11  1  0.25319335  0.00114559  0.24981466  1
  Ag  Ag12  1  0.49917238  0.50147514  0.50199548  1
  Ag  Ag13  1  0.00472100  0.74553863  0.74526851  1
  Ag  Ag14  1  0.74915460  0.49677640  0.25641556  1
  Ag  Ag15  1  0.25116012  0.24901501  -0.00182666  1
  Sb  Sb16  1  0.00255104  0.00254982  0.00175577  1
  Sb  Sb17  1  0.00174658  0.49798010  -0.00347148  1
  Sb  Sb18  1  0.24913059  0.25338570  0.50157797  1
  Sb  Sb19  1  0.74822157  0.75099811  0.00096238  1
  Sb  Sb20  1  0.74771021  0.74600515  0.49835109  1
  Sb  Sb21  1  0.74721803  0.00232621  0.74827185  1
  Sb  Sb22  1  0.25058580  0.49946783  0.25461865  1
  Sb  Sb23  1  0.50120033  0.24889969  0.25222177  1
  Sb  Sb24  1  0.49814704  0.49824710  -0.00230742  1
  Sb  Sb25  1  0.49933110  -0.00185838  0.49693466  1
  Sb  Sb26  1  0.74823386  0.24859405  0.00261587  1
  Sb  Sb27  1  0.25290630  0.75090602  -0.00233967  1
  Sb  Sb28  1  0.74947990  0.49763816  0.74448251  1
  Sb  Sb29  1  0.00020786  0.00357184  0.49912274  1
  Sb  Sb30  1  0.25233987  0.00038540  0.74982097  1
  Sb  Sb31  1  0.00146549  0.74818766  0.25532769  1
  Te  Te32  1  0.24720816  0.24771104  0.24842531  1
  Te  Te33  1  0.24934150  0.25057959  0.75037188  1
  Te  Te34  1  0.25341347  0.75199855  0.25233794  1
  Te  Te35  1  0.25243278  0.74909630  0.74768030  1
  Te  Te36  1  0.75194046  0.24996320  0.25261921  1
  Te  Te37  1  0.75123473  0.24947308  0.74599901  1
  Te  Te38  1  0.74601124  0.75147384  0.25094518  1
  Te  Te39  1  0.74821967  0.75048629  0.74933739  1
  Te  Te40  1  0.25465757  0.00507174  0.00603212  1
  Te  Te41  1  0.25025587  -0.00768329  0.49270710  1
  Te  Te42  1  0.25031871  0.49278270  -0.00807949  1
  Te  Te43  1  0.25089541  0.50357929  0.50431527  1
  Te  Te44  1  0.74243818  0.00050789  0.00884429  1
  Te  Te45  1  0.74988620  0.00799123  0.49233741  1
  Te  Te46  1  0.75004547  0.49964531  0.01301779  1
  Te  Te47  1  0.74986561  0.49606647  0.49537700  1
  Te  Te48  1  0.00502911  0.24939714  -0.00147485  1
  Te  Te49  1  -0.00087091  0.25357498  0.50134221  1
  Te  Te50  1  0.00026884  0.75039023  -0.01064316  1
  Te  Te51  1  0.00289888  0.74432968  0.50490026  1
  Te  Te52  1  0.49640364  0.24688791  -0.00560262  1
  Te  Te53  1  0.50148757  0.25452869  0.50470594  1
  Te  Te54  1  0.49884519  0.75476906  -0.00036622  1
  Te  Te55  1  0.49814535  0.74699267  0.50192599  1
  Te  Te56  1  -0.00063380  0.00391081  0.24925006  1
  Te  Te57  1  -0.00072846  0.00162744  0.75051994  1
  Te  Te58  1  -0.00162843  0.49655789  0.25481003  1
  Te  Te59  1  0.00060900  0.49753128  0.74654480  1
  Te  Te60  1  0.49955045  -0.00181517  0.24792158  1
  Te  Te61  1  0.50067132  -0.00063531  0.75437457  1
  Te  Te62  1  0.50149403  0.50319854  0.25401293  1
  Te  Te63  1  0.49949055  0.50096331  0.74721441  1
