# generated using pymatgen
data_AgSbTe2
_symmetry_space_group_name_H-M   'P 1'
_cell_length_a   12.22691939
_cell_length_b   12.22315343
_cell_length_c   12.21936213
_cell_angle_alpha   90.00689276
_cell_angle_beta   90.00105816
_cell_angle_gamma   89.99996659
_symmetry_Int_Tables_number   1
_chemical_formula_structural   AgSbTe2
_chemical_formula_sum   'Ag16 Sb16 Te32'
_cell_volume   1826.20212932
_cell_formula_units_Z   16
loop_
 _symmetry_equiv_pos_site_id
 _symmetry_equiv_pos_as_xyz
  1  'x, y, z'
loop_
 _atom_site_type_symbol
 _atom_site_label
 _atom_site_symmetry_multiplicity
 _atom_site_fract_x
 _atom_site_fract_y
 _atom_site_fract_z
 _atom_site_occupancy
  Ag  Ag0  1  -0.00301876  0.00003141  -0.00195204  1
  Ag  Ag1  1  0.74864649  0.25103712  -0.00393803  1
  Ag  Ag2  1  0.74958123  0.73530149  0.50278840  1
  Ag  Ag3  1  0.51415439  0.49916105  0.50092579  1
  Ag  Ag4  1  0.74615187  0.49701681  0.73575708  1
  Ag  Ag5  1  0.50416764  0.74866911  0.74369555  1
  Ag  Ag6  1  -0.00147001  0.74566867  0.25493470  1
  Ag  Ag7  1  0.74595365  0.26394960  0.50355612  1
  Ag  Ag8  1  -0.01410704  0.50304918  0.49777697  1
  Ag  Ag9  1  0.74936791  0.49800250  0.26484891  1
  Ag  Ag10  1  0.50771345  0.25178108  0.74621112  1
  Ag  Ag11  1  0.25020206  0.50116825  0.25648221  1
  Ag  Ag12  1  0.74773373  0.00360723  0.74809330  1
  Ag  Ag13  1  0.25017035  0.74535498  0.50072603  1
  Ag  Ag14  1  0.50480099  0.25558290  0.25467340  1
  Ag  Ag15  1  0.25178695  -0.00086057  0.74826004  1
  Sb  Sb16  1  0.50273850  0.00186788  -0.00372655  1
  Sb  Sb17  1  -0.00923172  0.24979089  0.74904515  1
  Sb  Sb18  1  0.50175531  0.00091072  0.50309166  1
  Sb  Sb19  1  0.75114023  0.74964044  -0.00211961  1
  Sb  Sb20  1  0.50272834  0.49869158  -0.00060871  1
  Sb  Sb21  1  0.25418069  0.50036841  0.74337077  1
  Sb  Sb22  1  0.24849379  0.75066692  -0.00194688  1
  Sb  Sb23  1  -0.00267478  -0.00221142  0.50082721  1
  Sb  Sb24  1  0.24900193  -0.00066629  0.25226378  1
  Sb  Sb25  1  0.50117555  0.74369954  0.25746030  1
  Sb  Sb26  1  -0.00327183  0.74926282  0.74517723  1
  Sb  Sb27  1  0.75057384  0.00101321  0.25212445  1
  Sb  Sb28  1  -0.00420202  0.25404380  0.25195783  1
  Sb  Sb29  1  0.25381538  0.25366401  0.50076897  1
  Sb  Sb30  1  0.25007413  0.24920953  -0.00165935  1
  Sb  Sb31  1  -0.00388502  0.50031611  0.00167674  1
  Te  Te32  1  0.25606385  0.25356864  0.25004475  1
  Te  Te33  1  0.25940365  0.24620853  0.75011279  1
  Te  Te34  1  0.25044863  0.74728687  0.25396664  1
  Te  Te35  1  0.25313241  0.75185298  0.74689474  1
  Te  Te36  1  0.74734914  0.25134843  0.25214228  1
  Te  Te37  1  0.74784858  0.25017123  0.74789408  1
  Te  Te38  1  0.75009141  0.74830829  0.25286190  1
  Te  Te39  1  0.74800771  0.74952927  0.74768279  1
  Te  Te40  1  0.24386783  0.00038605  -0.00584680  1
  Te  Te41  1  0.24902662  -0.00638950  0.50516064  1
  Te  Te42  1  0.24844371  0.49953037  0.01011997  1
  Te  Te43  1  0.25058057  0.50366589  0.49700201  1
  Te  Te44  1  0.75344123  0.00326277  -0.00396623  1
  Te  Te45  1  0.75098663  -0.00059585  0.50466410  1
  Te  Te46  1  0.75101852  0.49532963  -0.00020572  1
  Te  Te47  1  0.74788121  0.50096747  0.50014929  1
  Te  Te48  1  -0.00542605  0.24553456  0.00013016  1
  Te  Te49  1  -0.00529349  0.25568267  0.49959572  1
  Te  Te50  1  -0.00002198  0.75383033  0.00760731  1
  Te  Te51  1  -0.00150927  0.74720551  0.49706875  1
  Te  Te52  1  0.50549167  0.25034547  -0.00231516  1
  Te  Te53  1  0.50260099  0.25227112  0.50151496  1
  Te  Te54  1  0.49984432  0.75058588  -0.01038030  1
  Te  Te55  1  0.50197995  0.74740204  0.50302315  1
  Te  Te56  1  0.00116653  -0.00562353  0.24622462  1
  Te  Te57  1  -0.00102071  0.00009755  0.75242294  1
  Te  Te58  1  -0.00225911  0.50254465  0.25231554  1
  Te  Te59  1  -0.00341948  0.50020838  0.74582598  1
  Te  Te60  1  0.49875122  0.00892913  0.24811478  1
  Te  Te61  1  0.50271052  0.00086349  0.74965910  1
  Te  Te62  1  0.50302417  0.49793585  0.25212687  1
  Te  Te63  1  0.50154180  0.49896687  0.74784579  1
