# generated using pymatgen
data_AgSbTe2
_symmetry_space_group_name_H-M   'P 1'
_cell_length_a   12.22106111
_cell_length_b   12.21237085
_cell_length_c   12.21529985
_cell_angle_alpha   89.99702438
_cell_angle_beta   89.99918002
_cell_angle_gamma   90.00597241
_symmetry_Int_Tables_number   1
_chemical_formula_structural   AgSbTe2
_chemical_formula_sum   'Ag16 Sb16 Te32'
_cell_volume   1823.11065245
_cell_formula_units_Z   16
loop_
 _symmetry_equiv_pos_site_id
 _symmetry_equiv_pos_as_xyz
  1  'x, y, z'
loop_
 _atom_site_type_symbol
 _atom_site_label
 _atom_site_symmetry_multiplicity
 _atom_site_fract_x
 _atom_site_fract_y
 _atom_site_fract_z
 _atom_site_occupancy
  Ag  Ag0  1  -0.00220409  0.50792750  -0.00233127  1
  Ag  Ag1  1  -0.00626877  0.74795908  0.24863449  1
  Ag  Ag2  1  0.24754433  -0.00346172  0.74527915  1
  Ag  Ag3  1  0.75542075  0.74518256  0.00393181  1
  Ag  Ag4  1  0.74775498  0.25081438  0.49772622  1
  Ag  Ag5  1  0.75438963  0.50500574  0.74856262  1
  Ag  Ag6  1  0.75094266  0.50689315  0.25168799  1
  Ag  Ag7  1  0.50651599  0.74951556  0.25229010  1
  Ag  Ag8  1  0.00012934  -0.00422910  0.50161613  1
  Ag  Ag9  1  -0.00015674  0.74679999  0.75175581  1
  Ag  Ag10  1  0.50000390  0.00078673  0.49861941  1
  Ag  Ag11  1  0.24564974  0.50424013  0.74985577  1
  Ag  Ag12  1  0.24453962  0.74783520  -0.00277381  1
  Ag  Ag13  1  0.75259731  0.74843741  0.49586266  1
  Ag  Ag14  1  0.50252785  0.25010762  0.25636417  1
  Ag  Ag15  1  0.25128645  0.24734324  0.50088242  1
  Sb  Sb16  1  0.49857421  -0.00413738  0.00053416  1
  Sb  Sb17  1  0.00168623  -0.00912322  -0.00166865  1
  Sb  Sb18  1  0.24842691  0.75162684  0.50316716  1
  Sb  Sb19  1  -0.00255669  0.50580337  0.50236802  1
  Sb  Sb20  1  0.50099311  0.75060782  0.74656640  1
  Sb  Sb21  1  0.50181752  0.49989731  0.49860284  1
  Sb  Sb22  1  -0.00284317  0.25218517  0.25441846  1
  Sb  Sb23  1  -0.00070177  0.25338827  0.74712056  1
  Sb  Sb24  1  0.24777166  0.50266801  0.25058766  1
  Sb  Sb25  1  0.24959127  0.25210946  -0.00128409  1
  Sb  Sb26  1  0.50131723  0.24869822  0.74380908  1
  Sb  Sb27  1  0.75008825  0.25512828  0.00247360  1
  Sb  Sb28  1  0.75343369  -0.00564747  0.74467581  1
  Sb  Sb29  1  0.74990285  -0.00854683  0.25357876  1
  Sb  Sb30  1  0.50181718  0.50340580  0.00115658  1
  Sb  Sb31  1  0.24972275  -0.00114530  0.25474671  1
  Te  Te32  1  0.25437651  0.25065315  0.25529232  1
  Te  Te33  1  0.25033546  0.25139263  0.74644713  1
  Te  Te34  1  0.24991678  0.74839369  0.24600867  1
  Te  Te35  1  0.24899250  0.74733885  0.75093965  1
  Te  Te36  1  0.74718423  0.25667050  0.25395293  1
  Te  Te37  1  0.74932503  0.25818575  0.74485307  1
  Te  Te38  1  0.75065368  0.74779287  0.25201057  1
  Te  Te39  1  0.75101746  0.74604045  0.74816436  1
  Te  Te40  1  0.24943693  -0.00460401  -0.00885799  1
  Te  Te41  1  0.24996673  0.00180053  0.50372627  1
  Te  Te42  1  0.24622434  0.50378293  -0.00487698  1
  Te  Te43  1  0.24902016  0.49489117  0.50578918  1
  Te  Te44  1  0.75048721  -0.00685545  -0.00317599  1
  Te  Te45  1  0.74988925  0.00053876  0.50236628  1
  Te  Te46  1  0.75251478  0.50408882  -0.00115293  1
  Te  Te47  1  0.75111007  0.50138162  0.50036890  1
  Te  Te48  1  -0.00016960  0.25777962  0.00136571  1
  Te  Te49  1  -0.00076845  0.24176751  0.49865216  1
  Te  Te50  1  -0.00076940  0.74802121  -0.00031164  1
  Te  Te51  1  -0.00218942  0.75333896  0.50025463  1
  Te  Te52  1  0.50005489  0.24810549  0.01110574  1
  Te  Te53  1  0.50213843  0.24675857  0.49591871  1
  Te  Te54  1  0.50076959  0.75158386  0.00771813  1
  Te  Te55  1  0.50313340  0.75395406  0.49477125  1
  Te  Te56  1  0.00075430  -0.00597965  0.25511616  1
  Te  Te57  1  0.00389726  -0.00492400  0.74662664  1
  Te  Te58  1  -0.00339088  0.50479355  0.24706236  1
  Te  Te59  1  -0.00089608  0.50374304  0.75143450  1
  Te  Te60  1  0.49979197  -0.00122611  0.25582379  1
  Te  Te61  1  0.49312921  0.00010794  0.74346881  1
  Te  Te62  1  0.50462381  0.50263533  0.25010342  1
  Te  Te63  1  0.49972570  0.49997253  0.75021741  1
