# generated using pymatgen
data_AgSbTe2
_symmetry_space_group_name_H-M   'P 1'
_cell_length_a   12.29529410
_cell_length_b   12.29710702
_cell_length_c   12.28356717
_cell_angle_alpha   89.99745622
_cell_angle_beta   90.00363037
_cell_angle_gamma   90.00252800
_symmetry_Int_Tables_number   1
_chemical_formula_structural   AgSbTe2
_chemical_formula_sum   'Ag16 Sb16 Te32'
_cell_volume   1857.23293772
_cell_formula_units_Z   16
loop_
 _symmetry_equiv_pos_site_id
 _symmetry_equiv_pos_as_xyz
  1  'x, y, z'
loop_
 _atom_site_type_symbol
 _atom_site_label
 _atom_site_symmetry_multiplicity
 _atom_site_fract_x
 _atom_site_fract_y
 _atom_site_fract_z
 _atom_site_occupancy
  Ag  Ag0  1  0.25774969  0.49294087  0.76280446  1
  Ag  Ag1  1  0.50234432  0.74317815  0.24158143  1
  Ag  Ag2  1  0.50848200  0.25175890  0.75594772  1
  Ag  Ag3  1  0.50282571  0.00225721  0.50575858  1
  Ag  Ag4  1  0.74419305  0.24974765  0.51768448  1
  Ag  Ag5  1  0.25953268  0.49856344  0.24163318  1
  Ag  Ag6  1  0.50523969  0.74737417  0.75733070  1
  Ag  Ag7  1  0.50085722  0.49851733  -0.00157774  1
  Ag  Ag8  1  -0.00806433  0.74774141  0.75507620  1
  Ag  Ag9  1  0.74210288  0.00911748  0.75230642  1
  Ag  Ag10  1  0.25992242  0.00188046  0.24637548  1
  Ag  Ag11  1  0.74227116  0.25345315  -0.00850851  1
  Ag  Ag12  1  0.74079967  0.74177386  -0.00748432  1
  Ag  Ag13  1  -0.01092625  0.25111346  0.75302991  1
  Ag  Ag14  1  0.73406817  0.50013185  0.24123782  1
  Ag  Ag15  1  0.26081525  0.25788517  -0.00700007  1
  Sb  Sb16  1  -0.00043065  0.00087402  -0.00126628  1
  Sb  Sb17  1  0.49980128  0.25290931  0.24564599  1
  Sb  Sb18  1  0.25159829  0.74970650  0.50042850  1
  Sb  Sb19  1  -0.00072621  0.25081549  0.24656209  1
  Sb  Sb20  1  0.50047725  0.00171692  -0.00049584  1
  Sb  Sb21  1  -0.00223303  0.49850145  0.50371072  1
  Sb  Sb22  1  0.25240231  0.25038857  0.50319658  1
  Sb  Sb23  1  -0.00210700  0.00222342  0.50326682  1
  Sb  Sb24  1  -0.00184422  0.74835498  0.24416897  1
  Sb  Sb25  1  0.74332940  0.49923211  0.75577664  1
  Sb  Sb26  1  0.25690276  0.74441635  -0.00088213  1
  Sb  Sb27  1  0.50047410  0.49935068  0.50114486  1
  Sb  Sb28  1  0.25304331  0.00146814  0.75130030  1
  Sb  Sb29  1  0.74653772  0.74661744  0.50414930  1
  Sb  Sb30  1  0.74523114  0.00042977  0.24884370  1
  Sb  Sb31  1  -0.00100245  0.49884139  -0.00213874  1
  Te  Te32  1  0.24880111  0.25722680  0.24819588  1
  Te  Te33  1  0.25517849  0.24944387  0.75212921  1
  Te  Te34  1  0.25070961  0.74301036  0.24840114  1
  Te  Te35  1  0.25717234  0.75118133  0.75102185  1
  Te  Te36  1  0.75154224  0.24990649  0.23852992  1
  Te  Te37  1  0.74628131  0.25391460  0.75233279  1
  Te  Te38  1  0.74833168  0.74890120  0.24712446  1
  Te  Te39  1  0.74384159  0.74300007  0.75257753  1
  Te  Te40  1  0.24925666  0.01076303  0.00464180  1
  Te  Te41  1  0.25723944  -0.00040500  0.49421969  1
  Te  Te42  1  0.25472317  0.49738601  -0.00197337  1
  Te  Te43  1  0.24913815  0.50050146  0.49204392  1
  Te  Te44  1  0.75154306  0.00662968  -0.00338006  1
  Te  Te45  1  0.74682405  0.00388311  0.50187096  1
  Te  Te46  1  0.74594981  0.49852699  0.00250213  1
  Te  Te47  1  0.75031519  0.49473889  0.48292240  1
  Te  Te48  1  -0.00483659  0.24949723  -0.00352693  1
  Te  Te49  1  -0.00862661  0.24966684  0.50979540  1
  Te  Te50  1  -0.01389749  0.75042339  -0.00699629  1
  Te  Te51  1  0.00027978  0.75039605  0.51540364  1
  Te  Te52  1  0.50011141  0.25275533  -0.00171742  1
  Te  Te53  1  0.50289847  0.24709809  0.50627072  1
  Te  Te54  1  0.50250220  0.74730270  -0.00033956  1
  Te  Te55  1  0.49966782  0.75419361  0.50332263  1
  Te  Te56  1  0.01648555  -0.00154696  0.25112181  1
  Te  Te57  1  -0.00550668  0.00066214  0.75008629  1
  Te  Te58  1  0.01016678  0.50119630  0.25026844  1
  Te  Te59  1  0.01273457  0.49951646  0.75158966  1
  Te  Te60  1  0.49661638  -0.00464834  0.25038742  1
  Te  Te61  1  0.50395955  -0.00160132  0.75024095  1
  Te  Te62  1  0.50049529  0.50168943  0.25036294  1
  Te  Te63  1  0.49643437  0.50150907  0.75096279  1
