# generated using pymatgen
data_AgSbTe2
_symmetry_space_group_name_H-M   'P 1'
_cell_length_a   12.22106870
_cell_length_b   12.23026250
_cell_length_c   12.21777372
_cell_angle_alpha   90.00571773
_cell_angle_beta   90.01862589
_cell_angle_gamma   89.99301445
_symmetry_Int_Tables_number   1
_chemical_formula_structural   AgSbTe2
_chemical_formula_sum   'Ag16 Sb16 Te32'
_cell_volume   1826.15237843
_cell_formula_units_Z   16
loop_
 _symmetry_equiv_pos_site_id
 _symmetry_equiv_pos_as_xyz
  1  'x, y, z'
loop_
 _atom_site_type_symbol
 _atom_site_label
 _atom_site_symmetry_multiplicity
 _atom_site_fract_x
 _atom_site_fract_y
 _atom_site_fract_z
 _atom_site_occupancy
  Ag  Ag0  1  0.50170084  -0.00371607  0.00240833  1
  Ag  Ag1  1  0.50138457  0.25325686  0.24691121  1
  Ag  Ag2  1  -0.00183407  0.73531200  0.25121930  1
  Ag  Ag3  1  0.23483929  0.50120254  0.24954474  1
  Ag  Ag4  1  0.49834426  0.75067362  0.75455938  1
  Ag  Ag5  1  0.24849357  -0.00260886  0.74938151  1
  Ag  Ag6  1  0.75386408  -0.00126501  0.24761419  1
  Ag  Ag7  1  0.00162889  0.25073614  0.74932167  1
  Ag  Ag8  1  0.76448940  0.50112060  0.24571775  1
  Ag  Ag9  1  0.50262985  0.50362106  0.00615983  1
  Ag  Ag10  1  -0.00187799  0.50128332  0.01534712  1
  Ag  Ag11  1  -0.00168861  0.26492866  0.25112871  1
  Ag  Ag12  1  0.74916542  0.74709959  0.00491973  1
  Ag  Ag13  1  0.00158735  -0.00116215  0.49533222  1
  Ag  Ag14  1  0.24547743  0.74967549  0.49788616  1
  Ag  Ag15  1  0.00143983  0.50121683  0.48471898  1
  Sb  Sb16  1  0.24880524  0.25115501  0.00176389  1
  Sb  Sb17  1  0.24587150  0.25048057  0.49820670  1
  Sb  Sb18  1  0.75355616  0.25113267  0.49578838  1
  Sb  Sb19  1  -0.00160742  -0.00056069  0.00414997  1
  Sb  Sb20  1  0.75201341  0.50229301  0.75451608  1
  Sb  Sb21  1  0.75083732  -0.00233337  0.75242801  1
  Sb  Sb22  1  0.50174928  0.74820259  0.24616170  1
  Sb  Sb23  1  0.75051923  0.25299304  0.00490792  1
  Sb  Sb24  1  0.75371131  0.74932918  0.49538326  1
  Sb  Sb25  1  0.49882560  -0.00309791  0.49775435  1
  Sb  Sb26  1  0.49882207  0.50309516  0.49294575  1
  Sb  Sb27  1  0.00080163  0.74934673  0.74934435  1
  Sb  Sb28  1  0.49806906  0.24934532  0.75340217  1
  Sb  Sb29  1  0.25019088  0.74893149  0.00180448  1
  Sb  Sb30  1  0.24799986  0.50169413  0.74933287  1
  Sb  Sb31  1  0.24698032  -0.00077497  0.25034970  1
  Te  Te32  1  0.24852535  0.25437790  0.25046681  1
  Te  Te33  1  0.24456090  0.24349088  0.74935930  1
  Te  Te34  1  0.24645559  0.74693092  0.25333558  1
  Te  Te35  1  0.25315130  0.75351678  0.74655909  1
  Te  Te36  1  0.75213730  0.25002437  0.24950546  1
  Te  Te37  1  0.75822822  0.24984312  0.74867983  1
  Te  Te38  1  0.75210271  0.74991014  0.24644843  1
  Te  Te39  1  0.74362897  0.75030942  0.75713077  1
  Te  Te40  1  0.25607371  -0.00102798  -0.00489931  1
  Te  Te41  1  0.24651667  -0.00548890  0.50246877  1
  Te  Te42  1  0.24932259  0.50031379  0.00445903  1
  Te  Te43  1  0.24670594  0.50548694  0.49664091  1
  Te  Te44  1  0.74624872  -0.00596716  0.00417583  1
  Te  Te45  1  0.75569245  -0.00171640  0.49354358  1
  Te  Te46  1  0.75010798  0.50405991  0.00357628  1
  Te  Te47  1  0.75518297  0.50132975  0.49289404  1
  Te  Te48  1  -0.00019358  0.25391540  0.00253718  1
  Te  Te49  1  0.00050621  0.25045686  0.49665235  1
  Te  Te50  1  -0.00271198  0.74689395  0.00203441  1
  Te  Te51  1  0.00235796  0.74969978  0.49896289  1
  Te  Te52  1  0.49996725  0.25129569  0.00423780  1
  Te  Te53  1  0.49977593  0.25005835  0.49323199  1
  Te  Te54  1  0.50105575  0.74866406  -0.00166877  1
  Te  Te55  1  0.49464037  0.74991191  0.50734376  1
  Te  Te56  1  -0.00124772  0.00145848  0.25104793  1
  Te  Te57  1  0.00256345  0.00252820  0.74822019  1
  Te  Te58  1  0.00013846  0.49958616  0.24919590  1
  Te  Te59  1  0.00051254  0.49598039  0.75013373  1
  Te  Te60  1  0.50188009  0.00236602  0.24666911  1
  Te  Te61  1  0.49827976  0.00085214  0.75299905  1
  Te  Te62  1  0.50103417  0.49796406  0.24697102  1
  Te  Te63  1  0.50001040  0.50036855  0.75667667  1
