# generated using pymatgen
data_AgSbTe2
_symmetry_space_group_name_H-M   'P 1'
_cell_length_a   12.20876656
_cell_length_b   12.22008368
_cell_length_c   12.21873540
_cell_angle_alpha   89.99867906
_cell_angle_beta   90.00625130
_cell_angle_gamma   90.00116977
_symmetry_Int_Tables_number   1
_chemical_formula_structural   AgSbTe2
_chemical_formula_sum   'Ag16 Sb16 Te32'
_cell_volume   1822.93938067
_cell_formula_units_Z   16
loop_
 _symmetry_equiv_pos_site_id
 _symmetry_equiv_pos_as_xyz
  1  'x, y, z'
loop_
 _atom_site_type_symbol
 _atom_site_label
 _atom_site_symmetry_multiplicity
 _atom_site_fract_x
 _atom_site_fract_y
 _atom_site_fract_z
 _atom_site_occupancy
  Ag  Ag0  1  0.00016284  0.50187038  0.50216165  1
  Ag  Ag1  1  -0.00340834  0.50256484  -0.00158384  1
  Ag  Ag2  1  0.50245284  0.49801977  -0.00653899  1
  Ag  Ag3  1  0.74699659  0.25025780  -0.00215505  1
  Ag  Ag4  1  0.75187668  0.74995504  -0.00221636  1
  Ag  Ag5  1  0.50119819  0.00211205  0.50210451  1
  Ag  Ag6  1  0.24848947  0.00004331  0.25035051  1
  Ag  Ag7  1  0.74814668  0.00001401  0.75271557  1
  Ag  Ag8  1  0.50230012  0.25385548  0.75108534  1
  Ag  Ag9  1  0.50069700  0.24958893  0.24946067  1
  Ag  Ag10  1  -0.00392876  -0.00266688  0.00152564  1
  Ag  Ag11  1  -0.00081494  -0.00205109  0.49825021  1
  Ag  Ag12  1  0.50231944  0.74654009  0.75098177  1
  Ag  Ag13  1  -0.00059377  0.75222342  0.24739523  1
  Ag  Ag14  1  0.49928144  0.49792800  0.50781146  1
  Ag  Ag15  1  0.25524721  0.50012633  0.75050492  1
  Sb  Sb16  1  0.74985460  0.75127865  0.50299042  1
  Sb  Sb17  1  0.25193696  0.00000250  0.75010029  1
  Sb  Sb18  1  0.50454373  0.00122392  -0.00135728  1
  Sb  Sb19  1  0.74288129  0.49981300  0.75347718  1
  Sb  Sb20  1  -0.00044804  0.24801737  0.24777697  1
  Sb  Sb21  1  0.50087820  0.75044217  0.24911281  1
  Sb  Sb22  1  -0.00330088  0.25145938  0.75185345  1
  Sb  Sb23  1  -0.00337960  0.74834859  0.75289652  1
  Sb  Sb24  1  0.74990785  0.49978344  0.24729508  1
  Sb  Sb25  1  0.25015033  0.49984224  0.24984771  1
  Sb  Sb26  1  0.75130436  0.00018334  0.24758470  1
  Sb  Sb27  1  0.74627060  0.24884031  0.50248228  1
  Sb  Sb28  1  0.25422054  0.25023639  -0.00071638  1
  Sb  Sb29  1  0.25285205  0.24996223  0.50064134  1
  Sb  Sb30  1  0.24940613  0.74997425  0.50092322  1
  Sb  Sb31  1  0.24869778  0.74981297  -0.00076511  1
  Te  Te32  1  0.25773865  0.24306323  0.24963363  1
  Te  Te33  1  0.25932475  0.25595012  0.75047369  1
  Te  Te34  1  0.24356390  0.75716288  0.24963973  1
  Te  Te35  1  0.25980062  0.74411572  0.75054670  1
  Te  Te36  1  0.74212382  0.24992400  0.24135308  1
  Te  Te37  1  0.74462612  0.24307368  0.75570789  1
  Te  Te38  1  0.75604914  0.74996331  0.24091742  1
  Te  Te39  1  0.74514644  0.75697055  0.75566188  1
  Te  Te40  1  0.24071851  0.00040378  0.00267612  1
  Te  Te41  1  0.24754317  0.00000712  0.49763437  1
  Te  Te42  1  0.24901489  0.49976901  -0.00332022  1
  Te  Te43  1  0.24941509  0.49996844  0.50375480  1
  Te  Te44  1  0.75310615  -0.00026736  -0.00315257  1
  Te  Te45  1  0.75092428  -0.00027814  0.50534769  1
  Te  Te46  1  0.75185712  0.49995523  -0.00133150  1
  Te  Te47  1  0.75209151  0.50011200  0.50099053  1
  Te  Te48  1  -0.00664880  0.25235102  0.00079723  1
  Te  Te49  1  -0.00296291  0.25099424  0.49915648  1
  Te  Te50  1  -0.00369745  0.74827027  0.00052295  1
  Te  Te51  1  -0.00221559  0.74976376  0.49680828  1
  Te  Te52  1  0.50374527  0.25216140  -0.00101475  1
  Te  Te53  1  0.50249568  0.25113463  0.50026641  1
  Te  Te54  1  0.50456209  0.74673202  -0.00101535  1
  Te  Te55  1  0.50226928  0.74871722  0.50141902  1
  Te  Te56  1  0.00151089  -0.00034048  0.25194666  1
  Te  Te57  1  -0.00004134  0.00011943  0.74799078  1
  Te  Te58  1  0.00240878  0.50198038  0.25046471  1
  Te  Te59  1  0.00498834  0.50016875  0.74891911  1
  Te  Te60  1  0.49743093  0.00086645  0.25416305  1
  Te  Te61  1  0.49903442  0.00011701  0.74702020  1
  Te  Te62  1  0.49760557  0.49801624  0.25112806  1
  Te  Te63  1  0.50027209  0.49945192  0.74889748  1
