# generated using pymatgen
data_AgSbTe2
_symmetry_space_group_name_H-M   'P 1'
_cell_length_a   12.31239172
_cell_length_b   12.30252456
_cell_length_c   12.27150391
_cell_angle_alpha   90.02452312
_cell_angle_beta   89.99701518
_cell_angle_gamma   89.99855467
_symmetry_Int_Tables_number   1
_chemical_formula_structural   AgSbTe2
_chemical_formula_sum   'Ag16 Sb16 Te32'
_cell_volume   1858.80749267
_cell_formula_units_Z   16
loop_
 _symmetry_equiv_pos_site_id
 _symmetry_equiv_pos_as_xyz
  1  'x, y, z'
loop_
 _atom_site_type_symbol
 _atom_site_label
 _atom_site_symmetry_multiplicity
 _atom_site_fract_x
 _atom_site_fract_y
 _atom_site_fract_z
 _atom_site_occupancy
  Ag  Ag0  1  0.76082890  0.23755397  0.50903580  1
  Ag  Ag1  1  0.75422925  0.00536025  0.74058834  1
  Ag  Ag2  1  0.48813510  0.24408749  0.74487727  1
  Ag  Ag3  1  0.24067878  0.23775088  0.51542242  1
  Ag  Ag4  1  0.24619302  0.25388007  -0.01475265  1
  Ag  Ag5  1  0.23783774  0.76038277  0.50636067  1
  Ag  Ag6  1  0.48530997  0.49688069  -0.00643598  1
  Ag  Ag7  1  0.00276926  0.74898939  0.26159796  1
  Ag  Ag8  1  0.00255093  0.00111697  0.50700821  1
  Ag  Ag9  1  0.49747962  0.00449394  0.50774930  1
  Ag  Ag10  1  0.00881649  0.49930814  -0.00495701  1
  Ag  Ag11  1  0.24742376  0.00839968  0.74169846  1
  Ag  Ag12  1  0.24395916  0.74564744  -0.00699669  1
  Ag  Ag13  1  0.76511873  0.76146217  0.50305006  1
  Ag  Ag14  1  0.00423117  0.50022666  0.50422767  1
  Ag  Ag15  1  0.00996857  0.24595491  0.73787382  1
  Sb  Sb16  1  0.24813050  0.00011290  0.26099040  1
  Sb  Sb17  1  0.49690511  0.75503850  0.74974563  1
  Sb  Sb18  1  0.75150202  0.50054270  0.25238775  1
  Sb  Sb19  1  0.00063108  0.24995661  0.25640697  1
  Sb  Sb20  1  0.49822976  0.75087303  0.25104266  1
  Sb  Sb21  1  0.00429062  0.00051569  -0.00723171  1
  Sb  Sb22  1  0.49426257  0.00239235  -0.00908782  1
  Sb  Sb23  1  0.24934458  0.49981109  0.24966512  1
  Sb  Sb24  1  0.49896819  0.24884411  0.25241238  1
  Sb  Sb25  1  0.24723083  0.49174411  0.74982855  1
  Sb  Sb26  1  0.75262224  0.49606375  0.74731749  1
  Sb  Sb27  1  0.75366148  0.24904035  -0.01106329  1
  Sb  Sb28  1  0.00351826  0.75398046  0.74560468  1
  Sb  Sb29  1  0.75284446  -0.00149216  0.26273415  1
  Sb  Sb30  1  0.75820538  0.75102486  -0.00535341  1
  Sb  Sb31  1  0.49529384  0.49748102  0.50554371  1
  Te  Te32  1  0.24985913  0.24909752  0.24499210  1
  Te  Te33  1  0.24785171  0.24903333  0.74856031  1
  Te  Te34  1  0.24637981  0.75071428  0.25087075  1
  Te  Te35  1  0.25006373  0.76087835  0.74754967  1
  Te  Te36  1  0.74953830  0.24902484  0.26473903  1
  Te  Te37  1  0.75311449  0.24706633  0.74573738  1
  Te  Te38  1  0.75563029  0.75123388  0.25816244  1
  Te  Te39  1  0.74827279  0.75938947  0.74369537  1
  Te  Te40  1  0.24990173  0.00103441  -0.00931018  1
  Te  Te41  1  0.24655719  0.00081788  0.50373796  1
  Te  Te42  1  0.24429213  0.50044821  -0.00073853  1
  Te  Te43  1  0.24625374  0.50291097  0.50084916  1
  Te  Te44  1  0.74870400  -0.00063984  -0.01267723  1
  Te  Te45  1  0.75338804  0.00038045  0.50394794  1
  Te  Te46  1  0.76005960  0.50117399  -0.00066717  1
  Te  Te47  1  0.75387052  0.50273077  0.50211523  1
  Te  Te48  1  0.00139737  0.24961194  0.00344437  1
  Te  Te49  1  0.00472759  0.25151063  0.49955589  1
  Te  Te50  1  0.00324944  0.74932815  -0.00201016  1
  Te  Te51  1  0.00348690  0.74639542  0.50363452  1
  Te  Te52  1  0.49884939  0.25006054  -0.00009226  1
  Te  Te53  1  0.49344137  0.25391129  0.50164125  1
  Te  Te54  1  0.49278781  0.74689172  0.00065193  1
  Te  Te55  1  0.49406150  0.74539368  0.49957237  1
  Te  Te56  1  -0.00065372  -0.00541587  0.25997264  1
  Te  Te57  1  0.00307779  0.00335763  0.74586111  1
  Te  Te58  1  0.00097164  0.50363686  0.25203605  1
  Te  Te59  1  0.00116534  0.49080194  0.74796118  1
  Te  Te60  1  0.50162550  -0.00002685  0.26543222  1
  Te  Te61  1  0.49574339  0.00360984  0.74434263  1
  Te  Te62  1  0.50049719  0.49935430  0.23354605  1
  Te  Te63  1  0.50066293  0.48885915  0.75559510  1
