# generated using pymatgen
data_AgSbTe2
_symmetry_space_group_name_H-M   'P 1'
_cell_length_a   12.22669383
_cell_length_b   12.22487449
_cell_length_c   12.22693118
_cell_angle_alpha   89.99481041
_cell_angle_beta   89.99975988
_cell_angle_gamma   90.00642588
_symmetry_Int_Tables_number   1
_chemical_formula_structural   AgSbTe2
_chemical_formula_sum   'Ag16 Sb16 Te32'
_cell_volume   1827.55690816
_cell_formula_units_Z   16
loop_
 _symmetry_equiv_pos_site_id
 _symmetry_equiv_pos_as_xyz
  1  'x, y, z'
loop_
 _atom_site_type_symbol
 _atom_site_label
 _atom_site_symmetry_multiplicity
 _atom_site_fract_x
 _atom_site_fract_y
 _atom_site_fract_z
 _atom_site_occupancy
  Ag  Ag0  1  0.74830232  0.00249400  0.24512794  1
  Ag  Ag1  1  0.25156927  0.50381921  0.24544513  1
  Ag  Ag2  1  0.25348476  0.74640944  0.00370271  1
  Ag  Ag3  1  0.74787087  -0.00294893  0.75576579  1
  Ag  Ag4  1  -0.00309636  0.74849975  0.75715541  1
  Ag  Ag5  1  0.74895542  0.49852849  0.24527490  1
  Ag  Ag6  1  0.74945698  0.25223990  0.49119045  1
  Ag  Ag7  1  0.75009491  0.25092841  0.00780039  1
  Ag  Ag8  1  -0.00775352  0.25602778  0.24671870  1
  Ag  Ag9  1  -0.00306433  0.50520100  0.00763315  1
  Ag  Ag10  1  0.50359485  0.50213294  0.49144932  1
  Ag  Ag11  1  0.50243148  0.74946216  0.75970198  1
  Ag  Ag12  1  -0.00305552  0.74329375  0.24240757  1
  Ag  Ag13  1  0.50628052  -0.00767016  0.00254520  1
  Ag  Ag14  1  0.50260301  0.50812679  0.00737704  1
  Ag  Ag15  1  0.50295524  0.74338626  0.24120188  1
  Sb  Sb16  1  0.74902756  0.50366156  0.75500325  1
  Sb  Sb17  1  0.50369558  0.24997097  0.75274235  1
  Sb  Sb18  1  0.74471648  0.74796904  0.00358138  1
  Sb  Sb19  1  0.25097907  0.50331662  0.75508037  1
  Sb  Sb20  1  0.25212989  -0.00364503  0.24591239  1
  Sb  Sb21  1  0.50948411  0.25895785  0.24863851  1
  Sb  Sb22  1  -0.00412016  0.49964731  0.49101348  1
  Sb  Sb23  1  -0.00775505  -0.00691690  0.00173624  1
  Sb  Sb24  1  -0.00604715  0.25187093  0.75430596  1
  Sb  Sb25  1  0.25242393  -0.00467754  0.75466102  1
  Sb  Sb26  1  0.24977159  0.25369299  0.00422852  1
  Sb  Sb27  1  0.50494216  -0.00141453  0.49717873  1
  Sb  Sb28  1  0.74888679  0.74623590  0.49658441  1
  Sb  Sb29  1  0.25149337  0.25497157  0.49409561  1
  Sb  Sb30  1  -0.00409667  0.00014151  0.49907214  1
  Sb  Sb31  1  0.25163196  0.74666750  0.49550372  1
  Te  Te32  1  0.23826435  0.25499010  0.24978420  1
  Te  Te33  1  0.24824741  0.24928355  0.74872999  1
  Te  Te34  1  0.24947869  0.74691485  0.24597909  1
  Te  Te35  1  0.25012915  0.74975036  0.75580334  1
  Te  Te36  1  0.75134601  0.25014660  0.24775686  1
  Te  Te37  1  0.75107989  0.24294750  0.75173652  1
  Te  Te38  1  0.75048796  0.74905435  0.25213243  1
  Te  Te39  1  0.74999013  0.75475889  0.74619357  1
  Te  Te40  1  0.26061023  -0.00550260  0.00056659  1
  Te  Te41  1  0.25086311  0.00144619  0.50033987  1
  Te  Te42  1  0.25142214  0.50329754  0.00434091  1
  Te  Te43  1  0.25816342  0.49954731  0.49209584  1
  Te  Te44  1  0.74675489  0.00482118  0.00260282  1
  Te  Te45  1  0.74884081  0.00797052  0.49686886  1
  Te  Te46  1  0.74936590  0.49667013  0.00193049  1
  Te  Te47  1  0.74557630  0.49531609  0.49625716  1
  Te  Te48  1  -0.00213412  0.25465952  0.00339650  1
  Te  Te49  1  -0.00562236  0.25093219  0.49554031  1
  Te  Te50  1  0.00186826  0.74830290  0.00254558  1
  Te  Te51  1  0.00079650  0.74901081  0.50079340  1
  Te  Te52  1  0.50294829  0.25108667  -0.00075528  1
  Te  Te53  1  0.50469435  0.25573007  0.50075272  1
  Te  Te54  1  0.50177860  0.74753612  0.00146365  1
  Te  Te55  1  0.49928759  0.74524623  0.49970179  1
  Te  Te56  1  -0.00461058  -0.00329905  0.24912259  1
  Te  Te57  1  -0.00500916  -0.00641449  0.74980999  1
  Te  Te58  1  -0.00387572  0.50398561  0.24866739  1
  Te  Te59  1  0.00018147  0.50617785  0.75622909  1
  Te  Te60  1  0.50350395  -0.00648894  0.24735278  1
  Te  Te61  1  0.50371816  -0.00510964  0.75220616  1
  Te  Te62  1  0.50346181  0.50110488  0.24648427  1
  Te  Te63  1  0.50059921  0.50574617  0.75373488  1
