# generated using pymatgen
data_AgSbTe2
_symmetry_space_group_name_H-M   'P 1'
_cell_length_a   12.26686921
_cell_length_b   12.23892990
_cell_length_c   12.26363138
_cell_angle_alpha   90.00696254
_cell_angle_beta   90.00183003
_cell_angle_gamma   90.00095715
_symmetry_Int_Tables_number   1
_chemical_formula_structural   AgSbTe2
_chemical_formula_sum   'Ag16 Sb16 Te32'
_cell_volume   1841.18007482
_cell_formula_units_Z   16
loop_
 _symmetry_equiv_pos_site_id
 _symmetry_equiv_pos_as_xyz
  1  'x, y, z'
loop_
 _atom_site_type_symbol
 _atom_site_label
 _atom_site_symmetry_multiplicity
 _atom_site_fract_x
 _atom_site_fract_y
 _atom_site_fract_z
 _atom_site_occupancy
  Ag  Ag0  1  0.00299786  0.00558696  0.49430685  1
  Ag  Ag1  1  0.74994286  0.49443959  0.74531217  1
  Ag  Ag2  1  0.75010772  0.48966720  0.25440564  1
  Ag  Ag3  1  0.24971190  0.49662955  0.74202819  1
  Ag  Ag4  1  0.49691245  0.01057894  0.49452142  1
  Ag  Ag5  1  0.49886141  0.48978884  0.49857942  1
  Ag  Ag6  1  0.49964075  0.25014366  0.25201350  1
  Ag  Ag7  1  0.74754870  0.25004434  0.00354399  1
  Ag  Ag8  1  0.50201510  0.25445693  0.74757393  1
  Ag  Ag9  1  0.25000065  0.00989761  0.25219880  1
  Ag  Ag10  1  0.00071247  0.25045773  0.25156467  1
  Ag  Ag11  1  -0.00000082  0.74595229  0.74784822  1
  Ag  Ag12  1  0.24992824  0.49080590  0.25727296  1
  Ag  Ag13  1  0.00042968  0.00548160  0.00557061  1
  Ag  Ag14  1  0.00119407  0.49547104  0.49870088  1
  Ag  Ag15  1  0.49976459  0.01026919  0.00513311  1
  Sb  Sb16  1  0.24739912  0.75127155  -0.00181155  1
  Sb  Sb17  1  0.50191329  0.48821811  0.00317863  1
  Sb  Sb18  1  0.74957960  0.00965594  0.74956400  1
  Sb  Sb19  1  -0.00321807  0.25477185  0.74814571  1
  Sb  Sb20  1  -0.00067856  0.75031893  0.25181024  1
  Sb  Sb21  1  -0.00112728  0.49134263  0.00327020  1
  Sb  Sb22  1  0.74966160  0.01159729  0.24917201  1
  Sb  Sb23  1  0.24878306  0.74758276  0.50216798  1
  Sb  Sb24  1  0.25038953  0.00715537  0.74544383  1
  Sb  Sb25  1  0.75230831  0.75071884  -0.00207733  1
  Sb  Sb26  1  0.50085614  0.75016108  0.24895653  1
  Sb  Sb27  1  0.25196342  0.24823354  0.00221593  1
  Sb  Sb28  1  0.50002859  0.74320600  0.75121892  1
  Sb  Sb29  1  0.74807036  0.25447404  0.49552100  1
  Sb  Sb30  1  0.25250104  0.25311567  0.49705177  1
  Sb  Sb31  1  0.75134027  0.74724982  0.50246146  1
  Te  Te32  1  0.25066824  0.25197738  0.24840719  1
  Te  Te33  1  0.25924452  0.25908224  0.75383084  1
  Te  Te34  1  0.24883602  0.74565539  0.24794460  1
  Te  Te35  1  0.24304107  0.73500929  0.75140215  1
  Te  Te36  1  0.74831541  0.25726291  0.24548809  1
  Te  Te37  1  0.74509193  0.25740334  0.75864409  1
  Te  Te38  1  0.75104937  0.72604980  0.24738581  1
  Te  Te39  1  0.75660338  0.73293595  0.75182647  1
  Te  Te40  1  0.24906338  0.00085680  0.00728878  1
  Te  Te41  1  0.24952438  -0.00075182  0.49431101  1
  Te  Te42  1  0.24994236  0.50002763  0.00431346  1
  Te  Te43  1  0.24955694  0.49936766  0.49667712  1
  Te  Te44  1  0.75006947  0.00605928  -0.00010647  1
  Te  Te45  1  0.75030302  -0.00095295  0.50054466  1
  Te  Te46  1  0.74999637  0.49367242  0.00019471  1
  Te  Te47  1  0.75036877  0.49800591  0.50053240  1
  Te  Te48  1  -0.00626901  0.24339894  0.00439096  1
  Te  Te49  1  -0.00302124  0.24821556  0.49532276  1
  Te  Te50  1  -0.00179969  0.76631211  -0.00855110  1
  Te  Te51  1  -0.00135791  0.75173158  0.50656031  1
  Te  Te52  1  0.50419540  0.24406008  0.00374011  1
  Te  Te53  1  0.50194833  0.24952231  0.49724958  1
  Te  Te54  1  0.50216184  0.77297367  -0.00265523  1
  Te  Te55  1  0.50193316  0.75388958  0.50192154  1
  Te  Te56  1  -0.00023338  0.00064012  0.25466974  1
  Te  Te57  1  0.00291902  0.00143968  0.74464522  1
  Te  Te58  1  0.00420268  0.49946229  0.25215730  1
  Te  Te59  1  0.00047360  0.49527384  0.74643294  1
  Te  Te60  1  0.50048363  0.00294914  0.25537380  1
  Te  Te61  1  0.49707341  0.00469016  0.74452500  1
  Te  Te62  1  0.49587662  0.49697547  0.25246869  1
  Te  Te63  1  0.50020086  0.49805943  0.74619976  1
