# generated using pymatgen
data_AgSbTe2
_symmetry_space_group_name_H-M   'P 1'
_cell_length_a   12.22270823
_cell_length_b   12.22693730
_cell_length_c   12.23044055
_cell_angle_alpha   89.99857452
_cell_angle_beta   89.99999742
_cell_angle_gamma   89.99771151
_symmetry_Int_Tables_number   1
_chemical_formula_structural   AgSbTe2
_chemical_formula_sum   'Ag16 Sb16 Te32'
_cell_volume   1827.79392886
_cell_formula_units_Z   16
loop_
 _symmetry_equiv_pos_site_id
 _symmetry_equiv_pos_as_xyz
  1  'x, y, z'
loop_
 _atom_site_type_symbol
 _atom_site_label
 _atom_site_symmetry_multiplicity
 _atom_site_fract_x
 _atom_site_fract_y
 _atom_site_fract_z
 _atom_site_occupancy
  Ag  Ag0  1  0.75184056  0.49868842  0.24131284  1
  Ag  Ag1  1  0.75265212  0.24355597  0.49771960  1
  Ag  Ag2  1  0.75119966  0.50191407  0.75880991  1
  Ag  Ag3  1  -0.00602538  0.00033900  0.49483265  1
  Ag  Ag4  1  0.50879909  -0.00240916  0.00148599  1
  Ag  Ag5  1  0.75333522  -0.00169360  0.75560237  1
  Ag  Ag6  1  0.50830854  0.50207454  0.00075114  1
  Ag  Ag7  1  -0.00729622  -0.00605953  0.00438967  1
  Ag  Ag8  1  0.24364904  0.75467912  0.00240679  1
  Ag  Ag9  1  -0.00565133  0.75474874  0.75861249  1
  Ag  Ag10  1  0.24389148  -0.00191508  0.24609289  1
  Ag  Ag11  1  -0.00300826  0.75834980  0.24204930  1
  Ag  Ag12  1  0.50715467  0.00114350  0.49850594  1
  Ag  Ag13  1  0.75504664  0.75383488  -0.00094537  1
  Ag  Ag14  1  0.75218731  0.24747368  0.00200195  1
  Ag  Ag15  1  -0.00588413  0.24249850  0.24729673  1
  Sb  Sb16  1  0.75765668  0.00140899  0.24264341  1
  Sb  Sb17  1  0.50767505  0.49913056  0.49903780  1
  Sb  Sb18  1  0.24645475  0.75364215  0.49602540  1
  Sb  Sb19  1  -0.00450708  0.49879066  0.49937738  1
  Sb  Sb20  1  0.75254585  0.75816318  0.50032874  1
  Sb  Sb21  1  0.24773491  0.50229549  0.24479166  1
  Sb  Sb22  1  0.50460215  0.24839832  0.75142038  1
  Sb  Sb23  1  0.50505738  0.75344625  0.24613127  1
  Sb  Sb24  1  0.24715269  -0.00327396  0.75378504  1
  Sb  Sb25  1  0.50683376  0.75134271  0.75439258  1
  Sb  Sb26  1  0.24728593  0.24555693  0.00357805  1
  Sb  Sb27  1  0.50740185  0.24637834  0.24854212  1
  Sb  Sb28  1  -0.01007119  0.50794826  0.00022361  1
  Sb  Sb29  1  0.24780134  0.50518514  0.75601421  1
  Sb  Sb30  1  -0.00557969  0.24507880  0.75327947  1
  Sb  Sb31  1  0.24661288  0.24507711  0.49605303  1
  Te  Te32  1  0.23933210  0.24617401  0.24937955  1
  Te  Te33  1  0.24840875  0.25167423  0.74972808  1
  Te  Te34  1  0.24284501  0.75306399  0.24551028  1
  Te  Te35  1  0.24018031  0.74967440  0.75703200  1
  Te  Te36  1  0.75456424  0.25264813  0.24755042  1
  Te  Te37  1  0.75178510  0.24907742  0.75244269  1
  Te  Te38  1  0.75476473  0.74435233  0.24706105  1
  Te  Te39  1  0.75400540  0.75204889  0.75178219  1
  Te  Te40  1  0.25069663  -0.00285384  0.00206525  1
  Te  Te41  1  0.24955794  0.00018552  0.49579628  1
  Te  Te42  1  0.26234315  0.50537404  -0.00022476  1
  Te  Te43  1  0.25350797  0.49945298  0.50080583  1
  Te  Te44  1  0.74982424  -0.00065434  0.00117920  1
  Te  Te45  1  0.75111359  0.00241774  0.50291586  1
  Te  Te46  1  0.74836978  0.49914114  -0.00083517  1
  Te  Te47  1  0.74813666  0.49210159  0.50114728  1
  Te  Te48  1  -0.00381928  0.24387896  0.00283698  1
  Te  Te49  1  -0.00409161  0.24513064  0.49702310  1
  Te  Te50  1  -0.00360887  0.75119339  0.00166875  1
  Te  Te51  1  0.00026162  0.75558037  0.49769482  1
  Te  Te52  1  0.50464989  0.24647282  0.00071253  1
  Te  Te53  1  0.50558622  0.24301923  0.49949907  1
  Te  Te54  1  0.50373690  0.75429182  0.00023683  1
  Te  Te55  1  0.49880942  0.75840026  0.50014974  1
  Te  Te56  1  -0.00075817  -0.00151552  0.24859547  1
  Te  Te57  1  -0.00334035  -0.00253079  0.75131478  1
  Te  Te58  1  -0.00365853  0.49996834  0.25063994  1
  Te  Te59  1  -0.00583081  0.50661884  0.74922812  1
  Te  Te60  1  0.49232705  -0.00030296  0.24749539  1
  Te  Te61  1  0.50435154  -0.00065239  0.75221449  1
  Te  Te62  1  0.50448329  0.50006826  0.24678664  1
  Te  Te63  1  0.50660979  0.50070875  0.75401825  1
