# generated using pymatgen
data_AgSbTe2
_symmetry_space_group_name_H-M   'P 1'
_cell_length_a   12.22012067
_cell_length_b   12.21533418
_cell_length_c   12.21417162
_cell_angle_alpha   90.00018111
_cell_angle_beta   89.99362689
_cell_angle_gamma   89.99654221
_symmetry_Int_Tables_number   1
_chemical_formula_structural   AgSbTe2
_chemical_formula_sum   'Ag16 Sb16 Te32'
_cell_volume   1823.24428718
_cell_formula_units_Z   16
loop_
 _symmetry_equiv_pos_site_id
 _symmetry_equiv_pos_as_xyz
  1  'x, y, z'
loop_
 _atom_site_type_symbol
 _atom_site_label
 _atom_site_symmetry_multiplicity
 _atom_site_fract_x
 _atom_site_fract_y
 _atom_site_fract_z
 _atom_site_occupancy
  Ag  Ag0  1  0.50279059  0.24425537  0.75368654  1
  Ag  Ag1  1  0.25007770  0.24308031  -0.00445353  1
  Ag  Ag2  1  0.25104958  0.00021210  0.25023829  1
  Ag  Ag3  1  0.74823161  0.49916080  0.24751168  1
  Ag  Ag4  1  0.49919344  0.00261512  -0.00528962  1
  Ag  Ag5  1  0.74993680  0.24651499  -0.00698065  1
  Ag  Ag6  1  0.00427784  0.00075770  0.50876984  1
  Ag  Ag7  1  -0.00262514  0.24136318  0.75241767  1
  Ag  Ag8  1  0.24974855  0.75711250  0.50235147  1
  Ag  Ag9  1  0.75318108  0.00366190  0.75348331  1
  Ag  Ag10  1  0.49900722  0.75334660  0.24937791  1
  Ag  Ag11  1  0.74974179  0.49642908  0.75216140  1
  Ag  Ag12  1  0.50100771  0.75584771  0.75068825  1
  Ag  Ag13  1  -0.00101637  0.75924914  0.74908029  1
  Ag  Ag14  1  0.00044788  0.00378127  -0.00879148  1
  Ag  Ag15  1  0.24834540  0.24311882  0.50384574  1
  Sb  Sb16  1  0.74815837  0.00036976  0.24665363  1
  Sb  Sb17  1  -0.00253037  0.49517866  -0.00300034  1
  Sb  Sb18  1  0.00008017  0.24798376  0.24797062  1
  Sb  Sb19  1  -0.00005157  0.49870934  0.50290625  1
  Sb  Sb20  1  0.50039913  0.50013530  0.50119848  1
  Sb  Sb21  1  0.00106551  0.75328322  0.25117957  1
  Sb  Sb22  1  0.49432415  0.00001268  0.50717325  1
  Sb  Sb23  1  0.49988319  0.24653672  0.24695278  1
  Sb  Sb24  1  0.24475776  0.00246821  0.74935815  1
  Sb  Sb25  1  0.25117396  0.49765840  0.75014314  1
  Sb  Sb26  1  0.75173301  0.24742864  0.50840532  1
  Sb  Sb27  1  0.50231492  0.49647444  -0.00154269  1
  Sb  Sb28  1  0.25078395  0.75849717  -0.00226106  1
  Sb  Sb29  1  0.74964407  0.75435429  -0.00291630  1
  Sb  Sb30  1  0.75059586  0.75236450  0.50287495  1
  Sb  Sb31  1  0.25258961  0.50080917  0.24978339  1
  Te  Te32  1  0.25098006  0.24728801  0.25106846  1
  Te  Te33  1  0.25020057  0.25234676  0.75037780  1
  Te  Te34  1  0.25313714  0.75199423  0.25327193  1
  Te  Te35  1  0.25172211  0.74697687  0.74666584  1
  Te  Te36  1  0.74824373  0.25346819  0.24371965  1
  Te  Te37  1  0.74990199  0.24830256  0.75088340  1
  Te  Te38  1  0.74468507  0.74672446  0.25018855  1
  Te  Te39  1  0.74863117  0.75061985  0.75015747  1
  Te  Te40  1  0.25013828  0.00405479  0.00384482  1
  Te  Te41  1  0.24704710  0.00065878  0.49654592  1
  Te  Te42  1  0.24901991  0.48746145  0.00183074  1
  Te  Te43  1  0.24948700  0.49874499  0.49856865  1
  Te  Te44  1  0.75037289  0.00377217  -0.00256951  1
  Te  Te45  1  0.75913213  0.00093758  0.50432289  1
  Te  Te46  1  0.75057671  0.49273688  -0.00242589  1
  Te  Te47  1  0.75059784  0.49888494  0.50097192  1
  Te  Te48  1  0.00036631  0.24600720  -0.00329697  1
  Te  Te49  1  0.00460079  0.24614144  0.50479724  1
  Te  Te50  1  0.00122811  0.75773568  -0.00651374  1
  Te  Te51  1  0.00503581  0.75406246  0.50444865  1
  Te  Te52  1  0.49945064  0.24606886  -0.00362532  1
  Te  Te53  1  0.49309856  0.24914202  0.50637926  1
  Te  Te54  1  0.49909904  0.75607590  -0.00373463  1
  Te  Te55  1  0.49421411  0.75083127  0.50316627  1
  Te  Te56  1  0.00327504  -0.00113231  0.24906830  1
  Te  Te57  1  0.00021342  0.00050034  0.75137305  1
  Te  Te58  1  -0.00860170  0.50123384  0.24988574  1
  Te  Te59  1  -0.00729477  0.50063621  0.75027028  1
  Te  Te60  1  0.49796692  -0.00401012  0.24538739  1
  Te  Te61  1  0.50332270  -0.00052448  0.75182348  1
  Te  Te62  1  0.50509134  0.50752886  0.24899019  1
  Te  Te63  1  0.50674256  0.50195946  0.75118194  1
