# generated using pymatgen
data_AgSbTe2
_symmetry_space_group_name_H-M   'P 1'
_cell_length_a   12.21081319
_cell_length_b   12.20985126
_cell_length_c   12.20965302
_cell_angle_alpha   89.99526515
_cell_angle_beta   90.00376187
_cell_angle_gamma   89.99911008
_symmetry_Int_Tables_number   1
_chemical_formula_structural   AgSbTe2
_chemical_formula_sum   'Ag16 Sb16 Te32'
_cell_volume   1820.36417552
_cell_formula_units_Z   16
loop_
 _symmetry_equiv_pos_site_id
 _symmetry_equiv_pos_as_xyz
  1  'x, y, z'
loop_
 _atom_site_type_symbol
 _atom_site_label
 _atom_site_symmetry_multiplicity
 _atom_site_fract_x
 _atom_site_fract_y
 _atom_site_fract_z
 _atom_site_occupancy
  Ag  Ag0  1  0.74873274  0.24201563  0.50074567  1
  Ag  Ag1  1  0.75009720  0.00028389  0.25734341  1
  Ag  Ag2  1  -0.00115328  0.24647771  0.74809349  1
  Ag  Ag3  1  0.50118135  0.24525902  0.74671591  1
  Ag  Ag4  1  0.00540192  0.75377075  0.25333081  1
  Ag  Ag5  1  0.00385340  0.00039384  0.00302640  1
  Ag  Ag6  1  0.24659317  0.75429942  0.00820869  1
  Ag  Ag7  1  0.24800775  0.50262008  0.25174826  1
  Ag  Ag8  1  0.00140407  0.50122848  0.49763732  1
  Ag  Ag9  1  0.75240986  0.75799704  0.49703681  1
  Ag  Ag10  1  0.24888888  0.24605526  0.00361839  1
  Ag  Ag11  1  0.24866824  -0.00287360  0.24976831  1
  Ag  Ag12  1  0.50440238  0.00333269  0.49711340  1
  Ag  Ag13  1  0.24665845  0.75267866  0.49206851  1
  Ag  Ag14  1  0.75051207  0.00381706  0.74242314  1
  Ag  Ag15  1  0.49766920  0.24501670  0.25290385  1
  Sb  Sb16  1  0.49492839  0.00259440  0.00293195  1
  Sb  Sb17  1  0.24874738  0.00215278  0.74901287  1
  Sb  Sb18  1  0.75242229  0.49957200  0.25390112  1
  Sb  Sb19  1  0.25054760  0.24595922  0.49548091  1
  Sb  Sb20  1  -0.00085486  0.75387018  0.74704435  1
  Sb  Sb21  1  0.50131088  0.75561292  0.74652435  1
  Sb  Sb22  1  0.49697583  0.49810279  0.00229432  1
  Sb  Sb23  1  0.49766028  0.49697571  0.49755514  1
  Sb  Sb24  1  0.75379143  0.75595317  0.00431551  1
  Sb  Sb25  1  0.75195371  0.49559488  0.74613162  1
  Sb  Sb26  1  -0.00510225  -0.00123055  0.49710400  1
  Sb  Sb27  1  0.00136835  0.24561827  0.25143776  1
  Sb  Sb28  1  0.49363658  0.75589021  0.25267122  1
  Sb  Sb29  1  0.24828801  0.49817168  0.74650352  1
  Sb  Sb30  1  0.75210062  0.24602649  -0.00049746  1
  Sb  Sb31  1  0.00362137  0.49933924  0.00256988  1
  Te  Te32  1  0.25097428  0.24728761  0.24829422  1
  Te  Te33  1  0.24988293  0.24984077  0.75489344  1
  Te  Te34  1  0.25004268  0.75271878  0.25124887  1
  Te  Te35  1  0.24993828  0.74949832  0.74963823  1
  Te  Te36  1  0.74781683  0.24678273  0.25277438  1
  Te  Te37  1  0.74988844  0.24612091  0.74806202  1
  Te  Te38  1  0.75319643  0.75350245  0.25428385  1
  Te  Te39  1  0.74973032  0.75662653  0.74397263  1
  Te  Te40  1  0.24707507  0.00047608  0.00248673  1
  Te  Te41  1  0.25339845  -0.00328782  0.49684109  1
  Te  Te42  1  0.24882065  0.50010460  0.00660245  1
  Te  Te43  1  0.24656830  0.50522659  0.49548585  1
  Te  Te44  1  0.75574714  -0.00109327  0.00177662  1
  Te  Te45  1  0.75085172  0.00080754  0.49817979  1
  Te  Te46  1  0.75021100  0.50152044  -0.00035398  1
  Te  Te47  1  0.75464674  0.50080364  0.49923158  1
  Te  Te48  1  0.00377452  0.24777524  -0.00275510  1
  Te  Te49  1  -0.00199995  0.25268178  0.50267294  1
  Te  Te50  1  0.00513940  0.75270003  0.00277809  1
  Te  Te51  1  0.00099740  0.74875808  0.49818543  1
  Te  Te52  1  0.49460863  0.24890191  0.00020664  1
  Te  Te53  1  0.50136452  0.24702357  0.49964336  1
  Te  Te54  1  0.49118727  0.74970404  -0.00118813  1
  Te  Te55  1  0.50068822  0.75412151  0.50066849  1
  Te  Te56  1  0.00143835  -0.00198623  0.24720883  1
  Te  Te57  1  -0.00350751  0.00466456  0.75481798  1
  Te  Te58  1  0.00405398  0.50445769  0.25399155  1
  Te  Te59  1  -0.00003629  0.49261124  0.74421093  1
  Te  Te60  1  0.50022966  0.00390379  0.25280578  1
  Te  Te61  1  0.50463579  0.00564279  0.74575003  1
  Te  Te62  1  0.49374010  0.49062177  0.25075846  1
  Te  Te63  1  0.50017364  0.48890629  0.75006351  1
