# generated using pymatgen
data_AgSbTe2
_symmetry_space_group_name_H-M   'P 1'
_cell_length_a   12.21438904
_cell_length_b   12.21936252
_cell_length_c   12.21949343
_cell_angle_alpha   89.99426909
_cell_angle_beta   90.00990894
_cell_angle_gamma   89.99579920
_symmetry_Int_Tables_number   1
_chemical_formula_structural   AgSbTe2
_chemical_formula_sum   'Ag16 Sb16 Te32'
_cell_volume   1823.78437476
_cell_formula_units_Z   16
loop_
 _symmetry_equiv_pos_site_id
 _symmetry_equiv_pos_as_xyz
  1  'x, y, z'
loop_
 _atom_site_type_symbol
 _atom_site_label
 _atom_site_symmetry_multiplicity
 _atom_site_fract_x
 _atom_site_fract_y
 _atom_site_fract_z
 _atom_site_occupancy
  Ag  Ag0  1  0.25831224  0.24696327  0.49802551  1
  Ag  Ag1  1  0.49699020  0.00529009  0.00120231  1
  Ag  Ag2  1  0.49934147  0.75017566  0.74518223  1
  Ag  Ag3  1  0.49579118  0.00284603  0.49928023  1
  Ag  Ag4  1  0.00247249  0.00955841  0.00318543  1
  Ag  Ag5  1  0.00334614  0.24826074  0.24437134  1
  Ag  Ag6  1  0.75101173  0.24962152  -0.00168830  1
  Ag  Ag7  1  0.24863709  0.24560611  0.00227237  1
  Ag  Ag8  1  0.49950010  0.49636541  0.50312452  1
  Ag  Ag9  1  0.25830049  0.75235580  0.49829362  1
  Ag  Ag10  1  0.50185063  0.25006236  0.74590842  1
  Ag  Ag11  1  0.49655859  0.75407514  0.25478062  1
  Ag  Ag12  1  0.74121848  0.25079824  0.50249459  1
  Ag  Ag13  1  0.74535620  0.49489082  0.74999909  1
  Ag  Ag14  1  0.25379178  0.00367124  0.24979130  1
  Ag  Ag15  1  -0.00056942  0.49040836  0.00004079  1
  Sb  Sb16  1  0.00104587  0.74872775  0.74961448  1
  Sb  Sb17  1  0.00441260  0.00443433  0.49694024  1
  Sb  Sb18  1  0.74726822  0.75014840  -0.00224331  1
  Sb  Sb19  1  0.25356181  0.75435634  0.00162853  1
  Sb  Sb20  1  -0.00079197  0.49595414  0.50022465  1
  Sb  Sb21  1  0.74811027  0.49611788  0.24984479  1
  Sb  Sb22  1  0.00331333  0.75197650  0.24964245  1
  Sb  Sb23  1  0.49658446  0.24651915  0.25469497  1
  Sb  Sb24  1  0.50047969  0.49286825  -0.00183127  1
  Sb  Sb25  1  0.25408564  0.00178608  0.74993016  1
  Sb  Sb26  1  -0.00231050  0.25096744  0.75638689  1
  Sb  Sb27  1  0.25128740  0.49586816  0.25003921  1
  Sb  Sb28  1  0.74501673  0.00507839  0.75037955  1
  Sb  Sb29  1  0.74008864  0.74945744  0.50256264  1
  Sb  Sb30  1  0.25464483  0.49822146  0.74986254  1
  Sb  Sb31  1  0.74568119  0.00299216  0.24966008  1
  Te  Te32  1  0.24744294  0.24648355  0.24963325  1
  Te  Te33  1  0.25585864  0.25103329  0.74887609  1
  Te  Te34  1  0.25441676  0.75524483  0.25340704  1
  Te  Te35  1  0.25704614  0.74872472  0.74421064  1
  Te  Te36  1  0.75631147  0.24959775  0.24873701  1
  Te  Te37  1  0.74663185  0.25321119  0.75002012  1
  Te  Te38  1  0.74334618  0.74991133  0.25058133  1
  Te  Te39  1  0.74326076  0.74224342  0.74925390  1
  Te  Te40  1  0.25307591  0.00325181  0.00243304  1
  Te  Te41  1  0.25271499  0.00370977  0.49775757  1
  Te  Te42  1  0.24576148  0.49344734  -0.00012427  1
  Te  Te43  1  0.25359836  0.49707158  0.50002059  1
  Te  Te44  1  0.74828448  0.00589486  0.00003749  1
  Te  Te45  1  0.74544323  0.00626767  0.50006643  1
  Te  Te46  1  0.75184684  0.49438652  -0.00280299  1
  Te  Te47  1  0.74751513  0.49488467  0.50341049  1
  Te  Te48  1  0.00083141  0.24874265  -0.00030340  1
  Te  Te49  1  0.00201108  0.24990875  0.49600147  1
  Te  Te50  1  0.00018845  0.75093457  0.00047929  1
  Te  Te51  1  0.00896875  0.75015497  0.49975371  1
  Te  Te52  1  0.49961408  0.24820268  0.00031715  1
  Te  Te53  1  0.49862046  0.24880242  0.49751858  1
  Te  Te54  1  0.49936574  0.75553258  -0.00214203  1
  Te  Te55  1  0.49808622  0.75210705  0.50220786  1
  Te  Te56  1  0.00510057  0.00294886  0.24539895  1
  Te  Te57  1  -0.00184640  -0.00225650  0.75960202  1
  Te  Te58  1  -0.00017222  0.49635181  0.24398222  1
  Te  Te59  1  -0.00765174  0.50172875  0.75559975  1
  Te  Te60  1  0.49648070  -0.00232216  0.24963860  1
  Te  Te61  1  0.50078947  0.00163257  0.75007959  1
  Te  Te62  1  0.49959604  0.50818693  0.25541533  1
  Te  Te63  1  0.50307462  0.49755670  0.74733254  1
