# generated using pymatgen
data_AgSbTe2
_symmetry_space_group_name_H-M   'P 1'
_cell_length_a   12.22463958
_cell_length_b   12.25908693
_cell_length_c   12.24998458
_cell_angle_alpha   89.99933985
_cell_angle_beta   89.99675088
_cell_angle_gamma   89.99607980
_symmetry_Int_Tables_number   1
_chemical_formula_structural   AgSbTe2
_chemical_formula_sum   'Ag16 Sb16 Te32'
_cell_volume   1835.81844345
_cell_formula_units_Z   16
loop_
 _symmetry_equiv_pos_site_id
 _symmetry_equiv_pos_as_xyz
  1  'x, y, z'
loop_
 _atom_site_type_symbol
 _atom_site_label
 _atom_site_symmetry_multiplicity
 _atom_site_fract_x
 _atom_site_fract_y
 _atom_site_fract_z
 _atom_site_occupancy
  Ag  Ag0  1  0.24409081  0.74884668  0.49844584  1
  Ag  Ag1  1  0.49072039  -0.00150708  -0.00108225  1
  Ag  Ag2  1  0.00842110  -0.00614764  0.49593649  1
  Ag  Ag3  1  0.24274579  0.49705385  0.24912105  1
  Ag  Ag4  1  0.24901463  0.50185226  0.75132469  1
  Ag  Ag5  1  0.48716406  0.50032356  -0.00064579  1
  Ag  Ag6  1  0.24876499  0.25587625  0.00493012  1
  Ag  Ag7  1  0.00735170  0.74564299  0.25712032  1
  Ag  Ag8  1  0.00872754  0.50525104  0.49279308  1
  Ag  Ag9  1  0.01245392  0.50003115  0.00629698  1
  Ag  Ag10  1  0.00861990  0.25561305  0.25267112  1
  Ag  Ag11  1  0.24579883  0.00231772  0.25448232  1
  Ag  Ag12  1  0.75805496  0.74932341  0.49943029  1
  Ag  Ag13  1  0.49249165  0.74938139  0.75008470  1
  Ag  Ag14  1  0.25070190  -0.00259132  0.74665598  1
  Ag  Ag15  1  0.24425564  0.25108903  0.49436544  1
  Sb  Sb16  1  0.75769884  0.25086956  0.49765462  1
  Sb  Sb17  1  0.24921294  0.74459106  0.00024943  1
  Sb  Sb18  1  0.48952214  0.25075748  0.24780341  1
  Sb  Sb19  1  0.48936022  0.50254814  0.49963479  1
  Sb  Sb20  1  0.49255394  0.25087823  0.75198065  1
  Sb  Sb21  1  0.75339937  -0.00284756  0.25145035  1
  Sb  Sb22  1  0.75062231  0.50357316  0.74799774  1
  Sb  Sb23  1  0.00618062  0.25124327  0.74850851  1
  Sb  Sb24  1  0.00898088  -0.00045286  0.00283539  1
  Sb  Sb25  1  0.75147316  0.74916512  0.00108414  1
  Sb  Sb26  1  0.00665079  0.74840559  0.74305273  1
  Sb  Sb27  1  0.75247639  0.25095589  0.00229258  1
  Sb  Sb28  1  0.74981338  -0.00454394  0.74714124  1
  Sb  Sb29  1  0.49013727  -0.00262938  0.50018420  1
  Sb  Sb30  1  0.75771970  0.50233532  0.25088256  1
  Sb  Sb31  1  0.49311790  0.74886203  0.25012767  1
  Te  Te32  1  0.24755286  0.25093669  0.24993440  1
  Te  Te33  1  0.24983182  0.25095299  0.75075242  1
  Te  Te34  1  0.24719094  0.75009845  0.25298296  1
  Te  Te35  1  0.25245783  0.74965216  0.74758787  1
  Te  Te36  1  0.76196653  0.24983560  0.25046351  1
  Te  Te37  1  0.74819114  0.24948233  0.74959838  1
  Te  Te38  1  0.75675000  0.75045730  0.25655132  1
  Te  Te39  1  0.74089884  0.75015769  0.74494468  1
  Te  Te40  1  0.25148557  0.00295235  -0.00084662  1
  Te  Te41  1  0.24838437  0.00043810  0.49909823  1
  Te  Te42  1  0.24888586  0.49938236  -0.00036379  1
  Te  Te43  1  0.24866509  0.49977460  0.49972733  1
  Te  Te44  1  0.73822722  0.00099370  -0.00122787  1
  Te  Te45  1  0.75801419  -0.00265002  0.50026097  1
  Te  Te46  1  0.74855593  0.49917827  -0.00075197  1
  Te  Te47  1  0.75781218  0.50276864  0.50048457  1
  Te  Te48  1  0.00401043  0.25285137  0.00333841  1
  Te  Te49  1  0.00501411  0.25172174  0.49802887  1
  Te  Te50  1  -0.00324779  0.74569752  0.00612626  1
  Te  Te51  1  0.00485395  0.74890156  0.50035162  1
  Te  Te52  1  0.49622511  0.25279253  0.00120833  1
  Te  Te53  1  0.49546708  0.25001256  0.49924897  1
  Te  Te54  1  0.50187785  0.74853469  -0.00226323  1
  Te  Te55  1  0.49793756  0.74968960  0.50254855  1
  Te  Te56  1  0.00352863  -0.00253916  0.25109719  1
  Te  Te57  1  0.00579215  -0.00099206  0.74758120  1
  Te  Te58  1  0.00257664  0.50140312  0.25062314  1
  Te  Te59  1  0.00491568  0.50131826  0.75260182  1
  Te  Te60  1  0.49434966  0.00075385  0.24602611  1
  Te  Te61  1  0.49458944  -0.00329992  0.75171712  1
  Te  Te62  1  0.49381404  0.49964375  0.24513685  1
  Te  Te63  1  0.49512744  0.50303195  0.75262202  1
