# generated using pymatgen
data_AgSbTe2
_symmetry_space_group_name_H-M   'P 1'
_cell_length_a   12.21096591
_cell_length_b   12.21359108
_cell_length_c   12.21834029
_cell_angle_alpha   90.00170799
_cell_angle_beta   90.00459050
_cell_angle_gamma   89.99827043
_symmetry_Int_Tables_number   1
_chemical_formula_structural   AgSbTe2
_chemical_formula_sum   'Ag16 Sb16 Te32'
_cell_volume   1822.24014021
_cell_formula_units_Z   16
loop_
 _symmetry_equiv_pos_site_id
 _symmetry_equiv_pos_as_xyz
  1  'x, y, z'
loop_
 _atom_site_type_symbol
 _atom_site_label
 _atom_site_symmetry_multiplicity
 _atom_site_fract_x
 _atom_site_fract_y
 _atom_site_fract_z
 _atom_site_occupancy
  Ag  Ag0  1  0.25728571  0.00073199  0.74765685  1
  Ag  Ag1  1  -0.00451609  0.50408106  -0.00194818  1
  Ag  Ag2  1  0.49805270  0.00142248  0.50727621  1
  Ag  Ag3  1  0.50315426  0.00143340  -0.00750905  1
  Ag  Ag4  1  0.25367376  0.24672817  0.50259180  1
  Ag  Ag5  1  -0.00138090  0.50433200  0.50197414  1
  Ag  Ag6  1  0.75162613  0.74989526  -0.00387453  1
  Ag  Ag7  1  0.75193979  0.75028175  0.50382769  1
  Ag  Ag8  1  0.74437163  -0.00276594  0.75203167  1
  Ag  Ag9  1  0.74581475  0.25010935  -0.00454907  1
  Ag  Ag10  1  0.50500871  0.49875746  -0.00426311  1
  Ag  Ag11  1  -0.00129285  0.74944823  0.25021084  1
  Ag  Ag12  1  0.50110786  0.49919165  0.50432165  1
  Ag  Ag13  1  0.25171916  -0.00070694  0.25207716  1
  Ag  Ag14  1  0.50087758  0.24472296  0.75026173  1
  Ag  Ag15  1  -0.00451167  0.74955230  0.74978651  1
  Sb  Sb16  1  -0.00120625  0.25057482  0.75034491  1
  Sb  Sb17  1  0.24826913  0.75142921  -0.00153150  1
  Sb  Sb18  1  0.24867487  0.75298406  0.50151218  1
  Sb  Sb19  1  0.25205515  0.50027991  0.74848547  1
  Sb  Sb20  1  0.50014032  0.75183624  0.24982902  1
  Sb  Sb21  1  0.24848135  0.50092707  0.25169599  1
  Sb  Sb22  1  0.49872023  0.24864888  0.24979970  1
  Sb  Sb23  1  0.74872426  -0.00274811  0.24879317  1
  Sb  Sb24  1  0.75112727  0.50234071  0.24849478  1
  Sb  Sb25  1  0.50450446  0.75692801  0.75006955  1
  Sb  Sb26  1  0.25299189  0.24744238  -0.00320679  1
  Sb  Sb27  1  0.74875377  0.50422093  0.75178681  1
  Sb  Sb28  1  0.74685304  0.24988959  0.50536524  1
  Sb  Sb29  1  -0.00394607  -0.00401969  -0.00169393  1
  Sb  Sb30  1  0.00195555  0.24943653  0.24986052  1
  Sb  Sb31  1  0.00096362  -0.00394630  0.50167714  1
  Te  Te32  1  0.24879939  0.24236262  0.25716645  1
  Te  Te33  1  0.25378482  0.24370182  0.74580884  1
  Te  Te34  1  0.24317453  0.75658304  0.24989071  1
  Te  Te35  1  0.24139758  0.75738648  0.74995611  1
  Te  Te36  1  0.75113494  0.24779176  0.23943820  1
  Te  Te37  1  0.74599649  0.24161826  0.75433818  1
  Te  Te38  1  0.75641761  0.75143976  0.25037113  1
  Te  Te39  1  0.75346523  0.75457699  0.75015604  1
  Te  Te40  1  0.25645977  0.00138024  -0.00192843  1
  Te  Te41  1  0.25271537  0.00226869  0.50255319  1
  Te  Te42  1  0.25233780  0.49910989  0.00032776  1
  Te  Te43  1  0.25311951  0.49568446  0.49993290  1
  Te  Te44  1  0.74633172  -0.00248740  -0.00162827  1
  Te  Te45  1  0.74629257  -0.00187756  0.50247382  1
  Te  Te46  1  0.74766428  0.50253295  -0.00031504  1
  Te  Te47  1  0.74805901  0.50230302  0.50003230  1
  Te  Te48  1  -0.00463163  0.25891199  -0.00033172  1
  Te  Te49  1  0.00198627  0.25920784  0.50016485  1
  Te  Te50  1  -0.00377499  0.74624006  -0.00138689  1
  Te  Te51  1  -0.00293108  0.74590467  0.50135030  1
  Te  Te52  1  0.50223257  0.25125849  -0.00292381  1
  Te  Te53  1  0.49974434  0.25082504  0.50292308  1
  Te  Te54  1  0.50577640  0.74756976  0.00014674  1
  Te  Te55  1  0.50476259  0.74737779  0.49985962  1
  Te  Te56  1  0.00655578  -0.00536077  0.24955710  1
  Te  Te57  1  -0.00128475  -0.00360863  0.75040644  1
  Te  Te58  1  0.00149295  0.50580973  0.25007353  1
  Te  Te59  1  0.00171912  0.50436829  0.74988195  1
  Te  Te60  1  0.49446728  -0.00139271  0.25078446  1
  Te  Te61  1  0.50010019  -0.00082209  0.74986967  1
  Te  Te62  1  0.49825574  0.50068665  0.25001665  1
  Te  Te63  1  0.49838545  0.49520943  0.74987957  1
