# generated using pymatgen
data_AgSbTe2
_symmetry_space_group_name_H-M   'P 1'
_cell_length_a   12.22615464
_cell_length_b   12.21481593
_cell_length_c   12.22660558
_cell_angle_alpha   90.00352347
_cell_angle_beta   90.00195726
_cell_angle_gamma   90.00252152
_symmetry_Int_Tables_number   1
_chemical_formula_structural   AgSbTe2
_chemical_formula_sum   'Ag16 Sb16 Te32'
_cell_volume   1825.92406441
_cell_formula_units_Z   16
loop_
 _symmetry_equiv_pos_site_id
 _symmetry_equiv_pos_as_xyz
  1  'x, y, z'
loop_
 _atom_site_type_symbol
 _atom_site_label
 _atom_site_symmetry_multiplicity
 _atom_site_fract_x
 _atom_site_fract_y
 _atom_site_fract_z
 _atom_site_occupancy
  Ag  Ag0  1  0.25027247  0.75268354  0.51480469  1
  Ag  Ag1  1  0.00672640  -0.00539930  -0.00452189  1
  Ag  Ag2  1  0.49546218  -0.00539347  0.50081065  1
  Ag  Ag3  1  0.49896455  0.24568222  0.25001615  1
  Ag  Ag4  1  0.74988311  0.50351238  0.25155580  1
  Ag  Ag5  1  0.75023847  0.74953906  0.50280989  1
  Ag  Ag6  1  0.24994165  -0.01401702  0.75396227  1
  Ag  Ag7  1  0.24704574  0.51463254  0.74900937  1
  Ag  Ag8  1  0.25353906  -0.00401324  0.24690637  1
  Ag  Ag9  1  0.00115405  0.50525562  0.50403379  1
  Ag  Ag10  1  0.74996635  0.75187514  -0.00299806  1
  Ag  Ag11  1  0.00405531  0.24874523  0.75000893  1
  Ag  Ag12  1  0.25003658  0.75685719  -0.01407174  1
  Ag  Ag13  1  0.01420490  0.75096172  0.75016579  1
  Ag  Ag14  1  0.48630824  0.75393218  0.75005849  1
  Ag  Ag15  1  0.49294548  -0.00546225  -0.00093836  1
  Sb  Sb16  1  0.49662458  0.24521911  0.75008229  1
  Sb  Sb17  1  0.00136479  0.50546002  -0.00402105  1
  Sb  Sb18  1  0.49885329  0.50632746  0.50086821  1
  Sb  Sb19  1  0.49930967  0.50648379  -0.00096413  1
  Sb  Sb20  1  0.74994884  0.24968949  0.49954320  1
  Sb  Sb21  1  0.74764195  -0.00193111  0.24956908  1
  Sb  Sb22  1  0.00056444  0.75072748  0.24939554  1
  Sb  Sb23  1  0.25002160  0.24660421  0.50171462  1
  Sb  Sb24  1  0.00426162  -0.00533094  0.50478109  1
  Sb  Sb25  1  0.75292330  0.50600603  0.74846135  1
  Sb  Sb26  1  0.74998123  0.24941008  0.00044667  1
  Sb  Sb27  1  0.75036036  -0.00488772  0.75041519  1
  Sb  Sb28  1  0.25007438  0.50345806  0.25042839  1
  Sb  Sb29  1  0.00130774  0.24829813  0.24980590  1
  Sb  Sb30  1  0.24988474  0.24089809  -0.00124838  1
  Sb  Sb31  1  0.49882366  0.75389457  0.24973257  1
  Te  Te32  1  0.25411034  0.24605472  0.24971549  1
  Te  Te33  1  0.24524687  0.25052971  0.75022071  1
  Te  Te34  1  0.25010768  0.75418888  0.25010832  1
  Te  Te35  1  0.25005059  0.75189604  0.74943204  1
  Te  Te36  1  0.74604887  0.25541530  0.24993997  1
  Te  Te37  1  0.75736316  0.25225673  0.75033574  1
  Te  Te38  1  0.74996591  0.74636496  0.25045288  1
  Te  Te39  1  0.74965569  0.74937876  0.74988588  1
  Te  Te40  1  0.25087090  -0.00302958  -0.00181144  1
  Te  Te41  1  0.25167888  -0.00388124  0.50087854  1
  Te  Te42  1  0.24964303  0.50940098  -0.00222160  1
  Te  Te43  1  0.24784472  0.50601998  0.50137517  1
  Te  Te44  1  0.74938947  -0.00649535  0.00082510  1
  Te  Te45  1  0.74500019  -0.00698396  0.49877955  1
  Te  Te46  1  0.75028788  0.50687425  0.00470185  1
  Te  Te47  1  0.75184643  0.50579145  0.49761709  1
  Te  Te48  1  -0.00105097  0.24338490  -0.00509235  1
  Te  Te49  1  -0.00130664  0.25537821  0.50504829  1
  Te  Te50  1  -0.00024379  0.75305630  -0.00195301  1
  Te  Te51  1  -0.00048385  0.74889968  0.50214859  1
  Te  Te52  1  0.50102622  0.24115458  0.00194476  1
  Te  Te53  1  0.50124204  0.24155223  0.49814484  1
  Te  Te54  1  0.50021182  0.75407202  -0.00165998  1
  Te  Te55  1  0.49969099  0.75367344  0.50169109  1
  Te  Te56  1  0.00544513  0.00206388  0.24405313  1
  Te  Te57  1  0.00227720  -0.00365250  0.75179172  1
  Te  Te58  1  -0.00224662  0.49801692  0.25587226  1
  Te  Te59  1  0.00317488  0.50372463  0.74735228  1
  Te  Te60  1  0.49723328  0.00204347  0.24940990  1
  Te  Te61  1  0.49747927  -0.00154870  0.75053343  1
  Te  Te62  1  0.50240773  0.49236118  0.24979440  1
  Te  Te63  1  0.49334195  0.50231987  0.75006267  1
