# generated using pymatgen
data_AgSbTe2
_symmetry_space_group_name_H-M   'P 1'
_cell_length_a   12.23489078
_cell_length_b   12.24350696
_cell_length_c   12.23924539
_cell_angle_alpha   89.99920720
_cell_angle_beta   89.99989290
_cell_angle_gamma   90.00342355
_symmetry_Int_Tables_number   1
_chemical_formula_structural   AgSbTe2
_chemical_formula_sum   'Ag16 Sb16 Te32'
_cell_volume   1833.41411566
_cell_formula_units_Z   16
loop_
 _symmetry_equiv_pos_site_id
 _symmetry_equiv_pos_as_xyz
  1  'x, y, z'
loop_
 _atom_site_type_symbol
 _atom_site_label
 _atom_site_symmetry_multiplicity
 _atom_site_fract_x
 _atom_site_fract_y
 _atom_site_fract_z
 _atom_site_occupancy
  Ag  Ag0  1  0.50124611  0.24735624  0.74699631  1
  Ag  Ag1  1  0.24685363  0.24655231  0.50633823  1
  Ag  Ag2  1  0.75903044  0.75075563  0.51748276  1
  Ag  Ag3  1  -0.00596220  -0.00793057  -0.01045312  1
  Ag  Ag4  1  0.75810109  -0.01813671  0.74850767  1
  Ag  Ag5  1  0.75454650  -0.00655523  0.25161757  1
  Ag  Ag6  1  0.75436216  0.50648077  0.25153025  1
  Ag  Ag7  1  -0.00223964  -0.01003280  0.50996020  1
  Ag  Ag8  1  -0.00514644  0.51006990  0.50635708  1
  Ag  Ag9  1  0.75667467  0.75061938  -0.01755904  1
  Ag  Ag10  1  -0.00681749  0.50775626  -0.00671246  1
  Ag  Ag11  1  0.24258551  -0.00417755  0.74413965  1
  Ag  Ag12  1  0.75614604  0.51839003  0.74871230  1
  Ag  Ag13  1  0.51768178  0.75221629  0.74752354  1
  Ag  Ag14  1  0.23947458  0.75345275  0.50800350  1
  Ag  Ag15  1  -0.01603533  0.75467830  0.74433817  1
  Sb  Sb16  1  0.50189104  0.24917858  0.25657129  1
  Sb  Sb17  1  0.75413157  0.24872541  0.50578910  1
  Sb  Sb18  1  -0.00172965  0.24991527  0.25304853  1
  Sb  Sb19  1  0.24242297  0.50244579  0.25425175  1
  Sb  Sb20  1  -0.00720546  0.75013397  0.25993939  1
  Sb  Sb21  1  0.50896252  0.50132756  0.50459133  1
  Sb  Sb22  1  0.75151427  0.24855489  -0.00565549  1
  Sb  Sb23  1  0.24242021  -0.00281098  0.25927802  1
  Sb  Sb24  1  0.50491588  -0.00149268  0.50586092  1
  Sb  Sb25  1  0.51022583  0.50368317  -0.00501600  1
  Sb  Sb26  1  -0.00044796  0.24214838  0.74648461  1
  Sb  Sb27  1  0.50925941  -0.00364469  -0.00684869  1
  Sb  Sb28  1  0.50791338  0.75040534  0.25386873  1
  Sb  Sb29  1  0.23778039  0.75300805  -0.01198596  1
  Sb  Sb30  1  0.24856747  0.24720577  -0.01010005  1
  Sb  Sb31  1  0.23965802  0.50434899  0.74649571  1
  Te  Te32  1  0.25426915  0.24924493  0.26355999  1
  Te  Te33  1  0.25781496  0.24313421  0.74279669  1
  Te  Te34  1  0.25714586  0.75142028  0.26485182  1
  Te  Te35  1  0.24856710  0.75473350  0.74392095  1
  Te  Te36  1  0.74742455  0.24988923  0.25078677  1
  Te  Te37  1  0.74095155  0.24932115  0.74850505  1
  Te  Te38  1  0.74766797  0.75040730  0.25053369  1
  Te  Te39  1  0.75223940  0.75062126  0.74902799  1
  Te  Te40  1  0.23669644  -0.00065550  -0.00623305  1
  Te  Te41  1  0.24300826  -0.00328872  0.50277975  1
  Te  Te42  1  0.23462332  0.49989087  0.00303388  1
  Te  Te43  1  0.23824165  0.50261309  0.49904282  1
  Te  Te44  1  0.75751549  -0.00375628  -0.00241760  1
  Te  Te45  1  0.75463310  -0.00191451  0.50264705  1
  Te  Te46  1  0.75801123  0.50420871  -0.00174404  1
  Te  Te47  1  0.75638213  0.50190955  0.50191471  1
  Te  Te48  1  0.00136618  0.25080554  0.00021683  1
  Te  Te49  1  0.00744760  0.25023451  0.50140775  1
  Te  Te50  1  -0.00355050  0.75061653  -0.00674986  1
  Te  Te51  1  -0.00271178  0.75070318  0.50173812  1
  Te  Te52  1  0.49750151  0.25099905  -0.01282655  1
  Te  Te53  1  0.48849999  0.25127348  0.50872727  1
  Te  Te54  1  0.50936814  0.74981227  -0.01131531  1
  Te  Te55  1  0.50146904  0.74916600  0.50950707  1
  Te  Te56  1  -0.00896915  0.00009495  0.24986083  1
  Te  Te57  1  -0.00213843  0.00096528  0.74815855  1
  Te  Te58  1  -0.01000198  0.49980132  0.25038739  1
  Te  Te59  1  -0.00354032  0.50293775  0.74846098  1
  Te  Te60  1  0.51397634  0.00179192  0.24718054  1
  Te  Te61  1  0.50099994  -0.00281431  0.75066621  1
  Te  Te62  1  0.51499337  0.49856644  0.24791167  1
  Te  Te63  1  0.50931655  0.50263917  0.75030625  1
