# generated using pymatgen
data_AgSbTe2
_symmetry_space_group_name_H-M   'P 1'
_cell_length_a   12.20325909
_cell_length_b   12.21163344
_cell_length_c   12.21483243
_cell_angle_alpha   89.99816161
_cell_angle_beta   89.99416642
_cell_angle_gamma   90.00720294
_symmetry_Int_Tables_number   1
_chemical_formula_structural   AgSbTe2
_chemical_formula_sum   'Ag16 Sb16 Te32'
_cell_volume   1820.27539769
_cell_formula_units_Z   16
loop_
 _symmetry_equiv_pos_site_id
 _symmetry_equiv_pos_as_xyz
  1  'x, y, z'
loop_
 _atom_site_type_symbol
 _atom_site_label
 _atom_site_symmetry_multiplicity
 _atom_site_fract_x
 _atom_site_fract_y
 _atom_site_fract_z
 _atom_site_occupancy
  Ag  Ag0  1  0.00700969  0.74911269  0.25204673  1
  Ag  Ag1  1  0.24675351  0.49826035  0.74591631  1
  Ag  Ag2  1  0.74817100  0.25146230  0.00044996  1
  Ag  Ag3  1  0.49510948  0.00014652  0.00561659  1
  Ag  Ag4  1  0.49748991  0.24567335  0.25045776  1
  Ag  Ag5  1  0.49265629  0.75511337  0.25058920  1
  Ag  Ag6  1  0.00401175  0.49981157  0.50190245  1
  Ag  Ag7  1  0.25179950  0.75328525  0.00469270  1
  Ag  Ag8  1  0.75288220  0.49691457  0.74930056  1
  Ag  Ag9  1  0.00372204  0.25372891  0.74826895  1
  Ag  Ag10  1  0.25122041  0.00087689  0.74604658  1
  Ag  Ag11  1  0.25059547  0.75314937  0.49513754  1
  Ag  Ag12  1  0.25672368  -0.00497611  0.25356518  1
  Ag  Ag13  1  0.25052434  0.24743706  0.50127052  1
  Ag  Ag14  1  0.49144668  0.00024230  0.49454173  1
  Ag  Ag15  1  0.74997587  0.49941109  0.25041884  1
  Sb  Sb16  1  0.25184143  0.24768575  -0.00047169  1
  Sb  Sb17  1  0.74996300  0.00308249  0.75126662  1
  Sb  Sb18  1  0.74763758  0.74909177  0.00284801  1
  Sb  Sb19  1  0.49508153  0.50028659  0.49785438  1
  Sb  Sb20  1  0.74922709  0.25239874  0.49952314  1
  Sb  Sb21  1  0.24870081  0.50579190  0.25336292  1
  Sb  Sb22  1  0.49671059  0.24900164  0.74931527  1
  Sb  Sb23  1  0.74942999  0.74822371  0.49783954  1
  Sb  Sb24  1  0.00203032  0.25087940  0.25179276  1
  Sb  Sb25  1  0.00508776  0.74676329  0.74709900  1
  Sb  Sb26  1  0.49869946  0.49979668  0.00202930  1
  Sb  Sb27  1  0.49552663  0.75119506  0.74938768  1
  Sb  Sb28  1  0.00953220  -0.00033809  0.49888797  1
  Sb  Sb29  1  0.00072905  0.50014196  -0.00167003  1
  Sb  Sb30  1  0.74237400  0.00167851  0.24898566  1
  Sb  Sb31  1  0.00549103  -0.00081271  0.00115860  1
  Te  Te32  1  0.25235877  0.24806563  0.25164734  1
  Te  Te33  1  0.24816493  0.25054559  0.74872608  1
  Te  Te34  1  0.25160201  0.74861703  0.25147996  1
  Te  Te35  1  0.24895321  0.75065759  0.74872274  1
  Te  Te36  1  0.74845528  0.25354765  0.24734856  1
  Te  Te37  1  0.75316052  0.25497472  0.75263791  1
  Te  Te38  1  0.74980300  0.74486848  0.24865950  1
  Te  Te39  1  0.75144325  0.74097137  0.75102696  1
  Te  Te40  1  0.25446506  -0.00279852  0.00032587  1
  Te  Te41  1  0.25225314  -0.00063577  0.49970681  1
  Te  Te42  1  0.25068051  0.50515952  -0.00798449  1
  Te  Te43  1  0.24731662  0.49985013  0.50378812  1
  Te  Te44  1  0.74168319  0.00504846  -0.00181100  1
  Te  Te45  1  0.73962280  -0.00028897  0.50200621  1
  Te  Te46  1  0.74961390  0.49654188  -0.00042223  1
  Te  Te47  1  0.75495914  0.49984665  0.50086425  1
  Te  Te48  1  -0.00565414  0.24923706  -0.00441192  1
  Te  Te49  1  0.00546306  0.25418117  0.50317904  1
  Te  Te50  1  0.00573409  0.75084929  0.00702599  1
  Te  Te51  1  0.00541171  0.74595325  0.49576531  1
  Te  Te52  1  0.50301425  0.24542672  0.00531118  1
  Te  Te53  1  0.49445813  0.24639785  0.49492782  1
  Te  Te54  1  0.49579587  0.75520604  0.00539092  1
  Te  Te55  1  0.49430039  0.75380863  0.49472285  1
  Te  Te56  1  0.00606745  -0.00489163  0.25075496  1
  Te  Te57  1  0.00576109  0.00536726  0.74971605  1
  Te  Te58  1  -0.00332511  0.50266320  0.25409286  1
  Te  Te59  1  0.00168103  0.49749970  0.74680021  1
  Te  Te60  1  0.49839425  -0.00053857  0.25028431  1
  Te  Te61  1  0.49473340  0.00006744  0.74973326  1
  Te  Te62  1  0.50483889  0.49937803  0.25077515  1
  Te  Te63  1  0.50063600  0.49990697  0.74977872  1
