# generated using pymatgen
data_AgSbTe2
_symmetry_space_group_name_H-M   'P 1'
_cell_length_a   12.22309477
_cell_length_b   12.21424386
_cell_length_c   12.21691012
_cell_angle_alpha   89.99501875
_cell_angle_beta   89.99773831
_cell_angle_gamma   90.00717752
_symmetry_Int_Tables_number   1
_chemical_formula_structural   AgSbTe2
_chemical_formula_sum   'Ag16 Sb16 Te32'
_cell_volume   1823.93408177
_cell_formula_units_Z   16
loop_
 _symmetry_equiv_pos_site_id
 _symmetry_equiv_pos_as_xyz
  1  'x, y, z'
loop_
 _atom_site_type_symbol
 _atom_site_label
 _atom_site_symmetry_multiplicity
 _atom_site_fract_x
 _atom_site_fract_y
 _atom_site_fract_z
 _atom_site_occupancy
  Ag  Ag0  1  0.00130892  0.00115153  0.49211059  1
  Ag  Ag1  1  0.24927807  0.00457980  0.25291902  1
  Ag  Ag2  1  0.25011265  0.25078834  0.00768737  1
  Ag  Ag3  1  0.25001989  0.49905384  0.74828028  1
  Ag  Ag4  1  0.00680333  0.24403771  0.25037797  1
  Ag  Ag5  1  0.49588836  0.49769409  0.00311603  1
  Ag  Ag6  1  0.00137204  0.00383045  0.00822194  1
  Ag  Ag7  1  0.49520836  0.75366044  0.25210813  1
  Ag  Ag8  1  0.75115808  0.00143926  0.25276394  1
  Ag  Ag9  1  0.00473555  0.49942644  0.49784653  1
  Ag  Ag10  1  0.49218954  0.24638947  0.24910526  1
  Ag  Ag11  1  0.74984238  0.49929192  0.74885839  1
  Ag  Ag12  1  0.49848368  -0.00084537  0.49187287  1
  Ag  Ag13  1  0.75061842  0.00068586  0.74757231  1
  Ag  Ag14  1  0.25031666  0.75045476  0.49508305  1
  Ag  Ag15  1  0.25124619  0.49563857  0.25104403  1
  Sb  Sb16  1  0.74985950  0.49903369  0.25156073  1
  Sb  Sb17  1  0.25220336  0.74922333  0.00488255  1
  Sb  Sb18  1  0.75026480  0.24779028  0.49862111  1
  Sb  Sb19  1  0.00198670  0.24932515  0.74897841  1
  Sb  Sb20  1  0.24930962  0.24954777  0.49135098  1
  Sb  Sb21  1  0.74846227  0.75062211  0.00168054  1
  Sb  Sb22  1  0.49894155  0.00254385  0.00824808  1
  Sb  Sb23  1  0.74998710  0.24913326  0.00227598  1
  Sb  Sb24  1  0.24940374  0.00128060  0.74692794  1
  Sb  Sb25  1  0.00136662  0.74998786  0.74794488  1
  Sb  Sb26  1  0.00481060  0.75655323  0.25264195  1
  Sb  Sb27  1  0.49551784  0.50087804  0.49689484  1
  Sb  Sb28  1  0.00343597  0.49606900  0.00265167  1
  Sb  Sb29  1  0.74927036  0.75256484  0.49847399  1
  Sb  Sb30  1  0.49817157  0.75070831  0.74822430  1
  Sb  Sb31  1  0.49764699  0.24959269  0.75014264  1
  Te  Te32  1  0.24988729  0.24943138  0.24811206  1
  Te  Te33  1  0.25035951  0.25695489  0.76020703  1
  Te  Te34  1  0.25397266  0.74985618  0.25345022  1
  Te  Te35  1  0.25113831  0.74267510  0.74323379  1
  Te  Te36  1  0.75062801  0.24520208  0.24883824  1
  Te  Te37  1  0.74962458  0.25004869  0.75104158  1
  Te  Te38  1  0.74066598  0.75593151  0.25026378  1
  Te  Te39  1  0.74912143  0.75013720  0.75018796  1
  Te  Te40  1  0.24778890  0.00191216  0.00039409  1
  Te  Te41  1  0.24824912  -0.00156074  0.49981785  1
  Te  Te42  1  0.25058810  0.49938144  0.00264976  1
  Te  Te43  1  0.24813686  0.50143808  0.49818247  1
  Te  Te44  1  0.75325210  0.00029197  -0.00036056  1
  Te  Te45  1  0.75238617  -0.00133149  0.49912368  1
  Te  Te46  1  0.74753301  0.50017047  -0.00561339  1
  Te  Te47  1  0.75584381  0.50173509  0.50535418  1
  Te  Te48  1  0.00507815  0.24546584  0.00629025  1
  Te  Te49  1  -0.00007958  0.24852311  0.49409004  1
  Te  Te50  1  0.00020670  0.75964048  0.00017697  1
  Te  Te51  1  0.00670958  0.75019382  0.49891399  1
  Te  Te52  1  0.49465088  0.25385180  0.00568848  1
  Te  Te53  1  0.50004298  0.24381794  0.49293147  1
  Te  Te54  1  0.49922661  0.74357025  0.00661052  1
  Te  Te55  1  0.49428240  0.75398065  0.49495503  1
  Te  Te56  1  0.00153184  0.00032401  0.25320429  1
  Te  Te57  1  -0.00443097  0.00093479  0.74618704  1
  Te  Te58  1  0.00091804  0.49658254  0.25222911  1
  Te  Te59  1  0.00016598  0.49931723  0.74671808  1
  Te  Te60  1  0.49798996  0.00198179  0.25025713  1
  Te  Te61  1  0.50576161  0.00014382  0.74460025  1
  Te  Te62  1  0.49943519  0.49782175  0.24975657  1
  Te  Te63  1  0.50011408  0.49944501  0.75203975  1
