# generated using pymatgen
data_AgSbTe2
_symmetry_space_group_name_H-M   'P 1'
_cell_length_a   12.20339311
_cell_length_b   12.20951948
_cell_length_c   12.20951950
_cell_angle_alpha   89.99997137
_cell_angle_beta   89.99933854
_cell_angle_gamma   90.00066148
_symmetry_Int_Tables_number   1
_chemical_formula_structural   AgSbTe2
_chemical_formula_sum   'Ag16 Sb16 Te32'
_cell_volume   1819.18868736
_cell_formula_units_Z   16
loop_
 _symmetry_equiv_pos_site_id
 _symmetry_equiv_pos_as_xyz
  1  'x, y, z'
loop_
 _atom_site_type_symbol
 _atom_site_label
 _atom_site_symmetry_multiplicity
 _atom_site_fract_x
 _atom_site_fract_y
 _atom_site_fract_z
 _atom_site_occupancy
  Ag  Ag0  1  0.49802116  0.74732353  0.24985609  1
  Ag  Ag1  1  0.49802122  0.25014390  0.75267645  1
  Ag  Ag2  1  0.49846733  0.75010789  0.74989213  1
  Ag  Ag3  1  0.25539690  0.24975032  0.00635617  1
  Ag  Ag4  1  0.00153531  0.75123673  0.74876330  1
  Ag  Ag5  1  0.49487270  0.00268334  0.49731664  1
  Ag  Ag6  1  0.25298231  0.24789161  0.49362717  1
  Ag  Ag7  1  0.49433700  0.25318449  0.24681552  1
  Ag  Ag8  1  0.00456448  0.00120515  0.49879486  1
  Ag  Ag9  1  0.74439885  0.49703607  0.24867754  1
  Ag  Ag10  1  0.00289244  0.00181773  0.00116089  1
  Ag  Ag11  1  0.25298231  0.00637284  0.25210836  1
  Ag  Ag12  1  0.74439890  0.25132247  0.00296400  1
  Ag  Ag13  1  0.00289253  0.49883911  0.49818229  1
  Ag  Ag14  1  0.25539691  0.49364386  0.25024970  1
  Ag  Ag15  1  0.49887491  0.49460365  0.00539632  1
  Sb  Sb16  1  0.25073201  0.00171908  0.74664754  1
  Sb  Sb17  1  0.74762347  0.74895659  0.00187714  1
  Sb  Sb18  1  0.25207448  0.75116638  0.00208198  1
  Sb  Sb19  1  0.00879967  0.24917462  0.25082538  1
  Sb  Sb20  1  0.74915015  0.00137129  0.75149355  1
  Sb  Sb21  1  0.00179963  0.24849671  0.74922798  1
  Sb  Sb22  1  0.25207446  0.49791801  0.74883362  1
  Sb  Sb23  1  0.00145588  0.49868944  0.00131056  1
  Sb  Sb24  1  0.74915014  0.74850647  0.49862870  1
  Sb  Sb25  1  0.49527412  0.00822470  0.00286380  1
  Sb  Sb26  1  0.25073202  0.75335246  0.49828092  1
  Sb  Sb27  1  0.74614058  0.00456436  0.24853257  1
  Sb  Sb28  1  0.74614059  0.25146743  0.49543562  1
  Sb  Sb29  1  0.74762347  0.49812283  0.75104341  1
  Sb  Sb30  1  0.49527408  0.49713621  0.49177550  1
  Sb  Sb31  1  0.00179962  0.75077202  0.25150329  1
  Te  Te32  1  0.25152870  0.24984335  0.25015662  1
  Te  Te33  1  0.25673981  0.25046371  0.75028283  1
  Te  Te34  1  0.25673982  0.74971717  0.24953630  1
  Te  Te35  1  0.25330843  0.74958197  0.75041802  1
  Te  Te36  1  0.74215603  0.25433892  0.24566102  1
  Te  Te37  1  0.74108857  0.25101686  0.75784032  1
  Te  Te38  1  0.74108862  0.74215969  0.24898315  1
  Te  Te39  1  0.74658322  0.74931119  0.75068883  1
  Te  Te40  1  0.24571345  0.00568348  0.00633418  1
  Te  Te41  1  0.24940070  0.00374685  0.49625317  1
  Te  Te42  1  0.25282452  0.49365155  0.00634846  1
  Te  Te43  1  0.24571340  0.49366582  0.49431649  1
  Te  Te44  1  0.75902212  0.00773938  0.00175204  1
  Te  Te45  1  0.75330660  0.00166386  0.49833614  1
  Te  Te46  1  0.74752195  0.49402475  0.00597524  1
  Te  Te47  1  0.75902212  0.49824792  0.49226061  1
  Te  Te48  1  0.00148894  0.24601102  -0.00237694  1
  Te  Te49  1  0.00436622  0.24741757  0.50219162  1
  Te  Te50  1  -0.00049112  0.75501701  -0.00625697  1
  Te  Te51  1  0.00028843  0.75252806  0.50465626  1
  Te  Te52  1  0.49798721  0.24982799  0.00104782  1
  Te  Te53  1  0.49745442  0.24732196  0.49978049  1
  Te  Te54  1  0.50043732  0.74448008  -0.00150596  1
  Te  Te55  1  0.49964971  0.75513184  0.50185694  1
  Te  Te56  1  0.00436623  -0.00219163  0.25258244  1
  Te  Te57  1  0.00028844  -0.00465628  0.74747194  1
  Te  Te58  1  0.00148896  0.50237694  0.25398896  1
  Te  Te59  1  -0.00049113  0.50625697  0.74498302  1
  Te  Te60  1  0.49745441  0.00021950  0.25267805  1
  Te  Te61  1  0.49964971  -0.00185694  0.74486816  1
  Te  Te62  1  0.49798722  0.49895217  0.25017181  1
  Te  Te63  1  0.50043733  0.50150596  0.75551994  1
