# generated using pymatgen
data_AgSbTe2
_symmetry_space_group_name_H-M   'P 1'
_cell_length_a   12.22885314
_cell_length_b   12.23910998
_cell_length_c   12.22870481
_cell_angle_alpha   89.99791482
_cell_angle_beta   89.99395602
_cell_angle_gamma   90.00157584
_symmetry_Int_Tables_number   1
_chemical_formula_structural   AgSbTe2
_chemical_formula_sum   'Ag16 Sb16 Te32'
_cell_volume   1830.27364108
_cell_formula_units_Z   16
loop_
 _symmetry_equiv_pos_site_id
 _symmetry_equiv_pos_as_xyz
  1  'x, y, z'
loop_
 _atom_site_type_symbol
 _atom_site_label
 _atom_site_symmetry_multiplicity
 _atom_site_fract_x
 _atom_site_fract_y
 _atom_site_fract_z
 _atom_site_occupancy
  Ag  Ag0  1  0.75357233  0.25471096  0.00372486  1
  Ag  Ag1  1  0.50784744  0.74996044  0.25347362  1
  Ag  Ag2  1  0.75667407  0.50375034  0.25182503  1
  Ag  Ag3  1  -0.00419498  0.49925521  -0.01398816  1
  Ag  Ag4  1  -0.00323380  0.73474925  0.74322177  1
  Ag  Ag5  1  0.75344111  -0.00405358  0.25267948  1
  Ag  Ag6  1  -0.00128951  -0.00319568  0.49538957  1
  Ag  Ag7  1  -0.00708890  0.74777444  0.25791768  1
  Ag  Ag8  1  0.76468724  0.50043681  0.74878070  1
  Ag  Ag9  1  0.50408511  0.24995897  0.25171192  1
  Ag  Ag10  1  0.24586106  0.00010527  0.25432537  1
  Ag  Ag11  1  -0.00345504  0.50283974  0.51319197  1
  Ag  Ag12  1  0.23391301  0.49899926  0.74666943  1
  Ag  Ag13  1  0.75766017  0.74670988  0.49335987  1
  Ag  Ag14  1  -0.00130560  0.26555289  0.74630442  1
  Ag  Ag15  1  0.24371383  0.25154126  0.49840523  1
  Sb  Sb16  1  0.50098667  -0.00002989  0.49562814  1
  Sb  Sb17  1  0.24757622  0.25240921  0.00069229  1
  Sb  Sb18  1  0.75308352  0.74647728  0.00631249  1
  Sb  Sb19  1  0.75548958  -0.00064717  0.74732337  1
  Sb  Sb20  1  -0.00221264  0.25110960  0.25229914  1
  Sb  Sb21  1  0.50395959  0.74620913  0.74598414  1
  Sb  Sb22  1  0.50103527  0.25309572  0.74789874  1
  Sb  Sb23  1  0.24294596  0.50075936  0.25203718  1
  Sb  Sb24  1  0.50454250  0.49820413  0.00307229  1
  Sb  Sb25  1  0.50250988  0.00121601  0.00467480  1
  Sb  Sb26  1  -0.00228055  0.00058893  0.00409608  1
  Sb  Sb27  1  0.24722923  0.74834034  0.00088129  1
  Sb  Sb28  1  0.24148672  0.74866009  0.49845944  1
  Sb  Sb29  1  0.50342528  0.50016158  0.49772924  1
  Sb  Sb30  1  0.24262814  0.00056547  0.74559053  1
  Sb  Sb31  1  0.75457458  0.25199079  0.49812394  1
  Te  Te32  1  0.25291030  0.24878620  0.25229455  1
  Te  Te33  1  0.24914223  0.25248257  0.74799208  1
  Te  Te34  1  0.24911168  0.75216631  0.25080110  1
  Te  Te35  1  0.24806915  0.74625996  0.74995940  1
  Te  Te36  1  0.74862423  0.25188676  0.25070473  1
  Te  Te37  1  0.75153566  0.25247849  0.75087826  1
  Te  Te38  1  0.75309638  0.74845321  0.25025482  1
  Te  Te39  1  0.75172136  0.74776550  0.74719809  1
  Te  Te40  1  0.25043801  0.00032126  0.00996950  1
  Te  Te41  1  0.24479828  0.00303281  0.49490335  1
  Te  Te42  1  0.24235972  0.49932131  -0.00571072  1
  Te  Te43  1  0.24545808  0.49723302  0.50257966  1
  Te  Te44  1  0.75080878  0.00806014  0.00699349  1
  Te  Te45  1  0.75507775  -0.00225738  0.49535661  1
  Te  Te46  1  0.75354511  0.49683656  0.00115119  1
  Te  Te47  1  0.75275123  0.50094122  0.49816447  1
  Te  Te48  1  -0.00380522  0.25264204  -0.00457135  1
  Te  Te49  1  0.00232425  0.25134090  0.50243881  1
  Te  Te50  1  -0.00046486  0.74646111  -0.00138609  1
  Te  Te51  1  -0.00161787  0.74841776  0.49856121  1
  Te  Te52  1  0.50563315  0.25026386  0.00564390  1
  Te  Te53  1  0.49177985  0.24980589  0.49523744  1
  Te  Te54  1  0.49938191  0.74991767  0.00853255  1
  Te  Te55  1  0.50893253  0.75022297  0.49405216  1
  Te  Te56  1  -0.00186327  -0.00012300  0.25299932  1
  Te  Te57  1  0.00026299  -0.00148577  0.74466348  1
  Te  Te58  1  -0.00267323  0.50152918  0.25226512  1
  Te  Te59  1  -0.00214278  0.50003839  0.74806863  1
  Te  Te60  1  0.50261987  -0.00027944  0.25108771  1
  Te  Te61  1  0.49874643  -0.00183794  0.75097270  1
  Te  Te62  1  0.50451267  0.50016556  0.24960699  1
  Te  Te63  1  0.50105813  0.50094684  0.75054099  1
