# generated using pymatgen
data_AgSbTe2
_symmetry_space_group_name_H-M   'P 1'
_cell_length_a   12.31650040
_cell_length_b   12.31821323
_cell_length_c   12.31913460
_cell_angle_alpha   89.99984292
_cell_angle_beta   89.99192750
_cell_angle_gamma   89.99751749
_symmetry_Int_Tables_number   1
_chemical_formula_structural   AgSbTe2
_chemical_formula_sum   'Ag16 Sb16 Te32'
_cell_volume   1869.02554954
_cell_formula_units_Z   16
loop_
 _symmetry_equiv_pos_site_id
 _symmetry_equiv_pos_as_xyz
  1  'x, y, z'
loop_
 _atom_site_type_symbol
 _atom_site_label
 _atom_site_symmetry_multiplicity
 _atom_site_fract_x
 _atom_site_fract_y
 _atom_site_fract_z
 _atom_site_occupancy
  Ag  Ag0  1  0.50708439  0.00280716  0.01026051  1
  Ag  Ag1  1  0.24080045  0.76631692  0.49320881  1
  Ag  Ag2  1  -0.00546802  0.23501714  0.73210529  1
  Ag  Ag3  1  0.75854396  0.00811765  0.73787958  1
  Ag  Ag4  1  -0.00055618  0.76550619  0.73558120  1
  Ag  Ag5  1  0.23602303  0.23677352  0.48984135  1
  Ag  Ag6  1  -0.00713137  0.23703827  0.26244181  1
  Ag  Ag7  1  0.76211629  0.48404628  0.25268429  1
  Ag  Ag8  1  0.76174459  0.01092865  0.25914973  1
  Ag  Ag9  1  0.23797707  0.49415932  0.25434866  1
  Ag  Ag10  1  0.50172801  0.00177460  0.49488774  1
  Ag  Ag11  1  -0.00030437  0.00892589  0.48919888  1
  Ag  Ag12  1  0.23548185  0.00425354  0.26051538  1
  Ag  Ag13  1  0.00275535  0.76524978  0.26203544  1
  Ag  Ag14  1  0.76521751  0.23985283  0.49046521  1
  Ag  Ag15  1  0.75458876  0.24228701  0.01404918  1
  Sb  Sb16  1  0.50436326  0.24462929  0.74602925  1
  Sb  Sb17  1  0.24487490  0.49683606  0.74213598  1
  Sb  Sb18  1  0.75435158  0.49428313  0.74519598  1
  Sb  Sb19  1  0.50387069  0.49398078  0.00605821  1
  Sb  Sb20  1  -0.00124446  0.49430040  0.49764737  1
  Sb  Sb21  1  0.24014840  0.00142840  0.74097437  1
  Sb  Sb22  1  0.50129568  0.76079294  0.74273676  1
  Sb  Sb23  1  0.74987797  0.75566974  0.00355957  1
  Sb  Sb24  1  0.50494998  0.24615304  0.25128389  1
  Sb  Sb25  1  0.49685073  0.75501042  0.25325866  1
  Sb  Sb26  1  -0.00188630  0.00024928  0.00613911  1
  Sb  Sb27  1  0.24769156  0.75454812  0.00608019  1
  Sb  Sb28  1  -0.00058122  0.49920958  0.00367698  1
  Sb  Sb29  1  0.49952138  0.49636277  0.49775323  1
  Sb  Sb30  1  0.24479917  0.24619363  0.01048286  1
  Sb  Sb31  1  0.76024593  0.76065862  0.49730509  1
  Te  Te32  1  0.24857548  0.24600580  0.25167634  1
  Te  Te33  1  0.24007885  0.25143384  0.74537277  1
  Te  Te34  1  0.24699610  0.75564295  0.25069463  1
  Te  Te35  1  0.24104153  0.74892918  0.74599669  1
  Te  Te36  1  0.75000447  0.24721916  0.25293266  1
  Te  Te37  1  0.75299751  0.24935164  0.74293526  1
  Te  Te38  1  0.75815587  0.75065762  0.25132251  1
  Te  Te39  1  0.75683295  0.74791827  0.74941143  1
  Te  Te40  1  0.25974117  0.00142115  0.01148212  1
  Te  Te41  1  0.24251274  0.00295539  0.49969126  1
  Te  Te42  1  0.25308758  0.49998941  0.01314828  1
  Te  Te43  1  0.25109224  0.49477980  0.49476030  1
  Te  Te44  1  0.74983219  0.00114689  0.00611009  1
  Te  Te45  1  0.75625551  0.00023568  0.49731587  1
  Te  Te46  1  0.74808918  0.49132651  0.00873099  1
  Te  Te47  1  0.74702388  0.48655174  0.49378581  1
  Te  Te48  1  -0.00317766  0.24956077  0.00028290  1
  Te  Te49  1  0.00035271  0.24904128  0.49639015  1
  Te  Te50  1  0.00012469  0.74978166  -0.00228329  1
  Te  Te51  1  0.00191489  0.75202720  0.49689428  1
  Te  Te52  1  0.50701781  0.24402104  -0.00153022  1
  Te  Te53  1  0.49396695  0.24512140  0.50018344  1
  Te  Te54  1  0.49956494  0.75981671  -0.00282022  1
  Te  Te55  1  0.48639234  0.75767698  0.50055528  1
  Te  Te56  1  -0.00113451  0.00183386  0.25041242  1
  Te  Te57  1  -0.00371641  0.00208720  0.75152281  1
  Te  Te58  1  -0.00123323  0.49951598  0.25213591  1
  Te  Te59  1  -0.00002920  0.50313750  0.75179806  1
  Te  Te60  1  0.50501905  0.00010795  0.25697130  1
  Te  Te61  1  0.51292602  0.00099793  0.74169520  1
  Te  Te62  1  0.50088079  0.50324819  0.25110602  1
  Te  Te63  1  0.49908299  0.50309837  0.75234842  1
