# generated using pymatgen
data_AgSbTe2
_symmetry_space_group_name_H-M   'P 1'
_cell_length_a   12.21663241
_cell_length_b   12.23043570
_cell_length_c   12.23079242
_cell_angle_alpha   89.99980450
_cell_angle_beta   90.01184277
_cell_angle_gamma   89.99664988
_symmetry_Int_Tables_number   1
_chemical_formula_structural   AgSbTe2
_chemical_formula_sum   'Ag16 Sb16 Te32'
_cell_volume   1827.46059247
_cell_formula_units_Z   16
loop_
 _symmetry_equiv_pos_site_id
 _symmetry_equiv_pos_as_xyz
  1  'x, y, z'
loop_
 _atom_site_type_symbol
 _atom_site_label
 _atom_site_symmetry_multiplicity
 _atom_site_fract_x
 _atom_site_fract_y
 _atom_site_fract_z
 _atom_site_occupancy
  Ag  Ag0  1  0.49780895  0.49864945  0.49396016  1
  Ag  Ag1  1  0.74415590  0.74829562  0.49965072  1
  Ag  Ag2  1  0.00474463  0.24994907  0.75449287  1
  Ag  Ag3  1  0.49406072  0.49549061  0.00672573  1
  Ag  Ag4  1  0.25744562  0.49349610  0.24619869  1
  Ag  Ag5  1  0.01099171  0.00629153  -0.00057400  1
  Ag  Ag6  1  0.25144431  0.00619442  0.75596529  1
  Ag  Ag7  1  0.25180229  0.24589838  0.00354943  1
  Ag  Ag8  1  0.49009008  0.00465032  0.00628223  1
  Ag  Ag9  1  0.25491055  0.24821774  0.49552201  1
  Ag  Ag10  1  0.25725407  0.00725632  0.24472195  1
  Ag  Ag11  1  0.00508646  0.49434483  -0.00020926  1
  Ag  Ag12  1  0.49248758  0.25020221  0.24886608  1
  Ag  Ag13  1  0.49495687  0.00180240  0.49353904  1
  Ag  Ag14  1  0.74826348  0.49873243  0.75009979  1
  Ag  Ag15  1  0.49767412  0.74991626  0.25197545  1
  Sb  Sb16  1  0.00246177  0.49666091  0.49917563  1
  Sb  Sb17  1  0.74139870  -0.00063458  0.25019307  1
  Sb  Sb18  1  0.00211076  0.75024810  0.24914040  1
  Sb  Sb19  1  0.49552898  0.24961802  0.75142905  1
  Sb  Sb20  1  0.74766063  0.25107444  -0.00048540  1
  Sb  Sb21  1  0.25457650  0.75063390  0.49715132  1
  Sb  Sb22  1  0.00626389  0.00332249  0.49950022  1
  Sb  Sb23  1  0.74183917  0.50070917  0.25030814  1
  Sb  Sb24  1  0.25271799  0.75419069  0.00161458  1
  Sb  Sb25  1  0.00976794  0.24994332  0.24457330  1
  Sb  Sb26  1  0.74938639  0.00146816  0.74952945  1
  Sb  Sb27  1  0.25043946  0.49479548  0.75394048  1
  Sb  Sb28  1  0.50045683  0.74962196  0.74777525  1
  Sb  Sb29  1  0.74618380  0.74859399  0.00059461  1
  Sb  Sb30  1  0.74315271  0.25039610  0.50151439  1
  Sb  Sb31  1  0.00000586  0.74967465  0.75104836  1
  Te  Te32  1  0.25325152  0.25008583  0.24822925  1
  Te  Te33  1  0.24706707  0.24593283  0.75240109  1
  Te  Te34  1  0.25557054  0.74847945  0.25097752  1
  Te  Te35  1  0.24968394  0.76214220  0.74795804  1
  Te  Te36  1  0.73936708  0.24991721  0.25128658  1
  Te  Te37  1  0.75877249  0.25477762  0.74950676  1
  Te  Te38  1  0.74334340  0.74994644  0.25576422  1
  Te  Te39  1  0.74999653  0.74429000  0.74456024  1
  Te  Te40  1  0.25201057  0.00097946  0.00184910  1
  Te  Te41  1  0.25360056  0.00226972  0.49754998  1
  Te  Te42  1  0.25269298  0.49750385  -0.00011976  1
  Te  Te43  1  0.25396828  0.49737396  0.49905880  1
  Te  Te44  1  0.74936857  -0.00028679  -0.00089207  1
  Te  Te45  1  0.74298249  -0.00207295  0.50086581  1
  Te  Te46  1  0.74918669  0.50013690  -0.00370238  1
  Te  Te47  1  0.74669630  0.50120532  0.50237218  1
  Te  Te48  1  0.00259323  0.24985626  -0.00137395  1
  Te  Te49  1  0.00724058  0.24970344  0.50503149  1
  Te  Te50  1  -0.00187630  0.74904912  0.00093806  1
  Te  Te51  1  -0.00979525  0.75007930  0.49913476  1
  Te  Te52  1  0.49764124  0.25011679  0.00044891  1
  Te  Te53  1  0.49549776  0.25009262  0.50006708  1
  Te  Te54  1  0.50119457  0.74910749  0.00528722  1
  Te  Te55  1  0.50186377  0.74900077  0.49765368  1
  Te  Te56  1  0.00718879  -0.00040188  0.24438363  1
  Te  Te57  1  0.00184553  0.00230139  0.75410630  1
  Te  Te58  1  0.00706069  0.50035645  0.24422634  1
  Te  Te59  1  -0.00074541  0.49834963  0.75417398  1
  Te  Te60  1  0.49794374  0.00099019  0.24900998  1
  Te  Te61  1  0.49769380  0.00013879  0.75167768  1
  Te  Te62  1  0.49785633  0.49911989  0.24901464  1
  Te  Te63  1  0.50210923  0.49975421  0.75078582  1
