# generated using pymatgen
data_AgSbTe2
_symmetry_space_group_name_H-M   'P 1'
_cell_length_a   12.22734837
_cell_length_b   12.22149223
_cell_length_c   12.22399110
_cell_angle_alpha   90.00996378
_cell_angle_beta   90.00596378
_cell_angle_gamma   89.99450511
_symmetry_Int_Tables_number   1
_chemical_formula_structural   AgSbTe2
_chemical_formula_sum   'Ag16 Sb16 Te32'
_cell_volume   1826.70970496
_cell_formula_units_Z   16
loop_
 _symmetry_equiv_pos_site_id
 _symmetry_equiv_pos_as_xyz
  1  'x, y, z'
loop_
 _atom_site_type_symbol
 _atom_site_label
 _atom_site_symmetry_multiplicity
 _atom_site_fract_x
 _atom_site_fract_y
 _atom_site_fract_z
 _atom_site_occupancy
  Ag  Ag0  1  0.24777044  0.49794240  0.24709079  1
  Ag  Ag1  1  0.75067296  0.01454077  0.75341478  1
  Ag  Ag2  1  -0.00535647  0.49780493  -0.00317231  1
  Ag  Ag3  1  -0.00790792  0.00209508  -0.00103349  1
  Ag  Ag4  1  0.50484230  0.00644388  0.50233692  1
  Ag  Ag5  1  0.51414006  0.25215238  0.74930985  1
  Ag  Ag6  1  0.75077904  0.48560724  0.75729118  1
  Ag  Ag7  1  -0.01426996  0.25235434  0.75369165  1
  Ag  Ag8  1  0.74864777  0.24766006  0.51453226  1
  Ag  Ag9  1  0.50553352  0.49689138  -0.00418806  1
  Ag  Ag10  1  0.75384585  0.74935010  -0.00116805  1
  Ag  Ag11  1  -0.00277335  0.74924357  0.24430784  1
  Ag  Ag12  1  0.25126614  0.25162468  0.50464161  1
  Ag  Ag13  1  0.75298569  0.25161776  -0.01386365  1
  Ag  Ag14  1  0.75217276  0.00233602  0.24569158  1
  Ag  Ag15  1  0.24912630  0.49315825  0.75261556  1
  Sb  Sb16  1  0.50207792  0.74712381  0.75216279  1
  Sb  Sb17  1  0.24824746  0.25301101  -0.00407566  1
  Sb  Sb18  1  0.24938203  0.00743385  0.74952511  1
  Sb  Sb19  1  0.75174633  0.49811622  0.24209527  1
  Sb  Sb20  1  0.50117518  0.49432821  0.50399125  1
  Sb  Sb21  1  0.50168134  0.25111224  0.24990390  1
  Sb  Sb22  1  0.24983700  0.74813691  0.49978899  1
  Sb  Sb23  1  0.24801307  0.00201764  0.25066124  1
  Sb  Sb24  1  -0.00190494  0.25087036  0.24496550  1
  Sb  Sb25  1  0.75020411  0.75115773  0.50096262  1
  Sb  Sb26  1  0.50964975  0.00375975  -0.00183300  1
  Sb  Sb27  1  -0.00323314  0.74786809  0.75453654  1
  Sb  Sb28  1  0.24608977  0.74656873  0.00072089  1
  Sb  Sb29  1  0.50248823  0.74870335  0.24724936  1
  Sb  Sb30  1  -0.00077379  0.49686567  0.50366722  1
  Sb  Sb31  1  -0.00429468  0.00372182  0.50168559  1
  Te  Te32  1  0.24986747  0.25467019  0.25710964  1
  Te  Te33  1  0.25015594  0.25390370  0.74685401  1
  Te  Te34  1  0.24482793  0.74478646  0.25106740  1
  Te  Te35  1  0.24953766  0.73932993  0.74898170  1
  Te  Te36  1  0.75051433  0.24630023  0.25067853  1
  Te  Te37  1  0.75062152  0.25024271  0.75103926  1
  Te  Te38  1  0.75346717  0.75267335  0.24741661  1
  Te  Te39  1  0.75094239  0.75003339  0.75365575  1
  Te  Te40  1  0.24147901  -0.00095112  0.00073106  1
  Te  Te41  1  0.25521584  0.00544334  0.49983071  1
  Te  Te42  1  0.24812115  0.49946971  -0.00143911  1
  Te  Te43  1  0.25033625  0.49606320  0.50158066  1
  Te  Te44  1  0.75118248  0.00192678  -0.00145123  1
  Te  Te45  1  0.74821004  0.00182462  0.50205302  1
  Te  Te46  1  0.75210312  0.49753061  -0.00050116  1
  Te  Te47  1  0.74870612  0.49603152  0.50602271  1
  Te  Te48  1  -0.00171723  0.25170054  -0.00390063  1
  Te  Te49  1  -0.00166227  0.24973426  0.50681194  1
  Te  Te50  1  -0.00395032  0.74882416  0.00249216  1
  Te  Te51  1  0.00017241  0.75087854  0.48995814  1
  Te  Te52  1  0.50291123  0.25371497  -0.00412565  1
  Te  Te53  1  0.50257640  0.24810539  0.50273161  1
  Te  Te54  1  0.50755745  0.74412991  -0.00023284  1
  Te  Te55  1  0.49994945  0.75983600  0.49971964  1
  Te  Te56  1  -0.00351803  -0.00110206  0.24581692  1
  Te  Te57  1  -0.00198913  0.00187360  0.75346602  1
  Te  Te58  1  0.00254561  0.50124575  0.24503459  1
  Te  Te59  1  -0.00154669  0.49855291  0.75299514  1
  Te  Te60  1  0.50412779  -0.00041236  0.25180930  1
  Te  Te61  1  0.50166419  0.00396694  0.74911111  1
  Te  Te62  1  0.49450612  0.50075555  0.24439227  1
  Te  Te63  1  0.50122388  0.49729909  0.75278466  1
