# generated using pymatgen
data_AgSbTe2
_symmetry_space_group_name_H-M   'P 1'
_cell_length_a   12.21094027
_cell_length_b   12.21852545
_cell_length_c   12.21771999
_cell_angle_alpha   89.99961350
_cell_angle_beta   89.99646663
_cell_angle_gamma   89.99698377
_symmetry_Int_Tables_number   1
_chemical_formula_structural   AgSbTe2
_chemical_formula_sum   'Ag16 Sb16 Te32'
_cell_volume   1822.87996023
_cell_formula_units_Z   16
loop_
 _symmetry_equiv_pos_site_id
 _symmetry_equiv_pos_as_xyz
  1  'x, y, z'
loop_
 _atom_site_type_symbol
 _atom_site_label
 _atom_site_symmetry_multiplicity
 _atom_site_fract_x
 _atom_site_fract_y
 _atom_site_fract_z
 _atom_site_occupancy
  Ag  Ag0  1  -0.00253874  -0.00128343  0.50127812  1
  Ag  Ag1  1  0.75579130  0.75215405  -0.00078642  1
  Ag  Ag2  1  -0.00035593  0.00030645  -0.00095031  1
  Ag  Ag3  1  0.24867353  0.00474933  0.74966681  1
  Ag  Ag4  1  0.75420977  0.75321560  0.50070574  1
  Ag  Ag5  1  0.49974748  0.49600584  0.50204389  1
  Ag  Ag6  1  0.00147557  0.24945416  0.24933444  1
  Ag  Ag7  1  0.49602613  0.24757149  0.74634598  1
  Ag  Ag8  1  0.00136076  0.49936787  0.00097156  1
  Ag  Ag9  1  0.24870128  0.49532919  0.74951834  1
  Ag  Ag10  1  0.50205659  0.00376239  0.50371301  1
  Ag  Ag11  1  0.49855057  0.24935803  0.25358456  1
  Ag  Ag12  1  0.24656322  0.24947553  -0.00327286  1
  Ag  Ag13  1  -0.00268467  0.75042555  0.25079214  1
  Ag  Ag14  1  0.75164965  -0.00041650  0.74709442  1
  Ag  Ag15  1  0.00004602  0.50089428  0.49920482  1
  Sb  Sb16  1  0.49839209  0.49740071  -0.00193701  1
  Sb  Sb17  1  0.24761137  0.49593798  0.25020441  1
  Sb  Sb18  1  0.50258436  0.75055893  0.25329828  1
  Sb  Sb19  1  0.74943920  0.24571027  0.50149680  1
  Sb  Sb20  1  0.24325455  0.75095182  -0.00139649  1
  Sb  Sb21  1  0.75238801  -0.00074637  0.25318227  1
  Sb  Sb22  1  0.24434122  0.75050022  0.50095258  1
  Sb  Sb23  1  0.00451871  0.24739685  0.75063109  1
  Sb  Sb24  1  0.75484960  0.24783632  -0.00188231  1
  Sb  Sb25  1  0.50151044  0.75247174  0.74760841  1
  Sb  Sb26  1  0.75216960  0.50053317  0.25159387  1
  Sb  Sb27  1  0.75096531  0.49892447  0.74835190  1
  Sb  Sb28  1  0.50058318  0.00225036  -0.00319309  1
  Sb  Sb29  1  0.24766815  0.00408667  0.25002387  1
  Sb  Sb30  1  -0.00170382  0.75214432  0.74837782  1
  Sb  Sb31  1  0.25103572  0.24983021  0.50455825  1
  Te  Te32  1  0.24873667  0.24967183  0.24096940  1
  Te  Te33  1  0.25358862  0.24872274  0.75409925  1
  Te  Te34  1  0.24149392  0.75022880  0.24888586  1
  Te  Te35  1  0.25104289  0.75045151  0.75104406  1
  Te  Te36  1  0.74951973  0.25019705  0.24875439  1
  Te  Te37  1  0.74060659  0.24299429  0.75118491  1
  Te  Te38  1  0.75557538  0.74991485  0.25025051  1
  Te  Te39  1  0.74943195  0.75654745  0.74921745  1
  Te  Te40  1  0.24570095  0.00155275  -0.00631533  1
  Te  Te41  1  0.24846444  -0.00061883  0.50735494  1
  Te  Te42  1  0.24576338  0.49822696  -0.00614999  1
  Te  Te43  1  0.24819930  0.50054942  0.50700333  1
  Te  Te44  1  0.75457632  -0.00305507  -0.00533002  1
  Te  Te45  1  0.75255996  -0.00316153  0.50373076  1
  Te  Te46  1  0.75708830  0.50549168  -0.00267102  1
  Te  Te47  1  0.75275004  0.50671207  0.50217746  1
  Te  Te48  1  0.00237580  0.24975690  0.00236628  1
  Te  Te49  1  -0.00012564  0.25049789  0.49499367  1
  Te  Te50  1  -0.00302365  0.75063495  0.00325650  1
  Te  Te51  1  -0.00380578  0.75056110  0.49735956  1
  Te  Te52  1  0.49562000  0.25044743  0.00192277  1
  Te  Te53  1  0.50049003  0.24980545  0.49933951  1
  Te  Te54  1  0.50961812  0.74955172  0.00383565  1
  Te  Te55  1  0.50658279  0.75003607  0.49698866  1
  Te  Te56  1  0.00089373  0.00253522  0.25134295  1
  Te  Te57  1  0.00077757  0.00246546  0.74793699  1
  Te  Te58  1  0.00122238  0.49746396  0.25186394  1
  Te  Te59  1  0.00305250  0.49776879  0.74756396  1
  Te  Te60  1  0.49868718  0.00559516  0.25699654  1
  Te  Te61  1  0.49850279  0.00230897  0.74635715  1
  Te  Te62  1  0.49836310  0.49399317  0.25688048  1
  Te  Te63  1  0.49679042  0.49599430  0.74567456  1
