# generated using pymatgen
data_AgSbTe2
_symmetry_space_group_name_H-M   'P 1'
_cell_length_a   12.33612601
_cell_length_b   12.29240334
_cell_length_c   12.31143836
_cell_angle_alpha   90.01655003
_cell_angle_beta   90.00453870
_cell_angle_gamma   90.00059716
_symmetry_Int_Tables_number   1
_chemical_formula_structural   AgSbTe2
_chemical_formula_sum   'Ag16 Sb16 Te32'
_cell_volume   1866.91426450
_cell_formula_units_Z   16
loop_
 _symmetry_equiv_pos_site_id
 _symmetry_equiv_pos_as_xyz
  1  'x, y, z'
loop_
 _atom_site_type_symbol
 _atom_site_label
 _atom_site_symmetry_multiplicity
 _atom_site_fract_x
 _atom_site_fract_y
 _atom_site_fract_z
 _atom_site_occupancy
  Ag  Ag0  1  -0.00213619  0.75336133  0.26386310  1
  Ag  Ag1  1  -0.00494794  0.76376953  0.73411903  1
  Ag  Ag2  1  0.74766012  0.51263745  0.26458369  1
  Ag  Ag3  1  -0.00292505  -0.01169585  0.51649046  1
  Ag  Ag4  1  0.75061744  0.75113721  0.50105699  1
  Ag  Ag5  1  0.50220179  0.74676069  0.26202571  1
  Ag  Ag6  1  0.50195777  -0.01242755  0.50551199  1
  Ag  Ag7  1  0.50615249  0.51774446  0.49355589  1
  Ag  Ag8  1  0.76690164  -0.00883524  0.74254946  1
  Ag  Ag9  1  0.25249350  0.51217186  0.25969973  1
  Ag  Ag10  1  -0.00250143  0.22791244  0.74740082  1
  Ag  Ag11  1  0.22987383  -0.00619498  0.74388720  1
  Ag  Ag12  1  0.50126622  -0.00702278  -0.01054676  1
  Ag  Ag13  1  0.75415330  0.51216785  0.73948163  1
  Ag  Ag14  1  0.24904857  0.75373519  0.49762381  1
  Ag  Ag15  1  -0.00136927  -0.00574091  -0.01996521  1
  Sb  Sb16  1  0.75069578  -0.00871795  0.25790302  1
  Sb  Sb17  1  0.75043669  0.24695297  -0.00092289  1
  Sb  Sb18  1  0.75062005  0.24887206  0.50010239  1
  Sb  Sb19  1  0.24959160  0.24613510  0.50153568  1
  Sb  Sb20  1  0.50035411  0.25091494  0.25110979  1
  Sb  Sb21  1  0.50453196  0.75365233  0.74244401  1
  Sb  Sb22  1  0.24924746  0.75312847  -0.00238330  1
  Sb  Sb23  1  0.50202155  0.50866879  0.00112977  1
  Sb  Sb24  1  0.75047856  0.75231647  -0.00398931  1
  Sb  Sb25  1  0.50217807  0.24520215  0.74913020  1
  Sb  Sb26  1  0.24773082  0.50635652  0.74123588  1
  Sb  Sb27  1  -0.00041230  0.24649281  0.25162984  1
  Sb  Sb28  1  0.24948004  -0.00641362  0.25545641  1
  Sb  Sb29  1  -0.00093713  0.50537080  -0.00132888  1
  Sb  Sb30  1  -0.00583645  0.50922248  0.50021641  1
  Sb  Sb31  1  0.24893062  0.24635033  -0.00053087  1
  Te  Te32  1  0.24930729  0.26817180  0.25021271  1
  Te  Te33  1  0.24474307  0.24691902  0.75025482  1
  Te  Te34  1  0.24658419  0.75013617  0.25450840  1
  Te  Te35  1  0.24519849  0.75238205  0.74614312  1
  Te  Te36  1  0.75028201  0.27191450  0.24979983  1
  Te  Te37  1  0.75171049  0.24992374  0.75038781  1
  Te  Te38  1  0.75323115  0.75020993  0.25503581  1
  Te  Te39  1  0.75043979  0.75029776  0.74667322  1
  Te  Te40  1  0.25134566  -0.00087238  -0.00646384  1
  Te  Te41  1  0.25486153  -0.00342973  0.50137333  1
  Te  Te42  1  0.25178323  0.49896685  0.00786764  1
  Te  Te43  1  0.25646461  0.50517904  0.49897926  1
  Te  Te44  1  0.74923035  -0.00158312  -0.00747687  1
  Te  Te45  1  0.74641214  -0.00174846  0.50153816  1
  Te  Te46  1  0.74917533  0.49955389  -0.00936521  1
  Te  Te47  1  0.74777740  0.50227416  0.50421006  1
  Te  Te48  1  0.00041283  0.24009895  -0.00055255  1
  Te  Te49  1  0.00051203  0.23126454  0.50102317  1
  Te  Te50  1  -0.00043506  0.75197702  0.00282855  1
  Te  Te51  1  -0.00281853  0.75152577  0.49768282  1
  Te  Te52  1  0.49930367  0.23136459  0.00014043  1
  Te  Te53  1  0.50036142  0.24347290  0.50003986  1
  Te  Te54  1  0.49997878  0.75595556  0.01708301  1
  Te  Te55  1  0.50297184  0.75023053  0.49845988  1
  Te  Te56  1  -0.00065709  -0.00355779  0.25109001  1
  Te  Te57  1  0.00018978  -0.00122772  0.74999025  1
  Te  Te58  1  -0.00451725  0.50251831  0.24926551  1
  Te  Te59  1  -0.00333309  0.50534027  0.75028307  1
  Te  Te60  1  0.50072486  0.00093433  0.25829135  1
  Te  Te61  1  0.50311821  -0.00250926  0.74551085  1
  Te  Te62  1  0.50469438  0.50060810  0.25034564  1
  Te  Te63  1  0.50338831  0.49972336  0.75076425  1
