# generated using pymatgen
data_AgSbTe2
_symmetry_space_group_name_H-M   'P 1'
_cell_length_a   12.21954406
_cell_length_b   12.22132957
_cell_length_c   12.21845355
_cell_angle_alpha   90.00034137
_cell_angle_beta   90.00799291
_cell_angle_gamma   90.00025133
_symmetry_Int_Tables_number   1
_chemical_formula_structural   AgSbTe2
_chemical_formula_sum   'Ag16 Sb16 Te32'
_cell_volume   1824.69253544
_cell_formula_units_Z   16
loop_
 _symmetry_equiv_pos_site_id
 _symmetry_equiv_pos_as_xyz
  1  'x, y, z'
loop_
 _atom_site_type_symbol
 _atom_site_label
 _atom_site_symmetry_multiplicity
 _atom_site_fract_x
 _atom_site_fract_y
 _atom_site_fract_z
 _atom_site_occupancy
  Ag  Ag0  1  0.50261353  0.24894340  0.24866866  1
  Ag  Ag1  1  -0.00071351  0.00816219  0.00611498  1
  Ag  Ag2  1  0.75250357  0.24650436  0.49872939  1
  Ag  Ag3  1  -0.00385457  0.49226707  0.00363996  1
  Ag  Ag4  1  0.75384710  0.00731406  0.74741801  1
  Ag  Ag5  1  -0.00154655  0.24562880  0.24495308  1
  Ag  Ag6  1  0.50381298  0.00307619  0.49469726  1
  Ag  Ag7  1  -0.00336693  0.00460672  0.49475405  1
  Ag  Ag8  1  0.24575461  0.00379766  0.24896846  1
  Ag  Ag9  1  -0.00131813  0.75465328  0.24864042  1
  Ag  Ag10  1  -0.00539840  0.24771439  0.75433665  1
  Ag  Ag11  1  0.50161731  0.75136458  0.24937711  1
  Ag  Ag12  1  0.24436708  0.24896747  0.00439501  1
  Ag  Ag13  1  0.75225668  0.49389904  0.75336486  1
  Ag  Ag14  1  0.50479171  0.49633165  0.00451270  1
  Ag  Ag15  1  0.75115359  0.49556346  0.24648167  1
  Sb  Sb16  1  0.75564541  0.00690351  0.25255096  1
  Sb  Sb17  1  0.24908389  0.75235002  0.00385844  1
  Sb  Sb18  1  0.50303436  0.75046156  0.75093930  1
  Sb  Sb19  1  0.75731741  0.25163557  0.00277126  1
  Sb  Sb20  1  -0.00406653  0.49455167  0.49582309  1
  Sb  Sb21  1  0.24619504  0.49502294  0.75486868  1
  Sb  Sb22  1  0.50746891  0.24997311  0.75236956  1
  Sb  Sb23  1  0.24947491  0.75283250  0.49536648  1
  Sb  Sb24  1  0.24770759  0.24668929  0.49487260  1
  Sb  Sb25  1  0.50496370  0.49654418  0.49408841  1
  Sb  Sb26  1  0.24899686  0.49532048  0.24687586  1
  Sb  Sb27  1  0.75042121  0.75557789  0.49624919  1
  Sb  Sb28  1  -0.00277211  0.75148722  0.75108980  1
  Sb  Sb29  1  0.50218379  0.00496209  0.00698090  1
  Sb  Sb30  1  0.75085147  0.74885042  0.00458085  1
  Sb  Sb31  1  0.24654560  0.00427858  0.75219269  1
  Te  Te32  1  0.24844166  0.24588485  0.24698554  1
  Te  Te33  1  0.24112883  0.24979526  0.75713194  1
  Te  Te34  1  0.24930504  0.75778313  0.24965000  1
  Te  Te35  1  0.25055888  0.74983151  0.74991083  1
  Te  Te36  1  0.75048824  0.25280577  0.25282028  1
  Te  Te37  1  0.75335905  0.25023636  0.74533538  1
  Te  Te38  1  0.75015988  0.74066902  0.25105413  1
  Te  Te39  1  0.74992919  0.74693044  0.74771304  1
  Te  Te40  1  0.24604397  0.00459368  0.00351533  1
  Te  Te41  1  0.24947584  0.00151669  0.49526110  1
  Te  Te42  1  0.24805894  0.49409780  -0.00006943  1
  Te  Te43  1  0.25096574  0.50006308  0.50154108  1
  Te  Te44  1  0.75453948  -0.00071822  -0.00755884  1
  Te  Te45  1  0.75137007  0.00460142  0.50187463  1
  Te  Te46  1  0.75113458  0.50005742  0.00098190  1
  Te  Te47  1  0.74984940  0.49265975  0.50082506  1
  Te  Te48  1  -0.00033088  0.25001691  0.00267933  1
  Te  Te49  1  -0.00160733  0.24648123  0.49838986  1
  Te  Te50  1  0.00097565  0.74929664  0.00590528  1
  Te  Te51  1  0.00041568  0.75816587  0.49340406  1
  Te  Te52  1  0.49465810  0.25241456  0.00366877  1
  Te  Te53  1  0.50189834  0.24584812  0.49601667  1
  Te  Te54  1  0.49858813  0.74398879  0.00726577  1
  Te  Te55  1  0.49947959  0.75657318  0.49247827  1
  Te  Te56  1  -0.00279128  0.00219805  0.24897553  1
  Te  Te57  1  -0.00251939  0.00151610  0.74971359  1
  Te  Te58  1  -0.00122296  0.49821893  0.24763135  1
  Te  Te59  1  -0.00467626  0.49856506  0.75408099  1
  Te  Te60  1  0.50036560  0.00167349  0.25051179  1
  Te  Te61  1  0.50462499  -0.00111116  0.74415803  1
  Te  Te62  1  0.50092981  0.49815427  0.24734486  1
  Te  Te63  1  0.50683182  0.50095666  0.75627354  1
