# generated using pymatgen
data_AgSbTe2
_symmetry_space_group_name_H-M   'P 1'
_cell_length_a   12.22171337
_cell_length_b   12.21509519
_cell_length_c   12.21887543
_cell_angle_alpha   89.99857506
_cell_angle_beta   89.99729929
_cell_angle_gamma   89.99245956
_symmetry_Int_Tables_number   1
_chemical_formula_structural   AgSbTe2
_chemical_formula_sum   'Ag16 Sb16 Te32'
_cell_volume   1824.14846819
_cell_formula_units_Z   16
loop_
 _symmetry_equiv_pos_site_id
 _symmetry_equiv_pos_as_xyz
  1  'x, y, z'
loop_
 _atom_site_type_symbol
 _atom_site_label
 _atom_site_symmetry_multiplicity
 _atom_site_fract_x
 _atom_site_fract_y
 _atom_site_fract_z
 _atom_site_occupancy
  Ag  Ag0  1  0.75366264  0.49731681  0.75719374  1
  Ag  Ag1  1  0.00233544  0.25091619  0.24402426  1
  Ag  Ag2  1  -0.00416466  0.49243270  -0.00612965  1
  Ag  Ag3  1  0.24771003  0.00486495  0.75499894  1
  Ag  Ag4  1  0.24691102  0.25404766  0.50308989  1
  Ag  Ag5  1  0.49728227  0.49869421  0.50275134  1
  Ag  Ag6  1  0.00271857  0.00699661  -0.00112662  1
  Ag  Ag7  1  0.74775792  0.74470544  -0.00033604  1
  Ag  Ag8  1  0.75585471  0.25519587  -0.00191557  1
  Ag  Ag9  1  0.00300304  0.25612310  0.75522712  1
  Ag  Ag10  1  0.49723335  -0.00040516  0.00059746  1
  Ag  Ag11  1  0.00266737  0.49462248  0.50622770  1
  Ag  Ag12  1  0.50435521  0.50035119  -0.00265777  1
  Ag  Ag13  1  0.24553635  0.49444249  0.75013953  1
  Ag  Ag14  1  0.49944390  0.74901071  0.24500505  1
  Ag  Ag15  1  0.24922156  0.00308275  0.24417163  1
  Sb  Sb16  1  0.00401809  0.00587320  0.50191272  1
  Sb  Sb17  1  0.49585026  0.25225855  0.75288542  1
  Sb  Sb18  1  0.25355359  0.75063994  0.00057689  1
  Sb  Sb19  1  -0.00050903  0.74289498  0.75331230  1
  Sb  Sb20  1  0.50087092  0.74761176  0.75480429  1
  Sb  Sb21  1  0.25090076  0.74459635  0.49930919  1
  Sb  Sb22  1  0.49645663  0.25027350  0.24584316  1
  Sb  Sb23  1  0.24172676  0.24920898  -0.00387569  1
  Sb  Sb24  1  0.75225363  0.25477322  0.50216681  1
  Sb  Sb25  1  0.00072704  0.75014307  0.24571225  1
  Sb  Sb26  1  0.75099818  0.00147814  0.24532449  1
  Sb  Sb27  1  0.74843685  0.74423378  0.50008726  1
  Sb  Sb28  1  0.75015855  0.49927310  0.24049275  1
  Sb  Sb29  1  0.49551131  0.00105330  0.49892086  1
  Sb  Sb30  1  0.24916556  0.49603829  0.24937545  1
  Sb  Sb31  1  0.75278639  0.00405169  0.75595268  1
  Te  Te32  1  0.24530299  0.24534057  0.25596449  1
  Te  Te33  1  0.24646155  0.25188904  0.74702556  1
  Te  Te34  1  0.25463770  0.75911097  0.25099757  1
  Te  Te35  1  0.24989351  0.75143099  0.74916396  1
  Te  Te36  1  0.75871895  0.24897643  0.24498588  1
  Te  Te37  1  0.75640806  0.25438089  0.75386251  1
  Te  Te38  1  0.74426338  0.75078515  0.24346764  1
  Te  Te39  1  0.74978429  0.74359555  0.75666475  1
  Te  Te40  1  0.25012490  -0.00021992  -0.00158936  1
  Te  Te41  1  0.25046167  0.00534615  0.50307270  1
  Te  Te42  1  0.25084089  0.50036060  -0.00410595  1
  Te  Te43  1  0.24997095  0.49640198  0.50267848  1
  Te  Te44  1  0.74970383  0.00114997  -0.00217626  1
  Te  Te45  1  0.74901988  -0.00099353  0.50198895  1
  Te  Te46  1  0.74955332  0.49821160  -0.00258842  1
  Te  Te47  1  0.74941536  0.49990145  0.50885623  1
  Te  Te48  1  -0.00055431  0.25088908  -0.00072523  1
  Te  Te49  1  0.00209180  0.25421390  0.50078173  1
  Te  Te50  1  -0.00686404  0.75016336  0.00177049  1
  Te  Te51  1  -0.00151494  0.73996172  0.49766528  1
  Te  Te52  1  0.50790655  0.25146747  0.00115011  1
  Te  Te53  1  0.49669374  0.25653205  0.49865509  1
  Te  Te54  1  0.50323675  0.74869351  0.00361457  1
  Te  Te55  1  0.50126055  0.74325119  0.49224284  1
  Te  Te56  1  0.00437663  0.00245510  0.24654129  1
  Te  Te57  1  0.00397848  0.00482084  0.75333831  1
  Te  Te58  1  0.00122050  0.49661311  0.24792022  1
  Te  Te59  1  0.00257102  0.49848945  0.75299682  1
  Te  Te60  1  0.49546118  -0.00151996  0.24619205  1
  Te  Te61  1  0.49441596  0.00004578  0.75555092  1
  Te  Te62  1  0.49880806  0.50203093  0.24738957  1
  Te  Te63  1  0.49791663  0.49942471  0.75258536  1
