# generated using pymatgen
data_AgSbTe2
_symmetry_space_group_name_H-M   'P 1'
_cell_length_a   12.24116162
_cell_length_b   12.22276547
_cell_length_c   12.23991226
_cell_angle_alpha   90.00611867
_cell_angle_beta   90.00468882
_cell_angle_gamma   90.00024246
_symmetry_Int_Tables_number   1
_chemical_formula_structural   AgSbTe2
_chemical_formula_sum   'Ag16 Sb16 Te32'
_cell_volume   1831.34602982
_cell_formula_units_Z   16
loop_
 _symmetry_equiv_pos_site_id
 _symmetry_equiv_pos_as_xyz
  1  'x, y, z'
loop_
 _atom_site_type_symbol
 _atom_site_label
 _atom_site_symmetry_multiplicity
 _atom_site_fract_x
 _atom_site_fract_y
 _atom_site_fract_z
 _atom_site_occupancy
  Ag  Ag0  1  0.75236355  0.74743504  0.49635439  1
  Ag  Ag1  1  0.24734243  0.74482795  0.50050950  1
  Ag  Ag2  1  0.00261682  0.25673829  0.74802093  1
  Ag  Ag3  1  0.25043167  0.74375111  -0.00066517  1
  Ag  Ag4  1  0.24964138  0.25494622  0.50315369  1
  Ag  Ag5  1  0.74974686  0.74667590  0.00432548  1
  Ag  Ag6  1  0.74967116  0.25332204  0.50005729  1
  Ag  Ag7  1  0.25205508  0.25677436  -0.00331525  1
  Ag  Ag8  1  -0.00419780  0.75074121  0.25034712  1
  Ag  Ag9  1  0.00000569  0.74359297  0.74965484  1
  Ag  Ag10  1  0.24766948  0.50083568  0.75236549  1
  Ag  Ag11  1  0.74861982  -0.00630904  0.25102249  1
  Ag  Ag12  1  0.75267025  0.50361759  0.74981307  1
  Ag  Ag13  1  0.50430140  0.74888941  0.24786106  1
  Ag  Ag14  1  0.50034545  0.25169632  0.24988044  1
  Ag  Ag15  1  0.49740269  0.50284824  0.00059090  1
  Sb  Sb16  1  0.00047788  0.50176506  0.50301791  1
  Sb  Sb17  1  -0.00101837  -0.00247272  0.00091969  1
  Sb  Sb18  1  0.49946079  0.50119667  0.49816590  1
  Sb  Sb19  1  0.50102910  -0.00116387  0.49735157  1
  Sb  Sb20  1  0.24806271  -0.00145229  0.75032501  1
  Sb  Sb21  1  0.74785272  0.50553008  0.24998348  1
  Sb  Sb22  1  0.50108333  -0.00290156  0.00337664  1
  Sb  Sb23  1  0.25221870  0.50182449  0.24660775  1
  Sb  Sb24  1  -0.00097687  -0.00252999  0.49900325  1
  Sb  Sb25  1  0.74862456  0.25473199  -0.00071489  1
  Sb  Sb26  1  0.49986937  0.74594334  0.75234937  1
  Sb  Sb27  1  0.25060860  -0.00280932  0.24971342  1
  Sb  Sb28  1  0.49788226  0.25516524  0.74987696  1
  Sb  Sb29  1  0.75261461  -0.00275345  0.74948768  1
  Sb  Sb30  1  -0.00099874  0.24932111  0.25087854  1
  Sb  Sb31  1  0.00221024  0.50215420  -0.00397715  1
  Te  Te32  1  0.25019677  0.24906171  0.25262701  1
  Te  Te33  1  0.24776064  0.25144778  0.74818451  1
  Te  Te34  1  0.25079679  0.75067413  0.25110006  1
  Te  Te35  1  0.24818683  0.74863082  0.74911842  1
  Te  Te36  1  0.75088721  0.24941266  0.25318826  1
  Te  Te37  1  0.75302325  0.25108564  0.74745314  1
  Te  Te38  1  0.74875886  0.74814141  0.25196024  1
  Te  Te39  1  0.75183668  0.74860343  0.74717801  1
  Te  Te40  1  0.25044270  -0.00097751  0.00099261  1
  Te  Te41  1  0.25093430  0.00042766  0.49930454  1
  Te  Te42  1  0.25350995  0.50202473  -0.00262354  1
  Te  Te43  1  0.25177071  0.50054649  0.50722128  1
  Te  Te44  1  0.74927897  -0.00801625  0.00474072  1
  Te  Te45  1  0.74947597  -0.00083791  0.49610952  1
  Te  Te46  1  0.74451451  0.50418300  -0.00550361  1
  Te  Te47  1  0.74796981  0.50020203  0.50670725  1
  Te  Te48  1  0.00597047  0.24990133  -0.00251353  1
  Te  Te49  1  0.00172642  0.24962558  0.50230598  1
  Te  Te50  1  0.00173362  0.74985787  -0.00193081  1
  Te  Te51  1  0.00113774  0.75015870  0.50170359  1
  Te  Te52  1  0.49655081  0.25302378  0.00466774  1
  Te  Te53  1  0.49943124  0.25069815  0.49425832  1
  Te  Te54  1  0.49775766  0.74777977  0.00317375  1
  Te  Te55  1  0.49901986  0.74925797  0.49334232  1
  Te  Te56  1  -0.00800266  -0.00761031  0.24971331  1
  Te  Te57  1  -0.00038287  -0.00001869  0.75066173  1
  Te  Te58  1  0.00019983  0.50937147  0.24953565  1
  Te  Te59  1  0.00012390  0.50102191  0.74980310  1
  Te  Te60  1  0.50573000  0.00001813  0.24991312  1
  Te  Te61  1  0.50078186  0.00094536  0.75037691  1
  Te  Te62  1  0.49973974  0.49940291  0.24328065  1
  Te  Te63  1  0.49945158  0.50002398  0.75760839  1
