# generated using pymatgen
data_AgSbTe2
_symmetry_space_group_name_H-M   'P 1'
_cell_length_a   12.26468040
_cell_length_b   12.25093285
_cell_length_c   12.27744233
_cell_angle_alpha   90.00063588
_cell_angle_beta   89.99897876
_cell_angle_gamma   90.00416477
_symmetry_Int_Tables_number   1
_chemical_formula_structural   AgSbTe2
_chemical_formula_sum   'Ag16 Sb16 Te32'
_cell_volume   1844.73206515
_cell_formula_units_Z   16
loop_
 _symmetry_equiv_pos_site_id
 _symmetry_equiv_pos_as_xyz
  1  'x, y, z'
loop_
 _atom_site_type_symbol
 _atom_site_label
 _atom_site_symmetry_multiplicity
 _atom_site_fract_x
 _atom_site_fract_y
 _atom_site_fract_z
 _atom_site_occupancy
  Ag  Ag0  1  0.74539498  0.24749543  0.50328702  1
  Ag  Ag1  1  0.25327150  -0.00610784  0.24830120  1
  Ag  Ag2  1  0.25236625  0.75931231  -0.00015887  1
  Ag  Ag3  1  0.01035397  0.75482831  0.24642005  1
  Ag  Ag4  1  0.25468764  0.24184300  0.49736974  1
  Ag  Ag5  1  0.25146137  0.75917149  0.50003677  1
  Ag  Ag6  1  0.74766706  0.75398597  -0.00919952  1
  Ag  Ag7  1  0.74857843  -0.00608727  0.75354492  1
  Ag  Ag8  1  0.00161103  0.75319339  0.75374110  1
  Ag  Ag9  1  0.25131624  -0.00943388  0.75161259  1
  Ag  Ag10  1  0.49835735  0.75418165  0.75516477  1
  Ag  Ag11  1  0.74932863  0.50562291  0.75235971  1
  Ag  Ag12  1  0.48961118  0.75543337  0.24542443  1
  Ag  Ag13  1  0.74535642  0.24591977  -0.00420857  1
  Ag  Ag14  1  0.25539663  0.24085750  0.00273208  1
  Ag  Ag15  1  0.49424758  0.24446399  0.24853993  1
  Sb  Sb16  1  0.25137752  0.51042537  0.74972916  1
  Sb  Sb17  1  0.50134767  0.50227431  -0.00264485  1
  Sb  Sb18  1  0.49940848  0.24397200  0.75338066  1
  Sb  Sb19  1  0.74976750  0.50045246  0.24844548  1
  Sb  Sb20  1  0.74642763  0.75580751  0.51075003  1
  Sb  Sb21  1  0.49741191  -0.00285385  -0.00048446  1
  Sb  Sb22  1  0.25001875  0.50832229  0.25007937  1
  Sb  Sb23  1  0.74543397  -0.00208605  0.24596552  1
  Sb  Sb24  1  -0.00116545  0.50459131  -0.00280268  1
  Sb  Sb25  1  0.00821898  0.24192493  0.24839252  1
  Sb  Sb26  1  0.00187585  -0.00384446  -0.00015395  1
  Sb  Sb27  1  0.50200465  0.49967513  0.50275616  1
  Sb  Sb28  1  0.00026852  0.24492576  0.75104200  1
  Sb  Sb29  1  -0.00183266  0.50208335  0.50277791  1
  Sb  Sb30  1  0.00183987  -0.00220726  0.50026890  1
  Sb  Sb31  1  0.49813714  0.00041059  0.50034992  1
  Te  Te32  1  0.24977167  0.24598134  0.24872101  1
  Te  Te33  1  0.25075826  0.24441792  0.75106235  1
  Te  Te34  1  0.25485764  0.75097778  0.24673000  1
  Te  Te35  1  0.25117930  0.75122354  0.75318387  1
  Te  Te36  1  0.74735933  0.24689667  0.24603687  1
  Te  Te37  1  0.74944993  0.24407362  0.75502564  1
  Te  Te38  1  0.74522746  0.75410140  0.24466370  1
  Te  Te39  1  0.74892145  0.75631004  0.74893415  1
  Te  Te40  1  0.24986884  -0.00030487  -0.00331377  1
  Te  Te41  1  0.24931485  0.00112511  0.50350507  1
  Te  Te42  1  0.24893779  0.49463597  -0.00296157  1
  Te  Te43  1  0.24944699  0.49332756  0.50314431  1
  Te  Te44  1  0.75093940  0.00112606  -0.00482915  1
  Te  Te45  1  0.75135897  0.00884235  0.50845376  1
  Te  Te46  1  0.75049735  0.49801554  -0.00699665  1
  Te  Te47  1  0.75024229  0.48642151  0.50878178  1
  Te  Te48  1  -0.00065176  0.25268100  0.00198858  1
  Te  Te49  1  0.00399219  0.25234183  0.49837893  1
  Te  Te50  1  0.00007726  0.74896023  -0.00127840  1
  Te  Te51  1  0.00842272  0.74889650  0.49999851  1
  Te  Te52  1  0.49909657  0.25216449  0.00379664  1
  Te  Te53  1  0.49513846  0.25085396  0.49389176  1
  Te  Te54  1  0.49973337  0.74926371  0.00211837  1
  Te  Te55  1  0.49379045  0.74906016  0.49591618  1
  Te  Te56  1  0.01109399  -0.01057060  0.25062392  1
  Te  Te57  1  0.00186858  -0.00837905  0.74976364  1
  Te  Te58  1  -0.00236468  0.51878757  0.25132069  1
  Te  Te59  1  -0.01119503  0.51415780  0.74967882  1
  Te  Te60  1  0.49360862  -0.00272634  0.25014385  1
  Te  Te61  1  0.49812685  -0.00779432  0.75019551  1
  Te  Te62  1  0.50169312  0.50224735  0.25109205  1
  Te  Te63  1  0.50989117  0.51433065  0.74941056  1
