# generated using pymatgen
data_AgSbTe2
_symmetry_space_group_name_H-M   'P 1'
_cell_length_a   12.29919222
_cell_length_b   12.30647984
_cell_length_c   12.32123606
_cell_angle_alpha   89.99867318
_cell_angle_beta   90.00591039
_cell_angle_gamma   89.99854200
_symmetry_Int_Tables_number   1
_chemical_formula_structural   AgSbTe2
_chemical_formula_sum   'Ag16 Sb16 Te32'
_cell_volume   1864.93933623
_cell_formula_units_Z   16
loop_
 _symmetry_equiv_pos_site_id
 _symmetry_equiv_pos_as_xyz
  1  'x, y, z'
loop_
 _atom_site_type_symbol
 _atom_site_label
 _atom_site_symmetry_multiplicity
 _atom_site_fract_x
 _atom_site_fract_y
 _atom_site_fract_z
 _atom_site_occupancy
  Ag  Ag0  1  0.75976749  0.76455645  0.49267657  1
  Ag  Ag1  1  -0.00765398  -0.00333313  -0.01934864  1
  Ag  Ag2  1  -0.01572856  0.76743859  0.25949495  1
  Ag  Ag3  1  -0.01582934  0.23327503  0.26449455  1
  Ag  Ag4  1  0.51861471  0.76287196  0.25322739  1
  Ag  Ag5  1  -0.01064573  0.77047659  0.74007292  1
  Ag  Ag6  1  0.75681547  0.76113888  0.01039618  1
  Ag  Ag7  1  0.75934236  0.23731102  0.49754098  1
  Ag  Ag8  1  0.22590191  0.00129265  0.74767881  1
  Ag  Ag9  1  -0.00470119  0.49940474  0.50056716  1
  Ag  Ag10  1  0.76204591  -0.00624943  0.25859865  1
  Ag  Ag11  1  0.51097197  0.24099212  0.74165614  1
  Ag  Ag12  1  0.76508321  0.00203547  0.73905578  1
  Ag  Ag13  1  -0.00975041  0.22905531  0.73619720  1
  Ag  Ag14  1  0.51491727  0.24016444  0.25696840  1
  Ag  Ag15  1  -0.00984410  0.00030475  0.51688498  1
  Sb  Sb16  1  0.75193713  0.49371889  0.74859673  1
  Sb  Sb17  1  -0.00285942  0.50141168  0.00002436  1
  Sb  Sb18  1  0.51119613  0.00214365  0.49808599  1
  Sb  Sb19  1  0.50558139  0.50111937  0.00030453  1
  Sb  Sb20  1  0.23679404  0.75276031  0.50054369  1
  Sb  Sb21  1  0.75088434  0.50431165  0.25110910  1
  Sb  Sb22  1  0.24512323  0.49944635  0.74733341  1
  Sb  Sb23  1  0.23700082  -0.00074473  0.25453695  1
  Sb  Sb24  1  0.24690845  0.50036522  0.25254657  1
  Sb  Sb25  1  0.23936577  0.24779222  0.49985634  1
  Sb  Sb26  1  0.50727330  0.49847388  0.50034472  1
  Sb  Sb27  1  0.51337615  0.76012686  0.74547809  1
  Sb  Sb28  1  0.24891158  0.24428325  -0.00062031  1
  Sb  Sb29  1  0.50788127  -0.00225613  0.00143157  1
  Sb  Sb30  1  0.24205803  0.75645251  -0.00020578  1
  Sb  Sb31  1  0.75254018  0.24162021  0.00250415  1
  Te  Te32  1  0.25656915  0.24800120  0.25053895  1
  Te  Te33  1  0.24866076  0.24522699  0.74936938  1
  Te  Te34  1  0.25467013  0.75147892  0.25041984  1
  Te  Te35  1  0.24849011  0.75398567  0.74944765  1
  Te  Te36  1  0.75309525  0.24927960  0.24645445  1
  Te  Te37  1  0.75371988  0.24719442  0.75412568  1
  Te  Te38  1  0.75338550  0.74981139  0.25673020  1
  Te  Te39  1  0.74896567  0.75440108  0.74136299  1
  Te  Te40  1  0.23572942  0.00050186  -0.00915511  1
  Te  Te41  1  0.23566663  -0.00009687  0.50541801  1
  Te  Te42  1  0.25220512  0.50147365  0.00049696  1
  Te  Te43  1  0.23470553  0.50085192  0.49952032  1
  Te  Te44  1  0.75514453  -0.00445053  0.00387544  1
  Te  Te45  1  0.75358801  0.00289514  0.49657807  1
  Te  Te46  1  0.74935308  0.52268341  -0.00203269  1
  Te  Te47  1  0.75663053  0.49639777  0.50062719  1
  Te  Te48  1  -0.00137562  0.25057158  0.00124187  1
  Te  Te49  1  -0.00486599  0.24421247  0.49869977  1
  Te  Te50  1  -0.00197799  0.75016061  0.00222249  1
  Te  Te51  1  -0.00379122  0.75602293  0.49888796  1
  Te  Te52  1  0.50040500  0.25087088  0.00534021  1
  Te  Te53  1  0.50968433  0.25038936  0.49635160  1
  Te  Te54  1  0.50674952  0.74952496  0.00675839  1
  Te  Te55  1  0.51107853  0.74843322  0.49500014  1
  Te  Te56  1  -0.00111136  0.00038216  0.25251394  1
  Te  Te57  1  -0.00414342  -0.00088066  0.75128571  1
  Te  Te58  1  0.00102174  0.49651739  0.25274212  1
  Te  Te59  1  0.00115302  0.49848220  0.74742134  1
  Te  Te60  1  0.50200682  0.00178770  0.25086174  1
  Te  Te61  1  0.50583350  0.00522151  0.74939003  1
  Te  Te62  1  0.49837831  0.49309041  0.24975766  1
  Te  Te63  1  0.49709616  0.48381709  0.74971559  1
