# generated using pymatgen
data_AgSbTe2
_symmetry_space_group_name_H-M   'P 1'
_cell_length_a   12.21844422
_cell_length_b   12.22759344
_cell_length_c   12.23044102
_cell_angle_alpha   90.00100892
_cell_angle_beta   90.00249350
_cell_angle_gamma   90.00482032
_symmetry_Int_Tables_number   1
_chemical_formula_structural   AgSbTe2
_chemical_formula_sum   'Ag16 Sb16 Te32'
_cell_volume   1827.25439982
_cell_formula_units_Z   16
loop_
 _symmetry_equiv_pos_site_id
 _symmetry_equiv_pos_as_xyz
  1  'x, y, z'
loop_
 _atom_site_type_symbol
 _atom_site_label
 _atom_site_symmetry_multiplicity
 _atom_site_fract_x
 _atom_site_fract_y
 _atom_site_fract_z
 _atom_site_occupancy
  Ag  Ag0  1  0.00192871  0.74961790  0.24511779  1
  Ag  Ag1  1  -0.00043151  -0.00606687  0.00411020  1
  Ag  Ag2  1  0.75827837  -0.00390330  0.24925340  1
  Ag  Ag3  1  0.50053223  0.50495891  0.49925168  1
  Ag  Ag4  1  -0.00016065  0.50505897  0.49638630  1
  Ag  Ag5  1  -0.00319469  0.74935800  0.75456341  1
  Ag  Ag6  1  0.75548188  -0.00674178  0.75064709  1
  Ag  Ag7  1  0.24270245  0.74762277  0.00343043  1
  Ag  Ag8  1  0.00167727  0.25052850  0.24651174  1
  Ag  Ag9  1  -0.00287137  -0.00513198  0.49579766  1
  Ag  Ag10  1  0.24310613  0.50395485  0.24667677  1
  Ag  Ag11  1  0.24350218  0.25316343  0.00348737  1
  Ag  Ag12  1  0.00352375  0.50619321  0.00449707  1
  Ag  Ag13  1  0.75433481  0.50788389  0.74922915  1
  Ag  Ag14  1  0.50299942  0.74757374  0.75037252  1
  Ag  Ag15  1  0.49830006  0.74772482  0.24953669  1
  Sb  Sb16  1  0.49742424  0.50483607  0.00070482  1
  Sb  Sb17  1  0.75573714  0.25040131  0.00181153  1
  Sb  Sb18  1  0.75312974  0.25054647  0.49875640  1
  Sb  Sb19  1  0.50112493  0.25304717  0.75043111  1
  Sb  Sb20  1  -0.00066277  0.25043699  0.75307457  1
  Sb  Sb21  1  0.24172665  -0.00422970  0.24759372  1
  Sb  Sb22  1  0.24597505  0.50339182  0.75314279  1
  Sb  Sb23  1  0.49842986  0.25162170  0.24954762  1
  Sb  Sb24  1  0.50367882  -0.00566336  0.49958821  1
  Sb  Sb25  1  0.24402459  -0.00423803  0.75224270  1
  Sb  Sb26  1  0.75923033  0.74999170  -0.00133407  1
  Sb  Sb27  1  0.24670492  0.74760850  0.49548431  1
  Sb  Sb28  1  0.50122286  -0.00412852  0.00008102  1
  Sb  Sb29  1  0.24583274  0.25337237  0.49570901  1
  Sb  Sb30  1  0.75590430  0.50438626  0.25040431  1
  Sb  Sb31  1  0.75432529  0.74914935  0.50185460  1
  Te  Te32  1  0.24682784  0.25527475  0.24565846  1
  Te  Te33  1  0.25159384  0.24911948  0.75949365  1
  Te  Te34  1  0.24798149  0.74691914  0.24623087  1
  Te  Te35  1  0.24954707  0.75014022  0.75713677  1
  Te  Te36  1  0.75487794  0.24265984  0.24901753  1
  Te  Te37  1  0.74845530  0.24770207  0.75086147  1
  Te  Te38  1  0.75022944  0.75380351  0.24913569  1
  Te  Te39  1  0.75173680  0.74982227  0.75055873  1
  Te  Te40  1  0.24416289  -0.00233894  0.00055210  1
  Te  Te41  1  0.24159040  0.00217430  0.50024424  1
  Te  Te42  1  0.24644910  0.50296807  0.00295265  1
  Te  Te43  1  0.24646523  0.49892126  0.49464558  1
  Te  Te44  1  0.75552661  0.00099004  -0.00104753  1
  Te  Te45  1  0.75584959  0.00124521  0.50123878  1
  Te  Te46  1  0.75629185  0.49827179  -0.00552254  1
  Te  Te47  1  0.75302338  0.49908411  0.50407771  1
  Te  Te48  1  0.00388371  0.25053777  0.00373129  1
  Te  Te49  1  0.00127474  0.25210599  0.49347240  1
  Te  Te50  1  0.00222028  0.74942268  0.00016460  1
  Te  Te51  1  0.00210044  0.74811345  0.50039461  1
  Te  Te52  1  0.48936450  0.24880296  0.00083009  1
  Te  Te53  1  0.49778925  0.25983661  0.49972787  1
  Te  Te54  1  0.49013151  0.75047056  0.00077474  1
  Te  Te55  1  0.49633923  0.74506068  0.50007379  1
  Te  Te56  1  -0.00078815  -0.00367580  0.24918409  1
  Te  Te57  1  -0.00372636  -0.00153386  0.75033163  1
  Te  Te58  1  -0.00179627  0.50362998  0.25041937  1
  Te  Te59  1  -0.00185964  0.50159021  0.74800055  1
  Te  Te60  1  0.50748177  -0.00570068  0.25232348  1
  Te  Te61  1  0.50872477  -0.00662089  0.74783630  1
  Te  Te62  1  0.50081556  0.50434509  0.25187433  1
  Te  Te63  1  0.50391817  0.50453297  0.74766478  1
