# generated using pymatgen
data_AgSbTe2
_symmetry_space_group_name_H-M   'P 1'
_cell_length_a   12.25995333
_cell_length_b   12.26435209
_cell_length_c   12.25334078
_cell_angle_alpha   90.00256303
_cell_angle_beta   90.00144609
_cell_angle_gamma   89.99885279
_symmetry_Int_Tables_number   1
_chemical_formula_structural   AgSbTe2
_chemical_formula_sum   'Ag16 Sb16 Te32'
_cell_volume   1842.41702544
_cell_formula_units_Z   16
loop_
 _symmetry_equiv_pos_site_id
 _symmetry_equiv_pos_as_xyz
  1  'x, y, z'
loop_
 _atom_site_type_symbol
 _atom_site_label
 _atom_site_symmetry_multiplicity
 _atom_site_fract_x
 _atom_site_fract_y
 _atom_site_fract_z
 _atom_site_occupancy
  Ag  Ag0  1  0.74989845  -0.00167106  0.76440653  1
  Ag  Ag1  1  0.51359673  0.75663888  0.24350068  1
  Ag  Ag2  1  0.74934732  0.23846202  0.48797271  1
  Ag  Ag3  1  0.74671849  0.51373250  0.24578957  1
  Ag  Ag4  1  -0.01528922  0.75685367  0.24708507  1
  Ag  Ag5  1  0.25496629  0.75533209  0.00673793  1
  Ag  Ag6  1  -0.01434177  -0.00373928  0.00880526  1
  Ag  Ag7  1  0.74664807  0.23478694  0.01089433  1
  Ag  Ag8  1  0.74600681  0.76466296  0.01455247  1
  Ag  Ag9  1  0.50753667  0.24221575  0.24589927  1
  Ag  Ag10  1  0.25066685  -0.00447768  0.24494231  1
  Ag  Ag11  1  0.74948504  -0.01319707  0.23750699  1
  Ag  Ag12  1  -0.00788953  -0.00246067  0.48939417  1
  Ag  Ag13  1  0.50588271  0.50578909  0.00609864  1
  Ag  Ag14  1  0.51403065  -0.00414854  0.00654779  1
  Ag  Ag15  1  0.75083211  0.76120612  0.48401533  1
  Sb  Sb16  1  0.25032762  -0.00188886  0.75580498  1
  Sb  Sb17  1  -0.01314476  0.23824683  0.24946706  1
  Sb  Sb18  1  0.25080234  0.24298719  0.49191632  1
  Sb  Sb19  1  -0.00543545  0.24498545  0.75061875  1
  Sb  Sb20  1  -0.00545780  0.50337768  0.49318714  1
  Sb  Sb21  1  0.50551529  0.50135331  0.49135621  1
  Sb  Sb22  1  -0.00403080  0.75396974  0.75380731  1
  Sb  Sb23  1  -0.00684461  0.50429289  0.00558167  1
  Sb  Sb24  1  0.25293113  0.24347331  0.00586833  1
  Sb  Sb25  1  0.74816257  0.50179814  0.75438882  1
  Sb  Sb26  1  0.25002273  0.75548193  0.48996063  1
  Sb  Sb27  1  0.51260793  -0.00025093  0.48771221  1
  Sb  Sb28  1  0.25401494  0.50500168  0.24653070  1
  Sb  Sb29  1  0.25260407  0.50281286  0.75582755  1
  Sb  Sb30  1  0.50523413  0.24611634  0.75545928  1
  Sb  Sb31  1  0.50406603  0.75326579  0.75967223  1
  Te  Te32  1  0.26173141  0.24482083  0.24998799  1
  Te  Te33  1  0.25024469  0.25131313  0.74790101  1
  Te  Te34  1  0.25240137  0.75412772  0.24558852  1
  Te  Te35  1  0.25012500  0.75015173  0.75965334  1
  Te  Te36  1  0.74945992  0.24844264  0.24883170  1
  Te  Te37  1  0.74966532  0.24576902  0.74938623  1
  Te  Te38  1  0.74905281  0.75081952  0.25008882  1
  Te  Te39  1  0.74973352  0.75382085  0.74767899  1
  Te  Te40  1  0.24857307  -0.00297019  0.00351209  1
  Te  Te41  1  0.23824794  -0.00029952  0.49712538  1
  Te  Te42  1  0.25616772  0.50626498  0.00076354  1
  Te  Te43  1  0.24933498  0.49958419  0.50248466  1
  Te  Te44  1  0.75061817  0.00036942  0.00113170  1
  Te  Te45  1  0.74998280  -0.00067287  0.49760860  1
  Te  Te46  1  0.74730035  0.50030449  0.00247183  1
  Te  Te47  1  0.74969964  0.49962923  0.49694405  1
  Te  Te48  1  -0.00406837  0.24505314  0.00092549  1
  Te  Te49  1  -0.00540470  0.24550626  0.49953564  1
  Te  Te50  1  -0.00440624  0.75240270  0.00234944  1
  Te  Te51  1  -0.00266460  0.75329641  0.49626424  1
  Te  Te52  1  0.50259247  0.24640673  0.00334518  1
  Te  Te53  1  0.50526759  0.25015568  0.49419685  1
  Te  Te54  1  0.50416343  0.75316634  0.00214421  1
  Te  Te55  1  0.50333371  0.74947765  0.49317866  1
  Te  Te56  1  -0.00204169  -0.00119655  0.24807085  1
  Te  Te57  1  -0.00427690  -0.00045597  0.75149985  1
  Te  Te58  1  -0.00425267  0.51161592  0.24923033  1
  Te  Te59  1  0.00174660  0.49916422  0.74986645  1
  Te  Te60  1  0.50217145  -0.00179430  0.24888133  1
  Te  Te61  1  0.50310323  0.00001768  0.76112039  1
  Te  Te62  1  0.50320124  0.50174340  0.24599764  1
  Te  Te63  1  0.49972570  0.49895649  0.76092677  1
