# generated using pymatgen
data_AgSbTe2
_symmetry_space_group_name_H-M   'P 1'
_cell_length_a   12.21531143
_cell_length_b   12.20914169
_cell_length_c   12.21865155
_cell_angle_alpha   89.99406989
_cell_angle_beta   89.99638106
_cell_angle_gamma   89.99597251
_symmetry_Int_Tables_number   1
_chemical_formula_structural   AgSbTe2
_chemical_formula_sum   'Ag16 Sb16 Te32'
_cell_volume   1822.27095640
_cell_formula_units_Z   16
loop_
 _symmetry_equiv_pos_site_id
 _symmetry_equiv_pos_as_xyz
  1  'x, y, z'
loop_
 _atom_site_type_symbol
 _atom_site_label
 _atom_site_symmetry_multiplicity
 _atom_site_fract_x
 _atom_site_fract_y
 _atom_site_fract_z
 _atom_site_occupancy
  Ag  Ag0  1  0.49588530  0.24617998  0.75040565  1
  Ag  Ag1  1  0.75094134  0.50600364  0.24784570  1
  Ag  Ag2  1  -0.00130406  0.75627225  0.75319041  1
  Ag  Ag3  1  0.00093118  0.50531643  -0.00115234  1
  Ag  Ag4  1  0.24966206  0.24687944  0.50342678  1
  Ag  Ag5  1  0.24734652  0.49897321  0.75129449  1
  Ag  Ag6  1  0.75298899  0.75289144  -0.00034281  1
  Ag  Ag7  1  0.75472033  -0.00433923  0.75263908  1
  Ag  Ag8  1  0.24882341  0.50227226  0.24848116  1
  Ag  Ag9  1  0.50093538  0.75117482  0.24803140  1
  Ag  Ag10  1  0.75219374  0.75238906  0.50038758  1
  Ag  Ag11  1  0.00071932  -0.00536627  -0.00666269  1
  Ag  Ag12  1  0.24564135  0.00109589  0.75068081  1
  Ag  Ag13  1  0.24939310  -0.00196909  0.24911590  1
  Ag  Ag14  1  0.00284133  -0.00311580  0.50560160  1
  Ag  Ag15  1  0.49873648  -0.00314470  -0.00265375  1
  Sb  Sb16  1  0.00141411  0.50377842  0.50217345  1
  Sb  Sb17  1  0.24725874  0.75345157  0.49991723  1
  Sb  Sb18  1  0.49756590  -0.00139135  0.50224333  1
  Sb  Sb19  1  0.74947220  0.24702507  -0.00123628  1
  Sb  Sb20  1  0.75080999  0.24751336  0.50210120  1
  Sb  Sb21  1  0.24602261  0.75254765  -0.00000893  1
  Sb  Sb22  1  0.25050218  0.24808513  -0.00388998  1
  Sb  Sb23  1  0.49886275  0.50132805  0.50008481  1
  Sb  Sb24  1  0.49691783  0.24837872  0.24926136  1
  Sb  Sb25  1  0.00381130  0.24333340  0.74917495  1
  Sb  Sb26  1  0.74958059  -0.00518875  0.24876761  1
  Sb  Sb27  1  0.00235096  0.24962695  0.25042422  1
  Sb  Sb28  1  0.50051885  0.75338661  0.75215906  1
  Sb  Sb29  1  0.75277152  0.50366114  0.75199422  1
  Sb  Sb30  1  0.49890950  0.50417199  0.00020520  1
  Sb  Sb31  1  -0.00146884  0.75033529  0.24632537  1
  Te  Te32  1  0.25180365  0.25089137  0.25658019  1
  Te  Te33  1  0.25315505  0.24858087  0.74655723  1
  Te  Te34  1  0.25413714  0.74889964  0.25119664  1
  Te  Te35  1  0.24790208  0.75048236  0.74872216  1
  Te  Te36  1  0.74780329  0.26106674  0.25170477  1
  Te  Te37  1  0.74265275  0.24490881  0.74784168  1
  Te  Te38  1  0.74847449  0.74732966  0.24919605  1
  Te  Te39  1  0.75117804  0.75255620  0.75085619  1
  Te  Te40  1  0.24776149  -0.00013034  -0.00051644  1
  Te  Te41  1  0.24719573  0.00074215  0.50078796  1
  Te  Te42  1  0.24638418  0.49939202  0.00150241  1
  Te  Te43  1  0.24802900  0.49677802  0.49897007  1
  Te  Te44  1  0.75285981  -0.00285078  -0.00172743  1
  Te  Te45  1  0.75423665  -0.00304484  0.50148318  1
  Te  Te46  1  0.75358890  0.50396898  0.00196612  1
  Te  Te47  1  0.75187595  0.50463263  0.49592026  1
  Te  Te48  1  -0.00085784  0.24930479  0.00015853  1
  Te  Te49  1  0.00491270  0.24162499  0.50003768  1
  Te  Te50  1  -0.00403273  0.75206070  -0.00315315  1
  Te  Te51  1  -0.00437582  0.75504480  0.50518290  1
  Te  Te52  1  0.50094560  0.24115998  -0.00524570  1
  Te  Te53  1  0.49470709  0.24983147  0.50557390  1
  Te  Te54  1  0.50744545  0.75507010  0.00358661  1
  Te  Te55  1  0.50849417  0.75079693  0.49382988  1
  Te  Te56  1  0.00525310  -0.00079475  0.24784697  1
  Te  Te57  1  0.00201900  -0.00110520  0.75292040  1
  Te  Te58  1  0.00431430  0.50035749  0.24550045  1
  Te  Te59  1  0.00365525  0.50391730  0.75358643  1
  Te  Te60  1  0.49625761  -0.00315686  0.24575377  1
  Te  Te61  1  0.49717059  -0.00024586  0.75296896  1
  Te  Te62  1  0.49608682  0.50371075  0.24869791  1
  Te  Te63  1  0.49321055  0.49666325  0.75172761  1
