# generated using pymatgen
data_AgSbTe2
_symmetry_space_group_name_H-M   'P 1'
_cell_length_a   12.21957386
_cell_length_b   12.21986065
_cell_length_c   12.22062079
_cell_angle_alpha   90.00380705
_cell_angle_beta   89.99399380
_cell_angle_gamma   90.00019966
_symmetry_Int_Tables_number   1
_chemical_formula_structural   AgSbTe2
_chemical_formula_sum   'Ag16 Sb16 Te32'
_cell_volume   1824.80128730
_cell_formula_units_Z   16
loop_
 _symmetry_equiv_pos_site_id
 _symmetry_equiv_pos_as_xyz
  1  'x, y, z'
loop_
 _atom_site_type_symbol
 _atom_site_label
 _atom_site_symmetry_multiplicity
 _atom_site_fract_x
 _atom_site_fract_y
 _atom_site_fract_z
 _atom_site_occupancy
  Ag  Ag0  1  0.24520849  0.00084189  0.74233429  1
  Ag  Ag1  1  -0.00258833  0.50084609  -0.00447338  1
  Ag  Ag2  1  0.24091465  0.49883453  0.74192306  1
  Ag  Ag3  1  0.75361797  0.50457521  0.25100673  1
  Ag  Ag4  1  0.24548433  0.25129635  0.50347817  1
  Ag  Ag5  1  0.75919138  0.50141582  0.74867975  1
  Ag  Ag6  1  0.75021714  -0.00454264  0.25448114  1
  Ag  Ag7  1  0.49891573  -0.00234207  0.50033601  1
  Ag  Ag8  1  0.24878136  0.74846228  0.50064179  1
  Ag  Ag9  1  0.50252551  0.74981048  0.25313285  1
  Ag  Ag10  1  0.00471887  0.49876030  0.50481845  1
  Ag  Ag11  1  0.75474861  -0.00138966  0.74473893  1
  Ag  Ag12  1  0.24620550  0.50216834  0.25795361  1
  Ag  Ag13  1  0.00181649  0.25354478  0.74553749  1
  Ag  Ag14  1  0.00216548  0.00103224  0.50506149  1
  Ag  Ag15  1  0.75115013  0.74723103  0.00144130  1
  Sb  Sb16  1  0.49715427  0.24940138  0.74602287  1
  Sb  Sb17  1  0.50034524  0.75128111  0.74534311  1
  Sb  Sb18  1  0.75320021  0.25319082  -0.00153175  1
  Sb  Sb19  1  0.49900743  0.24931741  0.25432958  1
  Sb  Sb20  1  0.00137328  0.25261676  0.25584593  1
  Sb  Sb21  1  -0.00299872  0.74777018  0.25183341  1
  Sb  Sb22  1  0.50318336  0.50303493  0.00067571  1
  Sb  Sb23  1  0.24627517  0.25209528  -0.00389738  1
  Sb  Sb24  1  -0.00090268  0.74432869  0.74779430  1
  Sb  Sb25  1  -0.00248486  -0.00135091  -0.00626119  1
  Sb  Sb26  1  0.50168364  -0.00337746  0.00057417  1
  Sb  Sb27  1  0.49439057  0.50318323  0.49862334  1
  Sb  Sb28  1  0.75079986  0.75079074  0.49805823  1
  Sb  Sb29  1  0.24933489  -0.00359765  0.26115855  1
  Sb  Sb30  1  0.24836819  0.74723130  0.00019178  1
  Sb  Sb31  1  0.75504339  0.24953002  0.50168583  1
  Te  Te32  1  0.25021189  0.25736504  0.25524244  1
  Te  Te33  1  0.24777080  0.25150331  0.74687380  1
  Te  Te34  1  0.25449459  0.74581998  0.25130198  1
  Te  Te35  1  0.25241985  0.74920047  0.74789921  1
  Te  Te36  1  0.74983680  0.25167202  0.25018294  1
  Te  Te37  1  0.75421030  0.25027204  0.74933631  1
  Te  Te38  1  0.74784424  0.74804066  0.25035487  1
  Te  Te39  1  0.74779226  0.74971286  0.75257101  1
  Te  Te40  1  0.24924091  -0.00057297  -0.01056224  1
  Te  Te41  1  0.24623819  -0.00136444  0.50151222  1
  Te  Te42  1  0.24465240  0.50154306  -0.00140662  1
  Te  Te43  1  0.25019428  0.50151582  0.50139025  1
  Te  Te44  1  0.75103731  -0.00480605  -0.00085517  1
  Te  Te45  1  0.75256793  -0.00070785  0.50208516  1
  Te  Te46  1  0.75319129  0.50299286  -0.00004226  1
  Te  Te47  1  0.75314361  0.50042574  0.50060953  1
  Te  Te48  1  0.00053173  0.25776019  -0.00951546  1
  Te  Te49  1  0.00407753  0.25079260  0.50468165  1
  Te  Te50  1  -0.00577750  0.74326430  0.00146504  1
  Te  Te51  1  0.00681556  0.75018824  0.49922002  1
  Te  Te52  1  0.49939689  0.24960593  0.00058997  1
  Te  Te53  1  0.49036264  0.24016685  0.49993505  1
  Te  Te54  1  0.50667321  0.75035674  0.00921006  1
  Te  Te55  1  0.49435172  0.75519959  0.49552112  1
  Te  Te56  1  -0.00550882  0.00203684  0.25413072  1
  Te  Te57  1  -0.00149183  0.00296488  0.74828275  1
  Te  Te58  1  -0.00179794  0.49833906  0.25315793  1
  Te  Te59  1  -0.00068795  0.50021692  0.74586535  1
  Te  Te60  1  0.50445390  -0.00284224  0.25324441  1
  Te  Te61  1  0.50214866  -0.00030637  0.74539297  1
  Te  Te62  1  0.50290917  0.50368494  0.25091842  1
  Te  Te63  1  0.50184985  0.49996821  0.74986841  1
