# generated using pymatgen
data_AgSbTe2
_symmetry_space_group_name_H-M   'P 1'
_cell_length_a   12.21857962
_cell_length_b   12.21823013
_cell_length_c   12.21971690
_cell_angle_alpha   90.00326050
_cell_angle_beta   89.99944601
_cell_angle_gamma   90.00099419
_symmetry_Int_Tables_number   1
_chemical_formula_structural   AgSbTe2
_chemical_formula_sum   'Ag16 Sb16 Te32'
_cell_volume   1824.27441597
_cell_formula_units_Z   16
loop_
 _symmetry_equiv_pos_site_id
 _symmetry_equiv_pos_as_xyz
  1  'x, y, z'
loop_
 _atom_site_type_symbol
 _atom_site_label
 _atom_site_symmetry_multiplicity
 _atom_site_fract_x
 _atom_site_fract_y
 _atom_site_fract_z
 _atom_site_occupancy
  Ag  Ag0  1  0.75118888  -0.00043259  0.25171944  1
  Ag  Ag1  1  0.75157303  0.74258410  0.49871874  1
  Ag  Ag2  1  -0.00395543  0.25701905  0.25088079  1
  Ag  Ag3  1  0.50414810  0.25338611  0.25527569  1
  Ag  Ag4  1  0.50387296  0.25316479  0.74382326  1
  Ag  Ag5  1  0.50644399  0.49945451  0.49675651  1
  Ag  Ag6  1  -0.00535522  0.50281002  0.00574019  1
  Ag  Ag7  1  -0.00463633  0.74572292  0.74894295  1
  Ag  Ag8  1  -0.00484087  -0.00304039  0.00340221  1
  Ag  Ag9  1  0.75458493  0.50033093  0.25570878  1
  Ag  Ag10  1  0.75203382  0.50359031  0.74435415  1
  Ag  Ag11  1  0.24863646  0.74513837  0.49863846  1
  Ag  Ag12  1  -0.00651200  0.50388175  0.49400265  1
  Ag  Ag13  1  0.50388427  0.00080940  0.49721680  1
  Ag  Ag14  1  0.75557682  0.74664861  0.00114655  1
  Ag  Ag15  1  0.24584049  0.49976891  0.25463877  1
  Sb  Sb16  1  -0.00521631  -0.00408155  0.49568599  1
  Sb  Sb17  1  0.25015367  -0.00192887  0.74751760  1
  Sb  Sb18  1  0.75007907  -0.00311511  0.74760776  1
  Sb  Sb19  1  -0.00404023  0.25445701  0.74914055  1
  Sb  Sb20  1  0.74794402  0.25894096  0.49698190  1
  Sb  Sb21  1  0.50583803  0.00024451  0.00344684  1
  Sb  Sb22  1  0.75124820  0.25343195  0.00325261  1
  Sb  Sb23  1  0.24847372  0.25251074  0.00184610  1
  Sb  Sb24  1  0.25222144  0.25529341  0.49774098  1
  Sb  Sb25  1  -0.00402808  0.74136647  0.25161611  1
  Sb  Sb26  1  0.50493296  0.74697804  0.74464656  1
  Sb  Sb27  1  0.24863904  0.50240883  0.74556907  1
  Sb  Sb28  1  0.50357777  0.74616125  0.25416728  1
  Sb  Sb29  1  0.24868088  -0.00086712  0.25286238  1
  Sb  Sb30  1  0.24310921  0.74670934  0.00168382  1
  Sb  Sb31  1  0.50561963  0.50034402  0.00282388  1
  Te  Te32  1  0.25026125  0.25566312  0.25010611  1
  Te  Te33  1  0.25869756  0.25019569  0.75036954  1
  Te  Te34  1  0.25178569  0.74435868  0.25523031  1
  Te  Te35  1  0.24295103  0.74930248  0.74454311  1
  Te  Te36  1  0.75004865  0.25106292  0.24973080  1
  Te  Te37  1  0.74538615  0.25633809  0.75133977  1
  Te  Te38  1  0.74941908  0.74891279  0.25178330  1
  Te  Te39  1  0.75350422  0.74625348  0.74824408  1
  Te  Te40  1  0.24124068  -0.00243851  0.00040036  1
  Te  Te41  1  0.25646508  -0.00974871  0.49877735  1
  Te  Te42  1  0.24260987  0.50203321  0.00746157  1
  Te  Te43  1  0.25046288  0.50470923  0.49629583  1
  Te  Te44  1  0.75414213  -0.00670098  0.00441112  1
  Te  Te45  1  0.74690432  -0.00834649  0.49606859  1
  Te  Te46  1  0.75335478  0.50476070  0.00197197  1
  Te  Te47  1  0.74982838  0.50265411  0.49768155  1
  Te  Te48  1  0.00034503  0.25187633  0.00282586  1
  Te  Te49  1  0.00168039  0.25419664  0.49606166  1
  Te  Te50  1  -0.00340619  0.74735060  -0.00370326  1
  Te  Te51  1  -0.00313211  0.74771152  0.50287604  1
  Te  Te52  1  0.49922808  0.24896321  0.00240493  1
  Te  Te53  1  0.49934943  0.25168497  0.49710980  1
  Te  Te54  1  0.50736342  0.75106126  -0.00278565  1
  Te  Te55  1  0.50237111  0.74752801  0.50180508  1
  Te  Te56  1  -0.00281498  0.00749567  0.24832859  1
  Te  Te57  1  -0.00086134  -0.00067520  0.75449487  1
  Te  Te58  1  -0.00394593  0.49860223  0.25179872  1
  Te  Te59  1  -0.00267157  0.49968019  0.74892493  1
  Te  Te60  1  0.50282143  0.00669909  0.25317827  1
  Te  Te61  1  0.50076732  0.00654621  0.74514084  1
  Te  Te62  1  0.50308208  0.49625794  0.25228089  1
  Te  Te63  1  0.50304517  0.49632084  0.74728768  1
