# generated using pymatgen
data_AgSbTe2
_symmetry_space_group_name_H-M   'P 1'
_cell_length_a   12.22296270
_cell_length_b   12.22168339
_cell_length_c   12.22724201
_cell_angle_alpha   90.00252770
_cell_angle_beta   89.99414081
_cell_angle_gamma   90.00755109
_symmetry_Int_Tables_number   1
_chemical_formula_structural   AgSbTe2
_chemical_formula_sum   'Ag16 Sb16 Te32'
_cell_volume   1826.56872475
_cell_formula_units_Z   16
loop_
 _symmetry_equiv_pos_site_id
 _symmetry_equiv_pos_as_xyz
  1  'x, y, z'
loop_
 _atom_site_type_symbol
 _atom_site_label
 _atom_site_symmetry_multiplicity
 _atom_site_fract_x
 _atom_site_fract_y
 _atom_site_fract_z
 _atom_site_occupancy
  Ag  Ag0  1  0.24825377  0.49144782  0.24867716  1
  Ag  Ag1  1  0.00690463  0.24436468  0.24967087  1
  Ag  Ag2  1  0.25235120  0.24246161  0.49541281  1
  Ag  Ag3  1  0.48452349  0.00274130  -0.00080723  1
  Ag  Ag4  1  0.24866764  0.76611761  -0.00053094  1
  Ag  Ag5  1  0.25015419  0.23491087  0.00428974  1
  Ag  Ag6  1  0.49734181  0.24441443  0.74723081  1
  Ag  Ag7  1  0.00069287  0.75425979  0.75120098  1
  Ag  Ag8  1  0.75033084  0.00375984  0.25308970  1
  Ag  Ag9  1  0.74990612  0.75546888  0.50163099  1
  Ag  Ag10  1  0.01521108  0.00129968  0.00153628  1
  Ag  Ag11  1  0.24893085  0.00646088  0.23587878  1
  Ag  Ag12  1  0.75019798  0.49884890  0.74727116  1
  Ag  Ag13  1  0.25178988  0.00359790  0.76449481  1
  Ag  Ag14  1  0.74704805  0.24439856  0.49976378  1
  Ag  Ag15  1  0.49855795  0.00511378  0.50052378  1
  Sb  Sb16  1  0.00111848  0.75548065  0.24837628  1
  Sb  Sb17  1  0.00098103  0.00160594  0.49765115  1
  Sb  Sb18  1  0.00077639  0.49919022  0.50002267  1
  Sb  Sb19  1  0.25084517  0.75768457  0.49959887  1
  Sb  Sb20  1  0.00271435  0.49852194  0.00010283  1
  Sb  Sb21  1  0.75094261  0.75566564  -0.00115494  1
  Sb  Sb22  1  0.74849093  0.00045961  0.74615949  1
  Sb  Sb23  1  0.49267969  0.24491929  0.25229689  1
  Sb  Sb24  1  0.00157322  0.24638989  0.75071265  1
  Sb  Sb25  1  0.24928653  0.49718497  0.75075527  1
  Sb  Sb26  1  0.49919477  0.75484095  0.24978924  1
  Sb  Sb27  1  0.75209587  0.49546828  0.25245946  1
  Sb  Sb28  1  0.74857920  0.24514495  0.00126055  1
  Sb  Sb29  1  0.49908028  0.75501479  0.75004679  1
  Sb  Sb30  1  0.49908686  0.49448704  0.50178246  1
  Sb  Sb31  1  0.49607093  0.49612251  -0.00186140  1
  Te  Te32  1  0.24907980  0.24571607  0.25066918  1
  Te  Te33  1  0.25035253  0.24908223  0.74884266  1
  Te  Te34  1  0.24844958  0.75348426  0.24781572  1
  Te  Te35  1  0.24731656  0.75046973  0.75191304  1
  Te  Te36  1  0.75491706  0.24891284  0.25366770  1
  Te  Te37  1  0.74967393  0.25178322  0.74599085  1
  Te  Te38  1  0.75174543  0.75160347  0.25559225  1
  Te  Te39  1  0.75255992  0.74866879  0.74668626  1
  Te  Te40  1  0.25039004  0.00126175  -0.00030473  1
  Te  Te41  1  0.25266286  0.00250556  0.49945509  1
  Te  Te42  1  0.25089456  0.49899259  0.00375195  1
  Te  Te43  1  0.25133524  0.49422587  0.49528079  1
  Te  Te44  1  0.74912879  -0.00037650  0.00716080  1
  Te  Te45  1  0.74817697  0.00316454  0.49717200  1
  Te  Te46  1  0.74937643  0.50092022  -0.00532586  1
  Te  Te47  1  0.74949309  0.49783802  0.50273884  1
  Te  Te48  1  0.00370605  0.24525779  0.00246431  1
  Te  Te49  1  0.00072060  0.25010850  0.49729056  1
  Te  Te50  1  0.00336297  0.75472012  -0.00294683  1
  Te  Te51  1  -0.00507003  0.74984304  0.50554347  1
  Te  Te52  1  0.49686262  0.24518719  -0.00573766  1
  Te  Te53  1  0.49970391  0.24535830  0.50313764  1
  Te  Te54  1  0.49445687  0.75704142  -0.00066372  1
  Te  Te55  1  0.50512093  0.75788567  0.50076298  1
  Te  Te56  1  0.00127672  0.00362136  0.24707460  1
  Te  Te57  1  0.00302389  -0.00323389  0.75505650  1
  Te  Te58  1  0.00522706  0.49217704  0.24949697  1
  Te  Te59  1  -0.00446764  0.50668375  0.75071461  1
  Te  Te60  1  0.50030290  0.00098933  0.24975462  1
  Te  Te61  1  0.49793214  0.00418323  0.74978971  1
  Te  Te62  1  0.49290768  0.50162156  0.24950941  1
  Te  Te63  1  0.50500190  0.49245515  0.75031452  1
