# generated using pymatgen
data_AgSbTe2
_symmetry_space_group_name_H-M   'P 1'
_cell_length_a   12.20827198
_cell_length_b   12.21540522
_cell_length_c   12.21894035
_cell_angle_alpha   90.00396379
_cell_angle_beta   89.99885122
_cell_angle_gamma   89.99886490
_symmetry_Int_Tables_number   1
_chemical_formula_structural   AgSbTe2
_chemical_formula_sum   'Ag16 Sb16 Te32'
_cell_volume   1822.19821903
_cell_formula_units_Z   16
loop_
 _symmetry_equiv_pos_site_id
 _symmetry_equiv_pos_as_xyz
  1  'x, y, z'
loop_
 _atom_site_type_symbol
 _atom_site_label
 _atom_site_symmetry_multiplicity
 _atom_site_fract_x
 _atom_site_fract_y
 _atom_site_fract_z
 _atom_site_occupancy
  Ag  Ag0  1  0.74338596  -0.00140792  0.24898926  1
  Ag  Ag1  1  0.50083845  0.25078834  0.75078752  1
  Ag  Ag2  1  0.74575235  0.74368774  0.00298895  1
  Ag  Ag3  1  0.50339258  0.50041386  0.00276515  1
  Ag  Ag4  1  0.25354401  0.74789992  0.49753013  1
  Ag  Ag5  1  0.50040908  0.25134235  0.24913055  1
  Ag  Ag6  1  0.74561633  0.50169508  0.24406935  1
  Ag  Ag7  1  0.50247639  0.74870568  0.24693953  1
  Ag  Ag8  1  0.74763831  0.49999567  0.75570730  1
  Ag  Ag9  1  -0.00024514  0.49985171  0.49924511  1
  Ag  Ag10  1  0.25493356  0.74505241  0.00258700  1
  Ag  Ag11  1  0.25532928  0.25523149  0.00085353  1
  Ag  Ag12  1  0.74473218  0.00025290  0.75116302  1
  Ag  Ag13  1  0.50079632  0.00189417  0.49769201  1
  Ag  Ag14  1  -0.00380311  0.50085017  0.00048980  1
  Ag  Ag15  1  0.25496287  0.25173201  0.49919080  1
  Sb  Sb16  1  0.25691711  -0.00038195  0.25044742  1
  Sb  Sb17  1  0.25601028  0.00183018  0.74972364  1
  Sb  Sb18  1  0.74369478  0.25879490  0.00039719  1
  Sb  Sb19  1  -0.00133053  0.25312841  0.75059760  1
  Sb  Sb20  1  0.49930165  0.49917156  0.49799752  1
  Sb  Sb21  1  0.25548991  0.50014403  0.24768416  1
  Sb  Sb22  1  0.25426468  0.49900124  0.75204674  1
  Sb  Sb23  1  -0.00033939  0.00019760  0.49967289  1
  Sb  Sb24  1  -0.00035676  0.25324821  0.24936302  1
  Sb  Sb25  1  -0.00304520  0.74689105  0.24931395  1
  Sb  Sb26  1  -0.00140327  0.74723367  0.75009251  1
  Sb  Sb27  1  -0.00323352  0.00057146  0.00031285  1
  Sb  Sb28  1  0.74580652  0.74862507  0.49628786  1
  Sb  Sb29  1  0.74437501  0.25062360  0.49967123  1
  Sb  Sb30  1  0.50241480  0.74908241  0.75288135  1
  Sb  Sb31  1  0.50295966  0.00019989  0.00245142  1
  Te  Te32  1  0.25679134  0.24959634  0.24974074  1
  Te  Te33  1  0.25712946  0.24912955  0.75021807  1
  Te  Te34  1  0.25601496  0.75051352  0.24778596  1
  Te  Te35  1  0.25037642  0.75090368  0.75189295  1
  Te  Te36  1  0.74328457  0.25037467  0.24974866  1
  Te  Te37  1  0.74385451  0.25019120  0.75016556  1
  Te  Te38  1  0.74603855  0.74827546  0.24732144  1
  Te  Te39  1  0.74865349  0.74899461  0.75510682  1
  Te  Te40  1  0.24809259  -0.00268742  -0.00033139  1
  Te  Te41  1  0.25289775  -0.00012037  0.50016948  1
  Te  Te42  1  0.25087999  0.50176917  -0.00039789  1
  Te  Te43  1  0.24712457  0.50059614  0.50069945  1
  Te  Te44  1  0.75152800  -0.00685787  0.00003004  1
  Te  Te45  1  0.74716808  -0.00045079  0.49996426  1
  Te  Te46  1  0.74901277  0.50067944  0.00050005  1
  Te  Te47  1  0.75392303  0.50060841  0.50056631  1
  Te  Te48  1  0.01143795  0.25627835  0.00019875  1
  Te  Te49  1  0.01094608  0.25500912  0.49986000  1
  Te  Te50  1  0.00237058  0.74389647  0.00018623  1
  Te  Te51  1  0.00989486  0.74495935  0.49980857  1
  Te  Te52  1  0.49633926  0.25132575  0.00142456  1
  Te  Te53  1  0.49599410  0.24900057  0.49856190  1
  Te  Te54  1  0.49905984  0.74860383  0.00245311  1
  Te  Te55  1  0.49516740  0.75163644  0.49637023  1
  Te  Te56  1  -0.01370775  0.00100887  0.25091105  1
  Te  Te57  1  -0.01286284  0.00113757  0.74896820  1
  Te  Te58  1  -0.00954127  0.49954122  0.24925929  1
  Te  Te59  1  -0.00908471  0.49902775  0.75090539  1
  Te  Te60  1  0.50489976  0.00040375  0.25256757  1
  Te  Te61  1  0.50561089  0.00437367  0.74521926  1
  Te  Te62  1  0.50424195  0.49983394  0.24762138  1
  Te  Te63  1  0.50517869  0.49610067  0.75343362  1
