# generated using pymatgen
data_AgSbTe2
_symmetry_space_group_name_H-M   'P 1'
_cell_length_a   12.22002562
_cell_length_b   12.23140520
_cell_length_c   12.22692062
_cell_angle_alpha   90.00040246
_cell_angle_beta   89.99158130
_cell_angle_gamma   89.99874919
_symmetry_Int_Tables_number   1
_chemical_formula_structural   AgSbTe2
_chemical_formula_sum   'Ag16 Sb16 Te32'
_cell_volume   1827.53438917
_cell_formula_units_Z   16
loop_
 _symmetry_equiv_pos_site_id
 _symmetry_equiv_pos_as_xyz
  1  'x, y, z'
loop_
 _atom_site_type_symbol
 _atom_site_label
 _atom_site_symmetry_multiplicity
 _atom_site_fract_x
 _atom_site_fract_y
 _atom_site_fract_z
 _atom_site_occupancy
  Ag  Ag0  1  0.74903698  -0.00307612  0.25327794  1
  Ag  Ag1  1  0.74551797  0.74234496  0.49559622  1
  Ag  Ag2  1  -0.00355580  -0.00010389  0.49959731  1
  Ag  Ag3  1  0.74784800  0.50385175  0.25271795  1
  Ag  Ag4  1  0.74933501  0.74200285  0.00459205  1
  Ag  Ag5  1  0.50766367  0.50620775  0.49741066  1
  Ag  Ag6  1  0.75169821  0.25882388  0.00296850  1
  Ag  Ag7  1  0.24788069  0.25329684  0.49915369  1
  Ag  Ag8  1  -0.00745995  0.49994184  0.50160647  1
  Ag  Ag9  1  0.25369388  0.74644461  0.49932252  1
  Ag  Ag10  1  0.75202047  0.50254898  0.74732120  1
  Ag  Ag11  1  0.50603713  0.25398544  0.25414273  1
  Ag  Ag12  1  0.50552928  0.74499640  0.74148042  1
  Ag  Ag13  1  -0.00373732  0.25500616  0.74577644  1
  Ag  Ag14  1  0.50796516  0.74605331  0.25730206  1
  Ag  Ag15  1  -0.00909040  0.49921495  -0.00104419  1
  Sb  Sb16  1  -0.00906038  0.74808407  0.25359884  1
  Sb  Sb17  1  0.75081228  0.25789286  0.49740028  1
  Sb  Sb18  1  0.24911736  0.25330980  0.00190494  1
  Sb  Sb19  1  0.50360425  0.25584519  0.74538386  1
  Sb  Sb20  1  0.24826855  -0.00105341  0.74509774  1
  Sb  Sb21  1  -0.00539333  0.25264765  0.25335886  1
  Sb  Sb22  1  0.24976493  -0.00114784  0.25449953  1
  Sb  Sb23  1  0.24825336  0.50079229  0.74555547  1
  Sb  Sb24  1  0.50478126  -0.00552864  0.49770327  1
  Sb  Sb25  1  0.50448969  -0.00041367  0.00184393  1
  Sb  Sb26  1  0.25355481  0.50064224  0.25412467  1
  Sb  Sb27  1  0.51000640  0.50064600  0.00393254  1
  Sb  Sb28  1  0.25125187  0.74661037  0.00136854  1
  Sb  Sb29  1  -0.00629248  0.00091312  0.00020128  1
  Sb  Sb30  1  -0.00561419  0.74455827  0.74621797  1
  Sb  Sb31  1  0.75172478  -0.00171438  0.74535010  1
  Te  Te32  1  0.25928839  0.24945692  0.25430954  1
  Te  Te33  1  0.24709477  0.24953906  0.74519039  1
  Te  Te34  1  0.26084486  0.75085885  0.25431845  1
  Te  Te35  1  0.25859746  0.74986173  0.74510404  1
  Te  Te36  1  0.74655423  0.25225416  0.24783537  1
  Te  Te37  1  0.75162651  0.25215407  0.75477040  1
  Te  Te38  1  0.74836620  0.74656934  0.25123952  1
  Te  Te39  1  0.74776465  0.74801766  0.74903221  1
  Te  Te40  1  0.24815642  -0.00029441  0.00067484  1
  Te  Te41  1  0.24140744  -0.00084725  0.49897764  1
  Te  Te42  1  0.23566487  0.50022546  0.00005107  1
  Te  Te43  1  0.24793370  0.50162081  0.49954620  1
  Te  Te44  1  0.75132700  -0.00195931  0.00677999  1
  Te  Te45  1  0.75470507  -0.00569749  0.49584411  1
  Te  Te46  1  0.75177071  0.50108189  0.00058616  1
  Te  Te47  1  0.75042028  0.50043409  0.49933186  1
  Te  Te48  1  -0.00277135  0.25235969  -0.00294904  1
  Te  Te49  1  0.00090047  0.25430653  0.50110808  1
  Te  Te50  1  -0.00366334  0.74637656  -0.00150009  1
  Te  Te51  1  0.00026838  0.74614429  0.50101208  1
  Te  Te52  1  0.50305530  0.25058013  0.00368762  1
  Te  Te53  1  0.49745649  0.25249408  0.49818735  1
  Te  Te54  1  0.50330908  0.74909812  0.00212876  1
  Te  Te55  1  0.50240048  0.74957474  0.49812132  1
  Te  Te56  1  -0.00614756  0.00054058  0.25557509  1
  Te  Te57  1  -0.00075717  0.00826896  0.74434652  1
  Te  Te58  1  -0.00615821  0.49951157  0.25263554  1
  Te  Te59  1  -0.00448980  0.49738709  0.74581723  1
  Te  Te60  1  0.50628492  0.00006558  0.25097705  1
  Te  Te61  1  0.50015899  -0.00789448  0.75053710  1
  Te  Te62  1  0.50366228  0.50070063  0.25278600  1
  Te  Te63  1  0.50531636  0.50358678  0.74517382  1
