# generated using pymatgen
data_AgSbTe2
_symmetry_space_group_name_H-M   'P 1'
_cell_length_a   12.22602472
_cell_length_b   12.22995180
_cell_length_c   12.21932616
_cell_angle_alpha   90.00014358
_cell_angle_beta   90.01015642
_cell_angle_gamma   90.00113896
_symmetry_Int_Tables_number   1
_chemical_formula_structural   AgSbTe2
_chemical_formula_sum   'Ag16 Sb16 Te32'
_cell_volume   1827.07874553
_cell_formula_units_Z   16
loop_
 _symmetry_equiv_pos_site_id
 _symmetry_equiv_pos_as_xyz
  1  'x, y, z'
loop_
 _atom_site_type_symbol
 _atom_site_label
 _atom_site_symmetry_multiplicity
 _atom_site_fract_x
 _atom_site_fract_y
 _atom_site_fract_z
 _atom_site_occupancy
  Ag  Ag0  1  -0.00371877  -0.00005785  -0.00099577  1
  Ag  Ag1  1  0.50635993  0.00023815  0.49873403  1
  Ag  Ag2  1  0.75156024  0.75262845  -0.00923814  1
  Ag  Ag3  1  -0.00521903  0.50014069  -0.00362031  1
  Ag  Ag4  1  0.50129735  0.24549094  0.24878004  1
  Ag  Ag5  1  0.25161405  0.24541498  0.00238179  1
  Ag  Ag6  1  0.74730250  0.75321375  0.50918515  1
  Ag  Ag7  1  -0.00607943  -0.00172395  0.50125007  1
  Ag  Ag8  1  0.50609533  0.50005454  0.50226795  1
  Ag  Ag9  1  0.74927212  0.50600152  0.75098527  1
  Ag  Ag10  1  0.74910395  0.24676696  -0.00146061  1
  Ag  Ag11  1  0.25309699  0.00320736  0.24685084  1
  Ag  Ag12  1  -0.01031128  0.75122421  0.75277588  1
  Ag  Ag13  1  0.50331542  0.00268793  0.00173437  1
  Ag  Ag14  1  0.51032583  0.75090640  0.74841710  1
  Ag  Ag15  1  0.74584738  0.24643679  0.50139838  1
  Sb  Sb16  1  0.50493313  0.24782962  0.75004007  1
  Sb  Sb17  1  0.50172966  0.75397585  0.25059467  1
  Sb  Sb18  1  -0.00190326  0.75271151  0.24806718  1
  Sb  Sb19  1  0.24877455  0.75365918  -0.00115680  1
  Sb  Sb20  1  0.25192586  0.75165526  0.50151501  1
  Sb  Sb21  1  0.74954158  -0.00723694  0.75040611  1
  Sb  Sb22  1  0.25423437  0.24628620  0.49730397  1
  Sb  Sb23  1  0.50520557  0.49931315  -0.00231318  1
  Sb  Sb24  1  0.74664182  0.00136002  0.24969218  1
  Sb  Sb25  1  0.74863309  0.49841618  0.24928071  1
  Sb  Sb26  1  0.25060337  -0.00002803  0.75282977  1
  Sb  Sb27  1  -0.00514388  0.24768434  0.75200404  1
  Sb  Sb28  1  0.25297609  0.49649663  0.24711757  1
  Sb  Sb29  1  -0.00726404  0.50193195  0.50391949  1
  Sb  Sb30  1  0.25103555  0.50002344  0.75170029  1
  Sb  Sb31  1  -0.00160664  0.24725251  0.24806912  1
  Te  Te32  1  0.25566055  0.24603718  0.24560627  1
  Te  Te33  1  0.24934625  0.25129667  0.75976778  1
  Te  Te34  1  0.24995559  0.75795005  0.24994802  1
  Te  Te35  1  0.25016452  0.74906861  0.75014257  1
  Te  Te36  1  0.74428232  0.25062586  0.24944394  1
  Te  Te37  1  0.75004852  0.26053897  0.75083090  1
  Te  Te38  1  0.74957935  0.74905402  0.24995170  1
  Te  Te39  1  0.74943863  0.74729196  0.75051920  1
  Te  Te40  1  0.25042481  0.00290463  0.00238921  1
  Te  Te41  1  0.24992847  0.00182930  0.49579227  1
  Te  Te42  1  0.24354584  0.49386160  0.00062366  1
  Te  Te43  1  0.25722110  0.49918200  0.49914641  1
  Te  Te44  1  0.75027631  0.00115776  0.00003448  1
  Te  Te45  1  0.74898635  0.00066144  0.49982792  1
  Te  Te46  1  0.75217006  0.49982446  -0.00222269  1
  Te  Te47  1  0.74799498  0.49995740  0.50205095  1
  Te  Te48  1  -0.00587961  0.24502888  0.00000794  1
  Te  Te49  1  -0.00565309  0.24522804  0.50013298  1
  Te  Te50  1  -0.00224832  0.75436549  -0.00177716  1
  Te  Te51  1  -0.00410724  0.75323271  0.50299045  1
  Te  Te52  1  0.50501612  0.24777454  -0.00054577  1
  Te  Te53  1  0.50313967  0.24532139  0.50093230  1
  Te  Te54  1  0.50317943  0.75178602  -0.00124254  1
  Te  Te55  1  0.50275695  0.75386654  0.50079355  1
  Te  Te56  1  0.00681880  0.00065598  0.24883610  1
  Te  Te57  1  0.00115617  -0.00514337  0.75054910  1
  Te  Te58  1  0.00189095  0.49998558  0.24217748  1
  Te  Te59  1  -0.00332553  0.50580068  0.75368210  1
  Te  Te60  1  0.49742581  0.00331417  0.24914206  1
  Te  Te61  1  0.49896177  -0.00573999  0.74936113  1
  Te  Te62  1  0.49859966  0.49322465  0.25657753  1
  Te  Te63  1  0.50306539  0.50609506  0.74601388  1
