# generated using pymatgen
data_AgSbTe2
_symmetry_space_group_name_H-M   'P 1'
_cell_length_a   12.31739584
_cell_length_b   12.27724190
_cell_length_c   12.31013354
_cell_angle_alpha   90.00070366
_cell_angle_beta   90.00214584
_cell_angle_gamma   89.99750947
_symmetry_Int_Tables_number   1
_chemical_formula_structural   AgSbTe2
_chemical_formula_sum   'Ag16 Sb16 Te32'
_cell_volume   1861.58330189
_cell_formula_units_Z   16
loop_
 _symmetry_equiv_pos_site_id
 _symmetry_equiv_pos_as_xyz
  1  'x, y, z'
loop_
 _atom_site_type_symbol
 _atom_site_label
 _atom_site_symmetry_multiplicity
 _atom_site_fract_x
 _atom_site_fract_y
 _atom_site_fract_z
 _atom_site_occupancy
  Ag  Ag0  1  0.25475895  -0.00824111  0.23883554  1
  Ag  Ag1  1  0.25693674  -0.00747485  0.76668833  1
  Ag  Ag2  1  0.73663697  0.74350537  0.49908665  1
  Ag  Ag3  1  0.01626197  -0.00140144  0.00245711  1
  Ag  Ag4  1  0.48888359  0.50938907  0.00229988  1
  Ag  Ag5  1  0.01203647  0.50239325  0.00186940  1
  Ag  Ag6  1  0.74445897  0.50779336  0.74874581  1
  Ag  Ag7  1  0.49625365  0.51096443  0.49820253  1
  Ag  Ag8  1  0.26211089  0.74184900  0.49528574  1
  Ag  Ag9  1  0.49439291  0.74821235  0.25359361  1
  Ag  Ag10  1  0.25130825  0.24557821  0.00166046  1
  Ag  Ag11  1  0.49730856  0.74595164  0.74550844  1
  Ag  Ag12  1  0.00442490  0.50736155  0.49864996  1
  Ag  Ag13  1  0.25769714  0.50897603  0.24516807  1
  Ag  Ag14  1  0.73964650  -0.01039390  0.24498506  1
  Ag  Ag15  1  0.48671166  -0.00822625  0.00472903  1
  Sb  Sb16  1  0.49779450  0.25145876  0.75180657  1
  Sb  Sb17  1  0.00309642  0.25169021  0.75211569  1
  Sb  Sb18  1  0.74566896  0.50588363  0.24965458  1
  Sb  Sb19  1  0.00099786  0.25121808  0.24929216  1
  Sb  Sb20  1  0.49828368  -0.00786219  0.49548013  1
  Sb  Sb21  1  0.74649839  -0.00732623  0.75204158  1
  Sb  Sb22  1  0.25063918  0.25267219  0.50028245  1
  Sb  Sb23  1  0.25176634  0.50586562  0.75121213  1
  Sb  Sb24  1  0.74904298  0.25383696  0.49934554  1
  Sb  Sb25  1  0.00543023  0.74845683  0.25055431  1
  Sb  Sb26  1  0.74677595  0.75014813  0.00242275  1
  Sb  Sb27  1  0.74880306  0.25028205  0.00029914  1
  Sb  Sb28  1  0.49919434  0.25044687  0.25020134  1
  Sb  Sb29  1  0.00553428  0.74908137  0.74910589  1
  Sb  Sb30  1  0.25341586  0.74871735  0.00369568  1
  Sb  Sb31  1  0.00380330  -0.00609769  0.49767196  1
  Te  Te32  1  0.24922277  0.25096059  0.24646151  1
  Te  Te33  1  0.25069386  0.23359478  0.75513789  1
  Te  Te34  1  0.25331998  0.74512401  0.25350547  1
  Te  Te35  1  0.25353441  0.75524115  0.73957188  1
  Te  Te36  1  0.75099753  0.22813919  0.25075226  1
  Te  Te37  1  0.75042056  0.26317620  0.74848374  1
  Te  Te38  1  0.74125522  0.75499342  0.25248140  1
  Te  Te39  1  0.74290809  0.74405548  0.74504672  1
  Te  Te40  1  0.25116464  -0.00517606  0.00171964  1
  Te  Te41  1  0.24825444  0.00275029  0.49302120  1
  Te  Te42  1  0.25119252  0.50582588  0.00040090  1
  Te  Te43  1  0.25084833  0.50024237  0.50302886  1
  Te  Te44  1  0.74911587  0.00110670  0.00270351  1
  Te  Te45  1  0.75128917  -0.00117420  0.49856104  1
  Te  Te46  1  0.74997162  0.49885732  0.00157894  1
  Te  Te47  1  0.74897043  0.50196550  0.49632227  1
  Te  Te48  1  0.00602475  0.25391450  0.00059400  1
  Te  Te49  1  -0.00189546  0.26825248  0.49987837  1
  Te  Te50  1  -0.00373614  0.74477078  0.00051550  1
  Te  Te51  1  0.00122337  0.74611293  0.49984032  1
  Te  Te52  1  0.49612740  0.25102865  0.00087289  1
  Te  Te53  1  0.50133657  0.27282252  0.50015585  1
  Te  Te54  1  0.50146078  0.74810475  0.00221110  1
  Te  Te55  1  0.49746416  0.74892533  0.49806691  1
  Te  Te56  1  0.01033752  -0.00036511  0.24648896  1
  Te  Te57  1  -0.00073543  0.00054241  0.75677665  1
  Te  Te58  1  0.00302088  0.50062450  0.24204795  1
  Te  Te59  1  -0.00101569  0.50081893  0.75770971  1
  Te  Te60  1  0.49450212  -0.00062135  0.25003963  1
  Te  Te61  1  0.49941498  -0.00233901  0.75242085  1
  Te  Te62  1  0.49776830  0.50023819  0.24225960  1
  Te  Te63  1  0.49896899  0.50277822  0.75839695  1
