# generated using pymatgen
data_AgSbTe2
_symmetry_space_group_name_H-M   'P 1'
_cell_length_a   12.24614018
_cell_length_b   12.23309166
_cell_length_c   12.22935500
_cell_angle_alpha   89.99919031
_cell_angle_beta   89.99530463
_cell_angle_gamma   89.99628957
_symmetry_Int_Tables_number   1
_chemical_formula_structural   AgSbTe2
_chemical_formula_sum   'Ag16 Sb16 Te32'
_cell_volume   1832.05710267
_cell_formula_units_Z   16
loop_
 _symmetry_equiv_pos_site_id
 _symmetry_equiv_pos_as_xyz
  1  'x, y, z'
loop_
 _atom_site_type_symbol
 _atom_site_label
 _atom_site_symmetry_multiplicity
 _atom_site_fract_x
 _atom_site_fract_y
 _atom_site_fract_z
 _atom_site_occupancy
  Ag  Ag0  1  0.24587762  0.25801321  0.00106734  1
  Ag  Ag1  1  0.75123099  0.74647836  0.49603724  1
  Ag  Ag2  1  0.75261296  0.50448630  0.24181767  1
  Ag  Ag3  1  0.00336130  0.74717747  0.75913873  1
  Ag  Ag4  1  0.00053380  0.25548438  0.23981787  1
  Ag  Ag5  1  0.24853840  0.74551564  0.49791883  1
  Ag  Ag6  1  0.49922771  -0.00146417  0.00039474  1
  Ag  Ag7  1  0.24715946  0.50413769  0.23898442  1
  Ag  Ag8  1  0.75485512  0.74615672  0.00421733  1
  Ag  Ag9  1  0.00538258  0.50221951  0.00339794  1
  Ag  Ag10  1  0.49783888  0.25164843  0.75921200  1
  Ag  Ag11  1  0.24435080  0.74157169  0.00121157  1
  Ag  Ag12  1  0.75422211  0.25362525  0.00288566  1
  Ag  Ag13  1  0.00089359  -0.00316899  0.00072702  1
  Ag  Ag14  1  0.24725090  0.50395666  0.76207400  1
  Ag  Ag15  1  0.49938248  0.74721569  0.24340283  1
  Sb  Sb16  1  0.49954156  -0.00432096  0.49961070  1
  Sb  Sb17  1  0.75035899  0.25377646  0.49687891  1
  Sb  Sb18  1  0.24939964  -0.00301492  0.75557073  1
  Sb  Sb19  1  0.75283713  0.50193180  0.75883850  1
  Sb  Sb20  1  0.24920783  -0.00469040  0.24417323  1
  Sb  Sb21  1  0.00039870  -0.00571107  0.49835938  1
  Sb  Sb22  1  0.00111605  0.25197789  0.75989150  1
  Sb  Sb23  1  0.75072830  -0.00491062  0.24474031  1
  Sb  Sb24  1  0.75011565  -0.00155663  0.75515941  1
  Sb  Sb25  1  0.24931582  0.25459851  0.49941158  1
  Sb  Sb26  1  0.49939476  0.25188892  0.24251497  1
  Sb  Sb27  1  0.00070868  0.50324052  0.49689175  1
  Sb  Sb28  1  0.00023111  0.74657789  0.24132105  1
  Sb  Sb29  1  0.49510747  0.50156892  0.00067245  1
  Sb  Sb30  1  0.49757901  0.74917058  0.75561943  1
  Sb  Sb31  1  0.49958230  0.50265531  0.49917053  1
  Te  Te32  1  0.24957956  0.25653670  0.24793052  1
  Te  Te33  1  0.25122288  0.25542703  0.75130884  1
  Te  Te34  1  0.24949143  0.74592157  0.24586847  1
  Te  Te35  1  0.24943590  0.74616535  0.75477265  1
  Te  Te36  1  0.75018116  0.25642571  0.24652913  1
  Te  Te37  1  0.74740771  0.25196226  0.75374314  1
  Te  Te38  1  0.75077894  0.74592325  0.24515047  1
  Te  Te39  1  0.75176125  0.74825703  0.75264815  1
  Te  Te40  1  0.24809295  0.00076183  0.00027655  1
  Te  Te41  1  0.24967017  -0.01076203  0.49993388  1
  Te  Te42  1  0.24875674  0.50046727  0.00122340  1
  Te  Te43  1  0.25009361  0.50608519  0.49794012  1
  Te  Te44  1  0.75183707  -0.00060400  0.00069576  1
  Te  Te45  1  0.75034180  -0.00967303  0.49960625  1
  Te  Te46  1  0.75297007  0.50136348  0.00293714  1
  Te  Te47  1  0.75003203  0.50633130  0.49178032  1
  Te  Te48  1  0.00071722  0.25152947  0.00077551  1
  Te  Te49  1  -0.00133279  0.24746646  0.49251668  1
  Te  Te50  1  0.00056076  0.74863388  -0.00093146  1
  Te  Te51  1  0.00043671  0.75179838  0.50750337  1
  Te  Te52  1  0.49955398  0.24601075  -0.00164395  1
  Te  Te53  1  0.50100579  0.24687492  0.50905900  1
  Te  Te54  1  0.50084205  0.75297997  0.00267667  1
  Te  Te55  1  0.50011219  0.75235634  0.49531379  1
  Te  Te56  1  0.00015414  0.01009136  0.24214026  1
  Te  Te57  1  -0.00029498  -0.00501320  0.75728835  1
  Te  Te58  1  0.00156459  0.49691069  0.24645266  1
  Te  Te59  1  0.00460687  0.50376333  0.75465287  1
  Te  Te60  1  0.49994865  -0.00619241  0.24313214  1
  Te  Te61  1  0.50020679  0.00550552  0.75776828  1
  Te  Te62  1  0.49883128  0.50499690  0.25074219  1
  Te  Te63  1  0.49309180  0.49546268  0.74907923  1
