# generated using pymatgen
data_AgSbTe2
_symmetry_space_group_name_H-M   'P 1'
_cell_length_a   12.26822500
_cell_length_b   12.27675131
_cell_length_c   12.30155357
_cell_angle_alpha   90.00561336
_cell_angle_beta   90.00165390
_cell_angle_gamma   90.00439107
_symmetry_Int_Tables_number   1
_chemical_formula_structural   AgSbTe2
_chemical_formula_sum   'Ag16 Sb16 Te32'
_cell_volume   1852.78552697
_cell_formula_units_Z   16
loop_
 _symmetry_equiv_pos_site_id
 _symmetry_equiv_pos_as_xyz
  1  'x, y, z'
loop_
 _atom_site_type_symbol
 _atom_site_label
 _atom_site_symmetry_multiplicity
 _atom_site_fract_x
 _atom_site_fract_y
 _atom_site_fract_z
 _atom_site_occupancy
  Ag  Ag0  1  0.49587206  0.49250994  0.50210792  1
  Ag  Ag1  1  0.00633826  0.01111277  0.49619807  1
  Ag  Ag2  1  0.75499537  0.74785829  0.50039368  1
  Ag  Ag3  1  0.00195077  0.74892776  0.25719482  1
  Ag  Ag4  1  0.49841019  0.74919402  0.74307684  1
  Ag  Ag5  1  0.24370166  0.24855714  0.00000623  1
  Ag  Ag6  1  0.24079848  0.24649699  0.50001555  1
  Ag  Ag7  1  0.00312728  0.49264286  0.49663063  1
  Ag  Ag8  1  0.48336081  0.25021248  0.26067290  1
  Ag  Ag9  1  0.00159580  0.49501586  0.00485362  1
  Ag  Ag10  1  0.75457687  0.74648695  0.00030664  1
  Ag  Ag11  1  0.24785340  0.01010725  0.74391139  1
  Ag  Ag12  1  0.01574456  0.24928088  0.73871789  1
  Ag  Ag13  1  0.48538392  0.24959195  0.74119293  1
  Ag  Ag14  1  0.24436482  0.00941122  0.25768461  1
  Ag  Ag15  1  0.01313714  0.24926917  0.26074060  1
  Sb  Sb16  1  0.24912843  0.49055565  0.74771635  1
  Sb  Sb17  1  0.49848567  0.00183251  -0.00074778  1
  Sb  Sb18  1  0.49597207  0.00521210  0.50094933  1
  Sb  Sb19  1  0.75530473  0.00005964  0.25343037  1
  Sb  Sb20  1  0.75042871  0.50158930  0.74904333  1
  Sb  Sb21  1  0.24782883  0.75270453  0.50008353  1
  Sb  Sb22  1  0.24819552  0.74854720  -0.00042970  1
  Sb  Sb23  1  0.75327898  -0.00021188  0.74737804  1
  Sb  Sb24  1  0.75482399  0.25349156  -0.00035760  1
  Sb  Sb25  1  0.75309679  0.25225128  0.50023278  1
  Sb  Sb26  1  0.49611995  0.75055114  0.25400804  1
  Sb  Sb27  1  0.00457343  0.75041176  0.74747658  1
  Sb  Sb28  1  0.75247093  0.50070003  0.25109904  1
  Sb  Sb29  1  0.24757288  0.49048277  0.25204930  1
  Sb  Sb30  1  0.49805195  0.49741507  0.00001601  1
  Sb  Sb31  1  0.00233478  0.00249808  0.00219627  1
  Te  Te32  1  0.24758164  0.24717905  0.25490554  1
  Te  Te33  1  0.24880859  0.24775732  0.74485359  1
  Te  Te34  1  0.24395175  0.76471338  0.24833458  1
  Te  Te35  1  0.25676066  0.76409135  0.75155419  1
  Te  Te36  1  0.74913004  0.24857208  0.24801557  1
  Te  Te37  1  0.74436894  0.24879695  0.75204895  1
  Te  Te38  1  0.75441889  0.75043671  0.25189244  1
  Te  Te39  1  0.74298068  0.75060580  0.74738289  1
  Te  Te40  1  0.25022230  0.00885363  -0.00219957  1
  Te  Te41  1  0.24621188  0.00336083  0.50027966  1
  Te  Te42  1  0.24222158  0.49321141  -0.00036722  1
  Te  Te43  1  0.24804836  0.49310642  0.50033380  1
  Te  Te44  1  0.74971185  -0.01297513  -0.00013193  1
  Te  Te45  1  0.76306155  -0.01014893  0.49981791  1
  Te  Te46  1  0.75955564  0.50631892  -0.00008680  1
  Te  Te47  1  0.75376817  0.50514983  0.49999955  1
  Te  Te48  1  0.00064327  0.25270218  0.00113026  1
  Te  Te49  1  -0.00317401  0.25258958  0.49951401  1
  Te  Te50  1  0.00059389  0.74549667  -0.00149289  1
  Te  Te51  1  0.00258581  0.74144492  0.50033090  1
  Te  Te52  1  0.49840929  0.25270969  -0.00302773  1
  Te  Te53  1  0.50645022  0.25211806  0.50122967  1
  Te  Te54  1  0.50234356  0.74597523  -0.00108674  1
  Te  Te55  1  0.49921397  0.74616239  0.50013451  1
  Te  Te56  1  0.00216645  0.00424217  0.25138876  1
  Te  Te57  1  0.00325538  0.00324163  0.74718376  1
  Te  Te58  1  0.00165865  0.49913144  0.25518641  1
  Te  Te59  1  0.00057624  0.49598835  0.74367919  1
  Te  Te60  1  0.49180170  0.00676383  0.25040127  1
  Te  Te61  1  0.49541699  0.00573542  0.74954309  1
  Te  Te62  1  0.49924588  0.49448802  0.25592803  1
  Te  Te63  1  0.49913115  0.49741452  0.74547614  1
