# generated using pymatgen
data_AgSbTe2
_symmetry_space_group_name_H-M   'P 1'
_cell_length_a   12.22549718
_cell_length_b   12.22673123
_cell_length_c   12.22383571
_cell_angle_alpha   89.99616046
_cell_angle_beta   89.99572968
_cell_angle_gamma   90.00029974
_symmetry_Int_Tables_number   1
_chemical_formula_structural   AgSbTe2
_chemical_formula_sum   'Ag16 Sb16 Te32'
_cell_volume   1827.19289281
_cell_formula_units_Z   16
loop_
 _symmetry_equiv_pos_site_id
 _symmetry_equiv_pos_as_xyz
  1  'x, y, z'
loop_
 _atom_site_type_symbol
 _atom_site_label
 _atom_site_symmetry_multiplicity
 _atom_site_fract_x
 _atom_site_fract_y
 _atom_site_fract_z
 _atom_site_occupancy
  Ag  Ag0  1  0.49298385  0.74861109  0.74474924  1
  Ag  Ag1  1  0.00666522  0.74753406  0.74602366  1
  Ag  Ag2  1  0.75920439  0.50118232  0.25606599  1
  Ag  Ag3  1  0.75402591  0.74577914  0.49661494  1
  Ag  Ag4  1  0.75473756  -0.00168421  0.25444129  1
  Ag  Ag5  1  0.24154959  0.50292584  0.25433926  1
  Ag  Ag6  1  0.00212796  0.50353739  0.00551247  1
  Ag  Ag7  1  0.75676945  0.25407171  0.49609223  1
  Ag  Ag8  1  0.24723694  -0.00594264  0.74734200  1
  Ag  Ag9  1  0.24635277  0.74568199  0.50324184  1
  Ag  Ag10  1  0.24329752  0.25458039  0.50002821  1
  Ag  Ag11  1  0.00267067  0.25263617  0.74323910  1
  Ag  Ag12  1  0.00040969  0.74176257  0.25379808  1
  Ag  Ag13  1  0.49908008  0.50378223  0.49913430  1
  Ag  Ag14  1  0.24497851  0.74696404  -0.00320064  1
  Ag  Ag15  1  -0.00140837  0.25812409  0.25592016  1
  Sb  Sb16  1  0.24590743  0.50577401  0.74376562  1
  Sb  Sb17  1  0.49962416  0.74771820  0.25474103  1
  Sb  Sb18  1  0.00009423  -0.00075404  0.49976158  1
  Sb  Sb19  1  0.24574211  -0.00198031  0.25179090  1
  Sb  Sb20  1  0.75476542  0.25275152  0.00456010  1
  Sb  Sb21  1  0.24534219  0.25398929  -0.00085532  1
  Sb  Sb22  1  0.75439369  0.50053219  0.74177346  1
  Sb  Sb23  1  0.00153847  -0.00446876  0.00011150  1
  Sb  Sb24  1  0.00182383  0.50061193  0.49290786  1
  Sb  Sb25  1  0.50101712  0.25218648  0.25390026  1
  Sb  Sb26  1  0.75233418  -0.00147156  0.74654570  1
  Sb  Sb27  1  0.49806879  -0.00423983  -0.00127856  1
  Sb  Sb28  1  0.75457401  0.74707563  0.00293346  1
  Sb  Sb29  1  0.49946116  -0.00486854  0.50134967  1
  Sb  Sb30  1  0.49663256  0.25181831  0.74403206  1
  Sb  Sb31  1  0.49786240  0.50410408  0.00073456  1
  Te  Te32  1  0.24607903  0.24892152  0.25361954  1
  Te  Te33  1  0.24551722  0.24692068  0.74658313  1
  Te  Te34  1  0.24811157  0.75120323  0.25433038  1
  Te  Te35  1  0.24509216  0.74849560  0.74515202  1
  Te  Te36  1  0.75326228  0.25343042  0.25403807  1
  Te  Te37  1  0.75565785  0.24817663  0.74317860  1
  Te  Te38  1  0.75186636  0.74685595  0.25311756  1
  Te  Te39  1  0.75470402  0.75173059  0.74521089  1
  Te  Te40  1  0.25050716  -0.00719706  -0.00422472  1
  Te  Te41  1  0.25199007  -0.00030459  0.50335162  1
  Te  Te42  1  0.24746723  0.50440784  0.00864820  1
  Te  Te43  1  0.25281553  0.50109161  0.49615115  1
  Te  Te44  1  0.74923903  0.00019094  0.00838545  1
  Te  Te45  1  0.74805517  -0.00031994  0.49518074  1
  Te  Te46  1  0.75293079  0.50032247  0.01009578  1
  Te  Te47  1  0.74619726  0.50139852  0.49635248  1
  Te  Te48  1  0.00033612  0.25645146  0.00009659  1
  Te  Te49  1  0.00057096  0.25039395  0.49972815  1
  Te  Te50  1  0.00299452  0.74615773  -0.00002865  1
  Te  Te51  1  0.00036575  0.74986203  0.50002089  1
  Te  Te52  1  0.50035916  0.25051099  -0.00212827  1
  Te  Te53  1  0.49928571  0.25696600  0.50118587  1
  Te  Te54  1  0.49265906  0.74888918  -0.00943294  1
  Te  Te55  1  0.49915042  0.74603528  0.50328680  1
  Te  Te56  1  -0.00406698  0.00012741  0.24814674  1
  Te  Te57  1  0.00393621  -0.00103249  0.75192361  1
  Te  Te58  1  0.00105856  0.50134247  0.24906922  1
  Te  Te59  1  -0.00057176  0.50116249  0.75950055  1
  Te  Te60  1  0.50880763  0.00041830  0.24942369  1
  Te  Te61  1  0.49511729  -0.00592623  0.75056384  1
  Te  Te62  1  0.49883692  0.50013611  0.25308151  1
  Te  Te63  1  0.50180416  0.50485609  0.74627552  1
