# generated using pymatgen
data_AgSbTe2
_symmetry_space_group_name_H-M   'P 1'
_cell_length_a   12.30136845
_cell_length_b   12.31584233
_cell_length_c   12.31094598
_cell_angle_alpha   90.00111533
_cell_angle_beta   89.98934002
_cell_angle_gamma   89.98524753
_symmetry_Int_Tables_number   1
_chemical_formula_structural   AgSbTe2
_chemical_formula_sum   'Ag16 Sb16 Te32'
_cell_volume   1865.12932531
_cell_formula_units_Z   16
loop_
 _symmetry_equiv_pos_site_id
 _symmetry_equiv_pos_as_xyz
  1  'x, y, z'
loop_
 _atom_site_type_symbol
 _atom_site_label
 _atom_site_symmetry_multiplicity
 _atom_site_fract_x
 _atom_site_fract_y
 _atom_site_fract_z
 _atom_site_occupancy
  Ag  Ag0  1  0.25109671  0.00498101  0.26939926  1
  Ag  Ag1  1  0.74871339  0.24926572  0.50981672  1
  Ag  Ag2  1  0.73886203  0.49489733  0.24820605  1
  Ag  Ag3  1  0.02111165  0.00703537  0.50632983  1
  Ag  Ag4  1  0.25310345  0.77240407  0.49907968  1
  Ag  Ag5  1  0.74689563  0.73657961  -0.00440996  1
  Ag  Ag6  1  -0.00830267  0.24513370  0.74356062  1
  Ag  Ag7  1  0.48605793  0.00779262  0.50304488  1
  Ag  Ag8  1  0.50104995  0.49216739  0.49577547  1
  Ag  Ag9  1  0.75287616  0.01369292  0.73863875  1
  Ag  Ag10  1  0.25198373  0.23566020  0.50303015  1
  Ag  Ag11  1  0.74740100  0.48588412  0.75228293  1
  Ag  Ag12  1  0.24820867  0.00689092  0.73298681  1
  Ag  Ag13  1  0.51048414  0.49777431  0.00298093  1
  Ag  Ag14  1  0.74947928  0.25913723  -0.01467160  1
  Ag  Ag15  1  0.25841242  0.49679089  0.26184210  1
  Sb  Sb16  1  0.25264132  0.74628404  0.00016671  1
  Sb  Sb17  1  0.25324236  0.49467203  0.74091918  1
  Sb  Sb18  1  -0.00099504  0.24976547  0.25360822  1
  Sb  Sb19  1  0.50001628  0.25153708  0.25246127  1
  Sb  Sb20  1  0.00026642  0.74979619  0.25227407  1
  Sb  Sb21  1  -0.00019715  0.49726908  0.50017389  1
  Sb  Sb22  1  0.50100347  0.75008972  0.74871530  1
  Sb  Sb23  1  0.50527012  0.24988400  0.74679338  1
  Sb  Sb24  1  -0.00665591  0.49824505  -0.00013509  1
  Sb  Sb25  1  0.50018823  0.74819212  0.25149132  1
  Sb  Sb26  1  0.74976987  0.00318497  0.25871633  1
  Sb  Sb27  1  -0.00183410  0.75233332  0.74715868  1
  Sb  Sb28  1  0.25074922  0.25293406  -0.00210717  1
  Sb  Sb29  1  0.50242603  0.00248172  -0.00167448  1
  Sb  Sb30  1  -0.00176170  0.00265247  -0.00256937  1
  Sb  Sb31  1  0.74851353  0.74796920  0.50123409  1
  Te  Te32  1  0.24919821  0.25221718  0.24894702  1
  Te  Te33  1  0.24402880  0.24756055  0.74971924  1
  Te  Te34  1  0.25015579  0.74601627  0.25073921  1
  Te  Te35  1  0.24965376  0.75550526  0.74883442  1
  Te  Te36  1  0.75092677  0.25442407  0.25653374  1
  Te  Te37  1  0.75016998  0.24835516  0.74348897  1
  Te  Te38  1  0.74978945  0.74275174  0.24703475  1
  Te  Te39  1  0.74950532  0.75039729  0.75136555  1
  Te  Te40  1  0.25255688  -0.00011162  0.00111943  1
  Te  Te41  1  0.25253871  0.00121524  0.50068050  1
  Te  Te42  1  0.25781094  0.50017622  0.00530565  1
  Te  Te43  1  0.24930984  0.49206783  0.50016397  1
  Te  Te44  1  0.74853813  0.00667275  0.00049896  1
  Te  Te45  1  0.74201030  -0.00164149  0.49924733  1
  Te  Te46  1  0.74908592  0.49605213  0.00042374  1
  Te  Te47  1  0.75102056  0.50335032  0.49893003  1
  Te  Te48  1  -0.00680775  0.25055515  -0.00881321  1
  Te  Te49  1  -0.00387256  0.24822284  0.50092674  1
  Te  Te50  1  -0.01089717  0.74965159  -0.00041312  1
  Te  Te51  1  0.00679451  0.75990027  0.50000413  1
  Te  Te52  1  0.50533110  0.25553416  0.00041523  1
  Te  Te53  1  0.50053135  0.25259436  0.50019887  1
  Te  Te54  1  0.50686391  0.74284345  0.00033830  1
  Te  Te55  1  0.49573213  0.74715344  0.49968084  1
  Te  Te56  1  0.00454356  -0.00019444  0.25561610  1
  Te  Te57  1  -0.00509165  0.00144548  0.74851238  1
  Te  Te58  1  0.00606138  0.50023319  0.24938630  1
  Te  Te59  1  -0.00706101  0.49424608  0.75103562  1
  Te  Te60  1  0.49464464  -0.00033008  0.25487727  1
  Te  Te61  1  0.50082810  0.00001317  0.74805100  1
  Te  Te62  1  0.50126041  0.49974496  0.25864641  1
  Te  Te63  1  0.50476332  0.49999959  0.74338566  1
