# generated using pymatgen
data_AgSbTe2
_symmetry_space_group_name_H-M   'P 1'
_cell_length_a   12.21021230
_cell_length_b   12.21687977
_cell_length_c   12.20709318
_cell_angle_alpha   90.00088880
_cell_angle_beta   90.00873913
_cell_angle_gamma   89.99918355
_symmetry_Int_Tables_number   1
_chemical_formula_structural   AgSbTe2
_chemical_formula_sum   'Ag16 Sb16 Te32'
_cell_volume   1820.94056070
_cell_formula_units_Z   16
loop_
 _symmetry_equiv_pos_site_id
 _symmetry_equiv_pos_as_xyz
  1  'x, y, z'
loop_
 _atom_site_type_symbol
 _atom_site_label
 _atom_site_symmetry_multiplicity
 _atom_site_fract_x
 _atom_site_fract_y
 _atom_site_fract_z
 _atom_site_occupancy
  Ag  Ag0  1  0.50580803  0.50111169  0.50062522  1
  Ag  Ag1  1  0.50128676  0.25259092  0.25489322  1
  Ag  Ag2  1  0.25034105  0.50412973  0.74860227  1
  Ag  Ag3  1  0.74723071  0.49929560  0.25769343  1
  Ag  Ag4  1  0.00027595  0.25051752  0.74465657  1
  Ag  Ag5  1  -0.00513343  0.50090753  0.50420522  1
  Ag  Ag6  1  0.24991362  -0.00090801  0.25186963  1
  Ag  Ag7  1  0.49897686  0.50214835  -0.00155615  1
  Ag  Ag8  1  0.49785287  0.74552519  0.74606874  1
  Ag  Ag9  1  0.00222792  0.74899565  0.74614161  1
  Ag  Ag10  1  0.24981271  0.74947444  -0.00400057  1
  Ag  Ag11  1  0.74995125  0.74571061  0.50142208  1
  Ag  Ag12  1  0.50114301  -0.00107334  0.49945134  1
  Ag  Ag13  1  -0.00123325  -0.00088842  0.50288123  1
  Ag  Ag14  1  0.00271817  -0.00207102  -0.00168223  1
  Ag  Ag15  1  0.75001530  0.25454596  0.49897476  1
  Sb  Sb16  1  0.74998591  0.50070300  0.74072901  1
  Sb  Sb17  1  0.74832554  0.00081643  0.25544885  1
  Sb  Sb18  1  0.75025174  0.25285306  0.00046070  1
  Sb  Sb19  1  0.75013210  0.74713851  -0.00180457  1
  Sb  Sb20  1  0.49963014  0.25402726  0.74450009  1
  Sb  Sb21  1  0.24673574  -0.00423129  0.74889542  1
  Sb  Sb22  1  0.00029766  0.75057457  0.25501544  1
  Sb  Sb23  1  0.49722751  -0.00247596  0.00030612  1
  Sb  Sb24  1  0.24938569  0.25001034  0.50032942  1
  Sb  Sb25  1  0.24986713  0.74932379  0.50453976  1
  Sb  Sb26  1  -0.00163925  0.24995172  0.25535843  1
  Sb  Sb27  1  0.75249942  -0.00026036  0.74612869  1
  Sb  Sb28  1  0.25259978  0.50116314  0.25062402  1
  Sb  Sb29  1  0.24951329  0.25030067  -0.00070141  1
  Sb  Sb30  1  0.49999753  0.74773407  0.25514679  1
  Sb  Sb31  1  0.00082738  0.50198362  -0.00510506  1
  Te  Te32  1  0.25641947  0.24459738  0.24928535  1
  Te  Te33  1  0.24373669  0.25793809  0.75084004  1
  Te  Te34  1  0.25009978  0.75470143  0.24059888  1
  Te  Te35  1  0.24949153  0.74637168  0.75377792  1
  Te  Te36  1  0.74549285  0.25501279  0.25608629  1
  Te  Te37  1  0.75664368  0.24969156  0.74282607  1
  Te  Te38  1  0.74995613  0.74341418  0.25733817  1
  Te  Te39  1  0.75023486  0.75027316  0.74430892  1
  Te  Te40  1  0.24629204  -0.00484862  0.00368213  1
  Te  Te41  1  0.24918358  -0.00059697  0.49562662  1
  Te  Te42  1  0.25362724  0.50511509  -0.00173044  1
  Te  Te43  1  0.24977447  0.50069513  0.50282923  1
  Te  Te44  1  0.75794837  -0.00030082  0.00276281  1
  Te  Te45  1  0.75082202  -0.00074320  0.49773391  1
  Te  Te46  1  0.74408761  0.50045285  0.00998394  1
  Te  Te47  1  0.74934551  0.50058892  0.49830806  1
  Te  Te48  1  -0.00108140  0.24497454  -0.00654455  1
  Te  Te49  1  -0.00342460  0.24905683  0.50302752  1
  Te  Te50  1  0.00124450  0.75283714  -0.00669748  1
  Te  Te51  1  -0.00161349  0.75073587  0.50422701  1
  Te  Te52  1  0.50129077  0.25439163  0.00342319  1
  Te  Te53  1  0.50389959  0.25041365  0.49930983  1
  Te  Te54  1  0.49892383  0.74730176  -0.00634243  1
  Te  Te55  1  0.50174739  0.74932154  0.50374119  1
  Te  Te56  1  0.00464701  0.00100911  0.25247011  1
  Te  Te57  1  0.00188201  -0.00161314  0.74572951  1
  Te  Te58  1  -0.00228162  0.49843174  0.25528273  1
  Te  Te59  1  0.00298533  0.50235812  0.74772614  1
  Te  Te60  1  0.49706433  0.00351481  0.25381861  1
  Te  Te61  1  0.49788022  -0.00364033  0.74493776  1
  Te  Te62  1  0.49994884  0.49763912  0.25382599  1
  Te  Te63  1  0.49690659  0.50127996  0.74768891  1
