# generated using pymatgen
data_AgSbTe2
_symmetry_space_group_name_H-M   'P 1'
_cell_length_a   12.32105288
_cell_length_b   12.31342780
_cell_length_c   12.29279205
_cell_angle_alpha   90.00330860
_cell_angle_beta   89.99812106
_cell_angle_gamma   89.99812289
_symmetry_Int_Tables_number   1
_chemical_formula_structural   AgSbTe2
_chemical_formula_sum   'Ag16 Sb16 Te32'
_cell_volume   1864.99350331
_cell_formula_units_Z   16
loop_
 _symmetry_equiv_pos_site_id
 _symmetry_equiv_pos_as_xyz
  1  'x, y, z'
loop_
 _atom_site_type_symbol
 _atom_site_label
 _atom_site_symmetry_multiplicity
 _atom_site_fract_x
 _atom_site_fract_y
 _atom_site_fract_z
 _atom_site_occupancy
  Ag  Ag0  1  0.00582384  -0.00195660  0.50187810  1
  Ag  Ag1  1  0.73064081  0.50292753  0.73424319  1
  Ag  Ag2  1  0.01603521  0.75051252  0.74680660  1
  Ag  Ag3  1  0.26013364  -0.01371503  0.26082929  1
  Ag  Ag4  1  0.50272296  0.50397390  0.50737026  1
  Ag  Ag5  1  0.49884084  0.26150745  0.73953062  1
  Ag  Ag6  1  0.74198976  0.25235140  0.50067485  1
  Ag  Ag7  1  0.26613367  0.51416567  0.25853826  1
  Ag  Ag8  1  0.26433221  0.51445397  0.74198344  1
  Ag  Ag9  1  0.25943323  -0.01481054  0.74025949  1
  Ag  Ag10  1  0.25360978  0.75028615  -0.00637201  1
  Ag  Ag11  1  0.49173881  0.74669675  0.25832235  1
  Ag  Ag12  1  0.49811725  -0.00405869  0.49919981  1
  Ag  Ag13  1  0.73382931  0.50492294  0.26131440  1
  Ag  Ag14  1  0.73688415  -0.00618480  0.26210657  1
  Ag  Ag15  1  0.49071870  0.74426941  0.74028280  1
  Sb  Sb16  1  0.00086933  0.50171965  0.50173736  1
  Sb  Sb17  1  0.25227680  0.24994347  -0.00111455  1
  Sb  Sb18  1  -0.00075885  0.24841492  0.25589062  1
  Sb  Sb19  1  0.25298508  0.75188851  0.50284905  1
  Sb  Sb20  1  0.00144144  0.50411322  -0.00183450  1
  Sb  Sb21  1  0.50017145  -0.00155810  0.00283238  1
  Sb  Sb22  1  0.74161344  -0.00326875  0.74121249  1
  Sb  Sb23  1  0.25381707  0.24928025  0.50094913  1
  Sb  Sb24  1  0.74706515  0.24955007  -0.00011630  1
  Sb  Sb25  1  0.00207350  -0.00477353  -0.00363718  1
  Sb  Sb26  1  0.50056678  0.50046933  -0.00469968  1
  Sb  Sb27  1  0.00153626  0.25036030  0.74439722  1
  Sb  Sb28  1  0.50075295  0.25145525  0.25492463  1
  Sb  Sb29  1  0.00584476  0.75221916  0.25361070  1
  Sb  Sb30  1  0.74672191  0.75014135  -0.00060619  1
  Sb  Sb31  1  0.74745927  0.74829777  0.49740082  1
  Te  Te32  1  0.24967217  0.25175017  0.24934099  1
  Te  Te33  1  0.25161747  0.25194683  0.74924578  1
  Te  Te34  1  0.25302642  0.74920427  0.25254759  1
  Te  Te35  1  0.25365436  0.75075166  0.74716063  1
  Te  Te36  1  0.75036060  0.25617421  0.24968919  1
  Te  Te37  1  0.74864026  0.25376450  0.74960522  1
  Te  Te38  1  0.74741663  0.74550865  0.24734592  1
  Te  Te39  1  0.74161489  0.74601072  0.75349186  1
  Te  Te40  1  0.24983660  -0.00136808  0.00146529  1
  Te  Te41  1  0.25774047  0.00112417  0.50029085  1
  Te  Te42  1  0.25064048  0.50203512  0.00324698  1
  Te  Te43  1  0.24977904  0.49681358  0.49837569  1
  Te  Te44  1  0.75133521  0.00091522  0.02359047  1
  Te  Te45  1  0.73784742  -0.00060841  0.49694662  1
  Te  Te46  1  0.75027374  0.49948591  0.00922466  1
  Te  Te47  1  0.75049165  0.50045460  0.50059272  1
  Te  Te48  1  -0.00087630  0.24978423  0.00104570  1
  Te  Te49  1  -0.01362953  0.23841805  0.49861698  1
  Te  Te50  1  0.00929880  0.74992242  -0.01274958  1
  Te  Te51  1  -0.00313585  0.75806444  0.50741790  1
  Te  Te52  1  0.49962489  0.24945643  -0.02418907  1
  Te  Te53  1  0.50264626  0.25213483  0.50374823  1
  Te  Te54  1  0.49624424  0.75013554  0.00471395  1
  Te  Te55  1  0.49929775  0.74723116  0.49511751  1
  Te  Te56  1  0.00651019  -0.00069260  0.25667840  1
  Te  Te57  1  0.00179446  -0.00245478  0.74632096  1
  Te  Te58  1  0.00158427  0.50067564  0.25156668  1
  Te  Te59  1  0.00631445  0.50295186  0.74943075  1
  Te  Te60  1  0.49666577  0.00514951  0.25130935  1
  Te  Te61  1  0.50042590  -0.01252269  0.74718815  1
  Te  Te62  1  0.49826872  0.49710610  0.25175242  1
  Te  Te63  1  0.49959804  0.50708185  0.74910719  1
