# generated using pymatgen
data_AgSbTe2
_symmetry_space_group_name_H-M   'P 1'
_cell_length_a   12.31986705
_cell_length_b   12.30424664
_cell_length_c   12.30860825
_cell_angle_alpha   90.01372214
_cell_angle_beta   89.99205069
_cell_angle_gamma   90.00843391
_symmetry_Int_Tables_number   1
_chemical_formula_structural   AgSbTe2
_chemical_formula_sum   'Ag16 Sb16 Te32'
_cell_volume   1865.82100214
_cell_formula_units_Z   16
loop_
 _symmetry_equiv_pos_site_id
 _symmetry_equiv_pos_as_xyz
  1  'x, y, z'
loop_
 _atom_site_type_symbol
 _atom_site_label
 _atom_site_symmetry_multiplicity
 _atom_site_fract_x
 _atom_site_fract_y
 _atom_site_fract_z
 _atom_site_occupancy
  Ag  Ag0  1  0.49019849  0.23491166  0.26294704  1
  Ag  Ag1  1  0.26450382  0.00737467  0.26152319  1
  Ag  Ag2  1  0.00947887  0.76303533  0.25172409  1
  Ag  Ag3  1  0.72804718  0.00566038  0.25378415  1
  Ag  Ag4  1  0.48827687  0.77129892  0.25473994  1
  Ag  Ag5  1  0.49534105  0.00441875  0.01991207  1
  Ag  Ag6  1  0.25413014  0.76567174  0.49336665  1
  Ag  Ag7  1  0.49063397  0.01010105  0.48454292  1
  Ag  Ag8  1  0.25715655  0.01277008  0.73502045  1
  Ag  Ag9  1  0.24902493  0.48134541  0.74571003  1
  Ag  Ag10  1  0.25460405  0.23942588  0.50463689  1
  Ag  Ag11  1  0.74218414  0.24356408  0.49515450  1
  Ag  Ag12  1  0.00567485  0.49407735  0.00102025  1
  Ag  Ag13  1  0.48363606  0.24109236  0.73539151  1
  Ag  Ag14  1  0.00819699  0.24061212  0.25674014  1
  Ag  Ag15  1  0.01635304  0.24832376  0.74182398  1
  Sb  Sb16  1  0.00680965  0.00187652  0.49628101  1
  Sb  Sb17  1  0.74640535  0.00568619  0.74530495  1
  Sb  Sb18  1  0.25031402  0.24928880  -0.00174689  1
  Sb  Sb19  1  0.74955356  0.49177737  0.75002106  1
  Sb  Sb20  1  0.49819279  0.49348414  0.50042826  1
  Sb  Sb21  1  0.00411777  -0.00000437  0.00454904  1
  Sb  Sb22  1  0.00214769  0.49682699  0.49928893  1
  Sb  Sb23  1  0.74756863  0.75962980  0.49338679  1
  Sb  Sb24  1  0.24992165  0.49413419  0.25460985  1
  Sb  Sb25  1  0.74919700  0.24698991  0.00465196  1
  Sb  Sb26  1  0.49800894  0.49869177  -0.00012846  1
  Sb  Sb27  1  0.74933503  0.75354769  0.00517134  1
  Sb  Sb28  1  0.00937876  0.75246448  0.74751621  1
  Sb  Sb29  1  0.49260051  0.76028772  0.74459579  1
  Sb  Sb30  1  0.75073906  0.49434146  0.25172236  1
  Sb  Sb31  1  0.25087484  0.75218320  0.00966746  1
  Te  Te32  1  0.24894957  0.25148064  0.24965923  1
  Te  Te33  1  0.24853290  0.24567976  0.75263588  1
  Te  Te34  1  0.24919083  0.74398392  0.25522638  1
  Te  Te35  1  0.24940634  0.75799508  0.73757994  1
  Te  Te36  1  0.75297716  0.24780923  0.25380111  1
  Te  Te37  1  0.75272405  0.24829259  0.74131915  1
  Te  Te38  1  0.75341927  0.75582015  0.25153191  1
  Te  Te39  1  0.75139007  0.74796186  0.74869530  1
  Te  Te40  1  0.25403090  -0.00089557  0.00440402  1
  Te  Te41  1  0.25095763  0.00290369  0.49704965  1
  Te  Te42  1  0.24531824  0.50151765  -0.01113925  1
  Te  Te43  1  0.25150651  0.49636187  0.50544079  1
  Te  Te44  1  0.74106350  -0.00043216  0.00639986  1
  Te  Te45  1  0.74024523  0.00572554  0.49712024  1
  Te  Te46  1  0.75978081  0.50138280  0.00023134  1
  Te  Te47  1  0.74924154  0.48701211  0.49991081  1
  Te  Te48  1  -0.00022092  0.25024918  0.00379983  1
  Te  Te49  1  0.00891033  0.24704410  0.49762078  1
  Te  Te50  1  -0.00057725  0.74941114  0.00764797  1
  Te  Te51  1  0.00145530  0.75007398  0.49382260  1
  Te  Te52  1  0.50055415  0.24887150  0.00464314  1
  Te  Te53  1  0.49244879  0.24974647  0.49828160  1
  Te  Te54  1  0.50091463  0.75113339  0.00714480  1
  Te  Te55  1  0.49812084  0.75185446  0.49666321  1
  Te  Te56  1  0.00797004  0.00353622  0.25098710  1
  Te  Te57  1  0.00288562  0.00410936  0.75212447  1
  Te  Te58  1  0.00005967  0.49381971  0.24875674  1
  Te  Te59  1  0.00112982  0.49788101  0.75047235  1
  Te  Te60  1  0.49791270  0.00142221  0.24961263  1
  Te  Te61  1  0.49785307  0.00286352  0.74629589  1
  Te  Te62  1  0.50129798  0.49836763  0.24792566  1
  Te  Te63  1  0.49794444  0.49212759  0.75097742  1
