# generated using pymatgen
data_AgSbTe2
_symmetry_space_group_name_H-M   'P 1'
_cell_length_a   12.22096461
_cell_length_b   12.22019372
_cell_length_c   12.20985832
_cell_angle_alpha   90.00538217
_cell_angle_beta   90.00197976
_cell_angle_gamma   90.00276050
_symmetry_Int_Tables_number   1
_chemical_formula_structural   AgSbTe2
_chemical_formula_sum   'Ag16 Sb16 Te32'
_cell_volume   1823.45142621
_cell_formula_units_Z   16
loop_
 _symmetry_equiv_pos_site_id
 _symmetry_equiv_pos_as_xyz
  1  'x, y, z'
loop_
 _atom_site_type_symbol
 _atom_site_label
 _atom_site_symmetry_multiplicity
 _atom_site_fract_x
 _atom_site_fract_y
 _atom_site_fract_z
 _atom_site_occupancy
  Ag  Ag0  1  0.25699426  0.74928535  0.50014375  1
  Ag  Ag1  1  0.74898468  0.25071465  -0.00000806  1
  Ag  Ag2  1  0.49999405  0.24401626  0.74432642  1
  Ag  Ag3  1  -0.00143056  0.49827722  0.00362449  1
  Ag  Ag4  1  0.25355461  0.25044960  0.50131996  1
  Ag  Ag5  1  0.25722076  -0.00008550  0.74188142  1
  Ag  Ag6  1  0.49978154  0.74831048  0.25978608  1
  Ag  Ag7  1  0.00191997  -0.00002786  0.50067892  1
  Ag  Ag8  1  0.25092978  0.50144341  0.25818431  1
  Ag  Ag9  1  0.74896762  0.49986377  0.25291183  1
  Ag  Ag10  1  0.00485398  0.50006720  0.49622606  1
  Ag  Ag11  1  0.49557894  0.50427553  0.49717829  1
  Ag  Ag12  1  0.49774999  -0.00396145  0.50564228  1
  Ag  Ag13  1  0.74274157  0.00139717  0.74434608  1
  Ag  Ag14  1  0.49850855  0.75557527  0.74000966  1
  Ag  Ag15  1  0.74673008  0.00014599  0.25520356  1
  Sb  Sb16  1  0.74917939  0.74831258  0.00023954  1
  Sb  Sb17  1  0.25143491  0.25264078  -0.00210148  1
  Sb  Sb18  1  -0.00079353  0.25221710  0.25249560  1
  Sb  Sb19  1  0.25210865  0.50047544  0.74108003  1
  Sb  Sb20  1  0.25158719  0.74842196  -0.00065521  1
  Sb  Sb21  1  0.50109643  0.49881861  0.00383729  1
  Sb  Sb22  1  0.74709549  0.49862600  0.74740580  1
  Sb  Sb23  1  0.50085850  0.25023830  0.25633168  1
  Sb  Sb24  1  0.00034677  0.74776779  0.25513342  1
  Sb  Sb25  1  0.00071022  0.75161214  0.74492145  1
  Sb  Sb26  1  0.25359044  -0.00187702  0.25995954  1
  Sb  Sb27  1  0.74077451  0.75186726  0.49990472  1
  Sb  Sb28  1  -0.00243349  0.00173523  0.00110778  1
  Sb  Sb29  1  0.74625681  0.24750681  0.50107617  1
  Sb  Sb30  1  0.50161600  0.00083291  -0.00534812  1
  Sb  Sb31  1  0.00015755  0.24897350  0.74729971  1
  Te  Te32  1  0.25075841  0.25441656  0.25462781  1
  Te  Te33  1  0.25523293  0.24638683  0.74642397  1
  Te  Te34  1  0.25611344  0.74721039  0.25382260  1
  Te  Te35  1  0.25583424  0.75367536  0.74613075  1
  Te  Te36  1  0.74901985  0.25027033  0.24590936  1
  Te  Te37  1  0.74503027  0.24668464  0.75236959  1
  Te  Te38  1  0.74345929  0.74955583  0.24959811  1
  Te  Te39  1  0.74285866  0.75638048  0.75093913  1
  Te  Te40  1  0.24655008  0.00141320  -0.00811754  1
  Te  Te41  1  0.25110918  0.00013096  0.50059842  1
  Te  Te42  1  0.24466396  0.49846065  0.00824978  1
  Te  Te43  1  0.25039208  0.50026711  0.49852578  1
  Te  Te44  1  0.75241749  0.00476708  0.00176889  1
  Te  Te45  1  0.75001923  0.00141901  0.49949754  1
  Te  Te46  1  0.75306490  0.49677379  0.00408183  1
  Te  Te47  1  0.75103948  0.49841583  0.49544919  1
  Te  Te48  1  -0.00499867  0.25595535  -0.00134398  1
  Te  Te49  1  0.00690616  0.25088514  0.50109017  1
  Te  Te50  1  0.00084718  0.74089348  -0.00130588  1
  Te  Te51  1  0.00937433  0.74886098  0.50065100  1
  Te  Te52  1  0.50412999  0.25087983  -0.00937696  1
  Te  Te53  1  0.49660600  0.24951977  0.50410991  1
  Te  Te54  1  0.49879616  0.74947299  -0.00025013  1
  Te  Te55  1  0.49784554  0.75024294  0.50031585  1
  Te  Te56  1  -0.00614291  -0.00150984  0.25569857  1
  Te  Te57  1  -0.00225808  -0.00064840  0.74400111  1
  Te  Te58  1  -0.00219163  0.50105604  0.25546379  1
  Te  Te59  1  -0.00046673  0.50063426  0.74596703  1
  Te  Te60  1  0.50333979  -0.00241048  0.25392843  1
  Te  Te61  1  0.50131626  -0.00107188  0.74851802  1
  Te  Te62  1  0.50186600  0.50119716  0.25362227  1
  Te  Te63  1  0.50080146  0.50189816  0.74489260  1
