# generated using pymatgen
data_AgSbTe2
_symmetry_space_group_name_H-M   'P 1'
_cell_length_a   12.22154222
_cell_length_b   12.21835817
_cell_length_c   12.21487134
_cell_angle_alpha   90.00560150
_cell_angle_beta   89.99249236
_cell_angle_gamma   90.00243393
_symmetry_Int_Tables_number   1
_chemical_formula_structural   AgSbTe2
_chemical_formula_sum   'Ag16 Sb16 Te32'
_cell_volume   1824.01226813
_cell_formula_units_Z   16
loop_
 _symmetry_equiv_pos_site_id
 _symmetry_equiv_pos_as_xyz
  1  'x, y, z'
loop_
 _atom_site_type_symbol
 _atom_site_label
 _atom_site_symmetry_multiplicity
 _atom_site_fract_x
 _atom_site_fract_y
 _atom_site_fract_z
 _atom_site_occupancy
  Ag  Ag0  1  0.24925720  0.50169051  0.24501828  1
  Ag  Ag1  1  0.00240892  0.24377374  0.24959744  1
  Ag  Ag2  1  -0.00358278  -0.00181331  0.49267940  1
  Ag  Ag3  1  0.25259903  0.00073698  0.75161313  1
  Ag  Ag4  1  0.74751013  -0.00151651  0.74603585  1
  Ag  Ag5  1  0.24431876  -0.00150326  0.24803321  1
  Ag  Ag6  1  0.75100626  0.50719448  0.24798981  1
  Ag  Ag7  1  0.49827322  0.50066352  0.00331091  1
  Ag  Ag8  1  0.25165855  0.24748611  0.00397826  1
  Ag  Ag9  1  0.49879507  0.24449289  0.75180130  1
  Ag  Ag10  1  0.50337415  -0.00050879  0.50047670  1
  Ag  Ag11  1  0.75535445  -0.00747461  0.25407372  1
  Ag  Ag12  1  0.74996019  0.75225121  0.00865686  1
  Ag  Ag13  1  0.25034346  0.75235966  0.00606844  1
  Ag  Ag14  1  -0.00392827  0.75584099  0.24967272  1
  Ag  Ag15  1  0.75132574  0.75745126  0.49163909  1
  Sb  Sb16  1  0.50536962  0.75226952  0.24884354  1
  Sb  Sb17  1  0.74874946  0.24785098  0.00270126  1
  Sb  Sb18  1  0.49725815  0.24732194  0.24804601  1
  Sb  Sb19  1  0.50227296  0.50041557  0.49731614  1
  Sb  Sb20  1  0.74678649  0.50233461  0.75206918  1
  Sb  Sb21  1  0.25341883  0.49870758  0.75640137  1
  Sb  Sb22  1  0.24976829  0.24649819  0.49577399  1
  Sb  Sb23  1  0.49970135  0.75617599  0.75083325  1
  Sb  Sb24  1  0.00182966  -0.00059937  0.00979256  1
  Sb  Sb25  1  0.00102535  0.24317600  0.75134509  1
  Sb  Sb26  1  -0.00150053  0.50211336  0.49410302  1
  Sb  Sb27  1  0.24874046  0.75470933  0.49156706  1
  Sb  Sb28  1  0.00096802  0.75520194  0.75001592  1
  Sb  Sb29  1  0.49764714  -0.00020323  -0.00117416  1
  Sb  Sb30  1  0.00089350  0.50122489  0.00453600  1
  Sb  Sb31  1  0.74992673  0.24102625  0.49790386  1
  Te  Te32  1  0.24743851  0.24788268  0.24644634  1
  Te  Te33  1  0.25161797  0.24614656  0.75529950  1
  Te  Te34  1  0.24656024  0.75231522  0.24681518  1
  Te  Te35  1  0.24865678  0.75550159  0.75858847  1
  Te  Te36  1  0.75491362  0.24984204  0.24819440  1
  Te  Te37  1  0.74756348  0.24394849  0.75125457  1
  Te  Te38  1  0.75082479  0.75200558  0.24748370  1
  Te  Te39  1  0.75064683  0.75468152  0.75292531  1
  Te  Te40  1  0.25142210  -0.00181325  0.00186764  1
  Te  Te41  1  0.25112180  -0.00160956  0.49899245  1
  Te  Te42  1  0.25296817  0.50214974  0.00429534  1
  Te  Te43  1  0.25158369  0.50163503  0.49130813  1
  Te  Te44  1  0.74833377  -0.00415597  0.00106492  1
  Te  Te45  1  0.74949315  -0.00230379  0.49798208  1
  Te  Te46  1  0.74627489  0.50416529  0.00405791  1
  Te  Te47  1  0.74790275  0.50895367  0.49424507  1
  Te  Te48  1  0.00726570  0.25028520  0.00605417  1
  Te  Te49  1  -0.00006013  0.24387675  0.49335710  1
  Te  Te50  1  -0.00045732  0.74994452  0.00555745  1
  Te  Te51  1  -0.00452956  0.75478745  0.49486768  1
  Te  Te52  1  0.49565960  0.25369894  -0.00273615  1
  Te  Te53  1  0.49976546  0.24483936  0.50681123  1
  Te  Te54  1  0.49941321  0.74468868  -0.00106876  1
  Te  Te55  1  0.50601364  0.75560904  0.50157967  1
  Te  Te56  1  0.00038025  -0.00138499  0.25203761  1
  Te  Te57  1  -0.00010434  0.00094996  0.74028359  1
  Te  Te58  1  -0.00038812  0.50072599  0.25156696  1
  Te  Te59  1  -0.00025518  0.49801804  0.74650240  1
  Te  Te60  1  0.49970589  0.00271188  0.25479151  1
  Te  Te61  1  0.49932420  0.00383462  0.74811317  1
  Te  Te62  1  0.49956563  0.49740388  0.24662352  1
  Te  Te63  1  0.49984899  0.49131744  0.75411859  1
