# generated using pymatgen
data_AgSbTe2
_symmetry_space_group_name_H-M   'P 1'
_cell_length_a   12.20400738
_cell_length_b   12.20511667
_cell_length_c   12.20394890
_cell_angle_alpha   89.99436810
_cell_angle_beta   90.00224559
_cell_angle_gamma   89.99571876
_symmetry_Int_Tables_number   1
_chemical_formula_structural   AgSbTe2
_chemical_formula_sum   'Ag16 Sb16 Te32'
_cell_volume   1817.79445288
_cell_formula_units_Z   16
loop_
 _symmetry_equiv_pos_site_id
 _symmetry_equiv_pos_as_xyz
  1  'x, y, z'
loop_
 _atom_site_type_symbol
 _atom_site_label
 _atom_site_symmetry_multiplicity
 _atom_site_fract_x
 _atom_site_fract_y
 _atom_site_fract_z
 _atom_site_occupancy
  Ag  Ag0  1  -0.00273204  0.49908141  0.49997266  1
  Ag  Ag1  1  0.25069789  -0.00243260  0.75500039  1
  Ag  Ag2  1  0.50223697  0.74763460  0.24385063  1
  Ag  Ag3  1  0.50073902  -0.00569921  0.00002463  1
  Ag  Ag4  1  -0.00090252  0.25059690  0.75091901  1
  Ag  Ag5  1  0.49659163  0.74729852  0.75645414  1
  Ag  Ag6  1  0.74985393  0.24879921  0.00096738  1
  Ag  Ag7  1  0.50290966  0.50135225  0.50004223  1
  Ag  Ag8  1  0.75082429  0.25401458  0.49903992  1
  Ag  Ag9  1  0.50081637  0.50607856  -0.00026207  1
  Ag  Ag10  1  0.25261641  0.50242046  0.75166522  1
  Ag  Ag11  1  0.25532625  0.75118165  -0.00263913  1
  Ag  Ag12  1  -0.00250697  0.74954347  0.24722489  1
  Ag  Ag13  1  -0.00127027  -0.00117841  0.00029793  1
  Ag  Ag14  1  0.74959663  -0.00096627  0.24561505  1
  Ag  Ag15  1  0.74770910  0.50103605  0.25078569  1
  Sb  Sb16  1  0.24925836  0.24859890  -0.00315552  1
  Sb  Sb17  1  0.74979976  0.74455359  0.49600743  1
  Sb  Sb18  1  0.50438056  0.25322345  0.24905414  1
  Sb  Sb19  1  -0.00516577  0.25126543  0.24839543  1
  Sb  Sb20  1  0.50044736  0.25226531  0.75145851  1
  Sb  Sb21  1  0.74741323  0.49844599  0.74944703  1
  Sb  Sb22  1  0.74887914  0.00162302  0.75607297  1
  Sb  Sb23  1  0.74268929  0.75069714  0.00415844  1
  Sb  Sb24  1  0.25071424  0.74848675  0.50396636  1
  Sb  Sb25  1  0.25250738  0.50378709  0.24711465  1
  Sb  Sb26  1  0.50324361  -0.00162659  0.49956568  1
  Sb  Sb27  1  0.25108357  -0.00437544  0.24394545  1
  Sb  Sb28  1  -0.00184890  0.50165178  0.00024360  1
  Sb  Sb29  1  -0.00319490  0.00126546  0.49938061  1
  Sb  Sb30  1  0.24869614  0.25291463  0.50303574  1
  Sb  Sb31  1  0.00391043  0.74969157  0.75369345  1
  Te  Te32  1  0.24886871  0.24907752  0.25054156  1
  Te  Te33  1  0.24384997  0.25086113  0.75058343  1
  Te  Te34  1  0.25083799  0.75017633  0.24346565  1
  Te  Te35  1  0.25327176  0.74898868  0.75424375  1
  Te  Te36  1  0.75101001  0.25059191  0.24907004  1
  Te  Te37  1  0.75588801  0.24968732  0.75074563  1
  Te  Te38  1  0.74952928  0.74918755  0.24989107  1
  Te  Te39  1  0.74227886  0.75108819  0.74830142  1
  Te  Te40  1  0.25122406  -0.00181753  -0.00398799  1
  Te  Te41  1  0.25021670  0.00086470  0.50982954  1
  Te  Te42  1  0.25452319  0.50297599  -0.00419556  1
  Te  Te43  1  0.25084031  0.49923852  0.50572628  1
  Te  Te44  1  0.74955804  0.00386011  0.00398730  1
  Te  Te45  1  0.74978767  0.00903307  0.49176607  1
  Te  Te46  1  0.74634538  0.49478993  0.00415973  1
  Te  Te47  1  0.74915089  0.49571425  0.49708896  1
  Te  Te48  1  -0.00428214  0.24620664  -0.00350177  1
  Te  Te49  1  -0.00461206  0.25411190  0.50420318  1
  Te  Te50  1  0.00495370  0.75349573  0.00283676  1
  Te  Te51  1  0.00042005  0.74419326  0.49447683  1
  Te  Te52  1  0.50545026  0.24927103  -0.00121350  1
  Te  Te53  1  0.50668432  0.25691549  0.50054125  1
  Te  Te54  1  0.49974432  0.74986230  0.00076168  1
  Te  Te55  1  0.49949204  0.74461750  0.49863681  1
  Te  Te56  1  -0.00316942  -0.00476850  0.24691474  1
  Te  Te57  1  0.00341082  0.00096342  0.75321023  1
  Te  Te58  1  -0.00350727  0.50391878  0.25279907  1
  Te  Te59  1  0.00356010  0.49871299  0.74742697  1
  Te  Te60  1  0.50278953  -0.00599403  0.24686288  1
  Te  Te61  1  0.49660162  -0.00314302  0.75312436  1
  Te  Te62  1  0.50267483  0.50382174  0.24962654  1
  Te  Te63  1  0.49728865  0.50226788  0.75073454  1
