# generated using pymatgen
data_AgSbTe2
_symmetry_space_group_name_H-M   'P 1'
_cell_length_a   12.29890554
_cell_length_b   12.31091163
_cell_length_c   12.31365222
_cell_angle_alpha   90.00609863
_cell_angle_beta   89.99432652
_cell_angle_gamma   90.00204176
_symmetry_Int_Tables_number   1
_chemical_formula_structural   AgSbTe2
_chemical_formula_sum   'Ag16 Sb16 Te32'
_cell_volume   1864.41916434
_cell_formula_units_Z   16
loop_
 _symmetry_equiv_pos_site_id
 _symmetry_equiv_pos_as_xyz
  1  'x, y, z'
loop_
 _atom_site_type_symbol
 _atom_site_label
 _atom_site_symmetry_multiplicity
 _atom_site_fract_x
 _atom_site_fract_y
 _atom_site_fract_z
 _atom_site_occupancy
  Ag  Ag0  1  0.25167673  0.23475366  0.52036881  1
  Ag  Ag1  1  0.24740282  0.01400081  0.74234207  1
  Ag  Ag2  1  0.75177560  0.24365524  -0.00729817  1
  Ag  Ag3  1  0.24763986  0.47860576  0.75047815  1
  Ag  Ag4  1  0.00695174  0.75616565  0.24981955  1
  Ag  Ag5  1  0.01078259  0.75934758  0.74977953  1
  Ag  Ag6  1  0.24559905  0.76333581  -0.01357130  1
  Ag  Ag7  1  0.75250179  0.00050620  0.24961851  1
  Ag  Ag8  1  0.47924701  0.24300060  0.74916752  1
  Ag  Ag9  1  0.01532203  0.23922946  0.75198114  1
  Ag  Ag10  1  0.49197375  0.00243207  0.50433711  1
  Ag  Ag11  1  0.24926065  0.24177264  -0.01634733  1
  Ag  Ag12  1  0.24705165  0.76432545  0.51228754  1
  Ag  Ag13  1  0.75295964  0.00897335  0.75086985  1
  Ag  Ag14  1  0.24800511  -0.00218943  0.25727726  1
  Ag  Ag15  1  0.75415006  0.49747194  0.24728594  1
  Sb  Sb16  1  0.00544444  -0.00011399  0.50118314  1
  Sb  Sb17  1  0.75237061  0.49610955  0.75041289  1
  Sb  Sb18  1  0.75512394  0.75523760  -0.00168740  1
  Sb  Sb19  1  0.49542725  0.49814287  0.50281015  1
  Sb  Sb20  1  0.75437979  0.75565508  0.50003995  1
  Sb  Sb21  1  0.49809591  0.49735922  -0.00150513  1
  Sb  Sb22  1  0.48864463  0.75607447  0.74768817  1
  Sb  Sb23  1  0.49927244  0.24709675  0.25047360  1
  Sb  Sb24  1  0.49645684  0.75363101  0.25111887  1
  Sb  Sb25  1  0.00180189  0.50049453  0.50163861  1
  Sb  Sb26  1  0.00182230  0.24598218  0.24852886  1
  Sb  Sb27  1  0.00455399  -0.00005063  -0.00252582  1
  Sb  Sb28  1  0.75132920  0.24512909  0.50361782  1
  Sb  Sb29  1  0.00066782  0.49924634  -0.00067345  1
  Sb  Sb30  1  0.49695111  0.00094166  -0.00190574  1
  Sb  Sb31  1  0.24807474  0.50102605  0.24946130  1
  Te  Te32  1  0.24733784  0.24873321  0.24574719  1
  Te  Te33  1  0.24853171  0.25030389  0.74990194  1
  Te  Te34  1  0.24758563  0.74933661  0.24958673  1
  Te  Te35  1  0.24924707  0.75919190  0.75067677  1
  Te  Te36  1  0.75222007  0.23861165  0.24926953  1
  Te  Te37  1  0.75824920  0.24769477  0.75100408  1
  Te  Te38  1  0.75373088  0.76340497  0.24925090  1
  Te  Te39  1  0.75846200  0.74997572  0.75265878  1
  Te  Te40  1  0.25048588  0.00261407  0.00257411  1
  Te  Te41  1  0.25008165  0.00156228  0.49814413  1
  Te  Te42  1  0.24926525  0.49167150  -0.00212459  1
  Te  Te43  1  0.25000283  0.49926731  0.50074791  1
  Te  Te44  1  0.74753585  0.00322357  -0.00161063  1
  Te  Te45  1  0.74025009  -0.00117249  0.50160306  1
  Te  Te46  1  0.75022147  0.49322096  0.00520681  1
  Te  Te47  1  0.74911621  0.50170219  0.49183715  1
  Te  Te48  1  0.00164005  0.24944300  -0.00227291  1
  Te  Te49  1  0.00514051  0.24980683  0.50598631  1
  Te  Te50  1  0.00507832  0.75082749  -0.00260059  1
  Te  Te51  1  0.00367932  0.74986430  0.50359373  1
  Te  Te52  1  0.49649657  0.25055599  -0.00313227  1
  Te  Te53  1  0.49708288  0.24917801  0.50077186  1
  Te  Te54  1  0.48605615  0.74892712  -0.00060106  1
  Te  Te55  1  0.49152694  0.75355620  0.50097252  1
  Te  Te56  1  0.00182778  -0.00377109  0.25131205  1
  Te  Te57  1  -0.00135079  -0.00043550  0.74970765  1
  Te  Te58  1  -0.00626279  0.50800840  0.24989673  1
  Te  Te59  1  0.00355471  0.50379075  0.75020625  1
  Te  Te60  1  0.49707839  0.00002599  0.25656294  1
  Te  Te61  1  0.50212536  0.00148618  0.74812182  1
  Te  Te62  1  0.51208434  0.50087183  0.25057441  1
  Te  Te63  1  0.49920167  0.49117384  0.74935471  1
