# generated using pymatgen
data_AgSbTe2
_symmetry_space_group_name_H-M   'P 1'
_cell_length_a   12.21025720
_cell_length_b   12.20829455
_cell_length_c   12.21060826
_cell_angle_alpha   89.99977243
_cell_angle_beta   89.99792089
_cell_angle_gamma   90.00120879
_symmetry_Int_Tables_number   1
_chemical_formula_structural   AgSbTe2
_chemical_formula_sum   'Ag16 Sb16 Te32'
_cell_volume   1820.19161415
_cell_formula_units_Z   16
loop_
 _symmetry_equiv_pos_site_id
 _symmetry_equiv_pos_as_xyz
  1  'x, y, z'
loop_
 _atom_site_type_symbol
 _atom_site_label
 _atom_site_symmetry_multiplicity
 _atom_site_fract_x
 _atom_site_fract_y
 _atom_site_fract_z
 _atom_site_occupancy
  Ag  Ag0  1  -0.00571060  0.75023672  0.75011663  1
  Ag  Ag1  1  0.50122688  0.25351190  0.75015661  1
  Ag  Ag2  1  0.75113609  -0.00527856  0.75195931  1
  Ag  Ag3  1  -0.00119539  0.24643457  0.24709038  1
  Ag  Ag4  1  0.75272062  0.75240925  -0.00350285  1
  Ag  Ag5  1  -0.00299061  0.00017030  0.00224371  1
  Ag  Ag6  1  0.75237319  0.00071946  0.24763903  1
  Ag  Ag7  1  0.25230015  0.50057579  0.74810317  1
  Ag  Ag8  1  0.24845075  0.00330875  0.24860187  1
  Ag  Ag9  1  0.25001640  0.74828600  0.50177171  1
  Ag  Ag10  1  0.50272965  0.50013319  0.50217458  1
  Ag  Ag11  1  0.50136852  0.25023473  0.24970482  1
  Ag  Ag12  1  0.74844731  0.49957786  0.25209439  1
  Ag  Ag13  1  0.24979338  0.24870711  0.00209081  1
  Ag  Ag14  1  0.75010834  0.74769188  0.50372927  1
  Ag  Ag15  1  0.74759161  0.50506385  0.74765298  1
  Sb  Sb16  1  0.25180699  0.49715075  0.25192997  1
  Sb  Sb17  1  0.50190411  -0.00032988  0.49974924  1
  Sb  Sb18  1  -0.00075660  0.24977498  0.75312626  1
  Sb  Sb19  1  0.24695984  0.75106886  -0.00199372  1
  Sb  Sb20  1  0.74784770  0.25396534  0.49873117  1
  Sb  Sb21  1  -0.00331080  0.75311547  0.24893639  1
  Sb  Sb22  1  0.24926441  -0.00064100  0.75100980  1
  Sb  Sb23  1  0.75124916  0.24724657  0.00230561  1
  Sb  Sb24  1  0.50676866  0.74588902  0.74769782  1
  Sb  Sb25  1  -0.00141491  -0.00202403  0.49745321  1
  Sb  Sb26  1  0.50371259  0.00213361  0.00024685  1
  Sb  Sb27  1  0.25268233  0.25163307  0.49862253  1
  Sb  Sb28  1  -0.00344098  0.50257568  0.50015273  1
  Sb  Sb29  1  -0.00177041  0.49991750  0.00031200  1
  Sb  Sb30  1  0.50148669  0.49712193  -0.00273797  1
  Sb  Sb31  1  0.50271028  0.74859629  0.25255758  1
  Te  Te32  1  0.25150834  0.24855310  0.24826533  1
  Te  Te33  1  0.25149135  0.25243283  0.75224752  1
  Te  Te34  1  0.24932991  0.75347527  0.25284729  1
  Te  Te35  1  0.24639771  0.74768788  0.74845474  1
  Te  Te36  1  0.74829783  0.24863277  0.24888157  1
  Te  Te37  1  0.74764096  0.25140058  0.75054965  1
  Te  Te38  1  0.75112049  0.75079317  0.25130330  1
  Te  Te39  1  0.75028333  0.74915386  0.74833527  1
  Te  Te40  1  0.24549382  0.00179344  0.00402033  1
  Te  Te41  1  0.25078854  -0.00694609  0.49481516  1
  Te  Te42  1  0.24944303  0.49716730  -0.00507334  1
  Te  Te43  1  0.25427637  0.50478216  0.50368520  1
  Te  Te44  1  0.75315831  -0.00231753  0.00172890  1
  Te  Te45  1  0.74892528  -0.00769657  0.49907780  1
  Te  Te46  1  0.75089271  0.50489094  -0.00056549  1
  Te  Te47  1  0.74726432  0.50378154  0.50093239  1
  Te  Te48  1  0.00421064  0.24497087  0.00433735  1
  Te  Te49  1  0.00074928  0.24999099  0.49113260  1
  Te  Te50  1  -0.00460028  0.75490836  -0.00440470  1
  Te  Te51  1  -0.00085289  0.74982721  0.50594012  1
  Te  Te52  1  0.49397863  0.24985173  0.00090169  1
  Te  Te53  1  0.49958028  0.25607680  0.50002070  1
  Te  Te54  1  0.50761190  0.75014539  0.00037350  1
  Te  Te55  1  0.50053440  0.74396100  0.49995058  1
  Te  Te56  1  -0.00295505  0.00242849  0.24728936  1
  Te  Te57  1  -0.00454231  -0.00146716  0.75401298  1
  Te  Te58  1  -0.00596699  0.49422295  0.24943534  1
  Te  Te59  1  -0.00209960  0.50183591  0.75030723  1
  Te  Te60  1  0.50169416  0.00720959  0.25062329  1
  Te  Te61  1  0.50568832  0.00880091  0.74924248  1
  Te  Te62  1  0.50435995  0.49451862  0.25391066  1
  Te  Te63  1  0.50223191  0.49615672  0.74769531  1
