# generated using pymatgen
data_AgSbTe2
_symmetry_space_group_name_H-M   'P 1'
_cell_length_a   12.22322152
_cell_length_b   12.22468117
_cell_length_c   12.22392204
_cell_angle_alpha   90.00759406
_cell_angle_beta   89.99937668
_cell_angle_gamma   89.99446538
_symmetry_Int_Tables_number   1
_chemical_formula_structural   AgSbTe2
_chemical_formula_sum   'Ag16 Sb16 Te32'
_cell_volume   1826.55935369
_cell_formula_units_Z   16
loop_
 _symmetry_equiv_pos_site_id
 _symmetry_equiv_pos_as_xyz
  1  'x, y, z'
loop_
 _atom_site_type_symbol
 _atom_site_label
 _atom_site_symmetry_multiplicity
 _atom_site_fract_x
 _atom_site_fract_y
 _atom_site_fract_z
 _atom_site_occupancy
  Ag  Ag0  1  0.49286246  -0.01460042  -0.00037560  1
  Ag  Ag1  1  0.24971805  0.50740767  0.75382552  1
  Ag  Ag2  1  0.00624136  0.74921168  0.24514049  1
  Ag  Ag3  1  0.00726398  0.74621962  0.75503708  1
  Ag  Ag4  1  0.00692524  0.25128975  0.24949454  1
  Ag  Ag5  1  0.49231602  0.74743504  0.76444913  1
  Ag  Ag6  1  0.24725731  0.25187453  0.49901010  1
  Ag  Ag7  1  0.75038463  0.50523140  0.75332409  1
  Ag  Ag8  1  0.49574993  0.51432886  -0.00316090  1
  Ag  Ag9  1  0.25123896  -0.00694901  0.75790207  1
  Ag  Ag10  1  0.73691950  0.74801567  -0.00248749  1
  Ag  Ag11  1  0.25026723  0.24717399  0.00071727  1
  Ag  Ag12  1  0.49303092  0.75072509  0.23473019  1
  Ag  Ag13  1  0.00379680  0.50099066  0.50208291  1
  Ag  Ag14  1  0.25006106  -0.00323071  0.24258565  1
  Ag  Ag15  1  0.26263034  0.75270159  -0.00377112  1
  Sb  Sb16  1  0.74945284  -0.00342086  0.24551164  1
  Sb  Sb17  1  0.49469947  0.50198730  0.50388913  1
  Sb  Sb18  1  0.75228045  0.74696686  0.50353668  1
  Sb  Sb19  1  0.75505476  0.25489154  0.50021457  1
  Sb  Sb20  1  0.74835503  -0.00784363  0.75561544  1
  Sb  Sb21  1  0.01081306  -0.00500204  0.00019799  1
  Sb  Sb22  1  0.00532569  -0.00068115  0.49999899  1
  Sb  Sb23  1  0.49056720  0.24855815  0.24547424  1
  Sb  Sb24  1  0.00580498  0.50490206  -0.00322596  1
  Sb  Sb25  1  0.75146192  0.50340293  0.24461236  1
  Sb  Sb26  1  0.75084344  0.25301704  -0.00048171  1
  Sb  Sb27  1  0.00589957  0.25443087  0.75090745  1
  Sb  Sb28  1  0.49546810  0.25268511  0.75297329  1
  Sb  Sb29  1  0.49415525  -0.00213814  0.50118183  1
  Sb  Sb30  1  0.24831869  0.74631489  0.50443919  1
  Sb  Sb31  1  0.24874099  0.50502457  0.24523412  1
  Te  Te32  1  0.24668299  0.24722433  0.24679751  1
  Te  Te33  1  0.24856131  0.24893766  0.75353800  1
  Te  Te34  1  0.24864736  0.75103626  0.24978819  1
  Te  Te35  1  0.24975149  0.74980396  0.74841393  1
  Te  Te36  1  0.76154807  0.24925167  0.24965374  1
  Te  Te37  1  0.75130488  0.25901376  0.75062349  1
  Te  Te38  1  0.75265804  0.75042694  0.24371017  1
  Te  Te39  1  0.75095024  0.74640083  0.75370848  1
  Te  Te40  1  0.25202176  -0.00159494  -0.00069327  1
  Te  Te41  1  0.24988499  0.00918506  0.50008685  1
  Te  Te42  1  0.25298609  0.50170906  -0.00398358  1
  Te  Te43  1  0.24671028  0.49474132  0.50711386  1
  Te  Te44  1  0.73769796  -0.00511457  -0.00108380  1
  Te  Te45  1  0.74921767  0.00251729  0.50112971  1
  Te  Te46  1  0.74300454  0.50351524  -0.00514619  1
  Te  Te47  1  0.75642999  0.49889880  0.50910062  1
  Te  Te48  1  0.00502436  0.25078870  0.00545779  1
  Te  Te49  1  0.00455128  0.25419963  0.49566898  1
  Te  Te50  1  0.00206969  0.74943850  0.00082407  1
  Te  Te51  1  -0.00062974  0.74523540  0.49794981  1
  Te  Te52  1  0.49473288  0.25043901  0.00143327  1
  Te  Te53  1  0.49207310  0.25042805  0.49850261  1
  Te  Te54  1  0.49685454  0.74899625  -0.00040377  1
  Te  Te55  1  0.50098885  0.74901541  0.49854359  1
  Te  Te56  1  0.00534392  -0.00392860  0.24990437  1
  Te  Te57  1  0.00526930  -0.00799518  0.74962786  1
  Te  Te58  1  -0.00004388  0.50335464  0.25526374  1
  Te  Te59  1  0.00325006  0.50390923  0.74824717  1
  Te  Te60  1  0.49511697  -0.00485322  0.24676673  1
  Te  Te61  1  0.49577597  -0.00524343  0.75307014  1
  Te  Te62  1  0.50074484  0.50618514  0.24601131  1
  Te  Te63  1  0.49691495  0.50315693  0.75179146  1
