# generated using pymatgen
data_AgSbTe2
_symmetry_space_group_name_H-M   'P 1'
_cell_length_a   12.21130117
_cell_length_b   12.21554291
_cell_length_c   12.21523292
_cell_angle_alpha   89.99925828
_cell_angle_beta   89.99516571
_cell_angle_gamma   89.99759563
_symmetry_Int_Tables_number   1
_chemical_formula_structural   AgSbTe2
_chemical_formula_sum   'Ag16 Sb16 Te32'
_cell_volume   1822.11786583
_cell_formula_units_Z   16
loop_
 _symmetry_equiv_pos_site_id
 _symmetry_equiv_pos_as_xyz
  1  'x, y, z'
loop_
 _atom_site_type_symbol
 _atom_site_label
 _atom_site_symmetry_multiplicity
 _atom_site_fract_x
 _atom_site_fract_y
 _atom_site_fract_z
 _atom_site_occupancy
  Ag  Ag0  1  0.24859204  0.00282254  0.74808166  1
  Ag  Ag1  1  0.23550838  0.24547217  0.50114562  1
  Ag  Ag2  1  -0.00323783  0.24716745  0.73742472  1
  Ag  Ag3  1  0.75091527  0.00070544  0.74988565  1
  Ag  Ag4  1  -0.00028299  0.24850282  0.26263989  1
  Ag  Ag5  1  -0.00119004  0.01380255  0.50294653  1
  Ag  Ag6  1  0.75244261  0.75317295  0.50525391  1
  Ag  Ag7  1  0.76460423  0.24707989  0.50389079  1
  Ag  Ag8  1  0.50500546  0.75378635  0.75328998  1
  Ag  Ag9  1  0.50518126  0.50040415  -0.00268456  1
  Ag  Ag10  1  -0.00265215  0.48562123  0.50154297  1
  Ag  Ag11  1  0.74792149  0.75110680  -0.00554331  1
  Ag  Ag12  1  0.75350500  0.24942614  -0.00372201  1
  Ag  Ag13  1  -0.00484753  0.49575849  -0.00151108  1
  Ag  Ag14  1  0.50374148  -0.00085429  -0.00420936  1
  Ag  Ag15  1  0.24743443  0.00388682  0.25214968  1
  Sb  Sb16  1  0.50198362  -0.00024502  0.50538512  1
  Sb  Sb17  1  -0.00585191  0.00613457  -0.00369485  1
  Sb  Sb18  1  0.50177651  0.75266232  0.24531097  1
  Sb  Sb19  1  0.24763497  0.49445074  0.74867791  1
  Sb  Sb20  1  -0.00093945  0.75349385  0.24982025  1
  Sb  Sb21  1  0.50462349  0.24477470  0.75283017  1
  Sb  Sb22  1  0.25195288  0.75262602  -0.00346513  1
  Sb  Sb23  1  0.24604813  0.75629180  0.50419457  1
  Sb  Sb24  1  0.49954943  0.24721450  0.24756990  1
  Sb  Sb25  1  0.75395567  0.00325898  0.25095261  1
  Sb  Sb26  1  0.24617350  0.49365075  0.25177111  1
  Sb  Sb27  1  0.24400138  0.24710700  -0.00230922  1
  Sb  Sb28  1  0.50419785  0.49989772  0.50459231  1
  Sb  Sb29  1  0.75180597  0.49782213  0.75260812  1
  Sb  Sb30  1  0.75291854  0.49702321  0.24759584  1
  Sb  Sb31  1  -0.00745613  0.75470387  0.74969573  1
  Te  Te32  1  0.24463445  0.24392932  0.25548818  1
  Te  Te33  1  0.24509276  0.24358808  0.74586413  1
  Te  Te34  1  0.25012133  0.76203500  0.25082899  1
  Te  Te35  1  0.25859318  0.76094293  0.74863529  1
  Te  Te36  1  0.75625545  0.24857208  0.25055614  1
  Te  Te37  1  0.75249977  0.24563817  0.74997847  1
  Te  Te38  1  0.74992595  0.75133354  0.25055813  1
  Te  Te39  1  0.74765655  0.75566099  0.75094233  1
  Te  Te40  1  0.25571994  0.00057657  -0.00261665  1
  Te  Te41  1  0.24824561  0.00258496  0.50246369  1
  Te  Te42  1  0.24891595  0.50010113  0.00037530  1
  Te  Te43  1  0.24281103  0.49325776  0.49944714  1
  Te  Te44  1  0.74841416  0.00028782  -0.00229180  1
  Te  Te45  1  0.75139502  0.00134833  0.50206907  1
  Te  Te46  1  0.75100160  0.49922438  -0.00044820  1
  Te  Te47  1  0.75526643  0.49864330  0.49991917  1
  Te  Te48  1  -0.00415292  0.25328840  -0.00078086  1
  Te  Te49  1  -0.00165217  0.24937819  0.50095345  1
  Te  Te50  1  -0.00845479  0.74017085  0.00035555  1
  Te  Te51  1  -0.00660359  0.74939885  0.50010840  1
  Te  Te52  1  0.50792503  0.25059951  -0.00021805  1
  Te  Te53  1  0.50192007  0.25328380  0.49972777  1
  Te  Te54  1  0.50521585  0.75056771  -0.00315683  1
  Te  Te55  1  0.50929706  0.74722672  0.50634629  1
  Te  Te56  1  0.00496951  0.00452949  0.25495356  1
  Te  Te57  1  -0.00091581  0.00311185  0.74739135  1
  Te  Te58  1  0.00177187  0.49277848  0.24999367  1
  Te  Te59  1  0.00150381  0.49339885  0.74996494  1
  Te  Te60  1  0.49071989  0.00034161  0.24064065  1
  Te  Te61  1  0.50134263  -0.00281276  0.75421866  1
  Te  Te62  1  0.49734041  0.50021240  0.23779830  1
  Te  Te63  1  0.49820843  0.50807305  0.75781728  1
