# generated using pymatgen
data_AgSbTe2
_symmetry_space_group_name_H-M   'P 1'
_cell_length_a   12.21694294
_cell_length_b   12.22484914
_cell_length_c   12.23199296
_cell_angle_alpha   89.99969215
_cell_angle_beta   89.99925195
_cell_angle_gamma   89.99326212
_symmetry_Int_Tables_number   1
_chemical_formula_structural   AgSbTe2
_chemical_formula_sum   'Ag16 Sb16 Te32'
_cell_volume   1826.85161382
_cell_formula_units_Z   16
loop_
 _symmetry_equiv_pos_site_id
 _symmetry_equiv_pos_as_xyz
  1  'x, y, z'
loop_
 _atom_site_type_symbol
 _atom_site_label
 _atom_site_symmetry_multiplicity
 _atom_site_fract_x
 _atom_site_fract_y
 _atom_site_fract_z
 _atom_site_occupancy
  Ag  Ag0  1  0.49594682  0.24737259  0.25469609  1
  Ag  Ag1  1  0.00263990  0.49309553  0.50024237  1
  Ag  Ag2  1  0.49912323  0.00348218  -0.00192647  1
  Ag  Ag3  1  0.00407916  0.24420080  0.74471523  1
  Ag  Ag4  1  0.24516984  0.24656987  0.50055274  1
  Ag  Ag5  1  0.00395445  0.24981129  0.25455235  1
  Ag  Ag6  1  -0.00104976  0.75543721  0.75003481  1
  Ag  Ag7  1  0.49726319  0.49265144  0.49901048  1
  Ag  Ag8  1  0.00291447  0.00681567  0.50605634  1
  Ag  Ag9  1  0.75578893  -0.00035717  0.74988544  1
  Ag  Ag10  1  0.24411424  0.00452835  0.74724448  1
  Ag  Ag11  1  -0.00142669  0.75068498  0.24981137  1
  Ag  Ag12  1  0.49646416  0.00647313  0.50194935  1
  Ag  Ag13  1  0.24556198  0.24675687  -0.00081712  1
  Ag  Ag14  1  0.00082260  0.49841960  -0.00023401  1
  Ag  Ag15  1  0.75543692  0.75302836  -0.00222771  1
  Sb  Sb16  1  0.75440090  0.75269769  0.50267911  1
  Sb  Sb17  1  0.49925909  0.49521055  0.00188374  1
  Sb  Sb18  1  0.75320384  0.50019455  0.25019156  1
  Sb  Sb19  1  0.50096459  0.75397197  0.75000137  1
  Sb  Sb20  1  0.24673924  0.75455458  0.50228623  1
  Sb  Sb21  1  0.75588466  0.24808476  0.50112065  1
  Sb  Sb22  1  0.24582119  0.49494935  0.74808330  1
  Sb  Sb23  1  0.24784624  0.00401041  0.25207039  1
  Sb  Sb24  1  0.75322380  0.24735664  -0.00170244  1
  Sb  Sb25  1  0.75250111  -0.00035351  0.24925585  1
  Sb  Sb26  1  0.75414838  0.49954633  0.75044791  1
  Sb  Sb27  1  0.24545503  0.75366321  -0.00292999  1
  Sb  Sb28  1  0.00141318  0.00157066  -0.00665112  1
  Sb  Sb29  1  0.50118181  0.75169860  0.24996960  1
  Sb  Sb30  1  0.49590663  0.24640695  0.74487527  1
  Sb  Sb31  1  0.24728707  0.49658684  0.25218961  1
  Te  Te32  1  0.24750097  0.24882787  0.25071695  1
  Te  Te33  1  0.24602047  0.24594311  0.74881950  1
  Te  Te34  1  0.24062382  0.75057733  0.24917352  1
  Te  Te35  1  0.24313755  0.75903253  0.75059460  1
  Te  Te36  1  0.75134880  0.24964062  0.24835242  1
  Te  Te37  1  0.75880909  0.24343366  0.75152348  1
  Te  Te38  1  0.75752398  0.75047265  0.24245068  1
  Te  Te39  1  0.75519035  0.75523129  0.75397069  1
  Te  Te40  1  0.25443350  0.00461352  -0.00477279  1
  Te  Te41  1  0.24957009  0.00367593  0.50308197  1
  Te  Te42  1  0.24553298  0.49290310  -0.00193266  1
  Te  Te43  1  0.24783855  0.49299460  0.50161489  1
  Te  Te44  1  0.74497387  -0.00299304  -0.00456161  1
  Te  Te45  1  0.74943310  -0.00142048  0.50602066  1
  Te  Te46  1  0.75443037  0.50620702  -0.00152718  1
  Te  Te47  1  0.75055310  0.50159599  0.50102656  1
  Te  Te48  1  0.00244427  0.25141102  0.00256188  1
  Te  Te49  1  0.00052705  0.24982468  0.49883237  1
  Te  Te50  1  -0.00041369  0.74863150  -0.00026237  1
  Te  Te51  1  0.00040785  0.74895566  0.50024662  1
  Te  Te52  1  0.49693915  0.24989033  0.00305286  1
  Te  Te53  1  0.49698469  0.24770851  0.49892697  1
  Te  Te54  1  0.50310418  0.75219148  0.00234471  1
  Te  Te55  1  0.49928161  0.75153935  0.49745965  1
  Te  Te56  1  -0.00131902  0.00239025  0.25686278  1
  Te  Te57  1  0.00051289  0.00097133  0.74965484  1
  Te  Te58  1  -0.00006965  0.49727896  0.25261926  1
  Te  Te59  1  -0.00043309  0.50006303  0.74740700  1
  Te  Te60  1  0.50149139  0.00340015  0.25266674  1
  Te  Te61  1  0.50007769  -0.00062190  0.74753224  1
  Te  Te62  1  0.50034424  0.49518620  0.25591980  1
  Te  Te63  1  0.50115965  0.50132347  0.74230621  1
