# generated using pymatgen
data_AgSbTe2
_symmetry_space_group_name_H-M   'P 1'
_cell_length_a   12.20938589
_cell_length_b   12.21059725
_cell_length_c   12.21130988
_cell_angle_alpha   89.98824806
_cell_angle_beta   89.99605195
_cell_angle_gamma   89.99317066
_symmetry_Int_Tables_number   1
_chemical_formula_structural   AgSbTe2
_chemical_formula_sum   'Ag16 Sb16 Te32'
_cell_volume   1820.50956872
_cell_formula_units_Z   16
loop_
 _symmetry_equiv_pos_site_id
 _symmetry_equiv_pos_as_xyz
  1  'x, y, z'
loop_
 _atom_site_type_symbol
 _atom_site_label
 _atom_site_symmetry_multiplicity
 _atom_site_fract_x
 _atom_site_fract_y
 _atom_site_fract_z
 _atom_site_occupancy
  Ag  Ag0  1  0.75176682  0.49942801  0.74912131  1
  Ag  Ag1  1  0.24567700  0.00058518  0.74718628  1
  Ag  Ag2  1  0.24418249  0.24631390  0.50068594  1
  Ag  Ag3  1  0.00242333  0.00723124  0.50480976  1
  Ag  Ag4  1  0.50112042  0.50033980  -0.00071905  1
  Ag  Ag5  1  0.75349681  0.49780327  0.25089812  1
  Ag  Ag6  1  -0.00008788  0.24451385  0.74365050  1
  Ag  Ag7  1  0.49835559  0.00295689  0.50365308  1
  Ag  Ag8  1  -0.00006777  0.25049676  0.25763254  1
  Ag  Ag9  1  0.50015905  0.25060453  0.25263066  1
  Ag  Ag10  1  0.00156577  0.00013368  -0.00396245  1
  Ag  Ag11  1  -0.00124793  0.49411550  0.49888368  1
  Ag  Ag12  1  -0.00008118  0.75015406  0.25038704  1
  Ag  Ag13  1  0.75479845  0.00077888  0.74789068  1
  Ag  Ag14  1  0.24866053  0.75181020  -0.00206369  1
  Ag  Ag15  1  0.49988841  0.75196946  0.75051689  1
  Sb  Sb16  1  0.75453222  0.00230422  0.25200211  1
  Sb  Sb17  1  -0.00138488  0.50048769  0.00040997  1
  Sb  Sb18  1  0.24758288  0.49964911  0.74959355  1
  Sb  Sb19  1  0.50053609  0.24879765  0.74675042  1
  Sb  Sb20  1  0.24595556  0.49895474  0.25027839  1
  Sb  Sb21  1  0.75206199  0.75041729  0.50112618  1
  Sb  Sb22  1  0.75150105  0.75028801  -0.00112154  1
  Sb  Sb23  1  0.24711901  0.00115609  0.25336028  1
  Sb  Sb24  1  0.50161188  0.49638668  0.50032997  1
  Sb  Sb25  1  0.24796563  0.75413899  0.50242893  1
  Sb  Sb26  1  0.49833569  -0.00010192  -0.00337655  1
  Sb  Sb27  1  0.00014496  0.75609792  0.75040191  1
  Sb  Sb28  1  0.50033463  0.74951515  0.24978043  1
  Sb  Sb29  1  0.24837860  0.24768295  -0.00184380  1
  Sb  Sb30  1  0.75827109  0.24961716  0.50042983  1
  Sb  Sb31  1  0.75126807  0.25000040  -0.00019172  1
  Te  Te32  1  0.24764531  0.24950994  0.25483740  1
  Te  Te33  1  0.24573293  0.24527357  0.74631311  1
  Te  Te34  1  0.24516224  0.75031414  0.24396484  1
  Te  Te35  1  0.25390746  0.75438828  0.75331616  1
  Te  Te36  1  0.75195240  0.25478301  0.24954745  1
  Te  Te37  1  0.75447288  0.25059974  0.75051492  1
  Te  Te38  1  0.75524538  0.74318726  0.24937048  1
  Te  Te39  1  0.74487825  0.74898649  0.75045035  1
  Te  Te40  1  0.24635826  -0.00345657  -0.00598868  1
  Te  Te41  1  0.24772867  0.00335450  0.50376601  1
  Te  Te42  1  0.25615033  0.50603500  -0.00119978  1
  Te  Te43  1  0.24361545  0.49345994  0.50125985  1
  Te  Te44  1  0.75588330  -0.00040232  -0.00781277  1
  Te  Te45  1  0.75075834  -0.00054273  0.50613615  1
  Te  Te46  1  0.74558626  0.50023369  -0.00208527  1
  Te  Te47  1  0.75490280  0.50091733  0.50178722  1
  Te  Te48  1  0.00208281  0.24526824  0.00036209  1
  Te  Te49  1  0.00220544  0.24796807  0.49939891  1
  Te  Te50  1  0.00504307  0.75314438  0.00403725  1
  Te  Te51  1  0.00226022  0.75015364  0.49421176  1
  Te  Te52  1  0.49712269  0.25433814  0.00690419  1
  Te  Te53  1  0.49254062  0.24658772  0.49626170  1
  Te  Te54  1  0.49474723  0.74762370  -0.00212446  1
  Te  Te55  1  0.49708318  0.75557078  0.50371508  1
  Te  Te56  1  -0.00277491  0.00241619  0.25156662  1
  Te  Te57  1  -0.00098726  -0.00140121  0.74763209  1
  Te  Te58  1  -0.00366988  0.49692196  0.25086471  1
  Te  Te59  1  -0.00463248  0.49822377  0.74872506  1
  Te  Te60  1  0.50248473  0.00375852  0.25413327  1
  Te  Te61  1  0.50100055  -0.00080435  0.74849773  1
  Te  Te62  1  0.50556731  0.49770866  0.24910038  1
  Te  Te63  1  0.50512204  0.50125316  0.75097653  1
