# generated using pymatgen
data_AgSbTe2
_symmetry_space_group_name_H-M   'P 1'
_cell_length_a   12.22987363
_cell_length_b   12.21977657
_cell_length_c   12.22341073
_cell_angle_alpha   89.99855027
_cell_angle_beta   90.00031630
_cell_angle_gamma   90.00073225
_symmetry_Int_Tables_number   1
_chemical_formula_structural   AgSbTe2
_chemical_formula_sum   'Ag16 Sb16 Te32'
_cell_volume   1826.74379058
_cell_formula_units_Z   16
loop_
 _symmetry_equiv_pos_site_id
 _symmetry_equiv_pos_as_xyz
  1  'x, y, z'
loop_
 _atom_site_type_symbol
 _atom_site_label
 _atom_site_symmetry_multiplicity
 _atom_site_fract_x
 _atom_site_fract_y
 _atom_site_fract_z
 _atom_site_occupancy
  Ag  Ag0  1  0.25372276  0.50141785  0.24811409  1
  Ag  Ag1  1  -0.00084937  0.00157743  -0.00089786  1
  Ag  Ag2  1  -0.00107831  0.25243580  0.75461452  1
  Ag  Ag3  1  0.50089268  0.00362542  -0.00048210  1
  Ag  Ag4  1  0.50297725  0.74420898  0.75177974  1
  Ag  Ag5  1  0.74636550  0.50393280  0.25107403  1
  Ag  Ag6  1  0.50093326  0.25455151  0.75746231  1
  Ag  Ag7  1  0.74647460  0.25233702  -0.00127842  1
  Ag  Ag8  1  0.74958234  0.74338253  0.49795219  1
  Ag  Ag9  1  0.50104408  0.49752504  0.00243798  1
  Ag  Ag10  1  -0.00314080  0.74650561  0.74978957  1
  Ag  Ag11  1  -0.00303652  0.74492308  0.25074923  1
  Ag  Ag12  1  -0.00300107  0.50412331  0.49804638  1
  Ag  Ag13  1  0.50300633  0.50372715  0.49609372  1
  Ag  Ag14  1  0.50259818  0.74235826  0.24853036  1
  Ag  Ag15  1  0.25355869  0.25224122  -0.00111028  1
  Sb  Sb16  1  0.25182946  0.74610588  0.00160057  1
  Sb  Sb17  1  0.74774513  0.74656876  0.00157541  1
  Sb  Sb18  1  0.25025987  0.00089000  0.75416199  1
  Sb  Sb19  1  0.50173495  -0.00337162  0.50147911  1
  Sb  Sb20  1  -0.00085892  0.25465031  0.24583971  1
  Sb  Sb21  1  0.50041746  0.25961086  0.24062700  1
  Sb  Sb22  1  0.25057560  0.74533080  0.49867263  1
  Sb  Sb23  1  0.25093895  0.25597080  0.50025179  1
  Sb  Sb24  1  0.25206249  0.49874717  0.75372944  1
  Sb  Sb25  1  0.74982846  -0.00044887  0.75330793  1
  Sb  Sb26  1  0.25127819  -0.00076735  0.24464664  1
  Sb  Sb27  1  -0.00174723  0.49967032  0.00037595  1
  Sb  Sb28  1  0.74871135  0.25740683  0.50019250  1
  Sb  Sb29  1  -0.00177413  -0.00359912  0.50169623  1
  Sb  Sb30  1  0.74807795  0.50045874  0.75023293  1
  Sb  Sb31  1  0.74917809  -0.00455647  0.24578589  1
  Te  Te32  1  0.24979606  0.25603906  0.24500257  1
  Te  Te33  1  0.24967007  0.25019613  0.75516571  1
  Te  Te34  1  0.24981593  0.74407846  0.24874724  1
  Te  Te35  1  0.24946155  0.75007992  0.75045575  1
  Te  Te36  1  0.75040386  0.25687633  0.24685853  1
  Te  Te37  1  0.75047004  0.25026563  0.75374094  1
  Te  Te38  1  0.75009520  0.74592537  0.25030898  1
  Te  Te39  1  0.75040452  0.74979932  0.74707544  1
  Te  Te40  1  0.25045839  0.00806410  0.00114889  1
  Te  Te41  1  0.25010709  0.00304242  0.49747499  1
  Te  Te42  1  0.25527471  0.49595048  0.00465752  1
  Te  Te43  1  0.25057099  0.49865738  0.49190699  1
  Te  Te44  1  0.74946015  0.00770629  0.00114535  1
  Te  Te45  1  0.74973705  -0.00946650  0.49764393  1
  Te  Te46  1  0.74562471  0.49607933  0.00517347  1
  Te  Te47  1  0.74937293  0.50357429  0.49529747  1
  Te  Te48  1  -0.00099497  0.24893368  -0.00325685  1
  Te  Te49  1  -0.00071606  0.25310292  0.50793607  1
  Te  Te50  1  -0.00026145  0.75209175  -0.00327043  1
  Te  Te51  1  -0.00153945  0.74727899  0.50169290  1
  Te  Te52  1  0.50101036  0.25046732  -0.00191693  1
  Te  Te53  1  0.50125000  0.25331035  0.51027088  1
  Te  Te54  1  0.50064023  0.74886068  -0.00275511  1
  Te  Te55  1  0.50146257  0.74720829  0.50229784  1
  Te  Te56  1  0.00046651  -0.00765453  0.24550741  1
  Te  Te57  1  0.00012889  -0.00134122  0.75422561  1
  Te  Te58  1  -0.00104189  0.50333684  0.25143176  1
  Te  Te59  1  0.00146166  0.50304362  0.74741651  1
  Te  Te60  1  0.49935900  -0.01009331  0.24535331  1
  Te  Te61  1  0.49982357  -0.00168949  0.75491925  1
  Te  Te62  1  0.50095639  0.50202147  0.25040049  1
  Te  Te63  1  0.49896413  0.50271460  0.75089234  1
