# generated using pymatgen
data_AgSbTe2
_symmetry_space_group_name_H-M   'P 1'
_cell_length_a   12.22567740
_cell_length_b   12.23106468
_cell_length_c   12.21601271
_cell_angle_alpha   90.00468531
_cell_angle_beta   90.00649291
_cell_angle_gamma   89.99702618
_symmetry_Int_Tables_number   1
_chemical_formula_structural   AgSbTe2
_chemical_formula_sum   'Ag16 Sb16 Te32'
_cell_volume   1826.69763263
_cell_formula_units_Z   16
loop_
 _symmetry_equiv_pos_site_id
 _symmetry_equiv_pos_as_xyz
  1  'x, y, z'
loop_
 _atom_site_type_symbol
 _atom_site_label
 _atom_site_symmetry_multiplicity
 _atom_site_fract_x
 _atom_site_fract_y
 _atom_site_fract_z
 _atom_site_occupancy
  Ag  Ag0  1  -0.00684438  0.00112504  0.01126601  1
  Ag  Ag1  1  -0.00244675  0.75489094  0.25430476  1
  Ag  Ag2  1  -0.00285009  0.00439603  0.49064330  1
  Ag  Ag3  1  0.50338558  0.75037023  0.74683124  1
  Ag  Ag4  1  0.75083969  0.50028267  0.74751665  1
  Ag  Ag5  1  0.75365870  0.24663541  0.00854509  1
  Ag  Ag6  1  0.00063689  0.49603706  0.49435584  1
  Ag  Ag7  1  0.50564001  0.24716668  0.25554154  1
  Ag  Ag8  1  0.24429932  0.24985020  0.49336188  1
  Ag  Ag9  1  0.75550647  0.24648288  0.49138393  1
  Ag  Ag10  1  0.24520046  0.49769034  0.25662764  1
  Ag  Ag11  1  0.75695578  0.00564694  0.25208129  1
  Ag  Ag12  1  0.24612105  0.75019536  0.49628669  1
  Ag  Ag13  1  0.50212500  0.00288106  0.49590849  1
  Ag  Ag14  1  0.75313623  0.75244476  0.00274977  1
  Ag  Ag15  1  -0.00553978  0.24485733  0.25710387  1
  Sb  Sb16  1  0.75306697  0.49476345  0.25232306  1
  Sb  Sb17  1  0.24664401  0.24921900  0.00758722  1
  Sb  Sb18  1  0.75015655  -0.00046566  0.74809717  1
  Sb  Sb19  1  0.24735275  0.75079172  0.00331902  1
  Sb  Sb20  1  0.24864414  0.50142599  0.74378500  1
  Sb  Sb21  1  0.24274271  0.00160620  0.25450262  1
  Sb  Sb22  1  0.50286587  0.49951141  0.00124810  1
  Sb  Sb23  1  0.50099898  0.75242271  0.25234580  1
  Sb  Sb24  1  0.50011469  0.49765442  0.49850396  1
  Sb  Sb25  1  0.75241469  0.75211231  0.49808172  1
  Sb  Sb26  1  0.25021942  -0.00079209  0.74556330  1
  Sb  Sb27  1  -0.00233406  0.25006930  0.74223686  1
  Sb  Sb28  1  0.50390627  0.24910038  0.74552383  1
  Sb  Sb29  1  -0.00156878  0.74979995  0.74730318  1
  Sb  Sb30  1  0.50631566  0.00094073  0.00468137  1
  Sb  Sb31  1  -0.00362901  0.49804273  0.00501780  1
  Te  Te32  1  0.24825700  0.25215889  0.25420364  1
  Te  Te33  1  0.25154498  0.25151427  0.74179804  1
  Te  Te34  1  0.24761986  0.74612264  0.25425606  1
  Te  Te35  1  0.25547431  0.74881428  0.74496179  1
  Te  Te36  1  0.75241664  0.25058551  0.25180094  1
  Te  Te37  1  0.74900467  0.25472200  0.75079225  1
  Te  Te38  1  0.75289231  0.75184588  0.24636892  1
  Te  Te39  1  0.74706443  0.74676151  0.75302491  1
  Te  Te40  1  0.24048757  0.00021320  -0.00227434  1
  Te  Te41  1  0.24854737  0.00048909  0.49917950  1
  Te  Te42  1  0.24979449  0.49977300  0.00593960  1
  Te  Te43  1  0.24694113  0.49944760  0.49706070  1
  Te  Te44  1  0.75344210  0.00143086  0.00176296  1
  Te  Te45  1  0.75244388  0.00189918  0.49789781  1
  Te  Te46  1  0.75147924  0.49983743  -0.00430458  1
  Te  Te47  1  0.75385684  0.49734030  0.50290779  1
  Te  Te48  1  -0.00366797  0.24723433  0.00492697  1
  Te  Te49  1  -0.00135123  0.24744120  0.49823411  1
  Te  Te50  1  -0.00357468  0.75267514  0.00338901  1
  Te  Te51  1  0.00205717  0.75199723  0.49698221  1
  Te  Te52  1  0.50422935  0.24824287  0.00525119  1
  Te  Te53  1  0.50124928  0.24691980  0.49669987  1
  Te  Te54  1  0.50441025  0.75156958  -0.00314530  1
  Te  Te55  1  0.49761582  0.75379738  0.50080740  1
  Te  Te56  1  -0.00272250  0.00056122  0.25297548  1
  Te  Te57  1  0.00012428  -0.00048685  0.74803769  1
  Te  Te58  1  0.00152877  0.50008091  0.25488698  1
  Te  Te59  1  -0.00441106  0.50052159  0.74233054  1
  Te  Te60  1  0.50642713  0.00379114  0.25463764  1
  Te  Te61  1  0.49980939  -0.00469763  0.74339743  1
  Te  Te62  1  0.49422214  0.49501204  0.25003570  1
  Te  Te63  1  0.50505200  0.50522894  0.75054910  1
