# generated using pymatgen
data_AgSbTe2
_symmetry_space_group_name_H-M   'P 1'
_cell_length_a   12.22305062
_cell_length_b   12.21255296
_cell_length_c   12.20690924
_cell_angle_alpha   89.99746780
_cell_angle_beta   90.00093826
_cell_angle_gamma   90.00768631
_symmetry_Int_Tables_number   1
_chemical_formula_structural   AgSbTe2
_chemical_formula_sum   'Ag16 Sb16 Te32'
_cell_volume   1822.18212254
_cell_formula_units_Z   16
loop_
 _symmetry_equiv_pos_site_id
 _symmetry_equiv_pos_as_xyz
  1  'x, y, z'
loop_
 _atom_site_type_symbol
 _atom_site_label
 _atom_site_symmetry_multiplicity
 _atom_site_fract_x
 _atom_site_fract_y
 _atom_site_fract_z
 _atom_site_occupancy
  Ag  Ag0  1  -0.00356244  0.00453788  0.49856195  1
  Ag  Ag1  1  0.75080460  0.49767094  0.25135696  1
  Ag  Ag2  1  0.49789686  0.49688775  0.00508636  1
  Ag  Ag3  1  0.74953994  0.75501724  0.49894204  1
  Ag  Ag4  1  0.50386222  0.00322832  0.49902201  1
  Ag  Ag5  1  0.25008005  0.25411913  0.00817335  1
  Ag  Ag6  1  0.49413929  0.25237358  0.25331274  1
  Ag  Ag7  1  0.25000877  0.00827809  0.25495336  1
  Ag  Ag8  1  0.50341001  0.75154671  0.74689301  1
  Ag  Ag9  1  0.75106410  0.24447091  0.49810081  1
  Ag  Ag10  1  0.25023784  0.49226183  0.24715836  1
  Ag  Ag11  1  -0.00090058  0.24888483  0.74592258  1
  Ag  Ag12  1  0.74971830  0.00135875  0.74123800  1
  Ag  Ag13  1  0.24983821  0.24633506  0.49213363  1
  Ag  Ag14  1  0.00220267  0.49695339  0.00554110  1
  Ag  Ag15  1  -0.00088438  0.74736367  0.25255925  1
  Sb  Sb16  1  0.25011562  0.00346067  0.74531359  1
  Sb  Sb17  1  0.50139788  0.74866597  0.25215877  1
  Sb  Sb18  1  0.00247013  0.00230611  0.00169140  1
  Sb  Sb19  1  0.74987416  0.49876764  0.74782321  1
  Sb  Sb20  1  0.00007556  0.49669183  0.49533449  1
  Sb  Sb21  1  0.25014080  0.49682021  0.75160239  1
  Sb  Sb22  1  0.50002797  0.49715244  0.49571988  1
  Sb  Sb23  1  0.50136975  0.24946659  0.74717072  1
  Sb  Sb24  1  0.25008382  0.74559817  0.00309464  1
  Sb  Sb25  1  0.75107151  0.00252585  0.25820496  1
  Sb  Sb26  1  0.49772571  0.00235912  0.00138767  1
  Sb  Sb27  1  0.75108258  0.25192284  0.00330870  1
  Sb  Sb28  1  -0.00347743  0.75052970  0.74710830  1
  Sb  Sb29  1  0.74989772  0.74860804  0.00248182  1
  Sb  Sb30  1  0.00601912  0.25199076  0.25297975  1
  Sb  Sb31  1  0.25036926  0.75303402  0.49645714  1
  Te  Te32  1  0.25009490  0.25102757  0.25153482  1
  Te  Te33  1  0.24577702  0.24972454  0.74805413  1
  Te  Te34  1  0.24576123  0.74849694  0.25074925  1
  Te  Te35  1  0.25709081  0.74992710  0.75012426  1
  Te  Te36  1  0.74519169  0.25315109  0.25478585  1
  Te  Te37  1  0.75337352  0.24729949  0.74423894  1
  Te  Te38  1  0.75356288  0.74693900  0.25467601  1
  Te  Te39  1  0.74711550  0.75300298  0.74377628  1
  Te  Te40  1  0.24987248  0.00780837  0.00786092  1
  Te  Te41  1  0.25000969  0.00348196  0.49581666  1
  Te  Te42  1  0.25007232  0.49604330  0.00410245  1
  Te  Te43  1  0.24985561  0.49319832  0.49327712  1
  Te  Te44  1  0.75008796  0.00023643  -0.01046405  1
  Te  Te45  1  0.74990787  0.00208721  0.50041775  1
  Te  Te46  1  0.74995809  0.49916347  0.00696308  1
  Te  Te47  1  0.75008313  0.49903005  0.49463651  1
  Te  Te48  1  0.00304235  0.25355498  -0.00439310  1
  Te  Te49  1  -0.00069790  0.24713083  0.50296154  1
  Te  Te50  1  0.00022354  0.74462227  0.00486996  1
  Te  Te51  1  -0.00375117  0.75376655  0.49754162  1
  Te  Te52  1  0.49587555  0.25377308  0.00300688  1
  Te  Te53  1  0.49964502  0.24704949  0.49792934  1
  Te  Te54  1  0.50010052  0.74517098  -0.00467677  1
  Te  Te55  1  0.50370021  0.75382448  0.50257429  1
  Te  Te56  1  0.00217707  -0.00438415  0.25350207  1
  Te  Te57  1  -0.00277171  0.00287231  0.74649306  1
  Te  Te58  1  0.00005163  0.50213188  0.24716700  1
  Te  Te59  1  -0.00051436  0.49635745  0.75745140  1
  Te  Te60  1  0.49691986  0.00258665  0.25337587  1
  Te  Te61  1  0.50293558  -0.00249634  0.74673936  1
  Te  Te62  1  0.49881912  0.49797041  0.24692970  1
  Te  Te63  1  0.50073037  0.50426326  0.75718480  1
