# generated using pymatgen
data_AgSbTe2
_symmetry_space_group_name_H-M   'P 1'
_cell_length_a   12.22242908
_cell_length_b   12.22794147
_cell_length_c   12.24057213
_cell_angle_alpha   90.00897513
_cell_angle_beta   89.99856270
_cell_angle_gamma   90.00385580
_symmetry_Int_Tables_number   1
_chemical_formula_structural   AgSbTe2
_chemical_formula_sum   'Ag16 Sb16 Te32'
_cell_volume   1829.41648557
_cell_formula_units_Z   16
loop_
 _symmetry_equiv_pos_site_id
 _symmetry_equiv_pos_as_xyz
  1  'x, y, z'
loop_
 _atom_site_type_symbol
 _atom_site_label
 _atom_site_symmetry_multiplicity
 _atom_site_fract_x
 _atom_site_fract_y
 _atom_site_fract_z
 _atom_site_occupancy
  Ag  Ag0  1  0.24774184  0.00705004  0.73443078  1
  Ag  Ag1  1  0.25250838  0.23468502  0.50567564  1
  Ag  Ag2  1  0.01601524  0.00159647  0.49990174  1
  Ag  Ag3  1  0.74690747  0.25039054  0.00161566  1
  Ag  Ag4  1  0.48938766  0.24856220  0.74948970  1
  Ag  Ag5  1  0.25128021  0.49228624  0.75026769  1
  Ag  Ag6  1  0.24754910  0.00008825  0.26550514  1
  Ag  Ag7  1  0.00663894  0.75491445  0.24988111  1
  Ag  Ag8  1  0.01133215  0.24498946  0.74979606  1
  Ag  Ag9  1  0.48334940  0.00493221  0.49988423  1
  Ag  Ag10  1  0.00810647  0.00155986  -0.00017554  1
  Ag  Ag11  1  0.24837501  0.75507856  0.00124871  1
  Ag  Ag12  1  0.74820284  0.49628463  0.24645764  1
  Ag  Ag13  1  0.24865326  0.76699878  0.49862602  1
  Ag  Ag14  1  0.49609093  0.24916805  0.24901158  1
  Ag  Ag15  1  0.49697618  0.49453966  0.00052439  1
  Sb  Sb16  1  0.75140942  0.00188535  0.24859126  1
  Sb  Sb17  1  0.75196336  0.00324853  0.75125804  1
  Sb  Sb18  1  0.00432341  0.49844441  0.50059198  1
  Sb  Sb19  1  0.49473295  0.75140390  0.25045289  1
  Sb  Sb20  1  0.25096261  0.24721957  -0.00494433  1
  Sb  Sb21  1  0.74850659  0.24802313  0.49868183  1
  Sb  Sb22  1  0.25023366  0.49985234  0.24904787  1
  Sb  Sb23  1  0.00234757  0.49870618  -0.00091837  1
  Sb  Sb24  1  0.75177686  0.75274684  0.49653762  1
  Sb  Sb25  1  0.00658484  0.75454208  0.74965390  1
  Sb  Sb26  1  0.49408816  0.75205284  0.74950350  1
  Sb  Sb27  1  0.75141850  0.74965640  0.00348701  1
  Sb  Sb28  1  0.49529337  0.49660021  0.50021605  1
  Sb  Sb29  1  0.49275391  0.00295148  -0.00026801  1
  Sb  Sb30  1  0.74833834  0.49410424  0.75184200  1
  Sb  Sb31  1  0.00383912  0.24676865  0.25012650  1
  Te  Te32  1  0.25374293  0.24744184  0.25434508  1
  Te  Te33  1  0.25042378  0.24790988  0.74980235  1
  Te  Te34  1  0.24687580  0.75087123  0.25051025  1
  Te  Te35  1  0.24967410  0.75185090  0.74930142  1
  Te  Te36  1  0.74631254  0.25343448  0.24614657  1
  Te  Te37  1  0.74848567  0.25114655  0.75497065  1
  Te  Te38  1  0.75692448  0.74452590  0.24986972  1
  Te  Te39  1  0.74989891  0.74789822  0.74986471  1
  Te  Te40  1  0.24670547  -0.00362512  0.00065213  1
  Te  Te41  1  0.24954411  0.00134492  0.49965695  1
  Te  Te42  1  0.25400060  0.50488355  -0.00373226  1
  Te  Te43  1  0.25009364  0.49967104  0.50576865  1
  Te  Te44  1  0.75768897  0.00414777  -0.00014569  1
  Te  Te45  1  0.75071858  -0.00115593  0.50004626  1
  Te  Te46  1  0.74565186  0.49715614  0.00327733  1
  Te  Te47  1  0.74991219  0.50151919  0.49241641  1
  Te  Te48  1  -0.00313605  0.24650409  -0.00181344  1
  Te  Te49  1  0.00251726  0.24610960  0.50241301  1
  Te  Te50  1  0.00386300  0.75416243  0.00176746  1
  Te  Te51  1  0.00407021  0.75440007  0.49802035  1
  Te  Te52  1  0.50154023  0.25169437  0.00084317  1
  Te  Te53  1  0.49849284  0.24659761  0.50067942  1
  Te  Te54  1  0.49581394  0.74458360  0.00027892  1
  Te  Te55  1  0.49451009  0.75747904  0.49973474  1
  Te  Te56  1  0.00246324  -0.00170240  0.25039048  1
  Te  Te57  1  0.00213965  0.00407705  0.74956759  1
  Te  Te58  1  -0.00316382  0.50452993  0.24952624  1
  Te  Te59  1  0.00501084  0.49186055  0.75022837  1
  Te  Te60  1  0.49690806  0.00390865  0.25113742  1
  Te  Te61  1  0.49666483  0.00459187  0.74850905  1
  Te  Te62  1  0.50176868  0.49605134  0.24736370  1
  Te  Te63  1  0.49619563  0.49480106  0.75260271  1
