# generated using pymatgen
data_AgSbTe2
_symmetry_space_group_name_H-M   'P 1'
_cell_length_a   12.21181897
_cell_length_b   12.20707115
_cell_length_c   12.20694567
_cell_angle_alpha   89.99317646
_cell_angle_beta   89.99951982
_cell_angle_gamma   89.99806238
_symmetry_Int_Tables_number   1
_chemical_formula_structural   AgSbTe2
_chemical_formula_sum   'Ag16 Sb16 Te32'
_cell_volume   1819.69600652
_cell_formula_units_Z   16
loop_
 _symmetry_equiv_pos_site_id
 _symmetry_equiv_pos_as_xyz
  1  'x, y, z'
loop_
 _atom_site_type_symbol
 _atom_site_label
 _atom_site_symmetry_multiplicity
 _atom_site_fract_x
 _atom_site_fract_y
 _atom_site_fract_z
 _atom_site_occupancy
  Ag  Ag0  1  0.50440298  0.75221589  0.74671426  1
  Ag  Ag1  1  0.74857227  0.75292996  0.50649238  1
  Ag  Ag2  1  0.75001586  0.00156468  0.25102225  1
  Ag  Ag3  1  -0.00674580  0.49648589  -0.00083944  1
  Ag  Ag4  1  -0.00345274  0.25106992  0.24687304  1
  Ag  Ag5  1  0.24810605  0.25054630  -0.00130686  1
  Ag  Ag6  1  0.74975764  0.50411134  0.75496009  1
  Ag  Ag7  1  0.75160341  0.25557529  0.00124198  1
  Ag  Ag8  1  0.50701402  0.49875471  -0.00236306  1
  Ag  Ag9  1  0.25162661  -0.00173448  0.74618276  1
  Ag  Ag10  1  0.24991155  0.24654775  0.50182722  1
  Ag  Ag11  1  0.50071997  -0.00293021  0.50399707  1
  Ag  Ag12  1  -0.00444729  0.75003866  0.74889054  1
  Ag  Ag13  1  0.25184744  0.75371498  0.50513726  1
  Ag  Ag14  1  0.75141479  0.49814742  0.24361093  1
  Ag  Ag15  1  0.74780091  -0.00618966  0.74785822  1
  Sb  Sb16  1  0.25042229  0.00245323  0.25383841  1
  Sb  Sb17  1  0.24982865  0.75115418  -0.00568533  1
  Sb  Sb18  1  -0.00045627  -0.00053221  0.50130692  1
  Sb  Sb19  1  0.50319724  -0.00024506  -0.00431346  1
  Sb  Sb20  1  0.50420729  0.25019554  0.24932703  1
  Sb  Sb21  1  0.25042826  0.50219211  0.75141560  1
  Sb  Sb22  1  0.24880326  0.49855143  0.24803811  1
  Sb  Sb23  1  -0.00426738  0.74831316  0.24949290  1
  Sb  Sb24  1  -0.00235186  0.00389322  -0.00127855  1
  Sb  Sb25  1  0.50019767  0.24811923  0.75032599  1
  Sb  Sb26  1  0.50318730  0.74989705  0.25306846  1
  Sb  Sb27  1  0.50266280  0.50272085  0.50273463  1
  Sb  Sb28  1  -0.00193819  0.49994341  0.50153370  1
  Sb  Sb29  1  0.75029792  0.24618735  0.49946126  1
  Sb  Sb30  1  -0.00068350  0.25125155  0.75302047  1
  Sb  Sb31  1  0.75009304  0.74233856  -0.00921356  1
  Te  Te32  1  0.24431087  0.24905615  0.24891516  1
  Te  Te33  1  0.24914484  0.24563631  0.74978114  1
  Te  Te34  1  0.24890643  0.75091657  0.25970056  1
  Te  Te35  1  0.25013124  0.75283550  0.74616177  1
  Te  Te36  1  0.75327684  0.25058084  0.24865936  1
  Te  Te37  1  0.75118943  0.25017759  0.75212137  1
  Te  Te38  1  0.75171850  0.75085801  0.25842926  1
  Te  Te39  1  0.74999863  0.75174231  0.74852231  1
  Te  Te40  1  0.25100772  0.00613256  -0.00405731  1
  Te  Te41  1  0.25268090  -0.00046493  0.50240505  1
  Te  Te42  1  0.25000758  0.49355395  0.00000842  1
  Te  Te43  1  0.25101217  0.49932901  0.49990296  1
  Te  Te44  1  0.74828422  0.00715087  -0.00071700  1
  Te  Te45  1  0.74716852  -0.00061714  0.50304735  1
  Te  Te46  1  0.75001467  0.49889620  -0.00065391  1
  Te  Te47  1  0.74859349  0.50273572  0.50159063  1
  Te  Te48  1  -0.00066436  0.25361151  0.00212108  1
  Te  Te49  1  0.00644186  0.25119615  0.49442643  1
  Te  Te50  1  0.00249017  0.74242926  -0.00496161  1
  Te  Te51  1  -0.00030703  0.74907808  0.50526608  1
  Te  Te52  1  0.50005637  0.25511649  -0.00022975  1
  Te  Te53  1  0.49302256  0.24527577  0.49973638  1
  Te  Te54  1  0.49747282  0.74456651  -0.00638755  1
  Te  Te55  1  0.50047050  0.75220698  0.50379763  1
  Te  Te56  1  -0.00756188  0.00421630  0.24888116  1
  Te  Te57  1  -0.00125344  -0.00546381  0.75129855  1
  Te  Te58  1  -0.00552972  0.49737345  0.24479119  1
  Te  Te59  1  -0.00480052  0.50357509  0.75417986  1
  Te  Te60  1  0.50718967  -0.00064903  0.25566044  1
  Te  Te61  1  0.50161023  -0.00332775  0.74719502  1
  Te  Te62  1  0.50738838  0.50056424  0.24356417  1
  Te  Te63  1  0.50475214  0.50442917  0.75347256  1
