# generated using pymatgen
data_AgSbTe2
_symmetry_space_group_name_H-M   'P 1'
_cell_length_a   12.23821545
_cell_length_b   12.22568411
_cell_length_c   12.22343604
_cell_angle_alpha   89.99768277
_cell_angle_beta   89.99950500
_cell_angle_gamma   89.99445661
_symmetry_Int_Tables_number   1
_chemical_formula_structural   AgSbTe2
_chemical_formula_sum   'Ag16 Sb16 Te32'
_cell_volume   1828.87728825
_cell_formula_units_Z   16
loop_
 _symmetry_equiv_pos_site_id
 _symmetry_equiv_pos_as_xyz
  1  'x, y, z'
loop_
 _atom_site_type_symbol
 _atom_site_label
 _atom_site_symmetry_multiplicity
 _atom_site_fract_x
 _atom_site_fract_y
 _atom_site_fract_z
 _atom_site_occupancy
  Ag  Ag0  1  0.25252062  0.24656341  0.00045566  1
  Ag  Ag1  1  0.00027418  0.75313323  0.25012221  1
  Ag  Ag2  1  0.74752442  0.24210347  0.00045389  1
  Ag  Ag3  1  0.75157825  0.75256356  0.50082730  1
  Ag  Ag4  1  0.49991920  0.24526733  0.24260804  1
  Ag  Ag5  1  0.24731875  -0.00491361  0.75534515  1
  Ag  Ag6  1  0.75239356  0.50572440  0.75243888  1
  Ag  Ag7  1  -0.00339618  -0.00187433  -0.00239110  1
  Ag  Ag8  1  0.49994385  0.75353101  0.24928994  1
  Ag  Ag9  1  0.25075387  0.50443232  0.24776367  1
  Ag  Ag10  1  -0.00027332  0.75365327  0.74986495  1
  Ag  Ag11  1  0.74777054  -0.00409826  0.24195295  1
  Ag  Ag12  1  0.24760268  0.50514795  0.75224296  1
  Ag  Ag13  1  0.75303084  -0.00470217  0.75820536  1
  Ag  Ag14  1  0.24859305  0.75003051  0.50000089  1
  Ag  Ag15  1  0.50367731  0.00272204  0.00301560  1
  Sb  Sb16  1  0.49992328  0.24753473  0.75588705  1
  Sb  Sb17  1  0.25211237  0.24923783  0.50023240  1
  Sb  Sb18  1  0.74785348  0.24783141  0.50030316  1
  Sb  Sb19  1  0.75035270  0.75745655  -0.00111557  1
  Sb  Sb20  1  -0.00003590  -0.00500553  0.50132414  1
  Sb  Sb21  1  0.25095567  -0.00355949  0.24511742  1
  Sb  Sb22  1  0.49978768  0.50322263  0.49940285  1
  Sb  Sb23  1  0.75036143  0.50400462  0.24768809  1
  Sb  Sb24  1  0.50008172  -0.00311648  0.49630867  1
  Sb  Sb25  1  0.24986002  0.75244142  -0.00093525  1
  Sb  Sb26  1  0.00007461  0.24647360  0.24476788  1
  Sb  Sb27  1  0.50006959  0.75236193  0.75137899  1
  Sb  Sb28  1  0.00013955  0.50452033  0.50140332  1
  Sb  Sb29  1  0.00004926  0.24529784  0.75389873  1
  Sb  Sb30  1  0.49955681  0.49868797  0.00160903  1
  Sb  Sb31  1  0.00025461  0.50313173  -0.00137764  1
  Te  Te32  1  0.25073179  0.25243804  0.24833137  1
  Te  Te33  1  0.25040442  0.25162205  0.75130386  1
  Te  Te34  1  0.24822609  0.74959035  0.25104693  1
  Te  Te35  1  0.25122261  0.74908468  0.74923803  1
  Te  Te36  1  0.74929264  0.24937459  0.24830951  1
  Te  Te37  1  0.74953966  0.24799948  0.75107956  1
  Te  Te38  1  0.75167519  0.74987537  0.25192452  1
  Te  Te39  1  0.74916085  0.75166310  0.74869847  1
  Te  Te40  1  0.25035601  0.00352486  -0.00306287  1
  Te  Te41  1  0.25034691  -0.00467722  0.51021191  1
  Te  Te42  1  0.24978636  0.49313153  -0.00237401  1
  Te  Te43  1  0.25000452  0.50447968  0.50282853  1
  Te  Te44  1  0.74945453  0.00168181  -0.00009323  1
  Te  Te45  1  0.74988519  -0.00387554  0.50145231  1
  Te  Te46  1  0.75008794  0.48916498  -0.00586125  1
  Te  Te47  1  0.75019776  0.50509228  0.50771110  1
  Te  Te48  1  0.00038491  0.24209702  0.00028693  1
  Te  Te49  1  0.00006862  0.25009250  0.49911498  1
  Te  Te50  1  -0.00007538  0.75563109  -0.00091105  1
  Te  Te51  1  0.00041084  0.75082453  0.50035793  1
  Te  Te52  1  0.49953224  0.24669677  0.00408964  1
  Te  Te53  1  0.49986179  0.24929052  0.48602650  1
  Te  Te54  1  0.49998193  0.75603070  0.00778050  1
  Te  Te55  1  0.49955143  0.75087686  0.49241018  1
  Te  Te56  1  -0.00318242  -0.00479404  0.24590869  1
  Te  Te57  1  -0.00125056  -0.00433671  0.75341438  1
  Te  Te58  1  0.00552049  0.50793304  0.24860871  1
  Te  Te59  1  0.00214646  0.50790097  0.75113618  1
  Te  Te60  1  0.50135470  -0.00158941  0.24660475  1
  Te  Te61  1  0.50107219  0.00033222  0.75639984  1
  Te  Te62  1  0.49576757  0.50350605  0.24938766  1
  Te  Te63  1  0.49785424  0.49953264  0.75054983  1
