# generated using pymatgen
data_AgSbTe2
_symmetry_space_group_name_H-M   'P 1'
_cell_length_a   12.22184284
_cell_length_b   12.21357865
_cell_length_c   12.21790246
_cell_angle_alpha   90.00294009
_cell_angle_beta   89.99868088
_cell_angle_gamma   89.99522729
_symmetry_Int_Tables_number   1
_chemical_formula_structural   AgSbTe2
_chemical_formula_sum   'Ag16 Sb16 Te32'
_cell_volume   1823.79608937
_cell_formula_units_Z   16
loop_
 _symmetry_equiv_pos_site_id
 _symmetry_equiv_pos_as_xyz
  1  'x, y, z'
loop_
 _atom_site_type_symbol
 _atom_site_label
 _atom_site_symmetry_multiplicity
 _atom_site_fract_x
 _atom_site_fract_y
 _atom_site_fract_z
 _atom_site_occupancy
  Ag  Ag0  1  0.24907918  0.49920530  0.75250010  1
  Ag  Ag1  1  0.24881876  0.25509353  0.50229769  1
  Ag  Ag2  1  0.75159818  0.25639169  0.50074464  1
  Ag  Ag3  1  0.75059228  0.49737750  0.75625441  1
  Ag  Ag4  1  0.50266535  -0.00421591  0.00123662  1
  Ag  Ag5  1  -0.00261032  0.00107403  -0.00159401  1
  Ag  Ag6  1  0.50284324  0.49846962  0.50037540  1
  Ag  Ag7  1  0.50234816  0.74522920  0.24251851  1
  Ag  Ag8  1  -0.00125825  0.74582897  0.75609751  1
  Ag  Ag9  1  0.25253920  0.74677798  -0.00226829  1
  Ag  Ag10  1  0.74692212  0.49736180  0.24367936  1
  Ag  Ag11  1  -0.00308540  0.25366047  0.75274685  1
  Ag  Ag12  1  -0.00450287  0.25206226  0.24740471  1
  Ag  Ag13  1  0.74624405  0.74355112  -0.00082770  1
  Ag  Ag14  1  0.75250013  0.25690490  -0.00078183  1
  Ag  Ag15  1  0.50670697  0.50394074  0.00035642  1
  Sb  Sb16  1  0.50431104  0.25474576  0.24792505  1
  Sb  Sb17  1  -0.00254292  0.49685883  0.50242847  1
  Sb  Sb18  1  0.75185587  0.00296354  0.75432733  1
  Sb  Sb19  1  -0.00062353  0.00409305  0.50013094  1
  Sb  Sb20  1  -0.00274694  0.74799650  0.24235455  1
  Sb  Sb21  1  0.50380724  0.25498726  0.75094923  1
  Sb  Sb22  1  0.24694388  0.25450932  -0.00238800  1
  Sb  Sb23  1  -0.00831134  0.49822228  -0.00288619  1
  Sb  Sb24  1  0.74993227  0.00334789  0.24558054  1
  Sb  Sb25  1  0.74839984  0.74244152  0.50172615  1
  Sb  Sb26  1  0.24819474  0.00093359  0.75285169  1
  Sb  Sb27  1  0.50090257  0.00071024  0.49756970  1
  Sb  Sb28  1  0.50164006  0.74499942  0.75913243  1
  Sb  Sb29  1  0.25255616  0.49931879  0.24712735  1
  Sb  Sb30  1  0.25174822  0.74357514  0.50309417  1
  Sb  Sb31  1  0.25037222  0.00097169  0.24728436  1
  Te  Te32  1  0.24263390  0.25149453  0.25450244  1
  Te  Te33  1  0.24406163  0.25536336  0.74810313  1
  Te  Te34  1  0.25186965  0.74908966  0.24494363  1
  Te  Te35  1  0.24505415  0.74450338  0.75401162  1
  Te  Te36  1  0.75293185  0.25405227  0.24777330  1
  Te  Te37  1  0.75315082  0.25397804  0.75242286  1
  Te  Te38  1  0.74888701  0.74404799  0.24704972  1
  Te  Te39  1  0.75432652  0.74419843  0.75285639  1
  Te  Te40  1  0.25122807  -0.00493136  -0.00112681  1
  Te  Te41  1  0.25199324  0.00952246  0.50076860  1
  Te  Te42  1  0.25749323  0.50267744  -0.00376564  1
  Te  Te43  1  0.25592734  0.49614749  0.50403892  1
  Te  Te44  1  0.74928515  -0.00005897  -0.00011203  1
  Te  Te45  1  0.74779856  0.01088491  0.50006830  1
  Te  Te46  1  0.74881803  0.49908304  -0.00176349  1
  Te  Te47  1  0.74594854  0.49588009  0.50172081  1
  Te  Te48  1  -0.00129815  0.24769170  -0.00187400  1
  Te  Te49  1  -0.00231200  0.24822144  0.50152293  1
  Te  Te50  1  -0.00106348  0.75354730  -0.00167069  1
  Te  Te51  1  0.00081364  0.75322238  0.50736280  1
  Te  Te52  1  0.50326818  0.25089436  0.00126023  1
  Te  Te53  1  0.50137761  0.25323796  0.49931933  1
  Te  Te54  1  0.50274560  0.74787101  0.00113551  1
  Te  Te55  1  0.49988969  0.74638850  0.49225248  1
  Te  Te56  1  0.00018698  0.00510137  0.24363727  1
  Te  Te57  1  -0.00005210  0.00136152  0.75599316  1
  Te  Te58  1  -0.00599868  0.49507162  0.25160527  1
  Te  Te59  1  -0.00072192  0.49832469  0.74941887  1
  Te  Te60  1  0.50002427  -0.00736138  0.24358186  1
  Te  Te61  1  0.49963619  -0.00129902  0.75839831  1
  Te  Te62  1  0.50290702  0.50200556  0.24793943  1
  Te  Te63  1  0.50134932  0.50040022  0.75067734  1
