# generated using pymatgen
data_AgSbTe2
_symmetry_space_group_name_H-M   'P 1'
_cell_length_a   12.21416609
_cell_length_b   12.21232770
_cell_length_c   12.21979214
_cell_angle_alpha   89.99938799
_cell_angle_beta   90.00035735
_cell_angle_gamma   89.99546795
_symmetry_Int_Tables_number   1
_chemical_formula_structural   AgSbTe2
_chemical_formula_sum   'Ag16 Sb16 Te32'
_cell_volume   1822.74572288
_cell_formula_units_Z   16
loop_
 _symmetry_equiv_pos_site_id
 _symmetry_equiv_pos_as_xyz
  1  'x, y, z'
loop_
 _atom_site_type_symbol
 _atom_site_label
 _atom_site_symmetry_multiplicity
 _atom_site_fract_x
 _atom_site_fract_y
 _atom_site_fract_z
 _atom_site_occupancy
  Ag  Ag0  1  0.24475681  0.24791314  0.00291095  1
  Ag  Ag1  1  0.49698339  0.24833014  0.24882847  1
  Ag  Ag2  1  0.24981150  0.24952421  0.49708876  1
  Ag  Ag3  1  0.50115510  0.75111544  0.24851490  1
  Ag  Ag4  1  0.24991611  0.00384545  0.75344606  1
  Ag  Ag5  1  0.50301170  0.74888511  0.75141561  1
  Ag  Ag6  1  0.75013790  0.50084380  0.75324591  1
  Ag  Ag7  1  -0.00208083  0.49311329  -0.00138840  1
  Ag  Ag8  1  0.00241412  0.24840375  0.24376024  1
  Ag  Ag9  1  0.24985357  0.49678717  0.75287738  1
  Ag  Ag10  1  0.00270553  0.00735698  0.00129620  1
  Ag  Ag11  1  0.24994049  0.00679309  0.24656244  1
  Ag  Ag12  1  0.74918359  0.74769761  -0.00193828  1
  Ag  Ag13  1  0.75023339  0.25187641  0.49851652  1
  Ag  Ag14  1  0.75623836  0.25252802  0.00169893  1
  Ag  Ag15  1  0.74719413  0.74796616  0.50165038  1
  Sb  Sb16  1  0.75063711  0.49802020  0.24542851  1
  Sb  Sb17  1  0.00160022  0.00380536  0.49934940  1
  Sb  Sb18  1  0.49889153  0.00064394  0.49933582  1
  Sb  Sb19  1  0.25149684  0.75074442  -0.00085114  1
  Sb  Sb20  1  0.50152073  0.49936761  0.50098126  1
  Sb  Sb21  1  0.50239020  0.49950356  -0.00131318  1
  Sb  Sb22  1  -0.00336524  0.74963306  0.75156226  1
  Sb  Sb23  1  0.74987314  0.00218780  0.24762414  1
  Sb  Sb24  1  0.00174693  0.24993858  0.75873762  1
  Sb  Sb25  1  0.49819569  0.25043073  0.75116964  1
  Sb  Sb26  1  0.25342167  0.74916721  0.50049878  1
  Sb  Sb27  1  -0.00063244  0.75247286  0.24716314  1
  Sb  Sb28  1  0.74941686  -0.00022427  0.75334815  1
  Sb  Sb29  1  0.24890990  0.49196096  0.24576158  1
  Sb  Sb30  1  0.49565731  0.00075052  0.00074102  1
  Sb  Sb31  1  -0.00076876  0.49623265  0.50139867  1
  Te  Te32  1  0.25162991  0.24969552  0.24900432  1
  Te  Te33  1  0.25235682  0.25028725  0.75043417  1
  Te  Te34  1  0.25595378  0.75574259  0.25196701  1
  Te  Te35  1  0.25532304  0.74874427  0.74860379  1
  Te  Te36  1  0.74854996  0.24951660  0.24960593  1
  Te  Te37  1  0.74701938  0.25170605  0.74963989  1
  Te  Te38  1  0.74535450  0.75090586  0.24975424  1
  Te  Te39  1  0.74686916  0.74933915  0.75117752  1
  Te  Te40  1  0.24672141  0.00154063  -0.00032176  1
  Te  Te41  1  0.24844765  0.00603925  0.50130342  1
  Te  Te42  1  0.24529884  0.49744747  -0.00454950  1
  Te  Te43  1  0.24751497  0.49377032  0.50860652  1
  Te  Te44  1  0.75704315  0.00201850  -0.00135115  1
  Te  Te45  1  0.75184151  0.00310078  0.50114264  1
  Te  Te46  1  0.75271636  0.49807162  -0.00380307  1
  Te  Te47  1  0.75157650  0.49731763  0.50785333  1
  Te  Te48  1  -0.00088580  0.24967205  0.00178627  1
  Te  Te49  1  -0.00229301  0.24991520  0.49068871  1
  Te  Te50  1  -0.00670069  0.74914984  0.00185171  1
  Te  Te51  1  -0.01022713  0.74966248  0.49826268  1
  Te  Te52  1  0.50072737  0.24970431  0.00507372  1
  Te  Te53  1  0.50215308  0.25009988  0.49384642  1
  Te  Te54  1  0.50572987  0.75033675  0.00166118  1
  Te  Te55  1  0.50612233  0.74988407  0.49822455  1
  Te  Te56  1  0.00566939  0.00371881  0.24475621  1
  Te  Te57  1  0.00825790  -0.00056118  0.75666873  1
  Te  Te58  1  0.00112878  0.49460975  0.24205092  1
  Te  Te59  1  -0.00014157  0.50017898  0.75631542  1
  Te  Te60  1  0.49388403  0.00053874  0.24974892  1
  Te  Te61  1  0.49292294  -0.00689886  0.75047514  1
  Te  Te62  1  0.49882572  0.50162580  0.24974488  1
  Te  Te63  1  0.50016330  0.50550493  0.75035550  1
