# generated using pymatgen
data_AgSbTe2
_symmetry_space_group_name_H-M   'P 1'
_cell_length_a   12.32849854
_cell_length_b   12.30370065
_cell_length_c   12.31582630
_cell_angle_alpha   90.00072835
_cell_angle_beta   89.99980022
_cell_angle_gamma   89.99197732
_symmetry_Int_Tables_number   1
_chemical_formula_structural   AgSbTe2
_chemical_formula_sum   'Ag16 Sb16 Te32'
_cell_volume   1868.14032546
_cell_formula_units_Z   16
loop_
 _symmetry_equiv_pos_site_id
 _symmetry_equiv_pos_as_xyz
  1  'x, y, z'
loop_
 _atom_site_type_symbol
 _atom_site_label
 _atom_site_symmetry_multiplicity
 _atom_site_fract_x
 _atom_site_fract_y
 _atom_site_fract_z
 _atom_site_occupancy
  Ag  Ag0  1  0.51327848  0.48813577  0.49579800  1
  Ag  Ag1  1  0.50122625  0.25488936  0.75530143  1
  Ag  Ag2  1  -0.01990602  0.00702802  0.49685888  1
  Ag  Ag3  1  0.74863624  0.74377088  0.49482759  1
  Ag  Ag4  1  0.25524711  0.49370626  0.75626283  1
  Ag  Ag5  1  0.25582990  0.49592780  0.24617944  1
  Ag  Ag6  1  0.74717168  0.49105054  0.25891064  1
  Ag  Ag7  1  0.50908118  0.01776624  0.00124461  1
  Ag  Ag8  1  0.00091627  0.49201260  0.00543713  1
  Ag  Ag9  1  0.26794123  0.26055427  -0.00174312  1
  Ag  Ag10  1  0.74446723  0.01048838  0.26106420  1
  Ag  Ag11  1  0.49894198  0.48479507  0.00124992  1
  Ag  Ag12  1  0.74172808  0.25302623  0.49154002  1
  Ag  Ag13  1  0.51407576  0.01358423  0.49618915  1
  Ag  Ag14  1  -0.01393405  0.49519381  0.49445888  1
  Ag  Ag15  1  0.73770340  0.26050582  0.00354420  1
  Sb  Sb16  1  0.25205862  0.74062846  0.00037546  1
  Sb  Sb17  1  0.25514958  0.00733924  0.75102142  1
  Sb  Sb18  1  0.50276449  0.25313035  0.24688533  1
  Sb  Sb19  1  0.25112179  0.74623060  0.50006942  1
  Sb  Sb20  1  0.25836046  0.25400257  0.49948838  1
  Sb  Sb21  1  0.50023151  0.74568071  0.74885300  1
  Sb  Sb22  1  0.50008249  0.74777539  0.25091192  1
  Sb  Sb23  1  -0.00126657  0.74502264  0.74746543  1
  Sb  Sb24  1  0.74777152  0.49808526  0.74588160  1
  Sb  Sb25  1  -0.00072578  0.25348643  0.74698132  1
  Sb  Sb26  1  -0.00128755  0.74716495  0.25115827  1
  Sb  Sb27  1  0.74817254  0.74227688  0.00594076  1
  Sb  Sb28  1  0.25323927  0.00708460  0.24827368  1
  Sb  Sb29  1  0.74839435  0.00376992  0.74231258  1
  Sb  Sb30  1  -0.00202815  0.25250295  0.25461102  1
  Sb  Sb31  1  -0.00839249  0.01039737  0.00221419  1
  Te  Te32  1  0.24716364  0.25700456  0.24302595  1
  Te  Te33  1  0.25609708  0.25340138  0.75321408  1
  Te  Te34  1  0.24929354  0.73388036  0.24950521  1
  Te  Te35  1  0.24882954  0.73661445  0.75025919  1
  Te  Te36  1  0.75035153  0.25268308  0.25094178  1
  Te  Te37  1  0.74415172  0.24920595  0.75812355  1
  Te  Te38  1  0.74976805  0.74743495  0.25549307  1
  Te  Te39  1  0.75030702  0.75233370  0.73650288  1
  Te  Te40  1  0.24888765  0.00312145  0.00338482  1
  Te  Te41  1  0.25437999  -0.00015978  0.49660127  1
  Te  Te42  1  0.25510902  0.49895314  0.00478659  1
  Te  Te43  1  0.25141632  0.49852222  0.49191571  1
  Te  Te44  1  0.75104593  -0.00349062  0.00392478  1
  Te  Te45  1  0.74808622  0.01256168  0.49885567  1
  Te  Te46  1  0.74520919  0.50141584  -0.00162468  1
  Te  Te47  1  0.74796290  0.49067531  0.50190052  1
  Te  Te48  1  -0.00925586  0.25451774  -0.00225658  1
  Te  Te49  1  -0.00576884  0.25373423  0.50157681  1
  Te  Te50  1  0.00102865  0.73866890  -0.00134755  1
  Te  Te51  1  -0.00345332  0.74490676  0.49972337  1
  Te  Te52  1  0.50475696  0.25037627  0.00136632  1
  Te  Te53  1  0.50081619  0.25226743  0.50038699  1
  Te  Te54  1  0.49971297  0.75718744  -0.00196834  1
  Te  Te55  1  0.50160575  0.75090624  0.50063913  1
  Te  Te56  1  -0.00257439  -0.00107496  0.25631579  1
  Te  Te57  1  0.00229923  -0.00117110  0.74068034  1
  Te  Te58  1  -0.00928964  0.49916651  0.25288779  1
  Te  Te59  1  0.00733392  0.49892944  0.74759086  1
  Te  Te60  1  0.50248188  -0.00219458  0.25265194  1
  Te  Te61  1  0.49960686  0.00585861  0.75174216  1
  Te  Te62  1  0.50720198  0.49990029  0.25344174  1
  Te  Te63  1  0.49938754  0.49684952  0.75019126  1
