# generated using pymatgen
data_AgSbTe2
_symmetry_space_group_name_H-M   'P 1'
_cell_length_a   12.22663678
_cell_length_b   12.22849099
_cell_length_c   12.23011247
_cell_angle_alpha   90.00058093
_cell_angle_beta   90.00215852
_cell_angle_gamma   89.99671953
_symmetry_Int_Tables_number   1
_chemical_formula_structural   AgSbTe2
_chemical_formula_sum   'Ag16 Sb16 Te32'
_cell_volume   1828.56468808
_cell_formula_units_Z   16
loop_
 _symmetry_equiv_pos_site_id
 _symmetry_equiv_pos_as_xyz
  1  'x, y, z'
loop_
 _atom_site_type_symbol
 _atom_site_label
 _atom_site_symmetry_multiplicity
 _atom_site_fract_x
 _atom_site_fract_y
 _atom_site_fract_z
 _atom_site_occupancy
  Ag  Ag0  1  0.50130157  0.24329243  0.26277848  1
  Ag  Ag1  1  0.26393102  0.24659660  0.49482875  1
  Ag  Ag2  1  0.73644464  0.24265545  0.49616449  1
  Ag  Ag3  1  0.50631864  0.01330392  0.49387022  1
  Ag  Ag4  1  0.50248935  0.24660178  0.73691445  1
  Ag  Ag5  1  0.50194700  0.49319782  0.00319567  1
  Ag  Ag6  1  0.74766393  0.75832316  0.49625540  1
  Ag  Ag7  1  -0.00158895  0.24267796  0.24982183  1
  Ag  Ag8  1  -0.00288447  0.00211881  0.00755682  1
  Ag  Ag9  1  0.74859299  0.00390925  0.25395424  1
  Ag  Ag10  1  -0.00331129  0.75753323  0.24941604  1
  Ag  Ag11  1  0.50372392  0.00753024  0.00621796  1
  Ag  Ag12  1  0.25091693  0.00493610  0.25152557  1
  Ag  Ag13  1  -0.00214364  0.49753225  0.00443064  1
  Ag  Ag14  1  0.50207515  0.48494142  0.49690315  1
  Ag  Ag15  1  0.74629379  0.00330104  0.74493215  1
  Sb  Sb16  1  0.25130521  0.49403970  0.25138482  1
  Sb  Sb17  1  0.74850831  0.49511178  0.25088490  1
  Sb  Sb18  1  -0.00901082  0.00201864  0.48924724  1
  Sb  Sb19  1  0.25398312  0.00404338  0.74811571  1
  Sb  Sb20  1  -0.00395820  0.24617404  0.75083871  1
  Sb  Sb21  1  0.74699380  0.24614542  0.00499359  1
  Sb  Sb22  1  -0.00235531  0.49653456  0.49553552  1
  Sb  Sb23  1  0.75080503  0.75420416  0.00526365  1
  Sb  Sb24  1  -0.00507422  0.75345471  0.74991627  1
  Sb  Sb25  1  0.50452763  0.75846317  0.25196400  1
  Sb  Sb26  1  0.25294292  0.24802803  0.00561569  1
  Sb  Sb27  1  0.24952861  0.75174301  0.00444888  1
  Sb  Sb28  1  0.74759841  0.49461343  0.74873319  1
  Sb  Sb29  1  0.25204408  0.49558837  0.74925852  1
  Sb  Sb30  1  0.25257994  0.75463594  0.49468152  1
  Sb  Sb31  1  0.50401549  0.75404047  0.74845570  1
  Te  Te32  1  0.25050786  0.24523063  0.25388887  1
  Te  Te33  1  0.25674292  0.24903320  0.73928840  1
  Te  Te34  1  0.23988277  0.76037944  0.25102902  1
  Te  Te35  1  0.24867121  0.75016428  0.74842937  1
  Te  Te36  1  0.74944455  0.24655738  0.25316109  1
  Te  Te37  1  0.74606734  0.24482845  0.74239117  1
  Te  Te38  1  0.75475699  0.75655575  0.25516002  1
  Te  Te39  1  0.75023406  0.75931231  0.73960279  1
  Te  Te40  1  0.25143605  0.00041676  0.00405033  1
  Te  Te41  1  0.25672593  0.00281468  0.49727301  1
  Te  Te42  1  0.25296230  0.50048625  -0.00006889  1
  Te  Te43  1  0.25757259  0.49575152  0.49972001  1
  Te  Te44  1  0.74735090  0.00008883  0.00284854  1
  Te  Te45  1  0.74921741  0.00202576  0.49747546  1
  Te  Te46  1  0.74723125  0.50172128  -0.00050092  1
  Te  Te47  1  0.74491119  0.49855415  0.50002749  1
  Te  Te48  1  0.00029388  0.24947345  0.00334297  1
  Te  Te49  1  -0.00083065  0.25234409  0.49597974  1
  Te  Te50  1  -0.00010049  0.75034534  0.00504987  1
  Te  Te51  1  -0.00461185  0.74727626  0.49534347  1
  Te  Te52  1  0.50019535  0.24897432  0.00239229  1
  Te  Te53  1  0.50191981  0.24904153  0.49703180  1
  Te  Te54  1  0.50009949  0.74736535  -0.00004212  1
  Te  Te55  1  0.50395743  0.74936286  0.49935466  1
  Te  Te56  1  -0.00164157  0.00365054  0.24832647  1
  Te  Te57  1  -0.00511517  0.00054547  0.76311897  1
  Te  Te58  1  0.00020843  0.49700299  0.24423652  1
  Te  Te59  1  -0.00004062  0.50029757  0.76216666  1
  Te  Te60  1  0.50203334  0.00050314  0.24862042  1
  Te  Te61  1  0.50290630  0.00330064  0.75253300  1
  Te  Te62  1  0.49981502  0.49517232  0.24763277  1
  Te  Te63  1  0.50099137  0.49413319  0.75303298  1
