# generated using pymatgen
data_AgSbTe2
_symmetry_space_group_name_H-M   'P 1'
_cell_length_a   12.30743995
_cell_length_b   12.34162616
_cell_length_c   12.31947474
_cell_angle_alpha   89.99303940
_cell_angle_beta   90.00680282
_cell_angle_gamma   89.99262330
_symmetry_Int_Tables_number   1
_chemical_formula_structural   AgSbTe2
_chemical_formula_sum   'Ag16 Sb16 Te32'
_cell_volume   1871.25207104
_cell_formula_units_Z   16
loop_
 _symmetry_equiv_pos_site_id
 _symmetry_equiv_pos_as_xyz
  1  'x, y, z'
loop_
 _atom_site_type_symbol
 _atom_site_label
 _atom_site_symmetry_multiplicity
 _atom_site_fract_x
 _atom_site_fract_y
 _atom_site_fract_z
 _atom_site_occupancy
  Ag  Ag0  1  0.75855024  0.74885631  -0.00023724  1
  Ag  Ag1  1  0.76240530  0.25083496  0.00116826  1
  Ag  Ag2  1  0.76120819  0.49934828  0.76427119  1
  Ag  Ag3  1  0.75923088  0.49690287  0.23353920  1
  Ag  Ag4  1  0.23169633  0.49717098  0.75722219  1
  Ag  Ag5  1  -0.00965572  0.00372645  0.01163607  1
  Ag  Ag6  1  0.76002437  0.00414193  0.76767566  1
  Ag  Ag7  1  -0.00265830  0.49916893  0.50498030  1
  Ag  Ag8  1  -0.00743325  0.73999350  0.76501139  1
  Ag  Ag9  1  0.22918748  0.00387567  0.24032157  1
  Ag  Ag10  1  -0.01016982  0.49955255  -0.00030765  1
  Ag  Ag11  1  -0.00885453  0.24834420  0.24012593  1
  Ag  Ag12  1  0.76278060  0.00263885  0.23372363  1
  Ag  Ag13  1  -0.00647397  0.75099317  0.23505111  1
  Ag  Ag14  1  0.23280312  0.25134632  0.00021590  1
  Ag  Ag15  1  0.50689897  0.25257568  0.75705210  1
  Sb  Sb16  1  0.24397494  0.25203563  0.50243401  1
  Sb  Sb17  1  0.50186443  0.00309178  0.50101114  1
  Sb  Sb18  1  0.50835242  0.75116008  0.24627014  1
  Sb  Sb19  1  -0.00280977  0.25674684  0.75913583  1
  Sb  Sb20  1  0.75466157  0.74930571  0.49921039  1
  Sb  Sb21  1  0.50764353  0.74974504  0.75287641  1
  Sb  Sb22  1  0.23624232  0.00207223  0.76095934  1
  Sb  Sb23  1  0.23517836  0.49760826  0.24223726  1
  Sb  Sb24  1  0.75340543  0.25096198  0.50113914  1
  Sb  Sb25  1  0.50508644  0.24942973  0.24541398  1
  Sb  Sb26  1  0.24053509  0.74871314  0.49938420  1
  Sb  Sb27  1  0.51001209  0.49871765  0.00060070  1
  Sb  Sb28  1  0.23784276  0.74825393  -0.00035780  1
  Sb  Sb29  1  0.51075685  0.00209023  -0.00072611  1
  Sb  Sb30  1  -0.00036435  0.00404647  0.49645141  1
  Sb  Sb31  1  0.50303576  0.49758617  0.50214647  1
  Te  Te32  1  0.25714052  0.25039827  0.24431726  1
  Te  Te33  1  0.24763291  0.25075792  0.75413910  1
  Te  Te34  1  0.24726603  0.75205008  0.24851861  1
  Te  Te35  1  0.24783874  0.74782968  0.75075155  1
  Te  Te36  1  0.74777428  0.24873793  0.24881327  1
  Te  Te37  1  0.75448518  0.24986727  0.75098598  1
  Te  Te38  1  0.75235526  0.75177009  0.25044202  1
  Te  Te39  1  0.75361686  0.74735052  0.74922438  1
  Te  Te40  1  0.24240474  0.00078527  0.00318234  1
  Te  Te41  1  0.25168821  -0.00014696  0.48598943  1
  Te  Te42  1  0.24577693  0.49898249  -0.00310342  1
  Te  Te43  1  0.24578990  0.49939857  0.50983321  1
  Te  Te44  1  0.75347190  0.00660257  -0.00138194  1
  Te  Te45  1  0.74891139  0.00060485  0.49909544  1
  Te  Te46  1  0.75151336  0.49354567  -0.00105460  1
  Te  Te47  1  0.75412343  0.49896308  0.50378694  1
  Te  Te48  1  -0.00222684  0.24714921  0.00444986  1
  Te  Te49  1  0.00033510  0.25570237  0.47685775  1
  Te  Te50  1  -0.00488050  0.75005611  0.00059304  1
  Te  Te51  1  -0.00023951  0.74069523  0.50005836  1
  Te  Te52  1  0.49933463  0.25029441  -0.00463046  1
  Te  Te53  1  0.49834823  0.24954532  0.51363352  1
  Te  Te54  1  0.51835673  0.75033495  0.00209312  1
  Te  Te55  1  0.49626610  0.75142317  0.49811060  1
  Te  Te56  1  -0.00296474  -0.00135987  0.25198471  1
  Te  Te57  1  -0.00447272  -0.00437312  0.74301704  1
  Te  Te58  1  -0.00224307  0.50258884  0.23996155  1
  Te  Te59  1  -0.00209180  0.49936047  0.75717336  1
  Te  Te60  1  0.50716703  -0.00084205  0.25132906  1
  Te  Te61  1  0.50962075  -0.00041378  0.74939665  1
  Te  Te62  1  0.51703848  0.50164017  0.25269042  1
  Te  Te63  1  0.50590473  0.49966579  0.75010573  1
