# generated using pymatgen
data_AgSbTe2
_symmetry_space_group_name_H-M   'P 1'
_cell_length_a   12.19772031
_cell_length_b   12.20094341
_cell_length_c   12.20026154
_cell_angle_alpha   90.00006815
_cell_angle_beta   90.00286686
_cell_angle_gamma   90.00225024
_symmetry_Int_Tables_number   1
_chemical_formula_structural   AgSbTe2
_chemical_formula_sum   'Ag16 Sb16 Te32'
_cell_volume   1815.68800134
_cell_formula_units_Z   16
loop_
 _symmetry_equiv_pos_site_id
 _symmetry_equiv_pos_as_xyz
  1  'x, y, z'
loop_
 _atom_site_type_symbol
 _atom_site_label
 _atom_site_symmetry_multiplicity
 _atom_site_fract_x
 _atom_site_fract_y
 _atom_site_fract_z
 _atom_site_occupancy
  Ag  Ag0  1  0.25039400  0.49927034  0.74998738  1
  Ag  Ag1  1  0.50140479  0.25199715  0.24517767  1
  Ag  Ag2  1  0.24736984  0.75093975  0.50166202  1
  Ag  Ag3  1  0.49944780  0.74780633  0.24947850  1
  Ag  Ag4  1  0.74297526  0.25357182  0.00131964  1
  Ag  Ag5  1  0.24932247  0.00072147  0.74811472  1
  Ag  Ag6  1  0.25691453  0.25043018  -0.00151178  1
  Ag  Ag7  1  0.00337980  -0.00183998  0.50105934  1
  Ag  Ag8  1  0.74658431  0.49755670  0.24861546  1
  Ag  Ag9  1  0.74888131  0.25170392  0.49884729  1
  Ag  Ag10  1  0.00326440  0.74972441  0.74655642  1
  Ag  Ag11  1  0.49824721  0.00565488  0.00091840  1
  Ag  Ag12  1  0.50142233  0.49456690  0.00203689  1
  Ag  Ag13  1  0.74922362  0.49809097  0.75164675  1
  Ag  Ag14  1  0.00093526  0.74938721  0.25311734  1
  Ag  Ag15  1  0.25090572  0.24880130  0.50222585  1
  Sb  Sb16  1  0.25046825  0.00004928  0.25201918  1
  Sb  Sb17  1  0.00257778  0.00032799  -0.00181279  1
  Sb  Sb18  1  0.49765141  0.25168812  0.75814597  1
  Sb  Sb19  1  0.74901726  0.00382967  0.24982424  1
  Sb  Sb20  1  0.00075575  0.50352091  0.50021237  1
  Sb  Sb21  1  0.75286720  0.74853537  0.49895804  1
  Sb  Sb22  1  0.74783572  0.74482003  0.00049633  1
  Sb  Sb23  1  0.00254493  0.25055725  0.74774237  1
  Sb  Sb24  1  0.75083353  0.00233631  0.75013235  1
  Sb  Sb25  1  -0.00137378  0.49965569  -0.00049854  1
  Sb  Sb26  1  0.49638279  0.74802009  0.74907026  1
  Sb  Sb27  1  -0.00200193  0.25139029  0.25299865  1
  Sb  Sb28  1  0.25232715  0.74929038  -0.00256130  1
  Sb  Sb29  1  0.49556873  0.00281643  0.50005420  1
  Sb  Sb30  1  0.25448123  0.49982066  0.24866380  1
  Sb  Sb31  1  0.49976488  0.49799859  0.49668385  1
  Te  Te32  1  0.25350487  0.25126025  0.25059758  1
  Te  Te33  1  0.24844924  0.25117072  0.74823693  1
  Te  Te34  1  0.24990921  0.74879331  0.25485264  1
  Te  Te35  1  0.24711377  0.74884872  0.74707844  1
  Te  Te36  1  0.74784948  0.25379431  0.24988398  1
  Te  Te37  1  0.75183903  0.25531981  0.74940752  1
  Te  Te38  1  0.74902788  0.74365986  0.25138985  1
  Te  Te39  1  0.75587239  0.74347986  0.74889788  1
  Te  Te40  1  0.25367931  0.00538735  -0.00544881  1
  Te  Te41  1  0.24760054  0.00151949  0.50417628  1
  Te  Te42  1  0.25430797  0.49490538  -0.00505171  1
  Te  Te43  1  0.25031247  0.49821066  0.50664867  1
  Te  Te44  1  0.74420926  0.00904581  -0.00203239  1
  Te  Te45  1  0.75556738  0.00757778  0.50207206  1
  Te  Te46  1  0.74664849  0.49532510  -0.00068578  1
  Te  Te47  1  0.74991888  0.49355997  0.50116996  1
  Te  Te48  1  0.00065448  0.24823779  0.00138683  1
  Te  Te49  1  0.00185337  0.24386590  0.49810434  1
  Te  Te50  1  0.00010057  0.75176381  0.00158879  1
  Te  Te51  1  0.00321629  0.75301849  0.49963316  1
  Te  Te52  1  0.49954269  0.25089862  0.00167729  1
  Te  Te53  1  0.49903573  0.24854295  0.49193611  1
  Te  Te54  1  0.49943833  0.74960735  0.00726533  1
  Te  Te55  1  0.49441418  0.75102295  0.49273370  1
  Te  Te56  1  -0.00012625  -0.00808284  0.25496200  1
  Te  Te57  1  0.00436006  -0.00645357  0.74697673  1
  Te  Te58  1  -0.00734622  0.50698180  0.24976898  1
  Te  Te59  1  0.00051073  0.50668796  0.75036807  1
  Te  Te60  1  0.50004132  -0.00010121  0.24400231  1
  Te  Te61  1  0.49426575  -0.00280377  0.75623863  1
  Te  Te62  1  0.50337464  0.49949909  0.24643952  1
  Te  Te63  1  0.50048064  0.50241593  0.75634424  1
