# generated using pymatgen
data_AgSbTe2
_symmetry_space_group_name_H-M   'P 1'
_cell_length_a   12.23774870
_cell_length_b   12.23185053
_cell_length_c   12.24145215
_cell_angle_alpha   89.99976865
_cell_angle_beta   89.99733817
_cell_angle_gamma   89.99731685
_symmetry_Int_Tables_number   1
_chemical_formula_structural   AgSbTe2
_chemical_formula_sum   'Ag16 Sb16 Te32'
_cell_volume   1832.42679834
_cell_formula_units_Z   16
loop_
 _symmetry_equiv_pos_site_id
 _symmetry_equiv_pos_as_xyz
  1  'x, y, z'
loop_
 _atom_site_type_symbol
 _atom_site_label
 _atom_site_symmetry_multiplicity
 _atom_site_fract_x
 _atom_site_fract_y
 _atom_site_fract_z
 _atom_site_occupancy
  Ag  Ag0  1  0.49302242  0.50215975  0.50738648  1
  Ag  Ag1  1  0.50082796  0.00177804  -0.00170485  1
  Ag  Ag2  1  0.23789205  0.50352590  0.74815384  1
  Ag  Ag3  1  0.24815774  0.50217072  0.25195811  1
  Ag  Ag4  1  -0.00083554  -0.00120250  -0.00285744  1
  Ag  Ag5  1  0.24759292  0.74165740  0.50334665  1
  Ag  Ag6  1  0.75045120  0.25506115  -0.00215465  1
  Ag  Ag7  1  0.49950216  0.49861151  -0.00630256  1
  Ag  Ag8  1  0.00426248  0.74255691  0.24704509  1
  Ag  Ag9  1  0.00263445  0.73587605  0.75185665  1
  Ag  Ag10  1  0.49715282  0.74026458  0.75170328  1
  Ag  Ag11  1  -0.00041059  0.26481645  0.75491426  1
  Ag  Ag12  1  0.49933127  0.25612061  0.24497211  1
  Ag  Ag13  1  0.00036916  0.50093924  -0.01443160  1
  Ag  Ag14  1  0.00613428  0.50373376  0.51418177  1
  Ag  Ag15  1  0.76366887  0.50022028  0.75393971  1
  Sb  Sb16  1  0.24797807  0.74486697  -0.00327383  1
  Sb  Sb17  1  0.75057234  0.25593345  0.50288534  1
  Sb  Sb18  1  0.49542042  0.74500409  0.24879719  1
  Sb  Sb19  1  0.24977391  0.25471528  -0.00069739  1
  Sb  Sb20  1  0.75207948  0.74474076  0.50251545  1
  Sb  Sb21  1  0.75080396  0.49859218  0.24600009  1
  Sb  Sb22  1  0.49972679  0.26081327  0.75386166  1
  Sb  Sb23  1  0.00119343  0.25645155  0.24568076  1
  Sb  Sb24  1  0.00160488  -0.00322348  0.50284587  1
  Sb  Sb25  1  0.75167526  0.74525822  -0.00206402  1
  Sb  Sb26  1  0.75020659  0.00021588  0.75404309  1
  Sb  Sb27  1  0.49801310  -0.00124436  0.50184351  1
  Sb  Sb28  1  0.24934747  -0.00399210  0.75156195  1
  Sb  Sb29  1  0.75051640  0.00131617  0.24513535  1
  Sb  Sb30  1  0.24997121  0.25990815  0.50141287  1
  Sb  Sb31  1  0.24890076  -0.00235144  0.24746449  1
  Te  Te32  1  0.25440875  0.25630190  0.25171213  1
  Te  Te33  1  0.24434656  0.25565941  0.74816427  1
  Te  Te34  1  0.24565228  0.74439671  0.25540376  1
  Te  Te35  1  0.24929713  0.74676528  0.74777077  1
  Te  Te36  1  0.74523808  0.24988598  0.24382959  1
  Te  Te37  1  0.75379403  0.25455154  0.75405067  1
  Te  Te38  1  0.76037753  0.75065268  0.25046427  1
  Te  Te39  1  0.75040359  0.74481959  0.75054427  1
  Te  Te40  1  0.25035247  0.00054930  0.00042010  1
  Te  Te41  1  0.25045326  -0.01177212  0.49958238  1
  Te  Te42  1  0.25050125  0.50068970  -0.00022474  1
  Te  Te43  1  0.24994904  0.50249588  0.50094714  1
  Te  Te44  1  0.74999065  0.00786543  -0.00077674  1
  Te  Te45  1  0.74924276  0.00239689  0.49966306  1
  Te  Te46  1  0.74947935  0.49640628  -0.00374096  1
  Te  Te47  1  0.74961986  0.49901875  0.50705452  1
  Te  Te48  1  -0.00178326  0.25209375  -0.00141800  1
  Te  Te49  1  -0.00029810  0.25228292  0.50333563  1
  Te  Te50  1  -0.00151367  0.74793567  -0.00285408  1
  Te  Te51  1  0.00089369  0.74797783  0.50380068  1
  Te  Te52  1  0.50171765  0.25277471  0.00034573  1
  Te  Te53  1  0.50026295  0.25307744  0.49524924  1
  Te  Te54  1  0.50188106  0.74784432  -0.00237687  1
  Te  Te55  1  0.49812493  0.74641038  0.50144687  1
  Te  Te56  1  0.00113407  -0.00417673  0.24421353  1
  Te  Te57  1  0.00021206  -0.00239938  0.75528794  1
  Te  Te58  1  0.00166267  0.50184357  0.24904353  1
  Te  Te59  1  0.00138238  0.50177222  0.75142973  1
  Te  Te60  1  0.49944452  0.00275429  0.24367162  1
  Te  Te61  1  0.49946843  -0.00684607  0.75495544  1
  Te  Te62  1  0.49929221  0.49987660  0.24728028  1
  Te  Te63  1  0.49747411  0.50080083  0.75170499  1
