# generated using pymatgen
data_AgSbTe2
_symmetry_space_group_name_H-M   'P 1'
_cell_length_a   12.30824570
_cell_length_b   12.27447863
_cell_length_c   12.29602007
_cell_angle_alpha   89.99657561
_cell_angle_beta   90.00787434
_cell_angle_gamma   90.00675037
_symmetry_Int_Tables_number   1
_chemical_formula_structural   AgSbTe2
_chemical_formula_sum   'Ag16 Sb16 Te32'
_cell_volume   1857.64946322
_cell_formula_units_Z   16
loop_
 _symmetry_equiv_pos_site_id
 _symmetry_equiv_pos_as_xyz
  1  'x, y, z'
loop_
 _atom_site_type_symbol
 _atom_site_label
 _atom_site_symmetry_multiplicity
 _atom_site_fract_x
 _atom_site_fract_y
 _atom_site_fract_z
 _atom_site_occupancy
  Ag  Ag0  1  0.74442570  0.00525624  0.23669842  1
  Ag  Ag1  1  0.00208683  0.00308906  -0.00510315  1
  Ag  Ag2  1  0.49385792  0.48859579  0.51111405  1
  Ag  Ag3  1  0.49870495  0.00381585  -0.01211273  1
  Ag  Ag4  1  0.73732895  0.01118617  0.76020433  1
  Ag  Ag5  1  0.00204655  0.49642084  -0.01056415  1
  Ag  Ag6  1  0.26198538  0.00775149  0.75654292  1
  Ag  Ag7  1  0.00541412  0.49399426  0.51519678  1
  Ag  Ag8  1  0.24886915  0.76192659  -0.00406601  1
  Ag  Ag9  1  0.25720427  0.24919392  0.50876347  1
  Ag  Ag10  1  0.49425449  0.00873255  0.51129277  1
  Ag  Ag11  1  0.25131291  0.49184613  0.74703267  1
  Ag  Ag12  1  0.74886162  0.49075112  0.75255260  1
  Ag  Ag13  1  0.25496856  0.00257307  0.23918755  1
  Ag  Ag14  1  0.49845014  0.24295957  0.74773848  1
  Ag  Ag15  1  0.74921927  0.23810126  -0.00848914  1
  Sb  Sb16  1  0.25115781  0.49586650  0.24974258  1
  Sb  Sb17  1  0.25087289  0.75062643  0.50306444  1
  Sb  Sb18  1  0.49817664  0.75302209  0.24892360  1
  Sb  Sb19  1  0.74862810  0.49230894  0.24699725  1
  Sb  Sb20  1  0.00239957  0.75172398  0.24840313  1
  Sb  Sb21  1  0.00319620  0.00528127  0.50473819  1
  Sb  Sb22  1  0.75006850  0.75572316  -0.00040814  1
  Sb  Sb23  1  0.74470316  0.24947072  0.50757078  1
  Sb  Sb24  1  0.25190841  0.24611284  -0.00611532  1
  Sb  Sb25  1  0.49953838  0.49532734  -0.01260073  1
  Sb  Sb26  1  0.49971424  0.75738096  0.75038013  1
  Sb  Sb27  1  0.00121547  0.25091170  0.75084092  1
  Sb  Sb28  1  0.00060602  0.74889835  0.75088880  1
  Sb  Sb29  1  0.74934226  0.75027225  0.50029633  1
  Sb  Sb30  1  0.00131636  0.24863236  0.24807638  1
  Sb  Sb31  1  0.49925212  0.24652232  0.25091695  1
  Te  Te32  1  0.25047937  0.24382241  0.26241802  1
  Te  Te33  1  0.25371797  0.25143845  0.74670195  1
  Te  Te34  1  0.25020080  0.76100867  0.24002606  1
  Te  Te35  1  0.25029033  0.74839850  0.75529484  1
  Te  Te36  1  0.74959299  0.24329141  0.23784997  1
  Te  Te37  1  0.74570535  0.24984473  0.75300373  1
  Te  Te38  1  0.74941894  0.76567397  0.25086188  1
  Te  Te39  1  0.75018478  0.74554580  0.74964288  1
  Te  Te40  1  0.24779445  0.00522071  -0.00490587  1
  Te  Te41  1  0.24700002  -0.00215822  0.50882011  1
  Te  Te42  1  0.24887306  0.49422944  0.00109010  1
  Te  Te43  1  0.25235743  0.50342688  0.49911450  1
  Te  Te44  1  0.75119360  -0.00156822  -0.00534780  1
  Te  Te45  1  0.75239419  0.00105418  0.50705002  1
  Te  Te46  1  0.74909008  0.50384606  -0.00214575  1
  Te  Te47  1  0.74962565  0.49906814  0.50244139  1
  Te  Te48  1  -0.00458507  0.24957906  -0.00071278  1
  Te  Te49  1  0.00864898  0.25680496  0.50013383  1
  Te  Te50  1  0.00526727  0.75031785  -0.00045630  1
  Te  Te51  1  -0.00079162  0.73264239  0.49919185  1
  Te  Te52  1  0.50278729  0.24513070  -0.00559696  1
  Te  Te53  1  0.49761316  0.24601012  0.50400185  1
  Te  Te54  1  0.49292931  0.75967803  0.00019855  1
  Te  Te55  1  0.50091951  0.75284817  0.49995776  1
  Te  Te56  1  0.00109227  0.00102409  0.24671846  1
  Te  Te57  1  -0.00046303  0.00014445  0.75287694  1
  Te  Te58  1  -0.00168093  0.50005313  0.24258718  1
  Te  Te59  1  0.00135407  0.49942526  0.75384233  1
  Te  Te60  1  0.49839058  0.00233106  0.25310890  1
  Te  Te61  1  0.49921864  0.00235459  0.74863054  1
  Te  Te62  1  0.50171576  0.49919152  0.26737799  1
  Te  Te63  1  0.49857787  0.49604658  0.74851968  1
