# generated using pymatgen
data_AgSbTe2
_symmetry_space_group_name_H-M   'P 1'
_cell_length_a   12.21988940
_cell_length_b   12.22967399
_cell_length_c   12.22131848
_cell_angle_alpha   89.99323739
_cell_angle_beta   90.00525328
_cell_angle_gamma   90.00261564
_symmetry_Int_Tables_number   1
_chemical_formula_structural   AgSbTe2
_chemical_formula_sum   'Ag16 Sb16 Te32'
_cell_volume   1826.41813964
_cell_formula_units_Z   16
loop_
 _symmetry_equiv_pos_site_id
 _symmetry_equiv_pos_as_xyz
  1  'x, y, z'
loop_
 _atom_site_type_symbol
 _atom_site_label
 _atom_site_symmetry_multiplicity
 _atom_site_fract_x
 _atom_site_fract_y
 _atom_site_fract_z
 _atom_site_occupancy
  Ag  Ag0  1  0.24873425  0.24860043  0.50664840  1
  Ag  Ag1  1  -0.00172720  -0.00101462  0.50647575  1
  Ag  Ag2  1  0.74959781  0.75120669  0.50336384  1
  Ag  Ag3  1  0.75024449  0.24771218  -0.00391055  1
  Ag  Ag4  1  0.50518707  0.75303127  0.74881571  1
  Ag  Ag5  1  0.24994505  0.00220404  0.74810642  1
  Ag  Ag6  1  0.74830825  -0.00418282  0.24859682  1
  Ag  Ag7  1  0.50156214  0.50334969  0.50396302  1
  Ag  Ag8  1  0.50677898  0.75256976  0.25154054  1
  Ag  Ag9  1  0.50522053  -0.00240835  -0.00463181  1
  Ag  Ag10  1  -0.00460654  0.75035564  0.74681625  1
  Ag  Ag11  1  -0.00177072  0.50107983  0.50617699  1
  Ag  Ag12  1  0.49969928  0.24646981  0.74907129  1
  Ag  Ag13  1  0.00035008  0.24934058  0.74706799  1
  Ag  Ag14  1  0.74807478  0.75305716  -0.00272575  1
  Ag  Ag15  1  -0.00460267  0.50071574  -0.00761147  1
  Sb  Sb16  1  0.75167327  0.24845889  0.50431056  1
  Sb  Sb17  1  0.50173607  -0.00276611  0.50472281  1
  Sb  Sb18  1  0.74934874  -0.00235385  0.75096046  1
  Sb  Sb19  1  0.24949541  0.24730102  -0.00605801  1
  Sb  Sb20  1  0.25073524  0.50026695  0.25285668  1
  Sb  Sb21  1  0.75283923  0.50270869  0.74908311  1
  Sb  Sb22  1  0.24784151  0.49736890  0.74814630  1
  Sb  Sb23  1  -0.00541824  0.75159941  0.25196136  1
  Sb  Sb24  1  0.24915721  0.75083856  0.50329266  1
  Sb  Sb25  1  0.50359679  0.50198109  -0.00381265  1
  Sb  Sb26  1  -0.00289802  0.24916337  0.25185397  1
  Sb  Sb27  1  0.25053311  0.75163553  -0.00366399  1
  Sb  Sb28  1  0.50359746  0.24843576  0.25134085  1
  Sb  Sb29  1  0.74903823  0.50373790  0.25093041  1
  Sb  Sb30  1  -0.00536351  -0.00041503  -0.00654336  1
  Sb  Sb31  1  0.25098915  0.00003903  0.25188430  1
  Te  Te32  1  0.25028551  0.24941883  0.26014631  1
  Te  Te33  1  0.24978377  0.24517966  0.74615858  1
  Te  Te34  1  0.26168229  0.75107753  0.24921217  1
  Te  Te35  1  0.24969548  0.75772636  0.74998333  1
  Te  Te36  1  0.74924401  0.24196702  0.24078498  1
  Te  Te37  1  0.74960361  0.24955131  0.75517498  1
  Te  Te38  1  0.74601009  0.75365469  0.24960574  1
  Te  Te39  1  0.74976081  0.75030092  0.74919232  1
  Te  Te40  1  0.25783722  0.00083192  -0.00426354  1
  Te  Te41  1  0.24548198  0.00420850  0.50335429  1
  Te  Te42  1  0.23888880  0.49915417  0.00142810  1
  Te  Te43  1  0.24814341  0.49431327  0.49933220  1
  Te  Te44  1  0.74694134  -0.00296233  0.00396422  1
  Te  Te45  1  0.75357374  -0.00346085  0.49419672  1
  Te  Te46  1  0.75556503  0.50074483  0.00153442  1
  Te  Te47  1  0.75134396  0.50439471  0.49876299  1
  Te  Te48  1  -0.00230604  0.25115121  -0.00478108  1
  Te  Te49  1  -0.00225037  0.25229276  0.50409258  1
  Te  Te50  1  -0.00485306  0.74846902  -0.00308595  1
  Te  Te51  1  -0.00156062  0.74791417  0.50242086  1
  Te  Te52  1  0.50206923  0.25117089  -0.00457739  1
  Te  Te53  1  0.50086376  0.25256823  0.50425030  1
  Te  Te54  1  0.50434644  0.74843634  -0.00572168  1
  Te  Te55  1  0.50201663  0.74892524  0.50542810  1
  Te  Te56  1  -0.00298993  -0.00087494  0.25715490  1
  Te  Te57  1  0.00340619  -0.00020980  0.74716586  1
  Te  Te58  1  0.00046298  0.50069998  0.25433701  1
  Te  Te59  1  0.00170639  0.50077255  0.74677846  1
  Te  Te60  1  0.50287997  -0.00329553  0.24609201  1
  Te  Te61  1  0.49690198  -0.00040054  0.75143285  1
  Te  Te62  1  0.49977966  0.50513688  0.25608555  1
  Te  Te63  1  0.49778853  0.50105592  0.74533092  1
