# generated using pymatgen
data_AgSbTe2
_symmetry_space_group_name_H-M   'P 1'
_cell_length_a   12.26340990
_cell_length_b   12.24348039
_cell_length_c   12.26758752
_cell_angle_alpha   89.99771581
_cell_angle_beta   89.99595656
_cell_angle_gamma   90.00001689
_symmetry_Int_Tables_number   1
_chemical_formula_structural   AgSbTe2
_chemical_formula_sum   'Ag16 Sb16 Te32'
_cell_volume   1841.93923182
_cell_formula_units_Z   16
loop_
 _symmetry_equiv_pos_site_id
 _symmetry_equiv_pos_as_xyz
  1  'x, y, z'
loop_
 _atom_site_type_symbol
 _atom_site_label
 _atom_site_symmetry_multiplicity
 _atom_site_fract_x
 _atom_site_fract_y
 _atom_site_fract_z
 _atom_site_occupancy
  Ag  Ag0  1  0.74877627  -0.00281814  0.24997450  1
  Ag  Ag1  1  0.00566134  0.24983235  0.75161395  1
  Ag  Ag2  1  0.25435328  0.50519092  0.24955808  1
  Ag  Ag3  1  0.00390953  -0.00350480  -0.00016567  1
  Ag  Ag4  1  0.00572771  -0.00486187  0.49941139  1
  Ag  Ag5  1  0.25132764  -0.00536355  0.25245975  1
  Ag  Ag6  1  0.49358871  -0.00854609  0.49563979  1
  Ag  Ag7  1  0.49315108  0.50662498  0.00145869  1
  Ag  Ag8  1  0.74641940  0.50284625  0.24826494  1
  Ag  Ag9  1  0.49082093  0.74684904  0.74653201  1
  Ag  Ag10  1  0.25337568  0.75046750  0.50364163  1
  Ag  Ag11  1  0.00642525  0.50340050  -0.00273521  1
  Ag  Ag12  1  0.24978472  0.50753867  0.75067317  1
  Ag  Ag13  1  0.00895099  0.74942353  0.74956809  1
  Ag  Ag14  1  0.49578060  -0.00683929  0.00469109  1
  Ag  Ag15  1  0.49302561  0.50917004  0.49900146  1
  Sb  Sb16  1  0.75132471  0.24987187  -0.00013095  1
  Sb  Sb17  1  0.74521622  0.74976964  0.49949047  1
  Sb  Sb18  1  0.49194808  0.25246562  0.74953121  1
  Sb  Sb19  1  0.24770855  0.24755315  0.50218241  1
  Sb  Sb20  1  0.25040872  0.74892526  -0.00629207  1
  Sb  Sb21  1  0.00814430  0.50786774  0.50149075  1
  Sb  Sb22  1  0.24783113  0.24975912  -0.00283156  1
  Sb  Sb23  1  0.74953776  0.50133151  0.75247893  1
  Sb  Sb24  1  0.49480706  0.74986695  0.25508116  1
  Sb  Sb25  1  0.00109067  0.24837877  0.24937770  1
  Sb  Sb26  1  0.74924607  0.75010598  0.00114471  1
  Sb  Sb27  1  0.00467961  0.75149469  0.25105639  1
  Sb  Sb28  1  0.24812678  -0.00940862  0.74612215  1
  Sb  Sb29  1  0.49950451  0.25010153  0.25003655  1
  Sb  Sb30  1  0.75084260  -0.00094412  0.75112112  1
  Sb  Sb31  1  0.75190525  0.25049068  0.49987709  1
  Te  Te32  1  0.24807813  0.25311950  0.25136527  1
  Te  Te33  1  0.24177367  0.26745314  0.74894072  1
  Te  Te34  1  0.24896482  0.74810255  0.26281064  1
  Te  Te35  1  0.25058312  0.74436173  0.74445971  1
  Te  Te36  1  0.75165809  0.25039425  0.25047141  1
  Te  Te37  1  0.76688988  0.25074152  0.74950665  1
  Te  Te38  1  0.75250122  0.74983372  0.25120018  1
  Te  Te39  1  0.75093824  0.74930886  0.74880671  1
  Te  Te40  1  0.25063404  -0.00227079  0.00797577  1
  Te  Te41  1  0.25294882  -0.00268028  0.49780653  1
  Te  Te42  1  0.25150708  0.50241551  0.00459332  1
  Te  Te43  1  0.25210694  0.50351079  0.49562716  1
  Te  Te44  1  0.74942962  -0.00060260  0.01030868  1
  Te  Te45  1  0.74734280  -0.00030384  0.48939009  1
  Te  Te46  1  0.74827869  0.50069183  0.00869315  1
  Te  Te47  1  0.73956966  0.50032242  0.48845994  1
  Te  Te48  1  0.00040616  0.24777529  -0.00824772  1
  Te  Te49  1  0.00078494  0.23676345  0.50956611  1
  Te  Te50  1  0.00153537  0.75189126  -0.01068194  1
  Te  Te51  1  0.00675002  0.75538490  0.50850353  1
  Te  Te52  1  0.50043639  0.24834697  -0.00482323  1
  Te  Te53  1  0.49958321  0.24615261  0.50529570  1
  Te  Te54  1  0.49868519  0.75059620  -0.01202015  1
  Te  Te55  1  0.49651243  0.75187177  0.50502661  1
  Te  Te56  1  0.00208785  0.00019155  0.24667609  1
  Te  Te57  1  0.00145656  -0.00561143  0.75448167  1
  Te  Te58  1  0.00321599  0.49978783  0.24552057  1
  Te  Te59  1  -0.00109961  0.50648948  0.75226871  1
  Te  Te60  1  0.49757385  -0.00118331  0.24884976  1
  Te  Te61  1  0.49947324  -0.00173013  0.75103816  1
  Te  Te62  1  0.49536155  0.50117603  0.24661002  1
  Te  Te63  1  0.50063125  0.50065944  0.75219647  1
