# generated using pymatgen
data_AgSbTe2
_symmetry_space_group_name_H-M   'P 1'
_cell_length_a   12.21723666
_cell_length_b   12.22020663
_cell_length_c   12.22019603
_cell_angle_alpha   90.00027344
_cell_angle_beta   89.99271549
_cell_angle_gamma   90.00038734
_symmetry_Int_Tables_number   1
_chemical_formula_structural   AgSbTe2
_chemical_formula_sum   'Ag16 Sb16 Te32'
_cell_volume   1824.44050397
_cell_formula_units_Z   16
loop_
 _symmetry_equiv_pos_site_id
 _symmetry_equiv_pos_as_xyz
  1  'x, y, z'
loop_
 _atom_site_type_symbol
 _atom_site_label
 _atom_site_symmetry_multiplicity
 _atom_site_fract_x
 _atom_site_fract_y
 _atom_site_fract_z
 _atom_site_occupancy
  Ag  Ag0  1  0.49491496  0.25090383  0.25032915  1
  Ag  Ag1  1  0.74876333  0.00722706  0.74524818  1
  Ag  Ag2  1  0.74825294  0.75439961  0.50499952  1
  Ag  Ag3  1  0.25147035  0.24658399  0.50532274  1
  Ag  Ag4  1  0.74893333  0.24559874  0.50781975  1
  Ag  Ag5  1  0.25148713  0.00516516  0.25212709  1
  Ag  Ag6  1  0.25138782  0.00691999  0.74716990  1
  Ag  Ag7  1  0.74504000  0.24911805  -0.00761410  1
  Ag  Ag8  1  0.49698493  0.75035390  0.75048455  1
  Ag  Ag9  1  0.25457336  0.49515129  0.24865263  1
  Ag  Ag10  1  0.00082309  0.00445646  0.50448566  1
  Ag  Ag11  1  0.49554706  0.49624092  -0.00348425  1
  Ag  Ag12  1  0.49810055  0.24936000  0.74958863  1
  Ag  Ag13  1  0.25487883  0.49430396  0.75154977  1
  Ag  Ag14  1  0.25391292  0.74822437  -0.00395939  1
  Ag  Ag15  1  0.00201261  0.24611602  0.74627218  1
  Sb  Sb16  1  0.74513336  0.75081249  -0.00632947  1
  Sb  Sb17  1  0.49776678  0.49646536  0.50376914  1
  Sb  Sb18  1  0.00191930  0.75182903  0.25221129  1
  Sb  Sb19  1  0.74494302  0.49639123  0.24964846  1
  Sb  Sb20  1  0.00236457  0.00333453  -0.00468618  1
  Sb  Sb21  1  0.00619103  0.24803120  0.25299819  1
  Sb  Sb22  1  0.25194744  0.75438869  0.50412826  1
  Sb  Sb23  1  0.49684335  0.74906673  0.24971939  1
  Sb  Sb24  1  0.00212075  0.49541066  0.50261111  1
  Sb  Sb25  1  0.25465189  0.25208063  -0.00633394  1
  Sb  Sb26  1  0.00430814  0.49687040  -0.00278419  1
  Sb  Sb27  1  0.00174791  0.75329247  0.74783509  1
  Sb  Sb28  1  0.49899855  0.00430259  -0.00319690  1
  Sb  Sb29  1  0.74471501  0.49146259  0.75034294  1
  Sb  Sb30  1  0.49894976  0.00355163  0.50349571  1
  Sb  Sb31  1  0.74806783  0.00427479  0.25541004  1
  Te  Te32  1  0.25262048  0.24899912  0.25098503  1
  Te  Te33  1  0.25347178  0.24748329  0.75162365  1
  Te  Te34  1  0.25196833  0.75042551  0.24763315  1
  Te  Te35  1  0.25303485  0.75135983  0.75016570  1
  Te  Te36  1  0.74435553  0.24932224  0.25258986  1
  Te  Te37  1  0.74652887  0.24947037  0.74684902  1
  Te  Te38  1  0.74940192  0.74999319  0.25585523  1
  Te  Te39  1  0.74699125  0.75414298  0.74812966  1
  Te  Te40  1  0.24887841  -0.00451929  -0.00154274  1
  Te  Te41  1  0.24756899  0.00191639  0.50329244  1
  Te  Te42  1  0.25350761  0.50127016  -0.00177091  1
  Te  Te43  1  0.24891130  0.49606438  0.50065906  1
  Te  Te44  1  0.75132069  0.00372880  -0.00509061  1
  Te  Te45  1  0.75295836  0.00442780  0.50267750  1
  Te  Te46  1  0.74426680  0.49674724  0.00105202  1
  Te  Te47  1  0.75159907  0.49776415  0.49911974  1
  Te  Te48  1  -0.01024589  0.25026373  -0.00609700  1
  Te  Te49  1  0.00068155  0.24674967  0.50341828  1
  Te  Te50  1  0.00574181  0.74942468  0.00039856  1
  Te  Te51  1  -0.00690222  0.75665310  0.50065142  1
  Te  Te52  1  0.50315170  0.25345959  -0.00220993  1
  Te  Te53  1  0.49880328  0.25093241  0.50199987  1
  Te  Te54  1  0.49714564  0.74398708  -0.00464466  1
  Te  Te55  1  0.50555510  0.74843968  0.50610176  1
  Te  Te56  1  0.00731521  0.00035620  0.25685038  1
  Te  Te57  1  0.00137486  0.00385962  0.74665107  1
  Te  Te58  1  0.01099367  0.50024004  0.24963806  1
  Te  Te59  1  0.00929686  0.49356857  0.75009348  1
  Te  Te60  1  0.49323414  0.00560465  0.24830179  1
  Te  Te61  1  0.49847569  0.00211169  0.75102310  1
  Te  Te62  1  0.49443976  0.49612765  0.24483112  1
  Te  Te63  1  0.49580267  0.49793716  0.75293395  1
