# generated using pymatgen
data_AgSbTe2
_symmetry_space_group_name_H-M   'P 1'
_cell_length_a   12.20577553
_cell_length_b   12.21255072
_cell_length_c   12.21196407
_cell_angle_alpha   89.99955083
_cell_angle_beta   90.00091826
_cell_angle_gamma   89.99696331
_symmetry_Int_Tables_number   1
_chemical_formula_structural   AgSbTe2
_chemical_formula_sum   'Ag16 Sb16 Te32'
_cell_volume   1820.35996745
_cell_formula_units_Z   16
loop_
 _symmetry_equiv_pos_site_id
 _symmetry_equiv_pos_as_xyz
  1  'x, y, z'
loop_
 _atom_site_type_symbol
 _atom_site_label
 _atom_site_symmetry_multiplicity
 _atom_site_fract_x
 _atom_site_fract_y
 _atom_site_fract_z
 _atom_site_occupancy
  Ag  Ag0  1  0.00387445  0.25640115  0.24989951  1
  Ag  Ag1  1  0.74789785  0.74929029  0.49756026  1
  Ag  Ag2  1  0.25359188  -0.00295520  0.75118109  1
  Ag  Ag3  1  0.00232666  -0.00125140  0.49830602  1
  Ag  Ag4  1  0.00727858  0.49928966  0.00590606  1
  Ag  Ag5  1  0.25070240  0.25422208  0.00400733  1
  Ag  Ag6  1  0.49599421  0.25081344  0.24860740  1
  Ag  Ag7  1  0.25355398  0.74625759  -0.00079369  1
  Ag  Ag8  1  0.24985287  0.50301377  0.75475623  1
  Ag  Ag9  1  0.49803919  0.74991709  0.25026012  1
  Ag  Ag10  1  0.00175784  0.50055506  0.49355315  1
  Ag  Ag11  1  0.49460838  -0.00242750  0.00109401  1
  Ag  Ag12  1  0.49482817  0.75227053  0.75014297  1
  Ag  Ag13  1  0.49804457  -0.00374847  0.49888994  1
  Ag  Ag14  1  0.75207833  0.50135644  0.25106349  1
  Ag  Ag15  1  0.24678480  0.49852716  0.24576179  1
  Sb  Sb16  1  0.00402957  0.25066731  0.75033516  1
  Sb  Sb17  1  0.49860944  0.50399819  0.49653690  1
  Sb  Sb18  1  0.74832106  -0.00355670  0.25161820  1
  Sb  Sb19  1  0.74781653  0.25236948  0.00392020  1
  Sb  Sb20  1  0.00681503  0.74976695  0.74885434  1
  Sb  Sb21  1  0.74581989  0.74686195  0.00297888  1
  Sb  Sb22  1  0.25025527  0.25011699  0.49414969  1
  Sb  Sb23  1  0.74945785  0.25197022  0.49657874  1
  Sb  Sb24  1  0.49045015  0.50214442  0.00320572  1
  Sb  Sb25  1  0.74634035  -0.00305600  0.74771646  1
  Sb  Sb26  1  0.25303136  0.75018539  0.50036262  1
  Sb  Sb27  1  0.00685487  0.00087135  0.00197326  1
  Sb  Sb28  1  0.00353452  0.74228148  0.25135154  1
  Sb  Sb29  1  0.25221214  0.00073384  0.24853007  1
  Sb  Sb30  1  0.74983725  0.50387947  0.74874441  1
  Sb  Sb31  1  0.49511401  0.24789309  0.75177509  1
  Te  Te32  1  0.25125578  0.25252074  0.24602608  1
  Te  Te33  1  0.25072802  0.25134816  0.75809784  1
  Te  Te34  1  0.25474078  0.74628700  0.24644438  1
  Te  Te35  1  0.25469937  0.74943715  0.75228836  1
  Te  Te36  1  0.74894330  0.25792765  0.24967394  1
  Te  Te37  1  0.74946086  0.25087856  0.75033215  1
  Te  Te38  1  0.74340746  0.74497105  0.25370984  1
  Te  Te39  1  0.74010902  0.74893698  0.74441732  1
  Te  Te40  1  0.25243349  -0.00140310  -0.00289714  1
  Te  Te41  1  0.24967063  0.00012530  0.50513986  1
  Te  Te42  1  0.24860629  0.50037953  0.00089576  1
  Te  Te43  1  0.24464585  0.50007610  0.49945008  1
  Te  Te44  1  0.74244990  -0.00059877  -0.00036889  1
  Te  Te45  1  0.75033978  -0.00547453  0.50035738  1
  Te  Te46  1  0.76021378  0.50097512  0.00466035  1
  Te  Te47  1  0.75540266  0.50369262  0.49695969  1
  Te  Te48  1  0.00462882  0.25228692  0.00542380  1
  Te  Te49  1  0.00037447  0.25016573  0.49429292  1
  Te  Te50  1  0.00499977  0.74720613  0.00012790  1
  Te  Te51  1  -0.00431717  0.75097115  0.49921181  1
  Te  Te52  1  0.49613645  0.24549202  0.00466435  1
  Te  Te53  1  0.50019491  0.24175947  0.49366919  1
  Te  Te54  1  0.49697883  0.75248963  0.00129055  1
  Te  Te55  1  0.50135387  0.75357158  0.49794901  1
  Te  Te56  1  0.00003331  0.00681274  0.25559008  1
  Te  Te57  1  0.00597676  0.00025840  0.74399505  1
  Te  Te58  1  0.00287265  0.49973665  0.25128298  1
  Te  Te59  1  0.00521542  0.49992906  0.74882789  1
  Te  Te60  1  0.49941556  -0.00064792  0.25156361  1
  Te  Te61  1  0.49628510  -0.00217155  0.74855321  1
  Te  Te62  1  0.49869829  0.49939387  0.25070732  1
  Te  Te63  1  0.49433251  0.50400746  0.74883637  1
