# generated using pymatgen
data_AgSbTe2
_symmetry_space_group_name_H-M   'P 1'
_cell_length_a   12.21511337
_cell_length_b   12.22072181
_cell_length_c   12.22595269
_cell_angle_alpha   90.00550606
_cell_angle_beta   90.00066847
_cell_angle_gamma   90.00387471
_symmetry_Int_Tables_number   1
_chemical_formula_structural   AgSbTe2
_chemical_formula_sum   'Ag16 Sb16 Te32'
_cell_volume   1825.05966841
_cell_formula_units_Z   16
loop_
 _symmetry_equiv_pos_site_id
 _symmetry_equiv_pos_as_xyz
  1  'x, y, z'
loop_
 _atom_site_type_symbol
 _atom_site_label
 _atom_site_symmetry_multiplicity
 _atom_site_fract_x
 _atom_site_fract_y
 _atom_site_fract_z
 _atom_site_occupancy
  Ag  Ag0  1  0.24511102  0.24524120  0.49972688  1
  Ag  Ag1  1  -0.00162392  0.24657009  0.75154800  1
  Ag  Ag2  1  0.24095466  0.75473914  0.49736613  1
  Ag  Ag3  1  0.24656960  -0.00451593  0.25118996  1
  Ag  Ag4  1  -0.00059051  0.50728993  0.49866146  1
  Ag  Ag5  1  0.75585192  -0.00127448  0.75216840  1
  Ag  Ag6  1  -0.00182346  0.50544924  0.00123751  1
  Ag  Ag7  1  -0.00025925  0.75284528  0.74954381  1
  Ag  Ag8  1  0.75582452  0.24593512  -0.00145731  1
  Ag  Ag9  1  0.75922292  0.75167316  0.49961555  1
  Ag  Ag10  1  0.24061303  0.75561847  0.00186746  1
  Ag  Ag11  1  -0.00031472  -0.00543010  -0.00262236  1
  Ag  Ag12  1  0.75817042  0.50294817  0.24986562  1
  Ag  Ag13  1  0.49700092  -0.00234141  0.50008594  1
  Ag  Ag14  1  0.00203379  0.74946515  0.25081301  1
  Ag  Ag15  1  0.50058776  -0.00168244  -0.00031582  1
  Sb  Sb16  1  0.24410161  0.50090355  0.74967732  1
  Sb  Sb17  1  0.75681842  0.50198764  0.75059586  1
  Sb  Sb18  1  0.50022433  0.50213411  0.49835149  1
  Sb  Sb19  1  0.75984630  0.75288538  0.00006321  1
  Sb  Sb20  1  0.24474517  0.24500820  0.00009966  1
  Sb  Sb21  1  0.49811124  0.75312500  0.25007697  1
  Sb  Sb22  1  0.75489168  0.24833625  0.50170877  1
  Sb  Sb23  1  0.24254359  0.50474158  0.25018476  1
  Sb  Sb24  1  0.50181273  0.50253957  0.00187278  1
  Sb  Sb25  1  0.00030144  0.24972822  0.25014808  1
  Sb  Sb26  1  0.75411356  -0.00249017  0.24904542  1
  Sb  Sb27  1  0.50135179  0.24475139  0.74998227  1
  Sb  Sb28  1  0.49971133  0.24679237  0.25008736  1
  Sb  Sb29  1  0.50142055  0.75467644  0.75042506  1
  Sb  Sb30  1  0.00200420  -0.00759267  0.50229942  1
  Sb  Sb31  1  0.24425897  -0.00150295  0.74891867  1
  Te  Te32  1  0.24964259  0.24348086  0.25626813  1
  Te  Te33  1  0.24201061  0.25030365  0.74400115  1
  Te  Te34  1  0.24526319  0.75340555  0.25145073  1
  Te  Te35  1  0.24263371  0.75013599  0.74884916  1
  Te  Te36  1  0.75050277  0.25432954  0.24497706  1
  Te  Te37  1  0.75640096  0.24473531  0.75353721  1
  Te  Te38  1  0.75590621  0.74750115  0.25437502  1
  Te  Te39  1  0.75621740  0.75473076  0.74530826  1
  Te  Te40  1  0.24868263  -0.00167537  0.00122569  1
  Te  Te41  1  0.25169262  -0.00339483  0.49908811  1
  Te  Te42  1  0.24517135  0.50423035  0.00180547  1
  Te  Te43  1  0.24691686  0.50296769  0.49860875  1
  Te  Te44  1  0.75107816  0.00110841  -0.00021795  1
  Te  Te45  1  0.74612960  -0.00251145  0.50037468  1
  Te  Te46  1  0.75373710  0.49745910  0.00289493  1
  Te  Te47  1  0.75302802  0.50290776  0.49684301  1
  Te  Te48  1  -0.00131743  0.25017347  -0.00303944  1
  Te  Te49  1  0.00259792  0.25492735  0.50332447  1
  Te  Te50  1  0.00109266  0.75007039  -0.00088803  1
  Te  Te51  1  0.00125852  0.75031555  0.50050425  1
  Te  Te52  1  0.50396430  0.24394989  -0.00107881  1
  Te  Te53  1  0.49394242  0.24407866  0.50108199  1
  Te  Te54  1  0.49097923  0.75577054  -0.00134342  1
  Te  Te55  1  0.49765956  0.75469486  0.50074665  1
  Te  Te56  1  0.00384826  -0.00464335  0.24434197  1
  Te  Te57  1  -0.00472492  -0.00130876  0.75306293  1
  Te  Te58  1  -0.00309207  0.50368615  0.25002474  1
  Te  Te59  1  -0.00131643  0.50167191  0.75044872  1
  Te  Te60  1  0.49469582  -0.00107512  0.24927553  1
  Te  Te61  1  0.50893242  -0.00014829  0.75126241  1
  Te  Te62  1  0.51122115  0.50023416  0.24895287  1
  Te  Te63  1  0.50165921  0.49933363  0.75110242  1
