# generated using pymatgen
data_AgSbTe2
_symmetry_space_group_name_H-M   'P 1'
_cell_length_a   12.21382438
_cell_length_b   12.21368211
_cell_length_c   12.21383162
_cell_angle_alpha   89.99622968
_cell_angle_beta   90.00387082
_cell_angle_gamma   90.00041776
_symmetry_Int_Tables_number   1
_chemical_formula_structural   AgSbTe2
_chemical_formula_sum   'Ag16 Sb16 Te32'
_cell_volume   1822.00770793
_cell_formula_units_Z   16
loop_
 _symmetry_equiv_pos_site_id
 _symmetry_equiv_pos_as_xyz
  1  'x, y, z'
loop_
 _atom_site_type_symbol
 _atom_site_label
 _atom_site_symmetry_multiplicity
 _atom_site_fract_x
 _atom_site_fract_y
 _atom_site_fract_z
 _atom_site_occupancy
  Ag  Ag0  1  0.00324940  0.24847865  0.75348251  1
  Ag  Ag1  1  0.25260610  0.75536029  0.00513151  1
  Ag  Ag2  1  0.49574402  0.50003634  0.00117163  1
  Ag  Ag3  1  0.75134991  0.24701408  0.00360056  1
  Ag  Ag4  1  0.49571068  0.75410341  0.24711478  1
  Ag  Ag5  1  -0.00074281  0.24560340  0.24669226  1
  Ag  Ag6  1  0.75020903  0.75292316  0.49476352  1
  Ag  Ag7  1  0.24948606  0.24522586  -0.00003193  1
  Ag  Ag8  1  0.24980334  0.75230379  0.49411791  1
  Ag  Ag9  1  0.75242030  0.24696193  0.49625841  1
  Ag  Ag10  1  0.49408865  -0.00025178  0.00402424  1
  Ag  Ag11  1  0.75061654  0.00065406  0.24875970  1
  Ag  Ag12  1  0.25000771  0.49928688  0.75454993  1
  Ag  Ag13  1  0.24969058  0.00091806  0.75735531  1
  Ag  Ag14  1  0.25002284  -0.00497266  0.24362094  1
  Ag  Ag15  1  0.00455541  0.75489466  0.25002686  1
  Sb  Sb16  1  0.24693045  0.24779148  0.49844109  1
  Sb  Sb17  1  0.49951916  -0.00178890  0.49464422  1
  Sb  Sb18  1  0.49675567  0.75123061  0.75403947  1
  Sb  Sb19  1  0.00556546  0.49735136  -0.00048988  1
  Sb  Sb20  1  0.49762172  0.50232498  0.49849805  1
  Sb  Sb21  1  0.50036945  0.24478346  0.24611558  1
  Sb  Sb22  1  0.74789148  0.75490692  0.00794105  1
  Sb  Sb23  1  0.00498462  0.75295804  0.75045637  1
  Sb  Sb24  1  -0.00003760  -0.00055719  0.49671434  1
  Sb  Sb25  1  0.25145799  0.50602514  0.24419762  1
  Sb  Sb26  1  0.75057281  0.00270442  0.75266539  1
  Sb  Sb27  1  0.74905657  0.49791668  0.24860090  1
  Sb  Sb28  1  0.74982684  0.49810772  0.75268395  1
  Sb  Sb29  1  0.00872236  0.00268698  0.00349488  1
  Sb  Sb30  1  0.00197227  0.50039237  0.50032266  1
  Sb  Sb31  1  0.49507377  0.24922527  0.75339482  1
  Te  Te32  1  0.24673884  0.24573258  0.24959877  1
  Te  Te33  1  0.24634446  0.24775208  0.75056797  1
  Te  Te34  1  0.24850086  0.75053865  0.24926133  1
  Te  Te35  1  0.24727494  0.75216480  0.75080406  1
  Te  Te36  1  0.75205154  0.24702816  0.24858780  1
  Te  Te37  1  0.75737133  0.24874902  0.75043987  1
  Te  Te38  1  0.75191238  0.75393757  0.25219818  1
  Te  Te39  1  0.75269578  0.75060935  0.73950229  1
  Te  Te40  1  0.25182167  0.00060557  0.00204067  1
  Te  Te41  1  0.25287845  -0.00531149  0.49836654  1
  Te  Te42  1  0.25442709  0.49848645  -0.00336121  1
  Te  Te43  1  0.25219060  0.50613923  0.50906424  1
  Te  Te44  1  0.74236383  0.00366504  0.00292708  1
  Te  Te45  1  0.74737242  -0.00047468  0.49621460  1
  Te  Te46  1  0.74065048  0.49280347  -0.00216747  1
  Te  Te47  1  0.74792570  0.50051370  0.50127954  1
  Te  Te48  1  0.00056275  0.25115547  0.00235279  1
  Te  Te49  1  -0.00552542  0.25106659  0.49725910  1
  Te  Te50  1  0.00404491  0.74768924  0.00549771  1
  Te  Te51  1  0.00023421  0.74927284  0.49439356  1
  Te  Te52  1  0.49796202  0.24924528  0.00094650  1
  Te  Te53  1  0.50934599  0.25082853  0.49969135  1
  Te  Te54  1  0.49756825  0.75136478  0.00323137  1
  Te  Te55  1  0.50011830  0.74931819  0.49356623  1
  Te  Te56  1  -0.00021371  0.00028230  0.24904618  1
  Te  Te57  1  0.00664827  0.00590550  0.75050130  1
  Te  Te58  1  0.00023089  0.49870868  0.25001016  1
  Te  Te59  1  0.00643845  0.49287259  0.75011137  1
  Te  Te60  1  0.49888412  -0.00400986  0.24584536  1
  Te  Te61  1  0.49308870  -0.00055704  0.75912344  1
  Te  Te62  1  0.49949513  0.50903117  0.24346012  1
  Te  Te63  1  0.49349603  0.50028676  0.75728053  1
