# generated using pymatgen
data_AgSbTe2
_symmetry_space_group_name_H-M   'P 1'
_cell_length_a   12.21995185
_cell_length_b   12.21506957
_cell_length_c   12.22250345
_cell_angle_alpha   90.00129780
_cell_angle_beta   89.99941715
_cell_angle_gamma   89.98716812
_symmetry_Int_Tables_number   1
_chemical_formula_structural   AgSbTe2
_chemical_formula_sum   'Ag16 Sb16 Te32'
_cell_volume   1824.42324617
_cell_formula_units_Z   16
loop_
 _symmetry_equiv_pos_site_id
 _symmetry_equiv_pos_as_xyz
  1  'x, y, z'
loop_
 _atom_site_type_symbol
 _atom_site_label
 _atom_site_symmetry_multiplicity
 _atom_site_fract_x
 _atom_site_fract_y
 _atom_site_fract_z
 _atom_site_occupancy
  Ag  Ag0  1  0.49733318  0.25547262  0.74291059  1
  Ag  Ag1  1  0.25418867  0.25392900  0.49826315  1
  Ag  Ag2  1  0.24844986  0.74634850  0.49783947  1
  Ag  Ag3  1  0.24765002  0.74305525  0.00212057  1
  Ag  Ag4  1  0.25139358  0.50170617  0.74899017  1
  Ag  Ag5  1  0.00043285  -0.00026437  0.49551791  1
  Ag  Ag6  1  -0.00056225  0.24960681  0.25483525  1
  Ag  Ag7  1  0.50038953  0.25427154  0.25717050  1
  Ag  Ag8  1  0.49454657  0.50050201  0.00225592  1
  Ag  Ag9  1  0.49569388  0.74582365  0.25197999  1
  Ag  Ag10  1  0.00456240  0.75002402  0.25157473  1
  Ag  Ag11  1  0.00596177  0.50356344  0.00160282  1
  Ag  Ag12  1  0.49484010  0.49478688  0.49775178  1
  Ag  Ag13  1  0.74718546  0.24970820  0.49526850  1
  Ag  Ag14  1  0.00567609  0.74719743  0.74875705  1
  Ag  Ag15  1  0.75223874  0.00251956  0.25405304  1
  Sb  Sb16  1  0.25086713  0.25744721  0.00210667  1
  Sb  Sb17  1  0.49387923  0.74404206  0.74796386  1
  Sb  Sb18  1  0.49988206  0.00480220  0.49717228  1
  Sb  Sb19  1  0.49841103  -0.00181212  0.00372139  1
  Sb  Sb20  1  0.25197470  0.50197776  0.25198316  1
  Sb  Sb21  1  0.74898711  0.49870891  0.74767276  1
  Sb  Sb22  1  0.00263102  0.25292109  0.74547537  1
  Sb  Sb23  1  0.75075451  0.74964540  0.49676871  1
  Sb  Sb24  1  0.00114532  -0.00254336  0.00423825  1
  Sb  Sb25  1  0.74873340  0.49672836  0.25221501  1
  Sb  Sb26  1  0.75173224  0.00202514  0.74526374  1
  Sb  Sb27  1  0.24710956  -0.00143247  0.25286056  1
  Sb  Sb28  1  0.75180907  0.74812892  0.00226855  1
  Sb  Sb29  1  0.00642379  0.50073140  0.49802736  1
  Sb  Sb30  1  0.74944552  0.25139651  0.00472978  1
  Sb  Sb31  1  0.24904301  -0.00107027  0.74678126  1
  Te  Te32  1  0.25047574  0.24872184  0.25406070  1
  Te  Te33  1  0.25306874  0.25407623  0.74631873  1
  Te  Te34  1  0.24946924  0.75102716  0.25284821  1
  Te  Te35  1  0.24727022  0.74674932  0.74719028  1
  Te  Te36  1  0.75014783  0.24742957  0.25376413  1
  Te  Te37  1  0.74529713  0.24900905  0.74325043  1
  Te  Te38  1  0.75040687  0.75559689  0.25149883  1
  Te  Te39  1  0.75933661  0.75135698  0.74984689  1
  Te  Te40  1  0.24970941  -0.01172592  -0.00203451  1
  Te  Te41  1  0.24383622  -0.00072100  0.50104245  1
  Te  Te42  1  0.25084180  0.50365704  -0.00573892  1
  Te  Te43  1  0.25339057  0.50049475  0.50432047  1
  Te  Te44  1  0.75002490  0.00043476  0.00831800  1
  Te  Te45  1  0.75551453  0.00495414  0.49547571  1
  Te  Te46  1  0.74838323  0.49934869  -0.00149288  1
  Te  Te47  1  0.74008785  0.49337777  0.50098759  1
  Te  Te48  1  0.00068143  0.25461236  0.00517245  1
  Te  Te49  1  0.00207590  0.25110876  0.49698755  1
  Te  Te50  1  0.00232233  0.74698881  0.00397045  1
  Te  Te51  1  0.00185484  0.74880001  0.49558578  1
  Te  Te52  1  0.49889183  0.25591666  0.00366058  1
  Te  Te53  1  0.49645509  0.24911086  0.49589308  1
  Te  Te54  1  0.49658020  0.74519457  0.00294603  1
  Te  Te55  1  0.49676518  0.74825623  0.49709666  1
  Te  Te56  1  -0.00231450  0.00007879  0.25306102  1
  Te  Te57  1  -0.00096887  -0.00470344  0.74498058  1
  Te  Te58  1  -0.00106013  0.50120881  0.24610302  1
  Te  Te59  1  0.00388258  0.50313400  0.75387312  1
  Te  Te60  1  0.50545323  0.00025321  0.24965299  1
  Te  Te61  1  0.50144244  0.00900230  0.75109360  1
  Te  Te62  1  0.50080071  0.49984347  0.24987011  1
  Te  Te63  1  0.49706773  0.49745989  0.75025674  1
