# generated using pymatgen
data_AgSbTe2
_symmetry_space_group_name_H-M   'P 1'
_cell_length_a   12.31907933
_cell_length_b   12.30063728
_cell_length_c   12.30312991
_cell_angle_alpha   89.98132182
_cell_angle_beta   90.01387225
_cell_angle_gamma   90.00449269
_symmetry_Int_Tables_number   1
_chemical_formula_structural   AgSbTe2
_chemical_formula_sum   'Ag16 Sb16 Te32'
_cell_volume   1864.32420012
_cell_formula_units_Z   16
loop_
 _symmetry_equiv_pos_site_id
 _symmetry_equiv_pos_as_xyz
  1  'x, y, z'
loop_
 _atom_site_type_symbol
 _atom_site_label
 _atom_site_symmetry_multiplicity
 _atom_site_fract_x
 _atom_site_fract_y
 _atom_site_fract_z
 _atom_site_occupancy
  Ag  Ag0  1  0.75013264  0.24261353  -0.01535155  1
  Ag  Ag1  1  -0.00289450  0.76162449  0.24565142  1
  Ag  Ag2  1  0.50882331  0.24209099  0.24916900  1
  Ag  Ag3  1  -0.00661591  0.76478222  0.75560110  1
  Ag  Ag4  1  0.75012058  0.00760313  0.24473977  1
  Ag  Ag5  1  0.24918710  0.00324191  0.24080056  1
  Ag  Ag6  1  -0.00152061  0.00380820  -0.00794116  1
  Ag  Ag7  1  0.24999518  0.24137313  -0.00763188  1
  Ag  Ag8  1  0.23629308  0.00950816  0.76187091  1
  Ag  Ag9  1  0.50271478  0.76408238  0.25310594  1
  Ag  Ag10  1  -0.02121807  0.23591787  0.75627548  1
  Ag  Ag11  1  0.74461141  0.24800776  0.51902907  1
  Ag  Ag12  1  0.51556563  0.24481124  0.75041747  1
  Ag  Ag13  1  0.75076886  0.47825149  0.74780416  1
  Ag  Ag14  1  0.50644211  0.49070570  0.50104597  1
  Ag  Ag15  1  0.76200430  0.01352554  0.75775489  1
  Sb  Sb16  1  -0.00422058  0.24091936  0.24618364  1
  Sb  Sb17  1  0.75169777  0.75621320  0.00065801  1
  Sb  Sb18  1  0.50106226  0.00278558  0.49813153  1
  Sb  Sb19  1  -0.00038760  0.00082325  0.50440308  1
  Sb  Sb20  1  -0.00251075  0.49690708  0.50135381  1
  Sb  Sb21  1  0.75006116  0.75296565  0.49906490  1
  Sb  Sb22  1  -0.00231927  0.49577425  -0.00035333  1
  Sb  Sb23  1  0.50160356  0.75443168  0.74787130  1
  Sb  Sb24  1  0.25106167  0.49587572  0.24781559  1
  Sb  Sb25  1  0.50256410  0.49448858  0.00018516  1
  Sb  Sb26  1  0.25212096  0.24840634  0.50283461  1
  Sb  Sb27  1  0.25028424  0.75134344  0.49919760  1
  Sb  Sb28  1  0.74958034  0.49293678  0.24899127  1
  Sb  Sb29  1  0.24835395  0.49229048  0.75171207  1
  Sb  Sb30  1  0.50316131  0.00299067  0.00072898  1
  Sb  Sb31  1  0.24751220  0.75995991  0.00070343  1
  Te  Te32  1  0.24783384  0.24558673  0.25239998  1
  Te  Te33  1  0.25382741  0.24628697  0.74950178  1
  Te  Te34  1  0.25115882  0.75708248  0.24905290  1
  Te  Te35  1  0.24886294  0.75873034  0.75129450  1
  Te  Te36  1  0.75001795  0.24697911  0.24676943  1
  Te  Te37  1  0.74735531  0.24945160  0.75004091  1
  Te  Te38  1  0.74882994  0.75500745  0.24892083  1
  Te  Te39  1  0.75164292  0.75962097  0.75073453  1
  Te  Te40  1  0.24636455  0.00398527  -0.00023136  1
  Te  Te41  1  0.25038385  -0.00094235  0.49557595  1
  Te  Te42  1  0.24893310  0.48125806  0.00092646  1
  Te  Te43  1  0.26019858  0.50112989  0.49884966  1
  Te  Te44  1  0.75143564  0.00260773  0.00093660  1
  Te  Te45  1  0.75019229  0.00372268  0.49695227  1
  Te  Te46  1  0.75157238  0.48790163  -0.00561185  1
  Te  Te47  1  0.74768270  0.49515697  0.50104418  1
  Te  Te48  1  -0.00164135  0.24609480  -0.00126990  1
  Te  Te49  1  -0.00652547  0.25168818  0.50817082  1
  Te  Te50  1  -0.00034063  0.75665262  -0.00232934  1
  Te  Te51  1  0.00029380  0.74837233  0.50124039  1
  Te  Te52  1  0.50269343  0.24806475  -0.00087510  1
  Te  Te53  1  0.50187791  0.24970878  0.50022431  1
  Te  Te54  1  0.49912762  0.74767453  0.01117873  1
  Te  Te55  1  0.50033615  0.74291964  0.49422505  1
  Te  Te56  1  -0.00144134  -0.00097812  0.25026361  1
  Te  Te57  1  -0.00059098  0.00053307  0.75040995  1
  Te  Te58  1  0.00127428  0.52044033  0.25061370  1
  Te  Te59  1  -0.00142208  0.50440859  0.75004761  1
  Te  Te60  1  0.50261593  0.00341525  0.25013930  1
  Te  Te61  1  0.50255459  0.00051879  0.74913882  1
  Te  Te62  1  0.49975015  0.49285524  0.25085714  1
  Te  Te63  1  0.50111057  0.50300596  0.74898533  1
