# generated using pymatgen
data_AgSbTe2
_symmetry_space_group_name_H-M   'P 1'
_cell_length_a   12.29085345
_cell_length_b   12.30611093
_cell_length_c   12.27150119
_cell_angle_alpha   90.00661932
_cell_angle_beta   90.01035871
_cell_angle_gamma   90.00061597
_symmetry_Int_Tables_number   1
_chemical_formula_structural   AgSbTe2
_chemical_formula_sum   'Ag16 Sb16 Te32'
_cell_volume   1856.09649095
_cell_formula_units_Z   16
loop_
 _symmetry_equiv_pos_site_id
 _symmetry_equiv_pos_as_xyz
  1  'x, y, z'
loop_
 _atom_site_type_symbol
 _atom_site_label
 _atom_site_symmetry_multiplicity
 _atom_site_fract_x
 _atom_site_fract_y
 _atom_site_fract_z
 _atom_site_occupancy
  Ag  Ag0  1  0.25520123  0.75421183  0.50592532  1
  Ag  Ag1  1  0.50890156  0.26103116  0.74170162  1
  Ag  Ag2  1  0.74734244  0.25742949  -0.00817466  1
  Ag  Ag3  1  0.75118823  0.00111007  0.25357604  1
  Ag  Ag4  1  0.74101247  0.50047612  0.75950557  1
  Ag  Ag5  1  0.50857472  0.73964689  0.74596937  1
  Ag  Ag6  1  0.50603482  0.49331704  0.51414827  1
  Ag  Ag7  1  0.75370889  0.74193937  -0.00849990  1
  Ag  Ag8  1  0.74025399  0.24627755  0.50909926  1
  Ag  Ag9  1  0.26352998  0.24711416  0.50505845  1
  Ag  Ag10  1  -0.00640292  -0.00055540  0.50373930  1
  Ag  Ag11  1  -0.00929718  0.74933064  0.75331503  1
  Ag  Ag12  1  -0.01664887  0.50504310  -0.00917034  1
  Ag  Ag13  1  0.51508778  0.49969858  -0.01545254  1
  Ag  Ag14  1  0.50646506  0.00729239  0.50452034  1
  Ag  Ag15  1  -0.01093376  -0.00393019  -0.00537056  1
  Sb  Sb16  1  0.25013205  0.50020953  0.25227439  1
  Sb  Sb17  1  -0.00294710  0.75154823  0.24898640  1
  Sb  Sb18  1  0.50195085  0.25007398  0.25732672  1
  Sb  Sb19  1  0.74942629  0.50043378  0.24766936  1
  Sb  Sb20  1  0.25385934  0.24966339  -0.00699478  1
  Sb  Sb21  1  0.50315487  0.74986084  0.25489086  1
  Sb  Sb22  1  0.24933714  -0.00013543  0.74790739  1
  Sb  Sb23  1  -0.00194299  0.24922806  0.25086595  1
  Sb  Sb24  1  0.24973471  0.75030695  -0.00564993  1
  Sb  Sb25  1  0.51027202  0.00013320  -0.00543369  1
  Sb  Sb26  1  0.25852121  0.50058695  0.74904255  1
  Sb  Sb27  1  -0.00722877  0.25235499  0.74990735  1
  Sb  Sb28  1  0.74787955  0.75165576  0.50756077  1
  Sb  Sb29  1  0.75054038  0.00126193  0.74882838  1
  Sb  Sb30  1  -0.00539685  0.50067085  0.50954500  1
  Sb  Sb31  1  0.25089157  -0.00031655  0.25388125  1
  Te  Te32  1  0.24983321  0.25040116  0.26529366  1
  Te  Te33  1  0.26232375  0.25024770  0.74314972  1
  Te  Te34  1  0.25091505  0.74979902  0.26649946  1
  Te  Te35  1  0.25147965  0.74963029  0.74389701  1
  Te  Te36  1  0.74994450  0.24497333  0.24768005  1
  Te  Te37  1  0.74697721  0.25401314  0.75048566  1
  Te  Te38  1  0.74949743  0.75595142  0.23247088  1
  Te  Te39  1  0.74886835  0.74570691  0.75468222  1
  Te  Te40  1  0.23264710  0.00195462  0.00402823  1
  Te  Te41  1  0.24765982  0.00141131  0.49973772  1
  Te  Te42  1  0.25196139  0.49806848  0.00045858  1
  Te  Te43  1  0.25352665  0.49729020  0.50070258  1
  Te  Te44  1  0.75211871  0.00436697  -0.00183654  1
  Te  Te45  1  0.75201111  0.00006694  0.50176863  1
  Te  Te46  1  0.74674972  0.49721537  0.00111313  1
  Te  Te47  1  0.74789494  0.49799517  0.49682657  1
  Te  Te48  1  -0.00009494  0.24735091  -0.00243253  1
  Te  Te49  1  -0.00599749  0.24752161  0.50196734  1
  Te  Te50  1  0.00354179  0.75149125  -0.00363401  1
  Te  Te51  1  -0.00315819  0.75074980  0.50414290  1
  Te  Te52  1  0.50044840  0.24836632  -0.00588451  1
  Te  Te53  1  0.50554742  0.25053820  0.50183991  1
  Te  Te54  1  0.49560843  0.75230317  -0.00689723  1
  Te  Te55  1  0.50397736  0.74847003  0.50387784  1
  Te  Te56  1  -0.00604126  0.00043482  0.25465380  1
  Te  Te57  1  0.00107291  -0.00490478  0.74763629  1
  Te  Te58  1  0.00037855  0.50003813  0.23247188  1
  Te  Te59  1  -0.00933769  0.50328207  0.75392390  1
  Te  Te60  1  0.50566972  0.00004052  0.25910886  1
  Te  Te61  1  0.49839382  -0.00419795  0.74500214  1
  Te  Te62  1  0.49966465  0.50003382  0.24752654  1
  Te  Te63  1  0.50371524  0.50242075  0.74924079  1
