# generated using pymatgen
data_AgSbTe2
_symmetry_space_group_name_H-M   'P 1'
_cell_length_a   12.22871901
_cell_length_b   12.22650087
_cell_length_c   12.22314364
_cell_angle_alpha   90.00826580
_cell_angle_beta   90.00417169
_cell_angle_gamma   90.00169437
_symmetry_Int_Tables_number   1
_chemical_formula_structural   AgSbTe2
_chemical_formula_sum   'Ag16 Sb16 Te32'
_cell_volume   1827.53649675
_cell_formula_units_Z   16
loop_
 _symmetry_equiv_pos_site_id
 _symmetry_equiv_pos_as_xyz
  1  'x, y, z'
loop_
 _atom_site_type_symbol
 _atom_site_label
 _atom_site_symmetry_multiplicity
 _atom_site_fract_x
 _atom_site_fract_y
 _atom_site_fract_z
 _atom_site_occupancy
  Ag  Ag0  1  0.24644042  0.23643849  0.00261545  1
  Ag  Ag1  1  0.24964394  0.75630422  0.49312762  1
  Ag  Ag2  1  0.49516907  0.24428333  0.24452153  1
  Ag  Ag3  1  0.75454372  0.24386004  -0.00052679  1
  Ag  Ag4  1  0.75723597  0.00121843  0.75380532  1
  Ag  Ag5  1  0.48589223  0.00190886  0.00371086  1
  Ag  Ag6  1  0.24407766  0.00031780  0.76369245  1
  Ag  Ag7  1  0.49255173  0.75450224  0.24817232  1
  Ag  Ag8  1  0.25026452  0.50299328  0.24496057  1
  Ag  Ag9  1  0.75118196  0.75527674  0.49880658  1
  Ag  Ag10  1  0.24926763  0.76408279  0.00576871  1
  Ag  Ag11  1  0.01323338  0.00409748  -0.00442495  1
  Ag  Ag12  1  0.00428033  -0.00118509  0.50382877  1
  Ag  Ag13  1  0.25194158  -0.00330392  0.23650662  1
  Ag  Ag14  1  0.00149414  0.24256278  0.75693752  1
  Ag  Ag15  1  0.00507670  0.49584440  0.00058168  1
  Sb  Sb16  1  0.49772835  0.75411279  0.75299793  1
  Sb  Sb17  1  0.49499149  0.49807634  0.00331395  1
  Sb  Sb18  1  0.75120497  0.50035477  0.24728435  1
  Sb  Sb19  1  0.00098990  0.75921111  0.75035238  1
  Sb  Sb20  1  0.75067639  0.75633463  0.00132932  1
  Sb  Sb21  1  0.00328558  0.50089829  0.49974483  1
  Sb  Sb22  1  0.74865105  -0.00027123  0.24736909  1
  Sb  Sb23  1  0.49729271  0.50207241  0.49665526  1
  Sb  Sb24  1  0.24801730  0.24304203  0.49751351  1
  Sb  Sb25  1  0.75420835  0.49913685  0.75307167  1
  Sb  Sb26  1  0.00466883  0.24723733  0.24130893  1
  Sb  Sb27  1  0.00862325  0.75272815  0.24931619  1
  Sb  Sb28  1  0.49851644  0.24483853  0.75625998  1
  Sb  Sb29  1  0.24633299  0.49971232  0.75508139  1
  Sb  Sb30  1  0.75257254  0.24413338  0.50075458  1
  Sb  Sb31  1  0.49647980  -0.00201190  0.49615146  1
  Te  Te32  1  0.25259910  0.24745964  0.24780775  1
  Te  Te33  1  0.24835630  0.24679709  0.75244723  1
  Te  Te34  1  0.25132874  0.75352446  0.24801090  1
  Te  Te35  1  0.25076623  0.75378359  0.75122847  1
  Te  Te36  1  0.74229593  0.25117692  0.24552724  1
  Te  Te37  1  0.75108554  0.24548147  0.75307958  1
  Te  Te38  1  0.74058449  0.74891910  0.25357146  1
  Te  Te39  1  0.74888268  0.75539680  0.74580113  1
  Te  Te40  1  0.24977146  -0.00029824  0.00055581  1
  Te  Te41  1  0.24731777  -0.00337999  0.49999016  1
  Te  Te42  1  0.24642880  0.50035411  0.00273948  1
  Te  Te43  1  0.24839745  0.50888941  0.49436096  1
  Te  Te44  1  0.75218448  0.00207285  -0.00290412  1
  Te  Te45  1  0.75365637  -0.00359206  0.50338833  1
  Te  Te46  1  0.75760652  0.49460837  -0.00030243  1
  Te  Te47  1  0.75150713  0.50952182  0.50029632  1
  Te  Te48  1  0.00181448  0.24548034  -0.00055583  1
  Te  Te49  1  -0.00088169  0.24507176  0.50774371  1
  Te  Te50  1  0.00258036  0.75226265  -0.00018136  1
  Te  Te51  1  0.00147620  0.75349097  0.49987913  1
  Te  Te52  1  0.49766529  0.24822399  0.00329304  1
  Te  Te53  1  0.50075750  0.25082340  0.49052851  1
  Te  Te54  1  0.49806371  0.75249532  0.00363202  1
  Te  Te55  1  0.49697279  0.75085925  0.49486642  1
  Te  Te56  1  0.00382211  0.00124074  0.25008109  1
  Te  Te57  1  0.00187296  0.00162009  0.75235803  1
  Te  Te58  1  0.00587215  0.49854589  0.24510561  1
  Te  Te59  1  0.00026353  0.48972638  0.75572056  1
  Te  Te60  1  0.49800040  -0.00050277  0.24649676  1
  Te  Te61  1  0.49786371  0.00082306  0.75635412  1
  Te  Te62  1  0.49402787  0.50160305  0.24933908  1
  Te  Te63  1  0.50052470  0.49871288  0.74915177  1
