# generated using pymatgen
data_AgSbTe2
_symmetry_space_group_name_H-M   'P 1'
_cell_length_a   12.28697113
_cell_length_b   12.29315489
_cell_length_c   12.28745633
_cell_angle_alpha   89.99486583
_cell_angle_beta   89.99262089
_cell_angle_gamma   90.00570993
_symmetry_Int_Tables_number   1
_chemical_formula_structural   AgSbTe2
_chemical_formula_sum   'Ag16 Sb16 Te32'
_cell_volume   1855.96666265
_cell_formula_units_Z   16
loop_
 _symmetry_equiv_pos_site_id
 _symmetry_equiv_pos_as_xyz
  1  'x, y, z'
loop_
 _atom_site_type_symbol
 _atom_site_label
 _atom_site_symmetry_multiplicity
 _atom_site_fract_x
 _atom_site_fract_y
 _atom_site_fract_z
 _atom_site_occupancy
  Ag  Ag0  1  0.01377977  0.24091498  0.25528389  1
  Ag  Ag1  1  0.74419852  0.49971864  0.75303423  1
  Ag  Ag2  1  0.25417930  0.49992263  0.25101883  1
  Ag  Ag3  1  0.25974311  0.00007499  0.25613005  1
  Ag  Ag4  1  0.49817080  -0.00361745  0.00870369  1
  Ag  Ag5  1  0.73911494  0.00047779  0.75447878  1
  Ag  Ag6  1  0.25934284  0.00212210  0.74309375  1
  Ag  Ag7  1  0.73748117  -0.00172510  0.24534980  1
  Ag  Ag8  1  0.49684464  0.23909828  0.74997444  1
  Ag  Ag9  1  0.48975668  0.76561073  0.24407460  1
  Ag  Ag10  1  0.25985005  0.75958150  0.01308214  1
  Ag  Ag11  1  0.00824585  0.00208914  0.49404755  1
  Ag  Ag12  1  0.74077059  0.75903332  0.00323515  1
  Ag  Ag13  1  0.25159868  0.23723981  0.48938806  1
  Ag  Ag14  1  0.49122384  0.23574779  0.25029766  1
  Ag  Ag15  1  0.25289571  0.76512894  0.48812497  1
  Sb  Sb16  1  0.00293912  0.49792484  0.49736622  1
  Sb  Sb17  1  0.49289847  -0.00006631  0.49248202  1
  Sb  Sb18  1  0.25297729  0.23962657  0.00764465  1
  Sb  Sb19  1  0.74756936  0.24154989  -0.00010380  1
  Sb  Sb20  1  0.00095569  -0.00089947  0.00265092  1
  Sb  Sb21  1  0.74890750  0.50094380  0.24768149  1
  Sb  Sb22  1  0.49900584  0.76272029  0.75445787  1
  Sb  Sb23  1  0.49919439  0.50636047  -0.00001887  1
  Sb  Sb24  1  0.00798617  0.75702178  0.25145481  1
  Sb  Sb25  1  0.00128135  0.50100877  0.00233446  1
  Sb  Sb26  1  0.74626056  0.24472015  0.49925755  1
  Sb  Sb27  1  0.49933521  0.49943430  0.50015900  1
  Sb  Sb28  1  -0.00002847  0.75243447  0.74929300  1
  Sb  Sb29  1  0.25471185  0.49873411  0.75067872  1
  Sb  Sb30  1  0.00388941  0.24459248  0.74424626  1
  Sb  Sb31  1  0.74387627  0.75732474  0.49657251  1
  Te  Te32  1  0.25592658  0.24363718  0.24944345  1
  Te  Te33  1  0.25271778  0.24914277  0.74858546  1
  Te  Te34  1  0.25095896  0.75637789  0.24972131  1
  Te  Te35  1  0.25097342  0.75111078  0.74882490  1
  Te  Te36  1  0.73897265  0.24901725  0.25061189  1
  Te  Te37  1  0.74610218  0.23874571  0.74940459  1
  Te  Te38  1  0.74608233  0.75074535  0.24969185  1
  Te  Te39  1  0.74884694  0.76095864  0.75024114  1
  Te  Te40  1  0.24968770  -0.00293316  -0.00082966  1
  Te  Te41  1  0.24953442  0.00038563  0.50041323  1
  Te  Te42  1  0.24944187  0.51586758  0.00252108  1
  Te  Te43  1  0.24969260  0.50040518  0.49767097  1
  Te  Te44  1  0.75177952  -0.00331993  0.00212971  1
  Te  Te45  1  0.76186161  -0.00164380  0.49986047  1
  Te  Te46  1  0.75102176  0.51374874  -0.00359897  1
  Te  Te47  1  0.75131510  0.50350906  0.50820471  1
  Te  Te48  1  -0.00054458  0.25118947  0.01272684  1
  Te  Te49  1  0.00638119  0.24728696  0.49547439  1
  Te  Te50  1  -0.00100696  0.74973517  0.00015271  1
  Te  Te51  1  0.01109140  0.75557190  0.49977789  1
  Te  Te52  1  0.49909411  0.23892605  0.00181034  1
  Te  Te53  1  0.49594818  0.24887916  0.49713154  1
  Te  Te54  1  0.49860478  0.75599118  0.00256145  1
  Te  Te55  1  0.49285346  0.75034556  0.48945719  1
  Te  Te56  1  -0.00005419  0.00240785  0.25189096  1
  Te  Te57  1  0.00218672  0.00119129  0.74582762  1
  Te  Te58  1  0.00243061  0.48756082  0.25017339  1
  Te  Te59  1  -0.01056118  0.49764120  0.75074595  1
  Te  Te60  1  0.50062055  0.00051862  0.24935715  1
  Te  Te61  1  0.49857580  0.00295022  0.75418687  1
  Te  Te62  1  0.49608928  0.49422233  0.24988663  1
  Te  Te63  1  0.50441892  0.48497837  0.75046856  1
