# generated using pymatgen
data_AgSbTe2
_symmetry_space_group_name_H-M   'P 1'
_cell_length_a   12.20854855
_cell_length_b   12.21352257
_cell_length_c   12.21158750
_cell_angle_alpha   89.99551072
_cell_angle_beta   89.99501393
_cell_angle_gamma   90.00009439
_symmetry_Int_Tables_number   1
_chemical_formula_structural   AgSbTe2
_chemical_formula_sum   'Ag16 Sb16 Te32'
_cell_volume   1820.86226836
_cell_formula_units_Z   16
loop_
 _symmetry_equiv_pos_site_id
 _symmetry_equiv_pos_as_xyz
  1  'x, y, z'
loop_
 _atom_site_type_symbol
 _atom_site_label
 _atom_site_symmetry_multiplicity
 _atom_site_fract_x
 _atom_site_fract_y
 _atom_site_fract_z
 _atom_site_occupancy
  Ag  Ag0  1  0.25215142  0.75267045  -0.00377409  1
  Ag  Ag1  1  0.50488406  0.24336467  0.74880468  1
  Ag  Ag2  1  -0.00659093  0.24880580  0.25229166  1
  Ag  Ag3  1  -0.00518248  0.24576662  0.74797893  1
  Ag  Ag4  1  0.74888267  0.75478268  0.50216601  1
  Ag  Ag5  1  0.25215432  -0.00072384  0.75130395  1
  Ag  Ag6  1  0.50726889  0.00012029  0.50653986  1
  Ag  Ag7  1  -0.00613682  0.49705551  0.49992659  1
  Ag  Ag8  1  0.50366405  0.50306670  -0.00189718  1
  Ag  Ag9  1  0.75102184  0.00087596  0.25250245  1
  Ag  Ag10  1  0.74670966  0.00043486  0.74698611  1
  Ag  Ag11  1  0.75222669  0.24626380  0.50162833  1
  Ag  Ag12  1  0.74764985  0.75289356  -0.00258467  1
  Ag  Ag13  1  0.50433039  0.75519729  0.75229555  1
  Ag  Ag14  1  0.75150890  0.49904757  0.25149335  1
  Ag  Ag15  1  -0.00429742  0.00004311  -0.00322294  1
  Sb  Sb16  1  -0.00486118  0.75205073  0.25033842  1
  Sb  Sb17  1  0.50651294  0.50000792  0.50121804  1
  Sb  Sb18  1  -0.00519176  0.75555448  0.75023485  1
  Sb  Sb19  1  0.50437238  0.75106659  0.24667223  1
  Sb  Sb20  1  0.24770292  0.24808038  0.50229184  1
  Sb  Sb21  1  0.50778076  0.24785883  0.25136640  1
  Sb  Sb22  1  0.25202373  0.75313752  0.50454496  1
  Sb  Sb23  1  0.25101012  0.24632681  -0.00249266  1
  Sb  Sb24  1  0.50487529  -0.00366054  -0.00852355  1
  Sb  Sb25  1  0.74990642  0.49943718  0.74910456  1
  Sb  Sb26  1  -0.00415863  0.50004257  0.00010354  1
  Sb  Sb27  1  -0.00945337  0.00370587  0.50274065  1
  Sb  Sb28  1  0.24825129  -0.00010203  0.24829583  1
  Sb  Sb29  1  0.24981120  0.50212581  0.75163229  1
  Sb  Sb30  1  0.75016292  0.24645585  -0.00261990  1
  Sb  Sb31  1  0.24805490  0.49999602  0.24811469  1
  Te  Te32  1  0.23990012  0.24928775  0.24978717  1
  Te  Te33  1  0.25057221  0.24338123  0.75019659  1
  Te  Te34  1  0.25002550  0.75085595  0.24143083  1
  Te  Te35  1  0.25478248  0.75504274  0.75422108  1
  Te  Te36  1  0.75324531  0.24859354  0.25264759  1
  Te  Te37  1  0.75005262  0.24818443  0.74802294  1
  Te  Te38  1  0.75016157  0.75163511  0.25078539  1
  Te  Te39  1  0.74768128  0.75194632  0.75016193  1
  Te  Te40  1  0.24594516  -0.00444471  -0.00342388  1
  Te  Te41  1  0.25829298  -0.00182357  0.50523578  1
  Te  Te42  1  0.25481314  0.50803415  0.00079248  1
  Te  Te43  1  0.24174025  0.50133521  0.49875190  1
  Te  Te44  1  0.75164141  -0.00355336  -0.00048148  1
  Te  Te45  1  0.74951404  -0.00063422  0.50112873  1
  Te  Te46  1  0.74796069  0.50603537  0.00419615  1
  Te  Te47  1  0.75245676  0.49983234  0.49672361  1
  Te  Te48  1  -0.00038432  0.24723691  -0.00240285  1
  Te  Te49  1  -0.00371619  0.25095376  0.50179708  1
  Te  Te50  1  -0.00270632  0.75281843  -0.00076942  1
  Te  Te51  1  -0.00596543  0.74441377  0.50073365  1
  Te  Te52  1  0.49962053  0.25568409  -0.00575814  1
  Te  Te53  1  0.50444721  0.24887551  0.50466988  1
  Te  Te54  1  0.50366694  0.74878509  -0.00353558  1
  Te  Te55  1  0.50428480  0.75118620  0.50552400  1
  Te  Te56  1  -0.00399494  0.00425909  0.24688299  1
  Te  Te57  1  -0.00191171  0.00366480  0.75174588  1
  Te  Te58  1  -0.00470835  0.49461562  0.25168036  1
  Te  Te59  1  0.00082986  0.49062717  0.74726498  1
  Te  Te60  1  0.50584170  0.00181902  0.25736924  1
  Te  Te61  1  0.50332003  0.00058255  0.75007953  1
  Te  Te62  1  0.50587433  0.49883721  0.24577725  1
  Te  Te63  1  0.49967129  0.50018349  0.75330358  1
