# generated using pymatgen
data_AgSbTe2
_symmetry_space_group_name_H-M   'P 1'
_cell_length_a   12.32819556
_cell_length_b   12.33330427
_cell_length_c   12.30091713
_cell_angle_alpha   89.99939789
_cell_angle_beta   90.01156688
_cell_angle_gamma   89.99622655
_symmetry_Int_Tables_number   1
_chemical_formula_structural   AgSbTe2
_chemical_formula_sum   'Ag16 Sb16 Te32'
_cell_volume   1870.32226489
_cell_formula_units_Z   16
loop_
 _symmetry_equiv_pos_site_id
 _symmetry_equiv_pos_as_xyz
  1  'x, y, z'
loop_
 _atom_site_type_symbol
 _atom_site_label
 _atom_site_symmetry_multiplicity
 _atom_site_fract_x
 _atom_site_fract_y
 _atom_site_fract_z
 _atom_site_occupancy
  Ag  Ag0  1  0.00649319  -0.01146715  0.00239533  1
  Ag  Ag1  1  0.73437010  0.50579812  0.23393419  1
  Ag  Ag2  1  0.49661997  -0.00728923  0.48794329  1
  Ag  Ag3  1  -0.01850359  0.51108988  0.00197311  1
  Ag  Ag4  1  0.51781947  0.51160167  0.01172758  1
  Ag  Ag5  1  0.49662586  0.74232712  0.24141998  1
  Ag  Ag6  1  0.26038611  -0.00766161  0.23977613  1
  Ag  Ag7  1  -0.00261739  0.74610857  0.76214585  1
  Ag  Ag8  1  0.25371873  0.25609430  0.00299978  1
  Ag  Ag9  1  0.74511633  0.26874780  0.00118844  1
  Ag  Ag10  1  0.74744401  0.50470865  0.76975007  1
  Ag  Ag11  1  0.50188127  0.50778339  0.48374762  1
  Ag  Ag12  1  0.25385765  0.74456373  0.00483142  1
  Ag  Ag13  1  0.74813941  0.73401274  0.00249484  1
  Ag  Ag14  1  0.49245535  -0.01032469  0.00931873  1
  Ag  Ag15  1  0.26369584  0.50677226  0.24045223  1
  Sb  Sb16  1  0.00350052  0.74876538  0.24395430  1
  Sb  Sb17  1  0.00120477  0.50230162  0.49703339  1
  Sb  Sb18  1  0.50071493  0.25603983  0.24574022  1
  Sb  Sb19  1  0.49903687  0.74856019  0.75902800  1
  Sb  Sb20  1  0.74614903  0.25546848  0.49495160  1
  Sb  Sb21  1  0.74008031  -0.00571297  0.24186405  1
  Sb  Sb22  1  0.50057578  0.25160566  0.75496057  1
  Sb  Sb23  1  0.25284921  0.50144613  0.76460598  1
  Sb  Sb24  1  0.00566330  -0.00573303  0.49566440  1
  Sb  Sb25  1  0.25393530  0.25245189  0.49116795  1
  Sb  Sb26  1  -0.00198006  0.25291742  0.76005098  1
  Sb  Sb27  1  0.74997934  -0.00305914  0.75687267  1
  Sb  Sb28  1  0.00056950  0.25070717  0.24537337  1
  Sb  Sb29  1  0.74629165  0.74786266  0.49627229  1
  Sb  Sb30  1  0.25080446  -0.00187287  0.76179937  1
  Sb  Sb31  1  0.25309773  0.74869966  0.49325527  1
  Te  Te32  1  0.24944947  0.25339042  0.24419066  1
  Te  Te33  1  0.24934067  0.24889104  0.76133296  1
  Te  Te34  1  0.25028280  0.74686553  0.24674738  1
  Te  Te35  1  0.24785744  0.74984436  0.75964823  1
  Te  Te36  1  0.75048144  0.25927791  0.24524918  1
  Te  Te37  1  0.74961746  0.25707320  0.75716650  1
  Te  Te38  1  0.74689900  0.74699241  0.24787427  1
  Te  Te39  1  0.74868031  0.74808821  0.75574570  1
  Te  Te40  1  0.25280003  -0.00274922  0.00157728  1
  Te  Te41  1  0.25476573  0.00128850  0.48913307  1
  Te  Te42  1  0.25197642  0.50255992  0.00023120  1
  Te  Te43  1  0.25365831  0.49821819  0.48774854  1
  Te  Te44  1  0.74887985  -0.00078081  0.00158622  1
  Te  Te45  1  0.74446442  0.00306035  0.50004646  1
  Te  Te46  1  0.75174711  0.50025014  0.00074567  1
  Te  Te47  1  0.74662780  0.49918043  0.49468530  1
  Te  Te48  1  0.00051810  0.24965324  0.00205114  1
  Te  Te49  1  0.00001872  0.24615701  0.50262619  1
  Te  Te50  1  -0.00248379  0.74880963  0.00270066  1
  Te  Te51  1  -0.00043223  0.75148033  0.51665185  1
  Te  Te52  1  0.49984373  0.24669369  0.00138912  1
  Te  Te53  1  0.49920516  0.24713305  0.50275788  1
  Te  Te54  1  0.49945270  0.74932531  0.00290109  1
  Te  Te55  1  0.49891814  0.74881941  0.49142901  1
  Te  Te56  1  0.00758159  -0.00096661  0.24673739  1
  Te  Te57  1  0.00041430  -0.00431141  0.75312873  1
  Te  Te58  1  0.00258428  0.50161388  0.24950983  1
  Te  Te59  1  -0.00075394  0.50240270  0.74885312  1
  Te  Te60  1  0.49900551  -0.00228478  0.24524325  1
  Te  Te61  1  0.49919882  -0.00144104  0.74637064  1
  Te  Te62  1  0.49834338  0.50058094  0.24590647  1
  Te  Te63  1  0.50108234  0.50157046  0.74934203  1
