# generated using pymatgen
data_AgSbTe2
_symmetry_space_group_name_H-M   'P 1'
_cell_length_a   12.22126368
_cell_length_b   12.23131867
_cell_length_c   12.22555337
_cell_angle_alpha   90.00110189
_cell_angle_beta   90.00364661
_cell_angle_gamma   89.99788623
_symmetry_Int_Tables_number   1
_chemical_formula_structural   AgSbTe2
_chemical_formula_sum   'Ag16 Sb16 Te32'
_cell_volume   1827.50224937
_cell_formula_units_Z   16
loop_
 _symmetry_equiv_pos_site_id
 _symmetry_equiv_pos_as_xyz
  1  'x, y, z'
loop_
 _atom_site_type_symbol
 _atom_site_label
 _atom_site_symmetry_multiplicity
 _atom_site_fract_x
 _atom_site_fract_y
 _atom_site_fract_z
 _atom_site_occupancy
  Ag  Ag0  1  0.75608890  0.00476018  0.74308279  1
  Ag  Ag1  1  0.50542383  0.00048098  0.50593074  1
  Ag  Ag2  1  -0.00679766  0.24331025  0.74746838  1
  Ag  Ag3  1  -0.00506598  0.00727140  0.50603455  1
  Ag  Ag4  1  -0.00341624  0.00688742  -0.00579642  1
  Ag  Ag5  1  0.75508062  0.49522860  0.74883448  1
  Ag  Ag6  1  0.50460697  0.75440652  0.74576942  1
  Ag  Ag7  1  -0.00063409  0.24958773  0.25231708  1
  Ag  Ag8  1  0.24017031  0.24532664  0.50196179  1
  Ag  Ag9  1  0.24221543  0.49747102  0.25126869  1
  Ag  Ag10  1  0.75911263  0.24288355  0.50666074  1
  Ag  Ag11  1  0.75359485  0.75727120  0.50496333  1
  Ag  Ag12  1  0.24307875  0.00338578  0.74522542  1
  Ag  Ag13  1  0.75941740  0.24779548  -0.00736916  1
  Ag  Ag14  1  -0.00101348  0.75045606  0.25264964  1
  Ag  Ag15  1  -0.00262631  0.49340151  0.00038294  1
  Sb  Sb16  1  0.50305049  0.00117296  -0.00582034  1
  Sb  Sb17  1  0.50239019  0.49994942  0.50211616  1
  Sb  Sb18  1  0.75455966  0.75272080  -0.00389061  1
  Sb  Sb19  1  -0.00343519  0.75625632  0.74626827  1
  Sb  Sb20  1  0.50714798  0.24722079  0.74720413  1
  Sb  Sb21  1  0.75484948  0.00118060  0.25786615  1
  Sb  Sb22  1  0.50315508  0.49836926  -0.00330061  1
  Sb  Sb23  1  -0.00113924  0.49266144  0.50002494  1
  Sb  Sb24  1  0.24575083  0.75091227  -0.00047014  1
  Sb  Sb25  1  0.24503065  0.49711796  0.74998856  1
  Sb  Sb26  1  0.23963442  0.24829562  -0.00186804  1
  Sb  Sb27  1  0.50007928  0.24936925  0.25372375  1
  Sb  Sb28  1  0.50168692  0.75041460  0.25467460  1
  Sb  Sb29  1  0.24371194  0.00204357  0.25397407  1
  Sb  Sb30  1  0.24620960  0.75384420  0.50077377  1
  Sb  Sb31  1  0.75578257  0.49792765  0.24969304  1
  Te  Te32  1  0.24533194  0.25285445  0.25369800  1
  Te  Te33  1  0.24657920  0.24739790  0.74650612  1
  Te  Te34  1  0.24456532  0.74527694  0.25034266  1
  Te  Te35  1  0.25479277  0.75324662  0.74895465  1
  Te  Te36  1  0.75543415  0.25125905  0.25247729  1
  Te  Te37  1  0.75148981  0.24814808  0.74709120  1
  Te  Te38  1  0.75457569  0.74854545  0.25695164  1
  Te  Te39  1  0.75004790  0.75126214  0.74610091  1
  Te  Te40  1  0.24568141  0.00094056  -0.00757523  1
  Te  Te41  1  0.24650253  0.00339062  0.50379694  1
  Te  Te42  1  0.24454970  0.49950179  0.00266314  1
  Te  Te43  1  0.25088849  0.49383930  0.49729182  1
  Te  Te44  1  0.75411482  0.00296829  -0.00579711  1
  Te  Te45  1  0.75391646  0.00204917  0.50162065  1
  Te  Te46  1  0.75432767  0.49711988  -0.00402944  1
  Te  Te47  1  0.74942118  0.49867664  0.50520798  1
  Te  Te48  1  -0.00271275  0.24785435  -0.00054895  1
  Te  Te49  1  -0.00176900  0.24915113  0.50132807  1
  Te  Te50  1  -0.00142904  0.75116307  0.00692216  1
  Te  Te51  1  -0.00392603  0.75490244  0.49583743  1
  Te  Te52  1  0.51194760  0.24928827  0.00142699  1
  Te  Te53  1  0.50189994  0.24429889  0.49884169  1
  Te  Te54  1  0.50058525  0.75072884  -0.00510265  1
  Te  Te55  1  0.50438626  0.75516531  0.50277534  1
  Te  Te56  1  0.00092939  0.00227861  0.24928098  1
  Te  Te57  1  -0.00199850  -0.00010295  0.74845463  1
  Te  Te58  1  0.00185994  0.49759097  0.24746916  1
  Te  Te59  1  -0.00312522  0.49746440  0.75420173  1
  Te  Te60  1  0.49709441  -0.00117075  0.25736103  1
  Te  Te61  1  0.50170672  -0.00230588  0.74626829  1
  Te  Te62  1  0.48999201  0.50131257  0.24903416  1
  Te  Te63  1  0.50463939  0.50652280  0.75080662  1
