# generated using pymatgen
data_AgSbTe2
_symmetry_space_group_name_H-M   'P 1'
_cell_length_a   12.31454209
_cell_length_b   12.31359857
_cell_length_c   12.33385790
_cell_angle_alpha   90.00085090
_cell_angle_beta   89.98012720
_cell_angle_gamma   89.99437354
_symmetry_Int_Tables_number   1
_chemical_formula_structural   AgSbTe2
_chemical_formula_sum   'Ag16 Sb16 Te32'
_cell_volume   1870.26079866
_cell_formula_units_Z   16
loop_
 _symmetry_equiv_pos_site_id
 _symmetry_equiv_pos_as_xyz
  1  'x, y, z'
loop_
 _atom_site_type_symbol
 _atom_site_label
 _atom_site_symmetry_multiplicity
 _atom_site_fract_x
 _atom_site_fract_y
 _atom_site_fract_z
 _atom_site_occupancy
  Ag  Ag0  1  0.00383163  0.01080699  0.51208327  1
  Ag  Ag1  1  0.76655006  0.01863277  0.75574982  1
  Ag  Ag2  1  -0.00850187  0.24645245  0.22832331  1
  Ag  Ag3  1  0.24439237  0.75432036  0.50565086  1
  Ag  Ag4  1  -0.00352283  0.01592826  -0.01154347  1
  Ag  Ag5  1  0.75725537  0.48144168  0.23834279  1
  Ag  Ag6  1  0.23358287  0.48155627  0.75287059  1
  Ag  Ag7  1  0.51232453  0.24918219  0.24850139  1
  Ag  Ag8  1  0.23247322  0.01818278  0.74697232  1
  Ag  Ag9  1  0.75978233  0.01747041  0.24182419  1
  Ag  Ag10  1  0.76671702  0.24945330  0.00529724  1
  Ag  Ag11  1  -0.00458409  0.48221813  -0.00872218  1
  Ag  Ag12  1  0.23077119  0.24850839  -0.01161479  1
  Ag  Ag13  1  0.24026222  0.24787769  0.51408649  1
  Ag  Ag14  1  0.00613379  0.24234048  0.76603118  1
  Ag  Ag15  1  0.76479673  0.48215684  0.75841975  1
  Sb  Sb16  1  0.50246120  0.75120693  0.25302691  1
  Sb  Sb17  1  0.49943966  0.75000396  0.74864741  1
  Sb  Sb18  1  0.75337514  0.75119338  -0.00018843  1
  Sb  Sb19  1  -0.00085049  0.75079094  0.25083298  1
  Sb  Sb20  1  0.49792838  0.49442936  0.49924784  1
  Sb  Sb21  1  0.49672346  0.00484660  0.49920973  1
  Sb  Sb22  1  0.24078795  0.00582713  0.24973183  1
  Sb  Sb23  1  0.24357044  0.75185552  -0.00361731  1
  Sb  Sb24  1  -0.00021469  0.75568235  0.74953357  1
  Sb  Sb25  1  0.75595454  0.75328269  0.50076078  1
  Sb  Sb26  1  0.75704173  0.24859117  0.50038125  1
  Sb  Sb27  1  0.00217724  0.48994714  0.50492648  1
  Sb  Sb28  1  0.50376369  0.49354418  0.00042589  1
  Sb  Sb29  1  0.49932521  0.24941233  0.74896146  1
  Sb  Sb30  1  0.24161871  0.49348830  0.24490117  1
  Sb  Sb31  1  0.50322651  0.00596892  0.00088427  1
  Te  Te32  1  0.23994257  0.25075644  0.24110182  1
  Te  Te33  1  0.25546246  0.24862607  0.75589638  1
  Te  Te34  1  0.25233870  0.74811680  0.25725706  1
  Te  Te35  1  0.25072039  0.74982874  0.74676002  1
  Te  Te36  1  0.75810775  0.24972414  0.25703346  1
  Te  Te37  1  0.74275578  0.24937395  0.74298728  1
  Te  Te38  1  0.74864332  0.74784176  0.25185703  1
  Te  Te39  1  0.74892364  0.74664269  0.74882853  1
  Te  Te40  1  0.24707406  0.00012988  0.00005104  1
  Te  Te41  1  0.24755649  0.00833592  0.49856492  1
  Te  Te42  1  0.24591563  0.50093277  -0.00324356  1
  Te  Te43  1  0.24949713  0.49309799  0.50581260  1
  Te  Te44  1  0.75169962  0.00048438  -0.00403871  1
  Te  Te45  1  0.75406533  -0.00101978  0.50771728  1
  Te  Te46  1  0.75310389  0.49988134  -0.00367519  1
  Te  Te47  1  0.74984941  0.50290243  0.50788631  1
  Te  Te48  1  -0.00345792  0.25084381  -0.00321817  1
  Te  Te49  1  0.00290990  0.24587302  0.50690793  1
  Te  Te50  1  -0.00052598  0.74895800  0.00033304  1
  Te  Te51  1  0.00447767  0.76550287  0.50004627  1
  Te  Te52  1  0.50127887  0.24992391  0.00928216  1
  Te  Te53  1  0.48210404  0.25000396  0.48804287  1
  Te  Te54  1  0.49774711  0.74952206  -0.00001274  1
  Te  Te55  1  0.48632912  0.75009510  0.50066629  1
  Te  Te56  1  -0.00294163  -0.00020982  0.24498899  1
  Te  Te57  1  0.00071478  0.00194967  0.75292543  1
  Te  Te58  1  -0.00354811  0.49898932  0.25031419  1
  Te  Te59  1  -0.00047843  0.49690929  0.74961225  1
  Te  Te60  1  0.51620070  0.00175158  0.24991434  1
  Te  Te61  1  0.50586028  -0.00119068  0.74970139  1
  Te  Te62  1  0.51342167  0.49760691  0.24997873  1
  Te  Te63  1  0.50565851  0.50121562  0.74978212  1
