# generated using pymatgen
data_AgSbTe2
_symmetry_space_group_name_H-M   'P 1'
_cell_length_a   12.20940505
_cell_length_b   12.21184868
_cell_length_c   12.21005489
_cell_angle_alpha   90.00037227
_cell_angle_beta   90.00069966
_cell_angle_gamma   90.00808663
_symmetry_Int_Tables_number   1
_chemical_formula_structural   AgSbTe2
_chemical_formula_sum   'Ag16 Sb16 Te32'
_cell_volume   1820.51192313
_cell_formula_units_Z   16
loop_
 _symmetry_equiv_pos_site_id
 _symmetry_equiv_pos_as_xyz
  1  'x, y, z'
loop_
 _atom_site_type_symbol
 _atom_site_label
 _atom_site_symmetry_multiplicity
 _atom_site_fract_x
 _atom_site_fract_y
 _atom_site_fract_z
 _atom_site_occupancy
  Ag  Ag0  1  0.74690283  0.24745443  0.50479615  1
  Ag  Ag1  1  -0.00435437  0.75684122  0.74830568  1
  Ag  Ag2  1  0.50030391  0.74718305  0.25063391  1
  Ag  Ag3  1  0.00133205  0.00046570  -0.00906762  1
  Ag  Ag4  1  0.49882285  0.49754034  -0.00103706  1
  Ag  Ag5  1  0.25594024  0.49692839  0.24940912  1
  Ag  Ag6  1  0.50011473  0.24998894  0.74879418  1
  Ag  Ag7  1  0.74569360  0.50166071  0.74835587  1
  Ag  Ag8  1  0.24721236  0.00289512  0.74934331  1
  Ag  Ag9  1  0.50574523  0.74988282  0.74881684  1
  Ag  Ag10  1  0.25368046  0.24797890  0.50216855  1
  Ag  Ag11  1  0.49699671  0.25321934  0.25073864  1
  Ag  Ag12  1  0.74845906  0.75225350  0.50730031  1
  Ag  Ag13  1  0.25407454  0.24929918  -0.00174345  1
  Ag  Ag14  1  -0.00203148  0.00013564  0.50834425  1
  Ag  Ag15  1  0.75292031  -0.00275099  0.74619079  1
  Sb  Sb16  1  0.00275020  0.25001035  0.25130999  1
  Sb  Sb17  1  0.49990549  0.49799693  0.50209818  1
  Sb  Sb18  1  0.50263445  0.00259410  0.50513896  1
  Sb  Sb19  1  0.74566176  0.24878566  -0.00563498  1
  Sb  Sb20  1  0.74288491  0.49971393  0.25058314  1
  Sb  Sb21  1  0.74860693  0.00041390  0.25428876  1
  Sb  Sb22  1  -0.00002865  0.24135299  0.74934832  1
  Sb  Sb23  1  0.00191147  0.49847899  -0.00470596  1
  Sb  Sb24  1  0.49827415  0.00265645  -0.00501337  1
  Sb  Sb25  1  -0.00134150  0.75033785  0.25212982  1
  Sb  Sb26  1  0.25181187  0.75332243  0.50229490  1
  Sb  Sb27  1  0.74880192  0.75102416  -0.00904688  1
  Sb  Sb28  1  0.25139930  0.00315071  0.25164236  1
  Sb  Sb29  1  0.25157879  0.75133434  -0.00109451  1
  Sb  Sb30  1  0.25507560  0.49569903  0.75069459  1
  Sb  Sb31  1  -0.00009047  0.49992051  0.50420163  1
  Te  Te32  1  0.25437256  0.25144892  0.25134712  1
  Te  Te33  1  0.25321572  0.24847261  0.74827128  1
  Te  Te34  1  0.25720822  0.74561696  0.25091022  1
  Te  Te35  1  0.25226278  0.75411552  0.74829931  1
  Te  Te36  1  0.74263952  0.25118532  0.25794805  1
  Te  Te37  1  0.74685431  0.24910511  0.74653131  1
  Te  Te38  1  0.74374199  0.74894163  0.25901889  1
  Te  Te39  1  0.74661407  0.75225091  0.74722149  1
  Te  Te40  1  0.24635674  0.00516464  -0.00439315  1
  Te  Te41  1  0.24417532  0.00452744  0.50379426  1
  Te  Te42  1  0.25314326  0.49403064  0.00186084  1
  Te  Te43  1  0.24850558  0.49178030  0.49603882  1
  Te  Te44  1  0.75702954  0.00137881  -0.00683258  1
  Te  Te45  1  0.75329185  0.00120116  0.50383961  1
  Te  Te46  1  0.74537556  0.49905444  -0.00539938  1
  Te  Te47  1  0.75113592  0.49888445  0.50561775  1
  Te  Te48  1  0.00657624  0.24578352  0.00067219  1
  Te  Te49  1  -0.00091099  0.24482491  0.49944099  1
  Te  Te50  1  0.00008137  0.75557723  -0.00426776  1
  Te  Te51  1  -0.00360649  0.75492325  0.50347258  1
  Te  Te52  1  0.49680903  0.25210216  -0.00069285  1
  Te  Te53  1  0.49963821  0.24908359  0.50124808  1
  Te  Te54  1  0.49971063  0.74553883  -0.00085618  1
  Te  Te55  1  0.50347568  0.75064434  0.50234194  1
  Te  Te56  1  0.00005155  -0.00176372  0.24955890  1
  Te  Te57  1  -0.00014799  -0.00140776  0.74917554  1
  Te  Te58  1  0.00822104  0.50191718  0.24803930  1
  Te  Te59  1  -0.00663446  0.51008188  0.75131929  1
  Te  Te60  1  0.49991702  -0.00096547  0.24668620  1
  Te  Te61  1  0.49983046  -0.00060212  0.75165971  1
  Te  Te62  1  0.49745543  0.49894053  0.24517877  1
  Te  Te63  1  0.50196104  0.50039414  0.75336505  1
