# generated using pymatgen
data_AgSbTe2
_symmetry_space_group_name_H-M   'P 1'
_cell_length_a   12.23353169
_cell_length_b   12.21641758
_cell_length_c   12.22710393
_cell_angle_alpha   90.00366156
_cell_angle_beta   90.00181357
_cell_angle_gamma   90.00830517
_symmetry_Int_Tables_number   1
_chemical_formula_structural   AgSbTe2
_chemical_formula_sum   'Ag16 Sb16 Te32'
_cell_volume   1827.33982173
_cell_formula_units_Z   16
loop_
 _symmetry_equiv_pos_site_id
 _symmetry_equiv_pos_as_xyz
  1  'x, y, z'
loop_
 _atom_site_type_symbol
 _atom_site_label
 _atom_site_symmetry_multiplicity
 _atom_site_fract_x
 _atom_site_fract_y
 _atom_site_fract_z
 _atom_site_occupancy
  Ag  Ag0  1  0.00296377  0.24778386  0.24477285  1
  Ag  Ag1  1  0.24939555  0.50839970  0.24893047  1
  Ag  Ag2  1  0.74978011  0.74915309  0.49518612  1
  Ag  Ag3  1  0.24527802  0.75601636  0.00498418  1
  Ag  Ag4  1  0.75040092  0.50750707  0.74964329  1
  Ag  Ag5  1  0.49777771  0.75092289  0.24860683  1
  Ag  Ag6  1  0.75526429  0.75407394  0.00545452  1
  Ag  Ag7  1  0.49498665  -0.00626952  0.00263963  1
  Ag  Ag8  1  0.00451380  -0.00765219  0.00348043  1
  Ag  Ag9  1  0.24706566  0.24332925  0.00376731  1
  Ag  Ag10  1  0.00161246  0.75306491  0.24391594  1
  Ag  Ag11  1  0.49960902  0.50764297  0.49731975  1
  Ag  Ag12  1  0.75306016  -0.00859505  0.24587753  1
  Ag  Ag13  1  0.24843130  -0.00632739  0.75781297  1
  Ag  Ag14  1  0.00081169  0.75230096  0.75598867  1
  Ag  Ag15  1  0.25012027  0.74983487  0.49269662  1
  Sb  Sb16  1  0.00069332  -0.00489526  0.49571883  1
  Sb  Sb17  1  0.00033470  0.50541663  0.49853336  1
  Sb  Sb18  1  0.00215614  0.24719501  0.75560579  1
  Sb  Sb19  1  0.75155454  -0.00652437  0.75346171  1
  Sb  Sb20  1  0.49875015  0.24926877  0.75260044  1
  Sb  Sb21  1  0.24934730  0.50550145  0.75031688  1
  Sb  Sb22  1  0.75245827  0.24722480  0.00282285  1
  Sb  Sb23  1  0.75032939  0.25136033  0.49670950  1
  Sb  Sb24  1  0.24681114  -0.00859002  0.24202058  1
  Sb  Sb25  1  0.24960869  0.24943633  0.49602504  1
  Sb  Sb26  1  0.00071219  0.50913504  0.00100701  1
  Sb  Sb27  1  0.49760211  0.24781354  0.24694424  1
  Sb  Sb28  1  0.75022692  0.50871145  0.25025683  1
  Sb  Sb29  1  0.49943049  0.75077625  0.75185698  1
  Sb  Sb30  1  0.49884944  0.50657933  0.00173574  1
  Sb  Sb31  1  0.49805384  -0.00695785  0.49670264  1
  Te  Te32  1  0.24650428  0.25552077  0.24739751  1
  Te  Te33  1  0.24821780  0.24602793  0.75538134  1
  Te  Te34  1  0.24886214  0.74997054  0.24963567  1
  Te  Te35  1  0.24689437  0.75157832  0.75209671  1
  Te  Te36  1  0.75516128  0.24409392  0.24992096  1
  Te  Te37  1  0.75139200  0.25848481  0.74905476  1
  Te  Te38  1  0.75176558  0.75076802  0.24886768  1
  Te  Te39  1  0.75292026  0.74820443  0.74995443  1
  Te  Te40  1  0.24887782  -0.00422860  0.00048501  1
  Te  Te41  1  0.25161266  -0.00534263  0.50935428  1
  Te  Te42  1  0.25104123  0.50218853  0.00256724  1
  Te  Te43  1  0.25370088  0.50449787  0.49824326  1
  Te  Te44  1  0.75098251  -0.00344121  0.00147823  1
  Te  Te45  1  0.74868986  -0.00610746  0.49702757  1
  Te  Te46  1  0.74825677  0.50457200  -0.00365682  1
  Te  Te47  1  0.74599947  0.50512099  0.50136273  1
  Te  Te48  1  0.00387555  0.24295793  0.00459616  1
  Te  Te49  1  0.00002552  0.24913594  0.49099850  1
  Te  Te50  1  0.00046109  0.75214711  0.00197033  1
  Te  Te51  1  0.00041522  0.75075291  0.49832735  1
  Te  Te52  1  0.49470551  0.24205439  0.00080584  1
  Te  Te53  1  0.50000232  0.25816549  0.49992190  1
  Te  Te54  1  0.49914752  0.75342249  0.00328868  1
  Te  Te55  1  0.49952034  0.74821129  0.49635832  1
  Te  Te56  1  -0.00186574  -0.00534903  0.24641041  1
  Te  Te57  1  0.00275324  -0.00434847  0.75535745  1
  Te  Te58  1  0.00422340  0.50245457  0.24968135  1
  Te  Te59  1  -0.00407505  0.50555700  0.74990948  1
  Te  Te60  1  0.50497830  -0.00377610  0.24603204  1
  Te  Te61  1  0.49606224  0.00095531  0.75591415  1
  Te  Te62  1  0.49699081  0.50392458  0.25274594  1
  Te  Te63  1  0.50391080  0.49918920  0.74511599  1
