# generated using pymatgen
data_AgSbTe2
_symmetry_space_group_name_H-M   'P 1'
_cell_length_a   12.28881608
_cell_length_b   12.31097648
_cell_length_c   12.27825210
_cell_angle_alpha   90.00745199
_cell_angle_beta   90.00953686
_cell_angle_gamma   89.99852256
_symmetry_Int_Tables_number   1
_chemical_formula_structural   AgSbTe2
_chemical_formula_sum   'Ag16 Sb16 Te32'
_cell_volume   1857.54388287
_cell_formula_units_Z   16
loop_
 _symmetry_equiv_pos_site_id
 _symmetry_equiv_pos_as_xyz
  1  'x, y, z'
loop_
 _atom_site_type_symbol
 _atom_site_label
 _atom_site_symmetry_multiplicity
 _atom_site_fract_x
 _atom_site_fract_y
 _atom_site_fract_z
 _atom_site_occupancy
  Ag  Ag0  1  0.50185793  0.75531492  0.74545296  1
  Ag  Ag1  1  -0.00560403  0.75038887  0.26169486  1
  Ag  Ag2  1  0.24519121  0.50436053  0.26523419  1
  Ag  Ag3  1  0.75440271  0.50644704  0.26518702  1
  Ag  Ag4  1  0.75339396  -0.00714533  0.26673131  1
  Ag  Ag5  1  0.75302843  0.50169796  0.73453332  1
  Ag  Ag6  1  0.75971311  0.24279873  0.50528788  1
  Ag  Ag7  1  0.50261375  -0.00445126  -0.00705494  1
  Ag  Ag8  1  -0.00773797  -0.00060534  0.50460843  1
  Ag  Ag9  1  0.75631411  0.75683001  0.50101309  1
  Ag  Ag10  1  0.24556446  0.74911847  0.50453959  1
  Ag  Ag11  1  0.24960647  -0.00198509  0.73972896  1
  Ag  Ag12  1  0.24048697  0.25004374  0.50677618  1
  Ag  Ag13  1  0.75144748  -0.00230373  0.73673302  1
  Ag  Ag14  1  0.24718439  0.50114677  0.73682665  1
  Ag  Ag15  1  -0.00085497  0.24650256  0.74007154  1
  Sb  Sb16  1  0.75183957  0.24875364  -0.00578763  1
  Sb  Sb17  1  0.24860508  -0.00373313  0.26436633  1
  Sb  Sb18  1  0.24954497  0.75170727  -0.00528023  1
  Sb  Sb19  1  0.50088615  0.50000397  0.50088233  1
  Sb  Sb20  1  -0.00092643  0.24876077  0.25958559  1
  Sb  Sb21  1  0.00038329  -0.00131784  -0.00303019  1
  Sb  Sb22  1  0.50019122  0.24701835  0.74902555  1
  Sb  Sb23  1  -0.00035103  0.50126158  0.50032382  1
  Sb  Sb24  1  0.00001586  0.50185741  -0.00085090  1
  Sb  Sb25  1  -0.00056123  0.75296380  0.74342295  1
  Sb  Sb26  1  0.50080357  0.24860746  0.25186998  1
  Sb  Sb27  1  0.49990046  0.50389305  -0.00294833  1
  Sb  Sb28  1  0.75044748  0.75081261  -0.00375078  1
  Sb  Sb29  1  0.24804694  0.24867074  -0.00663294  1
  Sb  Sb30  1  0.50177473  0.75135502  0.25459264  1
  Sb  Sb31  1  0.50652156  -0.00042850  0.50284943  1
  Te  Te32  1  0.24923479  0.25814361  0.25906791  1
  Te  Te33  1  0.25380953  0.25307886  0.74603290  1
  Te  Te34  1  0.25524103  0.74688209  0.25722247  1
  Te  Te35  1  0.24236036  0.74790655  0.74592105  1
  Te  Te36  1  0.75012365  0.25461343  0.25914738  1
  Te  Te37  1  0.74733826  0.25209283  0.74512608  1
  Te  Te38  1  0.74628798  0.74748965  0.25507186  1
  Te  Te39  1  0.75629462  0.74877467  0.74655570  1
  Te  Te40  1  0.24966437  0.00049339  -0.01187158  1
  Te  Te41  1  0.24830466  -0.00067905  0.50207576  1
  Te  Te42  1  0.24984591  0.49970545  -0.00167228  1
  Te  Te43  1  0.24927132  0.50148778  0.50259420  1
  Te  Te44  1  0.75061173  0.00084594  -0.00473048  1
  Te  Te45  1  0.75097124  -0.00154090  0.50235246  1
  Te  Te46  1  0.75027312  0.49917459  0.00083218  1
  Te  Te47  1  0.75013145  0.50128286  0.50244904  1
  Te  Te48  1  0.00080395  0.25084595  -0.01854241  1
  Te  Te49  1  -0.00090855  0.24247711  0.50559059  1
  Te  Te50  1  0.00082209  0.74890540  0.02473843  1
  Te  Te51  1  -0.00172597  0.75607578  0.49540302  1
  Te  Te52  1  0.49978035  0.23849546  0.00217032  1
  Te  Te53  1  0.49787061  0.25026794  0.49880546  1
  Te  Te54  1  0.49962476  0.75495030  -0.01393576  1
  Te  Te55  1  0.49756589  0.74908601  0.50786063  1
  Te  Te56  1  -0.00406935  0.00067448  0.25066644  1
  Te  Te57  1  -0.00232370  -0.00209206  0.74712587  1
  Te  Te58  1  -0.00333696  0.50081538  0.24980360  1
  Te  Te59  1  -0.00136519  0.49875781  0.74946137  1
  Te  Te60  1  0.50764369  -0.00000842  0.24205868  1
  Te  Te61  1  0.50171299  -0.00371872  0.74893350  1
  Te  Te62  1  0.50332489  0.49905835  0.24667372  1
  Te  Te63  1  0.50108625  0.50731241  0.75101019  1
