# generated using pymatgen
data_AgSbTe2
_symmetry_space_group_name_H-M   'P 1'
_cell_length_a   12.22356455
_cell_length_b   12.21915175
_cell_length_c   12.21947525
_cell_angle_alpha   90.00256376
_cell_angle_beta   90.00362702
_cell_angle_gamma   89.98926642
_symmetry_Int_Tables_number   1
_chemical_formula_structural   AgSbTe2
_chemical_formula_sum   'Ag16 Sb16 Te32'
_cell_volume   1825.12021626
_cell_formula_units_Z   16
loop_
 _symmetry_equiv_pos_site_id
 _symmetry_equiv_pos_as_xyz
  1  'x, y, z'
loop_
 _atom_site_type_symbol
 _atom_site_label
 _atom_site_symmetry_multiplicity
 _atom_site_fract_x
 _atom_site_fract_y
 _atom_site_fract_z
 _atom_site_occupancy
  Ag  Ag0  1  0.49938885  0.00033867  -0.00806780  1
  Ag  Ag1  1  0.00071750  0.00426151  -0.00377842  1
  Ag  Ag2  1  0.74714890  0.00115094  0.74594156  1
  Ag  Ag3  1  0.24873218  0.00412428  0.25257197  1
  Ag  Ag4  1  0.50080835  0.00056833  0.50731746  1
  Ag  Ag5  1  0.50616874  0.49912903  0.50488061  1
  Ag  Ag6  1  0.25245079  0.00286214  0.74774696  1
  Ag  Ag7  1  0.24578845  0.24626677  0.50180843  1
  Ag  Ag8  1  0.75427687  0.25215313  0.50503438  1
  Ag  Ag9  1  -0.00229491  0.49563101  -0.00389833  1
  Ag  Ag10  1  0.75292911  0.49842743  0.74266263  1
  Ag  Ag11  1  0.00122867  0.24841328  0.25488862  1
  Ag  Ag12  1  -0.00250613  0.24917244  0.74523339  1
  Ag  Ag13  1  -0.00566287  0.49288283  0.50420563  1
  Ag  Ag14  1  0.74778778  0.74903961  0.50574181  1
  Ag  Ag15  1  0.50373353  0.75597738  0.74552596  1
  Sb  Sb16  1  0.25000255  0.75323333  -0.00325052  1
  Sb  Sb17  1  0.50322845  0.24278027  0.74533570  1
  Sb  Sb18  1  0.24663700  0.24609388  -0.00321874  1
  Sb  Sb19  1  -0.00343268  0.75106580  0.74726887  1
  Sb  Sb20  1  0.24650337  0.49437723  0.25361672  1
  Sb  Sb21  1  0.24716414  0.49551741  0.74665242  1
  Sb  Sb22  1  0.75173874  0.49701471  0.25938697  1
  Sb  Sb23  1  0.74982178  0.75182056  -0.00635940  1
  Sb  Sb24  1  0.50288854  0.49961513  -0.00817096  1
  Sb  Sb25  1  -0.00038686  0.00894223  0.50506287  1
  Sb  Sb26  1  0.75202198  0.00312225  0.25467470  1
  Sb  Sb27  1  0.49818468  0.24751747  0.25498789  1
  Sb  Sb28  1  0.00006590  0.75289329  0.25296288  1
  Sb  Sb29  1  0.50051979  0.75287123  0.25493129  1
  Sb  Sb30  1  0.25169647  0.75457570  0.50301769  1
  Sb  Sb31  1  0.75403127  0.24882773  -0.00646226  1
  Te  Te32  1  0.24455510  0.24463099  0.25645961  1
  Te  Te33  1  0.24380672  0.24495835  0.74512781  1
  Te  Te34  1  0.24991547  0.76124602  0.25047148  1
  Te  Te35  1  0.25762426  0.75898318  0.74886287  1
  Te  Te36  1  0.75810466  0.24960984  0.25947218  1
  Te  Te37  1  0.75305178  0.24902819  0.74527589  1
  Te  Te38  1  0.74998110  0.75018185  0.26086609  1
  Te  Te39  1  0.74705277  0.75170087  0.74487018  1
  Te  Te40  1  0.24967292  0.00141083  -0.00264752  1
  Te  Te41  1  0.25162170  0.00280569  0.50246415  1
  Te  Te42  1  0.24411675  0.49983334  0.00060933  1
  Te  Te43  1  0.25051429  0.49455890  0.50020944  1
  Te  Te44  1  0.75023632  -0.00003353  -0.00526267  1
  Te  Te45  1  0.74836905  0.00166960  0.50297295  1
  Te  Te46  1  0.75378652  0.50015066  -0.00786180  1
  Te  Te47  1  0.74932505  0.49691743  0.50299822  1
  Te  Te48  1  -0.00024507  0.24931605  -0.00137581  1
  Te  Te49  1  -0.00046770  0.25069075  0.50220624  1
  Te  Te50  1  -0.00064706  0.74947434  0.00080142  1
  Te  Te51  1  -0.00464181  0.73874257  0.49967117  1
  Te  Te52  1  0.50019939  0.24496330  0.00237527  1
  Te  Te53  1  0.50029284  0.25003528  0.50032078  1
  Te  Te54  1  0.50041893  0.75422082  -0.00575697  1
  Te  Te55  1  0.50178658  0.75057639  0.50334017  1
  Te  Te56  1  0.00251642  0.00342033  0.24320788  1
  Te  Te57  1  -0.00110825  0.00106648  0.75256260  1
  Te  Te58  1  0.00089031  0.49493754  0.24863830  1
  Te  Te59  1  -0.00136930  0.49917042  0.74906029  1
  Te  Te60  1  0.49573809  -0.00009824  0.24973581  1
  Te  Te61  1  0.50166042  0.00127027  0.74867346  1
  Te  Te62  1  0.49925929  0.50028568  0.25474598  1
  Te  Te63  1  0.50260154  0.50360877  0.74865422  1
