# generated using pymatgen
data_AgSbTe2
_symmetry_space_group_name_H-M   'P 1'
_cell_length_a   12.22292780
_cell_length_b   12.22330355
_cell_length_c   12.23980843
_cell_angle_alpha   89.98992680
_cell_angle_beta   89.99370350
_cell_angle_gamma   90.00030775
_symmetry_Int_Tables_number   1
_chemical_formula_structural   AgSbTe2
_chemical_formula_sum   'Ag16 Sb16 Te32'
_cell_volume   1828.68311423
_cell_formula_units_Z   16
loop_
 _symmetry_equiv_pos_site_id
 _symmetry_equiv_pos_as_xyz
  1  'x, y, z'
loop_
 _atom_site_type_symbol
 _atom_site_label
 _atom_site_symmetry_multiplicity
 _atom_site_fract_x
 _atom_site_fract_y
 _atom_site_fract_z
 _atom_site_occupancy
  Ag  Ag0  1  0.74545946  0.75175758  0.49876289  1
  Ag  Ag1  1  -0.00503183  0.49518863  0.00024570  1
  Ag  Ag2  1  0.50108115  -0.00244975  0.49696949  1
  Ag  Ag3  1  0.25269893  0.00066125  0.25370978  1
  Ag  Ag4  1  0.75146046  0.48422765  0.25027024  1
  Ag  Ag5  1  0.74939806  0.24857208  0.48427983  1
  Ag  Ag6  1  0.51583863  0.24561783  0.25170059  1
  Ag  Ag7  1  0.74818801  0.01564990  0.25472769  1
  Ag  Ag8  1  0.75208294  0.49555550  0.74970599  1
  Ag  Ag9  1  0.75370120  0.25250665  0.01504795  1
  Ag  Ag10  1  0.25063319  0.75276798  -0.00117296  1
  Ag  Ag11  1  0.25237230  -0.00415557  0.74692516  1
  Ag  Ag12  1  -0.01577133  0.24957625  0.24890729  1
  Ag  Ag13  1  0.25538071  0.75723587  0.50209728  1
  Ag  Ag14  1  0.49825218  0.75251090  0.74510182  1
  Ag  Ag15  1  -0.00660410  0.25114101  0.75145143  1
  Sb  Sb16  1  -0.00100470  0.00106220  0.49888325  1
  Sb  Sb17  1  0.24815998  0.50141040  0.75104813  1
  Sb  Sb18  1  -0.00414307  0.49799606  0.49977745  1
  Sb  Sb19  1  0.25120128  0.24428252  0.49815388  1
  Sb  Sb20  1  0.50353708  0.49994095  0.00096840  1
  Sb  Sb21  1  0.74918860  0.74872087  0.00087451  1
  Sb  Sb22  1  0.49972313  0.00024463  0.00296073  1
  Sb  Sb23  1  0.24773156  0.24846761  0.00151668  1
  Sb  Sb24  1  -0.00102033  0.75036363  0.24928992  1
  Sb  Sb25  1  0.50453954  0.24886861  0.74872665  1
  Sb  Sb26  1  0.50129200  0.75289421  0.25346792  1
  Sb  Sb27  1  0.50412685  0.50133245  0.49966637  1
  Sb  Sb28  1  0.00028229  0.74980596  0.75058055  1
  Sb  Sb29  1  0.24867945  0.49850632  0.24926836  1
  Sb  Sb30  1  -0.00036936  0.00368996  0.00075890  1
  Sb  Sb31  1  0.74880958  0.00212607  0.74544142  1
  Te  Te32  1  0.24920056  0.24576811  0.25048158  1
  Te  Te33  1  0.24695839  0.24666471  0.74952981  1
  Te  Te34  1  0.25005191  0.75434041  0.25125923  1
  Te  Te35  1  0.25115760  0.75227442  0.74749278  1
  Te  Te36  1  0.75091418  0.24990002  0.25166612  1
  Te  Te37  1  0.75168133  0.25184616  0.74919689  1
  Te  Te38  1  0.74928541  0.75002516  0.25377618  1
  Te  Te39  1  0.74849390  0.74875443  0.74732331  1
  Te  Te40  1  0.24958778  -0.00401753  0.00109985  1
  Te  Te41  1  0.25310144  -0.00277765  0.49820174  1
  Te  Te42  1  0.24412206  0.50540917  0.00070426  1
  Te  Te43  1  0.25059105  0.51151932  0.49950275  1
  Te  Te44  1  0.75021658  0.00283984  0.00718558  1
  Te  Te45  1  0.74689398  -0.00106686  0.49750130  1
  Te  Te46  1  0.75321485  0.49932337  0.00043984  1
  Te  Te47  1  0.74962572  0.50048571  0.49954295  1
  Te  Te48  1  -0.00274757  0.25293361  0.00037810  1
  Te  Te49  1  -0.00396930  0.25038746  0.49928051  1
  Te  Te50  1  0.00466499  0.74332334  -0.00010172  1
  Te  Te51  1  -0.00264779  0.74934396  0.49983513  1
  Te  Te52  1  0.50525914  0.25040510  0.00444526  1
  Te  Te53  1  0.50290649  0.24533283  0.49689807  1
  Te  Te54  1  0.49453683  0.74991601  -0.00704565  1
  Te  Te55  1  0.50211202  0.75394276  0.50271475  1
  Te  Te56  1  -0.00011290  0.00468670  0.24928169  1
  Te  Te57  1  0.00590053  0.00695973  0.75063029  1
  Te  Te58  1  -0.00292358  0.49525643  0.24610841  1
  Te  Te59  1  -0.00402446  0.49415136  0.75370193  1
  Te  Te60  1  0.49971532  0.00226753  0.25298575  1
  Te  Te61  1  0.49594499  -0.00351430  0.74586380  1
  Te  Te62  1  0.50493738  0.49305179  0.24934262  1
  Te  Te63  1  0.50547735  0.50419070  0.75066355  1
