# generated using pymatgen
data_AgSbTe2
_symmetry_space_group_name_H-M   'P 1'
_cell_length_a   12.22546082
_cell_length_b   12.22660773
_cell_length_c   12.23913043
_cell_angle_alpha   89.99988720
_cell_angle_beta   90.00830455
_cell_angle_gamma   90.01145728
_symmetry_Int_Tables_number   1
_chemical_formula_structural   AgSbTe2
_chemical_formula_sum   'Ag16 Sb16 Te32'
_cell_volume   1829.45514743
_cell_formula_units_Z   16
loop_
 _symmetry_equiv_pos_site_id
 _symmetry_equiv_pos_as_xyz
  1  'x, y, z'
loop_
 _atom_site_type_symbol
 _atom_site_label
 _atom_site_symmetry_multiplicity
 _atom_site_fract_x
 _atom_site_fract_y
 _atom_site_fract_z
 _atom_site_occupancy
  Ag  Ag0  1  0.50461015  0.00250683  0.50101945  1
  Ag  Ag1  1  -0.00268534  0.00864458  -0.00390460  1
  Ag  Ag2  1  0.24614289  0.50058437  0.25020915  1
  Ag  Ag3  1  0.24071136  0.49821368  0.74965411  1
  Ag  Ag4  1  0.75802799  0.25124782  -0.00745090  1
  Ag  Ag5  1  0.75732948  0.25084109  0.50681394  1
  Ag  Ag6  1  -0.00669133  0.25464845  0.74881098  1
  Ag  Ag7  1  0.50138035  0.49793702  0.50029906  1
  Ag  Ag8  1  0.49648902  0.74712463  0.25193102  1
  Ag  Ag9  1  0.00086166  0.49277865  -0.00581199  1
  Ag  Ag10  1  -0.00162827  0.25391364  0.25125620  1
  Ag  Ag11  1  0.24748991  0.74560130  0.00097607  1
  Ag  Ag12  1  0.75631316  0.00968517  0.74637729  1
  Ag  Ag13  1  -0.00185276  0.49016117  0.50582594  1
  Ag  Ag14  1  -0.00526557  0.01011828  0.50473165  1
  Ag  Ag15  1  0.75842203  0.49056565  0.74689277  1
  Sb  Sb16  1  0.00057493  0.74435155  0.75022938  1
  Sb  Sb17  1  0.75288632  0.49667053  0.25266544  1
  Sb  Sb18  1  0.49968085  0.25121291  0.25405168  1
  Sb  Sb19  1  0.50253208  0.00000760  -0.00165801  1
  Sb  Sb20  1  0.75001198  0.74894846  0.50127110  1
  Sb  Sb21  1  0.24744448  0.00064824  0.24965164  1
  Sb  Sb22  1  0.00212744  0.74665220  0.24905728  1
  Sb  Sb23  1  0.25026766  0.74645014  0.49983219  1
  Sb  Sb24  1  0.75203616  0.74919734  -0.00163732  1
  Sb  Sb25  1  0.24190537  0.25272892  0.50086581  1
  Sb  Sb26  1  0.24351590  0.00276525  0.75026971  1
  Sb  Sb27  1  0.75180735  0.00270910  0.25354550  1
  Sb  Sb28  1  0.24067780  0.25337433  -0.00106597  1
  Sb  Sb29  1  0.49869663  0.74890645  0.74860861  1
  Sb  Sb30  1  0.49977455  0.49928662  -0.00016676  1
  Sb  Sb31  1  0.50698771  0.25130440  0.74691367  1
  Te  Te32  1  0.24400119  0.25640378  0.24953429  1
  Te  Te33  1  0.24263486  0.25595630  0.75128565  1
  Te  Te34  1  0.25332546  0.74522690  0.24630938  1
  Te  Te35  1  0.25125857  0.74252054  0.75634405  1
  Te  Te36  1  0.75605613  0.25031300  0.25073234  1
  Te  Te37  1  0.75268957  0.25127812  0.74819894  1
  Te  Te38  1  0.74023432  0.75007228  0.24882685  1
  Te  Te39  1  0.74902956  0.74961724  0.75134951  1
  Te  Te40  1  0.24587643  -0.00421520  -0.00133805  1
  Te  Te41  1  0.24976196  -0.00130042  0.50153148  1
  Te  Te42  1  0.24886977  0.50084235  -0.00071620  1
  Te  Te43  1  0.24890216  0.50034993  0.50123952  1
  Te  Te44  1  0.75440291  0.00131262  -0.00443734  1
  Te  Te45  1  0.75325880  0.00105408  0.50281476  1
  Te  Te46  1  0.75243947  0.49790430  -0.00393858  1
  Te  Te47  1  0.75224423  0.49897799  0.50228963  1
  Te  Te48  1  -0.00263871  0.25134990  -0.00062028  1
  Te  Te49  1  -0.00270879  0.25118464  0.50087531  1
  Te  Te50  1  0.00347744  0.74874270  0.00176896  1
  Te  Te51  1  0.00067061  0.75167321  0.49805844  1
  Te  Te52  1  0.51161554  0.24815476  0.00122473  1
  Te  Te53  1  0.50826262  0.25062267  0.49929909  1
  Te  Te54  1  0.49525289  0.75127633  0.00537590  1
  Te  Te55  1  0.49968621  0.74873837  0.49648639  1
  Te  Te56  1  0.00133819  0.00348756  0.25065283  1
  Te  Te57  1  -0.00174905  0.00285909  0.74829490  1
  Te  Te58  1  0.00270416  0.49797127  0.25112857  1
  Te  Te59  1  -0.00125276  0.49892357  0.74873421  1
  Te  Te60  1  0.49920281  -0.00178427  0.25617717  1
  Te  Te61  1  0.50389375  0.00043949  0.74401219  1
  Te  Te62  1  0.49595934  0.50101449  0.25377189  1
  Te  Te63  1  0.50071840  0.49924605  0.74466938  1
