# generated using pymatgen
data_AgSbTe2
_symmetry_space_group_name_H-M   'P 1'
_cell_length_a   12.21619258
_cell_length_b   12.21206555
_cell_length_c   12.21927902
_cell_angle_alpha   90.00357711
_cell_angle_beta   89.99828895
_cell_angle_gamma   90.00125507
_symmetry_Int_Tables_number   1
_chemical_formula_structural   AgSbTe2
_chemical_formula_sum   'Ag16 Sb16 Te32'
_cell_volume   1822.93245768
_cell_formula_units_Z   16
loop_
 _symmetry_equiv_pos_site_id
 _symmetry_equiv_pos_as_xyz
  1  'x, y, z'
loop_
 _atom_site_type_symbol
 _atom_site_label
 _atom_site_symmetry_multiplicity
 _atom_site_fract_x
 _atom_site_fract_y
 _atom_site_fract_z
 _atom_site_occupancy
  Ag  Ag0  1  0.75028189  0.75591985  0.49551495  1
  Ag  Ag1  1  0.50592838  -0.00173759  0.49855832  1
  Ag  Ag2  1  0.49865688  0.50270322  0.00282549  1
  Ag  Ag3  1  0.74611554  -0.00221940  0.74458850  1
  Ag  Ag4  1  0.74653991  -0.00574666  0.25604721  1
  Ag  Ag5  1  0.74674452  0.24287615  0.49941118  1
  Ag  Ag6  1  0.50036659  -0.00216238  0.00161559  1
  Ag  Ag7  1  0.24894423  0.74835433  0.00848739  1
  Ag  Ag8  1  0.24928923  0.75267580  0.49119472  1
  Ag  Ag9  1  0.25244172  -0.01057202  0.25057386  1
  Ag  Ag10  1  0.24930373  0.51061100  0.24646327  1
  Ag  Ag11  1  0.75083178  0.50599274  0.24963718  1
  Ag  Ag12  1  0.00133977  0.50619969  0.00424230  1
  Ag  Ag13  1  -0.00147766  0.75046667  0.75030906  1
  Ag  Ag14  1  0.50343411  0.24636010  0.74936344  1
  Ag  Ag15  1  0.00340824  0.74814914  0.24944310  1
  Sb  Sb16  1  0.74967267  0.50289210  0.75005726  1
  Sb  Sb17  1  0.74783461  0.24892806  0.00027701  1
  Sb  Sb18  1  0.49583044  0.75230888  0.24926767  1
  Sb  Sb19  1  -0.00713105  -0.00426331  0.49824532  1
  Sb  Sb20  1  0.25360100  0.24651632  0.49834321  1
  Sb  Sb21  1  0.25236933  0.25072744  0.00108749  1
  Sb  Sb22  1  -0.00433983  0.24858632  0.75014013  1
  Sb  Sb23  1  0.50387267  0.75311564  0.75084124  1
  Sb  Sb24  1  -0.00257144  0.25213190  0.24990130  1
  Sb  Sb25  1  0.75135515  0.75053348  0.00721895  1
  Sb  Sb26  1  0.25363020  -0.00405486  0.74889374  1
  Sb  Sb27  1  0.50040568  0.50188633  0.49679563  1
  Sb  Sb28  1  0.50186904  0.24744242  0.25101132  1
  Sb  Sb29  1  0.25046157  0.50433831  0.75403231  1
  Sb  Sb30  1  -0.00029548  0.50480097  0.49520472  1
  Sb  Sb31  1  0.00144437  -0.00630968  0.00210859  1
  Te  Te32  1  0.24881470  0.24925726  0.25198302  1
  Te  Te33  1  0.25557903  0.24968046  0.74796910  1
  Te  Te34  1  0.24919161  0.75056161  0.25043218  1
  Te  Te35  1  0.24267361  0.75062551  0.74851586  1
  Te  Te36  1  0.75137682  0.24846928  0.25556750  1
  Te  Te37  1  0.74744195  0.24582136  0.74527959  1
  Te  Te38  1  0.75344893  0.75087742  0.25156260  1
  Te  Te39  1  0.75425520  0.75319443  0.74426538  1
  Te  Te40  1  0.25408724  -0.00336259  0.00394690  1
  Te  Te41  1  0.25599486  -0.00352922  0.49633430  1
  Te  Te42  1  0.25257220  0.50273668  0.00396389  1
  Te  Te43  1  0.25138740  0.50530521  0.49224039  1
  Te  Te44  1  0.74438991  -0.00025781  0.00225076  1
  Te  Te45  1  0.74814787  -0.00317951  0.49710794  1
  Te  Te46  1  0.74690362  0.50005822  0.00548504  1
  Te  Te47  1  0.74866388  0.50385557  0.49450758  1
  Te  Te48  1  0.00026909  0.26096473  -0.00159656  1
  Te  Te49  1  -0.00815679  0.25168789  0.50186404  1
  Te  Te50  1  0.00284941  0.74695518  0.00213868  1
  Te  Te51  1  0.00090252  0.74970820  0.49891031  1
  Te  Te52  1  0.50006653  0.24856814  -0.00577306  1
  Te  Te53  1  0.50455597  0.24601529  0.50452710  1
  Te  Te54  1  0.49477626  0.75014188  -0.00243920  1
  Te  Te55  1  0.50039370  0.75368123  0.50227981  1
  Te  Te56  1  0.00008774  -0.00484775  0.24813236  1
  Te  Te57  1  -0.00684638  -0.00411217  0.75232530  1
  Te  Te58  1  -0.00052015  0.50319454  0.24642838  1
  Te  Te59  1  -0.00087374  0.50516929  0.75797620  1
  Te  Te60  1  0.50185135  0.00147877  0.24893112  1
  Te  Te61  1  0.50363333  0.00152006  0.75094932  1
  Te  Te62  1  0.50061666  0.49768149  0.24498993  1
  Te  Te63  1  0.50130791  0.49462841  0.75724280  1
