# generated using pymatgen
data_AgSbTe2
_symmetry_space_group_name_H-M   'P 1'
_cell_length_a   12.22093795
_cell_length_b   12.22366336
_cell_length_c   12.23187668
_cell_angle_alpha   89.99899870
_cell_angle_beta   89.99322217
_cell_angle_gamma   89.99619657
_symmetry_Int_Tables_number   1
_chemical_formula_structural   AgSbTe2
_chemical_formula_sum   'Ag16 Sb16 Te32'
_cell_volume   1827.25437150
_cell_formula_units_Z   16
loop_
 _symmetry_equiv_pos_site_id
 _symmetry_equiv_pos_as_xyz
  1  'x, y, z'
loop_
 _atom_site_type_symbol
 _atom_site_label
 _atom_site_symmetry_multiplicity
 _atom_site_fract_x
 _atom_site_fract_y
 _atom_site_fract_z
 _atom_site_occupancy
  Ag  Ag0  1  0.00527090  -0.00528317  0.00118225  1
  Ag  Ag1  1  0.74690236  0.74848196  0.50105742  1
  Ag  Ag2  1  0.25240050  -0.00815382  0.24617418  1
  Ag  Ag3  1  0.00813519  0.50652651  0.49904405  1
  Ag  Ag4  1  0.49306246  0.50320752  -0.00323268  1
  Ag  Ag5  1  0.25428557  0.50783637  0.25467968  1
  Ag  Ag6  1  0.49832741  0.25386120  0.75164943  1
  Ag  Ag7  1  0.49572392  0.25289180  0.24860995  1
  Ag  Ag8  1  0.49554910  -0.00338201  -0.00147606  1
  Ag  Ag9  1  0.49250388  0.50515182  0.50291554  1
  Ag  Ag10  1  0.25214175  0.74275535  0.49596731  1
  Ag  Ag11  1  0.00824079  0.74939644  0.25198668  1
  Ag  Ag12  1  0.74514635  -0.00326121  0.75068117  1
  Ag  Ag13  1  0.25433578  0.75037363  0.00416180  1
  Ag  Ag14  1  0.25784338  0.50535491  0.74610575  1
  Ag  Ag15  1  0.49591039  0.74583159  0.74991995  1
  Sb  Sb16  1  0.49746428  -0.00545720  0.50100050  1
  Sb  Sb17  1  0.74574688  0.24868994  -0.00124077  1
  Sb  Sb18  1  0.00865062  0.50511977  0.00070415  1
  Sb  Sb19  1  0.25379823  -0.00516710  0.75301019  1
  Sb  Sb20  1  0.74549056  0.75136833  -0.00101423  1
  Sb  Sb21  1  0.25352046  0.25842416  0.49965773  1
  Sb  Sb22  1  0.00233072  0.25052258  0.75002693  1
  Sb  Sb23  1  0.00388009  0.25030009  0.25015608  1
  Sb  Sb24  1  0.49207182  0.74829580  0.24955344  1
  Sb  Sb25  1  0.25447224  0.24955118  0.00062696  1
  Sb  Sb26  1  0.74726249  -0.00366418  0.24988799  1
  Sb  Sb27  1  0.00282242  0.74926126  0.74882185  1
  Sb  Sb28  1  0.00312962  -0.00605231  0.49878602  1
  Sb  Sb29  1  0.74531287  0.25011265  0.50214061  1
  Sb  Sb30  1  0.74086954  0.50239679  0.74723227  1
  Sb  Sb31  1  0.74499164  0.50298972  0.25206361  1
  Te  Te32  1  0.25575693  0.24990579  0.25079348  1
  Te  Te33  1  0.25674017  0.25608603  0.74915617  1
  Te  Te34  1  0.24906769  0.74899438  0.24978950  1
  Te  Te35  1  0.25359150  0.74740707  0.75026381  1
  Te  Te36  1  0.74098161  0.24980895  0.25051607  1
  Te  Te37  1  0.74291121  0.24374959  0.74906368  1
  Te  Te38  1  0.76096213  0.75025496  0.25621951  1
  Te  Te39  1  0.74567617  0.75352240  0.74658041  1
  Te  Te40  1  0.25349346  -0.00409757  0.00172570  1
  Te  Te41  1  0.24872395  -0.00870517  0.49443623  1
  Te  Te42  1  0.25365617  0.50438020  0.00067576  1
  Te  Te43  1  0.25283350  0.50283367  0.49854202  1
  Te  Te44  1  0.74621866  -0.00089950  -0.00320645  1
  Te  Te45  1  0.75067022  -0.00671665  0.50434691  1
  Te  Te46  1  0.74167677  0.50048669  -0.00033973  1
  Te  Te47  1  0.74865436  0.50670981  0.50065978  1
  Te  Te48  1  -0.00197158  0.24106193  0.00021795  1
  Te  Te49  1  -0.00151045  0.25999502  0.49987450  1
  Te  Te50  1  0.00352006  0.75334314  0.00279147  1
  Te  Te51  1  0.00320923  0.74616606  0.49862924  1
  Te  Te52  1  0.49940601  0.25000490  -0.00163444  1
  Te  Te53  1  0.50077250  0.25679506  0.50096452  1
  Te  Te54  1  0.49707243  0.75045269  -0.00112563  1
  Te  Te55  1  0.49748488  0.74683552  0.50109610  1
  Te  Te56  1  0.00352135  -0.00061054  0.24704587  1
  Te  Te57  1  -0.00350544  0.00217443  0.75446911  1
  Te  Te58  1  0.00510184  0.50167657  0.25147097  1
  Te  Te59  1  0.00643894  0.49760482  0.74771703  1
  Te  Te60  1  0.49626176  0.00242148  0.24643614  1
  Te  Te61  1  0.50010865  -0.00072539  0.75214403  1
  Te  Te62  1  0.49639308  0.49897266  0.24937306  1
  Te  Te63  1  0.49848802  0.50183065  0.75046746  1
