# generated using pymatgen
data_AgSbTe2
_symmetry_space_group_name_H-M   'P 1'
_cell_length_a   12.26759717
_cell_length_b   12.30291114
_cell_length_c   12.30541643
_cell_angle_alpha   90.00169807
_cell_angle_beta   90.00666014
_cell_angle_gamma   89.98414191
_symmetry_Int_Tables_number   1
_chemical_formula_structural   AgSbTe2
_chemical_formula_sum   'Ag16 Sb16 Te32'
_cell_volume   1857.22144364
_cell_formula_units_Z   16
loop_
 _symmetry_equiv_pos_site_id
 _symmetry_equiv_pos_as_xyz
  1  'x, y, z'
loop_
 _atom_site_type_symbol
 _atom_site_label
 _atom_site_symmetry_multiplicity
 _atom_site_fract_x
 _atom_site_fract_y
 _atom_site_fract_z
 _atom_site_occupancy
  Ag  Ag0  1  0.00872073  0.01302246  0.49279626  1
  Ag  Ag1  1  0.76461894  0.25548708  0.48554539  1
  Ag  Ag2  1  0.23652503  0.24386965  0.49400435  1
  Ag  Ag3  1  0.24335751  0.24652858  0.00497710  1
  Ag  Ag4  1  0.75704280  0.49247256  0.74246403  1
  Ag  Ag5  1  0.75555508  0.48400683  0.25793880  1
  Ag  Ag6  1  0.75818975  0.25212340  0.01500008  1
  Ag  Ag7  1  0.24339808  0.49620615  0.74399334  1
  Ag  Ag8  1  0.24654563  0.75672745  0.49646164  1
  Ag  Ag9  1  0.00137636  0.48755591  0.49769719  1
  Ag  Ag10  1  0.75779534  0.01340154  0.25684892  1
  Ag  Ag11  1  -0.00415296  0.24696642  0.25856097  1
  Ag  Ag12  1  0.24405222  0.00549473  0.25890744  1
  Ag  Ag13  1  0.25119624  0.75400087  0.00410648  1
  Ag  Ag14  1  0.24540983  0.00456049  0.74012362  1
  Ag  Ag15  1  0.49261586  0.75122257  0.25197860  1
  Sb  Sb16  1  0.75468779  0.74844628  0.49691375  1
  Sb  Sb17  1  0.00337798  0.75329766  0.25191048  1
  Sb  Sb18  1  0.24461269  0.49606296  0.25612083  1
  Sb  Sb19  1  0.00300967  0.25100430  0.74043282  1
  Sb  Sb20  1  0.75063151  0.74860379  0.00502370  1
  Sb  Sb21  1  0.75609578  0.00764290  0.74366431  1
  Sb  Sb22  1  0.49187080  0.00022573  0.49784646  1
  Sb  Sb23  1  0.49980999  0.25061762  0.25068841  1
  Sb  Sb24  1  0.49709390  0.50006051  0.00264841  1
  Sb  Sb25  1  0.49763044  -0.00013836  0.00253052  1
  Sb  Sb26  1  0.00281257  0.00468151  0.00688516  1
  Sb  Sb27  1  0.00207159  0.74885605  0.74881172  1
  Sb  Sb28  1  0.49876155  0.49961197  0.49838450  1
  Sb  Sb29  1  0.00213445  0.49606441  0.00363981  1
  Sb  Sb30  1  0.49748074  0.25048480  0.74934285  1
  Sb  Sb31  1  0.49550608  0.74856616  0.74731028  1
  Te  Te32  1  0.25530984  0.25205259  0.25108491  1
  Te  Te33  1  0.24767113  0.25181263  0.75147408  1
  Te  Te34  1  0.24877598  0.74591597  0.25128194  1
  Te  Te35  1  0.25050018  0.74707301  0.74892769  1
  Te  Te36  1  0.74610293  0.24680131  0.25197824  1
  Te  Te37  1  0.75073353  0.25246144  0.75081979  1
  Te  Te38  1  0.74888812  0.75632330  0.24751176  1
  Te  Te39  1  0.74756705  0.74219852  0.75374706  1
  Te  Te40  1  0.24736924  0.00651343  0.00331010  1
  Te  Te41  1  0.24840056  0.00523464  0.49532731  1
  Te  Te42  1  0.24807960  0.49289768  -0.00725159  1
  Te  Te43  1  0.24824361  0.49368897  0.50042849  1
  Te  Te44  1  0.75206805  0.00409738  -0.00272901  1
  Te  Te45  1  0.75579455  -0.00113579  0.50221361  1
  Te  Te46  1  0.75149092  0.49702233  -0.00196163  1
  Te  Te47  1  0.75209014  0.50186244  0.49991640  1
  Te  Te48  1  0.00214314  0.25016832  0.01626587  1
  Te  Te49  1  0.00142818  0.25183957  0.49407599  1
  Te  Te50  1  0.01090006  0.74974865  -0.00071549  1
  Te  Te51  1  0.00567272  0.74790685  0.49997860  1
  Te  Te52  1  0.49573669  0.24996083  -0.00060746  1
  Te  Te53  1  0.50039476  0.24900940  0.50077854  1
  Te  Te54  1  0.48993396  0.75009147  0.00707157  1
  Te  Te55  1  0.48883430  0.75052062  0.49513408  1
  Te  Te56  1  0.00141111  0.00228936  0.25404024  1
  Te  Te57  1  0.00661183  0.00009148  0.73731158  1
  Te  Te58  1  -0.00424824  0.49502496  0.25470761  1
  Te  Te59  1  0.00092903  0.49970736  0.74140217  1
  Te  Te60  1  0.49948272  -0.00504981  0.25094851  1
  Te  Te61  1  0.48801905  -0.00035037  0.75022401  1
  Te  Te62  1  0.51335779  0.50677966  0.25006302  1
  Te  Te63  1  0.50047350  0.49970679  0.74968374  1
