# generated using pymatgen
data_AgSbTe2
_symmetry_space_group_name_H-M   'P 1'
_cell_length_a   12.22249771
_cell_length_b   12.21716360
_cell_length_c   12.22040743
_cell_angle_alpha   90.00347946
_cell_angle_beta   89.99771196
_cell_angle_gamma   90.00214184
_symmetry_Int_Tables_number   1
_chemical_formula_structural   AgSbTe2
_chemical_formula_sum   'Ag16 Sb16 Te32'
_cell_volume   1824.80321843
_cell_formula_units_Z   16
loop_
 _symmetry_equiv_pos_site_id
 _symmetry_equiv_pos_as_xyz
  1  'x, y, z'
loop_
 _atom_site_type_symbol
 _atom_site_label
 _atom_site_symmetry_multiplicity
 _atom_site_fract_x
 _atom_site_fract_y
 _atom_site_fract_z
 _atom_site_occupancy
  Ag  Ag0  1  0.25119827  0.74921755  0.50076430  1
  Ag  Ag1  1  0.26452478  0.25007600  -0.00005941  1
  Ag  Ag2  1  0.25416601  0.00281144  0.24789517  1
  Ag  Ag3  1  -0.00848958  0.25079005  0.75442048  1
  Ag  Ag4  1  0.50381368  0.48602272  0.00099276  1
  Ag  Ag5  1  0.74476465  0.25323846  0.50537060  1
  Ag  Ag6  1  0.50733766  0.25052271  0.76367920  1
  Ag  Ag7  1  -0.00412416  0.49436735  -0.00217712  1
  Ag  Ag8  1  0.74852713  0.00663349  0.75077090  1
  Ag  Ag9  1  0.50279424  0.25254639  0.23631564  1
  Ag  Ag10  1  -0.00360158  0.74895892  0.74926177  1
  Ag  Ag11  1  0.74563244  0.49549517  0.24953973  1
  Ag  Ag12  1  0.73689534  0.25308618  -0.00487048  1
  Ag  Ag13  1  0.50125538  0.01452257  -0.00049388  1
  Ag  Ag14  1  0.50549884  0.49549567  0.49906896  1
  Ag  Ag15  1  0.74890328  0.74671395  0.50313662  1
  Sb  Sb16  1  0.74931906  0.49246514  0.75094061  1
  Sb  Sb17  1  -0.00138115  0.74767222  0.25005258  1
  Sb  Sb18  1  0.24990462  0.75083049  -0.00084797  1
  Sb  Sb19  1  0.50118630  0.74725511  0.25110121  1
  Sb  Sb20  1  -0.00530489  0.49892208  0.50199105  1
  Sb  Sb21  1  -0.00066087  0.00045203  0.50178320  1
  Sb  Sb22  1  -0.00196505  0.00582593  -0.00291415  1
  Sb  Sb23  1  0.75027281  0.74664172  -0.00387532  1
  Sb  Sb24  1  0.50157434  0.00505412  0.50017194  1
  Sb  Sb25  1  0.25025997  0.49925157  0.75067978  1
  Sb  Sb26  1  0.25413981  0.25108684  0.50051127  1
  Sb  Sb27  1  0.74648677  0.00341866  0.24919385  1
  Sb  Sb28  1  0.25421125  0.49842509  0.24928703  1
  Sb  Sb29  1  0.25251363  0.00131723  0.75109205  1
  Sb  Sb30  1  0.50367093  0.74923096  0.74851343  1
  Sb  Sb31  1  -0.00225943  0.25233620  0.24594195  1
  Te  Te32  1  0.25257314  0.24712158  0.24801343  1
  Te  Te33  1  0.25010058  0.24912628  0.75274171  1
  Te  Te34  1  0.24936252  0.75471779  0.25484317  1
  Te  Te35  1  0.24421970  0.75160461  0.74491594  1
  Te  Te36  1  0.74757370  0.25114221  0.24998647  1
  Te  Te37  1  0.74899117  0.24875061  0.75059261  1
  Te  Te38  1  0.75106941  0.74746212  0.25759129  1
  Te  Te39  1  0.75307486  0.75668014  0.74608442  1
  Te  Te40  1  0.25388938  0.00222477  0.00241397  1
  Te  Te41  1  0.25043083  -0.00430336  0.49568428  1
  Te  Te42  1  0.25323333  0.49618771  0.00076242  1
  Te  Te43  1  0.25565006  0.50418143  0.49820575  1
  Te  Te44  1  0.74670084  0.00192319  -0.00169096  1
  Te  Te45  1  0.74947002  0.00088953  0.50175962  1
  Te  Te46  1  0.74676526  0.49888236  0.00237456  1
  Te  Te47  1  0.74746709  0.49812891  0.49751642  1
  Te  Te48  1  -0.00171318  0.25352940  -0.00340426  1
  Te  Te49  1  -0.00447028  0.25142102  0.50728644  1
  Te  Te50  1  0.00065999  0.74292402  -0.00571048  1
  Te  Te51  1  -0.00198283  0.74916549  0.50503128  1
  Te  Te52  1  0.50061432  0.25130142  -0.00105080  1
  Te  Te53  1  0.50230754  0.25360234  0.50117301  1
  Te  Te54  1  0.49916207  0.74750051  -0.00123464  1
  Te  Te55  1  0.50219077  0.74425830  0.50135450  1
  Te  Te56  1  0.00782198  -0.00021063  0.24930274  1
  Te  Te57  1  -0.00541018  0.00189683  0.75103040  1
  Te  Te58  1  -0.00636561  0.49969777  0.24323295  1
  Te  Te59  1  0.00063744  0.49831580  0.75434652  1
  Te  Te60  1  0.49795138  0.00449411  0.24585963  1
  Te  Te61  1  0.50413234  0.00377231  0.75378352  1
  Te  Te62  1  0.50354013  0.49705441  0.24862293  1
  Te  Te63  1  0.49928776  0.49587304  0.75134340  1
