# generated using pymatgen
data_AgSbTe2
_symmetry_space_group_name_H-M   'P 1'
_cell_length_a   12.21728280
_cell_length_b   12.22165002
_cell_length_c   12.21072693
_cell_angle_alpha   89.99468770
_cell_angle_beta   89.98808339
_cell_angle_gamma   90.00101071
_symmetry_Int_Tables_number   1
_chemical_formula_structural   AgSbTe2
_chemical_formula_sum   'Ag16 Sb16 Te32'
_cell_volume   1823.24897334
_cell_formula_units_Z   16
loop_
 _symmetry_equiv_pos_site_id
 _symmetry_equiv_pos_as_xyz
  1  'x, y, z'
loop_
 _atom_site_type_symbol
 _atom_site_label
 _atom_site_symmetry_multiplicity
 _atom_site_fract_x
 _atom_site_fract_y
 _atom_site_fract_z
 _atom_site_occupancy
  Ag  Ag0  1  0.50630322  0.50044948  0.49950142  1
  Ag  Ag1  1  0.50406924  0.74492131  0.25157518  1
  Ag  Ag2  1  0.00125932  -0.00280404  0.00383661  1
  Ag  Ag3  1  0.75422461  0.50420368  0.25546402  1
  Ag  Ag4  1  0.75382311  -0.00372243  0.25080343  1
  Ag  Ag5  1  -0.00380533  0.74420223  0.24661036  1
  Ag  Ag6  1  0.74897410  0.25843513  0.49727313  1
  Ag  Ag7  1  0.24933157  -0.00096688  0.75321409  1
  Ag  Ag8  1  0.74917178  0.74208740  0.49304484  1
  Ag  Ag9  1  0.50048490  0.25513567  0.74702181  1
  Ag  Ag10  1  0.24585180  0.74625135  0.00218862  1
  Ag  Ag11  1  0.25101075  0.50059695  0.75205454  1
  Ag  Ag12  1  0.74850018  0.49941402  0.74421999  1
  Ag  Ag13  1  0.24450296  0.50387603  0.24776196  1
  Ag  Ag14  1  0.00210190  0.50251215  0.00676531  1
  Ag  Ag15  1  -0.00381332  0.25563373  0.24901884  1
  Sb  Sb16  1  0.24626126  -0.00368333  0.24668623  1
  Sb  Sb17  1  0.50044278  0.74552803  0.74804820  1
  Sb  Sb18  1  -0.00132006  0.25338860  0.74928301  1
  Sb  Sb19  1  0.24984316  0.25425989  0.49950717  1
  Sb  Sb20  1  0.75204580  0.25231988  0.00335143  1
  Sb  Sb21  1  0.75058794  0.00025942  0.74966944  1
  Sb  Sb22  1  0.50143652  -0.00076800  0.49887115  1
  Sb  Sb23  1  -0.00001144  0.74741038  0.75340716  1
  Sb  Sb24  1  0.50356382  0.25530359  0.25309053  1
  Sb  Sb25  1  0.75424661  0.74770556  0.00859294  1
  Sb  Sb26  1  0.24770427  0.25398452  -0.00014246  1
  Sb  Sb27  1  -0.00133502  -0.00102454  0.49625634  1
  Sb  Sb28  1  0.24949897  0.74568095  0.49736671  1
  Sb  Sb29  1  0.49873062  -0.00303743  0.00122686  1
  Sb  Sb30  1  -0.00817945  0.50049455  0.49169980  1
  Sb  Sb31  1  0.49770296  0.50244797  0.00095759  1
  Te  Te32  1  0.24692635  0.25468032  0.25141423  1
  Te  Te33  1  0.25249006  0.25440829  0.74923691  1
  Te  Te34  1  0.24858672  0.74742289  0.24855065  1
  Te  Te35  1  0.25048673  0.74608378  0.75256681  1
  Te  Te36  1  0.75071808  0.25197446  0.25318947  1
  Te  Te37  1  0.74802549  0.25323204  0.74482050  1
  Te  Te38  1  0.75082157  0.74719451  0.25064997  1
  Te  Te39  1  0.74881658  0.74579880  0.74245227  1
  Te  Te40  1  0.24573152  -0.00433177  -0.00316370  1
  Te  Te41  1  0.25015289  -0.00030944  0.50903914  1
  Te  Te42  1  0.24722974  0.50299496  0.00040442  1
  Te  Te43  1  0.25795909  0.50054561  0.50172692  1
  Te  Te44  1  0.75628191  -0.00099724  0.00418254  1
  Te  Te45  1  0.74976677  -0.00057455  0.49637362  1
  Te  Te46  1  0.75531635  0.50141176  -0.00033604  1
  Te  Te47  1  0.74866477  0.50038826  0.49901411  1
  Te  Te48  1  -0.00002005  0.25114908  0.00634680  1
  Te  Te49  1  -0.00664087  0.24921807  0.49319750  1
  Te  Te50  1  0.00324467  0.74816240  0.00376387  1
  Te  Te51  1  -0.00555674  0.75101501  0.49187790  1
  Te  Te52  1  0.50009246  0.24895807  -0.00848496  1
  Te  Te53  1  0.50516799  0.25498840  0.50312623  1
  Te  Te54  1  0.49203401  0.75047889  0.00680418  1
  Te  Te55  1  0.50444423  0.74498170  0.49478929  1
  Te  Te56  1  -0.00158915  -0.00068139  0.24625230  1
  Te  Te57  1  0.00426509  0.00064239  0.75733127  1
  Te  Te58  1  -0.00016460  0.50112390  0.24879535  1
  Te  Te59  1  0.00201389  0.49899863  0.75756204  1
  Te  Te60  1  0.50420167  -0.00376813  0.24978046  1
  Te  Te61  1  0.49632008  0.00475251  0.75043737  1
  Te  Te62  1  0.50106554  0.50113759  0.25113561  1
  Te  Te63  1  0.49993761  0.49842434  0.74893673  1
