# generated using pymatgen
data_AgSbTe2
_symmetry_space_group_name_H-M   'P 1'
_cell_length_a   12.22053246
_cell_length_b   12.24053322
_cell_length_c   12.22958061
_cell_angle_alpha   89.99621231
_cell_angle_beta   90.00581265
_cell_angle_gamma   89.99714353
_symmetry_Int_Tables_number   1
_chemical_formula_structural   AgSbTe2
_chemical_formula_sum   'Ag16 Sb16 Te32'
_cell_volume   1829.37199368
_cell_formula_units_Z   16
loop_
 _symmetry_equiv_pos_site_id
 _symmetry_equiv_pos_as_xyz
  1  'x, y, z'
loop_
 _atom_site_type_symbol
 _atom_site_label
 _atom_site_symmetry_multiplicity
 _atom_site_fract_x
 _atom_site_fract_y
 _atom_site_fract_z
 _atom_site_occupancy
  Ag  Ag0  1  -0.00106857  0.25120060  0.25256832  1
  Ag  Ag1  1  0.75624246  0.75010083  0.50711116  1
  Ag  Ag2  1  0.75835449  0.49693144  0.25090809  1
  Ag  Ag3  1  0.24055388  0.24777551  0.49482288  1
  Ag  Ag4  1  -0.00659137  0.75171416  0.74465153  1
  Ag  Ag5  1  0.24326041  0.75196187  0.49928304  1
  Ag  Ag6  1  0.24222354  0.49765674  0.25283142  1
  Ag  Ag7  1  -0.00269072  0.00222195  0.00013110  1
  Ag  Ag8  1  0.24214764  0.00232774  0.25509693  1
  Ag  Ag9  1  0.75577836  -0.00526284  0.74621025  1
  Ag  Ag10  1  -0.00102434  0.00016885  0.49970305  1
  Ag  Ag11  1  0.75470143  0.50442268  0.74748037  1
  Ag  Ag12  1  0.75746109  0.25253860  0.00097910  1
  Ag  Ag13  1  -0.00483653  0.49754074  0.00309206  1
  Ag  Ag14  1  0.75803623  0.25026755  0.49919420  1
  Ag  Ag15  1  0.50861847  0.75017234  0.74622985  1
  Sb  Sb16  1  0.50145874  0.25042029  0.25112405  1
  Sb  Sb17  1  0.24403212  0.50191978  0.74824400  1
  Sb  Sb18  1  0.50207810  0.74942703  0.25332016  1
  Sb  Sb19  1  -0.00075947  0.74837969  0.25469162  1
  Sb  Sb20  1  -0.00247493  0.49878430  0.49775269  1
  Sb  Sb21  1  0.50363556  -0.00004236  -0.00173984  1
  Sb  Sb22  1  0.50241170  0.50098041  0.50107059  1
  Sb  Sb23  1  0.75458458  0.74805937  -0.00668962  1
  Sb  Sb24  1  0.24559021  0.75026186  0.00158588  1
  Sb  Sb25  1  -0.00346521  0.24936915  0.74740140  1
  Sb  Sb26  1  0.50401053  0.50002217  -0.00114683  1
  Sb  Sb27  1  0.24157655  0.24966476  0.00566331  1
  Sb  Sb28  1  0.50511790  0.24986183  0.74817138  1
  Sb  Sb29  1  0.75643488  0.00192808  0.25251453  1
  Sb  Sb30  1  0.50141006  -0.00140520  0.50121278  1
  Sb  Sb31  1  0.24411433  -0.00198199  0.74656579  1
  Te  Te32  1  0.24776214  0.25224988  0.25356331  1
  Te  Te33  1  0.25255980  0.25110396  0.74035808  1
  Te  Te34  1  0.25071920  0.74743325  0.25577423  1
  Te  Te35  1  0.24650719  0.74906555  0.74346956  1
  Te  Te36  1  0.75188000  0.25246731  0.25398274  1
  Te  Te37  1  0.74990323  0.25178249  0.74547904  1
  Te  Te38  1  0.74817709  0.74424847  0.25811848  1
  Te  Te39  1  0.75395164  0.74949061  0.74803419  1
  Te  Te40  1  0.24286892  0.00170973  0.00384508  1
  Te  Te41  1  0.24649310  0.00015903  0.49894710  1
  Te  Te42  1  0.24441492  0.49854395  0.00553046  1
  Te  Te43  1  0.25018756  0.49965414  0.49600713  1
  Te  Te44  1  0.75536739  0.00217068  0.00007883  1
  Te  Te45  1  0.75328883  0.00064754  0.50002997  1
  Te  Te46  1  0.75374081  0.49895986  0.00197591  1
  Te  Te47  1  0.75040777  0.49849757  0.50034702  1
  Te  Te48  1  -0.00383881  0.24928634  0.00261634  1
  Te  Te49  1  -0.00175978  0.24712609  0.49741543  1
  Te  Te50  1  0.00075977  0.75215113  -0.00567699  1
  Te  Te51  1  -0.00126067  0.75339314  0.50219833  1
  Te  Te52  1  0.51129498  0.24925375  -0.00078730  1
  Te  Te53  1  0.50200999  0.24987674  0.50012399  1
  Te  Te54  1  0.49832065  0.75087552  -0.00936309  1
  Te  Te55  1  0.50087832  0.75045647  0.50464714  1
  Te  Te56  1  0.00246772  0.00115714  0.25105635  1
  Te  Te57  1  -0.00373629  -0.00104006  0.74892890  1
  Te  Te58  1  -0.00175614  0.49923858  0.24640657  1
  Te  Te59  1  -0.00403290  0.50257722  0.75661488  1
  Te  Te60  1  0.48691236  -0.00127233  0.24853370  1
  Te  Te61  1  0.50837790  -0.00485415  0.75156121  1
  Te  Te62  1  0.49879828  0.50095071  0.24839693  1
  Te  Te63  1  0.50741292  0.50525174  0.75175124  1
