# generated using pymatgen
data_AgSbTe2
_symmetry_space_group_name_H-M   'P 1'
_cell_length_a   12.20186838
_cell_length_b   12.21424579
_cell_length_c   12.21424580
_cell_angle_alpha   90.00233260
_cell_angle_beta   89.99308595
_cell_angle_gamma   90.00691403
_symmetry_Int_Tables_number   1
_chemical_formula_structural   AgSbTe2
_chemical_formula_sum   'Ag16 Sb16 Te32'
_cell_volume   1820.36987501
_cell_formula_units_Z   16
loop_
 _symmetry_equiv_pos_site_id
 _symmetry_equiv_pos_as_xyz
  1  'x, y, z'
loop_
 _atom_site_type_symbol
 _atom_site_label
 _atom_site_symmetry_multiplicity
 _atom_site_fract_x
 _atom_site_fract_y
 _atom_site_fract_z
 _atom_site_occupancy
  Ag  Ag0  1  0.49844103  0.24696783  0.74894847  1
  Ag  Ag1  1  0.25374155  0.50166852  0.25033835  1
  Ag  Ag2  1  0.74680167  0.74883607  0.00006622  1
  Ag  Ag3  1  0.00148985  0.25261239  0.74865675  1
  Ag  Ag4  1  0.49755123  -0.00054552  0.00343451  1
  Ag  Ag5  1  0.25838881  -0.00211518  0.25211518  1
  Ag  Ag6  1  0.49522779  0.00246273  0.49685843  1
  Ag  Ag7  1  0.00287908  0.74773960  0.75046739  1
  Ag  Ag8  1  0.00287913  0.49953261  0.50226039  1
  Ag  Ag9  1  0.49844102  0.50105153  0.00303218  1
  Ag  Ag10  1  0.49755124  0.24656550  0.25054551  1
  Ag  Ag11  1  0.25374155  -0.00033835  0.74833148  1
  Ag  Ag12  1  0.74680167  0.24993377  0.50116395  1
  Ag  Ag13  1  0.00148985  0.50134323  -0.00261239  1
  Ag  Ag14  1  0.49522781  0.75314158  0.24753728  1
  Ag  Ag15  1  0.25094469  0.75199680  0.49800322  1
  Sb  Sb16  1  0.00467469  0.74783667  0.24906837  1
  Sb  Sb17  1  0.24775024  0.50101174  0.74898825  1
  Sb  Sb18  1  0.74487148  0.00095409  0.74985399  1
  Sb  Sb19  1  0.25267505  0.25040902  -0.00040902  1
  Sb  Sb20  1  0.74487152  0.50014604  0.24904593  1
  Sb  Sb21  1  0.49696280  0.49784355  0.49784954  1
  Sb  Sb22  1  0.49696283  0.75215047  0.75215647  1
  Sb  Sb23  1  0.25252587  0.24767803  0.50051979  1
  Sb  Sb24  1  0.74027208  0.00013631  0.24986368  1
  Sb  Sb25  1  0.00175539  0.25248174  0.25122995  1
  Sb  Sb26  1  0.00467469  0.00093163  0.50216335  1
  Sb  Sb27  1  0.74904792  0.75020330  0.49979670  1
  Sb  Sb28  1  0.74623188  0.25059387  -0.00059390  1
  Sb  Sb29  1  0.00175539  -0.00122994  -0.00248176  1
  Sb  Sb30  1  0.75150908  0.49956216  0.75043787  1
  Sb  Sb31  1  0.25252589  0.74948020  0.00232198  1
  Te  Te32  1  0.25562491  0.24989200  0.25050975  1
  Te  Te33  1  0.25037368  0.24451495  0.74952032  1
  Te  Te34  1  0.25423797  0.75045569  0.25381919  1
  Te  Te35  1  0.24620863  0.75408200  0.74452173  1
  Te  Te36  1  0.74356733  0.24951921  0.25638778  1
  Te  Te37  1  0.74982882  0.24923704  0.74477614  1
  Te  Te38  1  0.74290624  0.75054779  0.24622567  1
  Te  Te39  1  0.75722496  0.75069819  0.75361138  1
  Te  Te40  1  0.25562494  -0.00050974  0.00010800  1
  Te  Te41  1  0.25423799  -0.00381922  0.49954430  1
  Te  Te42  1  0.25037368  0.50047967  0.00548504  1
  Te  Te43  1  0.24620860  0.50547826  0.49591801  1
  Te  Te44  1  0.74356733  -0.00638777  0.00048080  1
  Te  Te45  1  0.74290626  0.00377433  0.49945217  1
  Te  Te46  1  0.74982884  0.50522387  0.00076296  1
  Te  Te47  1  0.75722497  0.49638863  0.49930176  1
  Te  Te48  1  -0.00392316  0.25634423  -0.00634420  1
  Te  Te49  1  -0.00392542  0.25295135  0.50386667  1
  Te  Te50  1  -0.00392543  0.74613330  -0.00295135  1
  Te  Te51  1  0.00093085  0.74667574  0.50332428  1
  Te  Te52  1  0.50300465  0.25038604  -0.00038602  1
  Te  Te53  1  0.50247098  0.24916086  0.50109803  1
  Te  Te54  1  0.50247095  0.74890196  0.00083913  1
  Te  Te55  1  0.49844672  0.75157919  0.49842079  1
  Te  Te56  1  0.01229945  0.00103411  0.24896589  1
  Te  Te57  1  0.00757165  0.00141771  0.75106895  1
  Te  Te58  1  0.00757163  0.49893106  0.24858228  1
  Te  Te59  1  0.00238152  0.49851269  0.75148734  1
  Te  Te60  1  0.49595971  0.00071841  0.24928160  1
  Te  Te61  1  0.49531500  0.00294784  0.75042193  1
  Te  Te62  1  0.49531498  0.49957807  0.24705214  1
  Te  Te63  1  0.49742598  0.49411060  0.75588942  1
