# generated using pymatgen
data_AgSbTe2
_symmetry_space_group_name_H-M   'P 1'
_cell_length_a   12.21661415
_cell_length_b   12.23118468
_cell_length_c   12.22748836
_cell_angle_alpha   89.99718541
_cell_angle_beta   90.01091090
_cell_angle_gamma   89.99984397
_symmetry_Int_Tables_number   1
_chemical_formula_structural   AgSbTe2
_chemical_formula_sum   'Ag16 Sb16 Te32'
_cell_volume   1827.07607516
_cell_formula_units_Z   16
loop_
 _symmetry_equiv_pos_site_id
 _symmetry_equiv_pos_as_xyz
  1  'x, y, z'
loop_
 _atom_site_type_symbol
 _atom_site_label
 _atom_site_symmetry_multiplicity
 _atom_site_fract_x
 _atom_site_fract_y
 _atom_site_fract_z
 _atom_site_occupancy
  Ag  Ag0  1  -0.00298960  -0.00013419  0.50049740  1
  Ag  Ag1  1  0.00183904  0.49990963  0.49813466  1
  Ag  Ag2  1  0.74118460  0.50528179  0.25130367  1
  Ag  Ag3  1  0.50710488  0.74625153  0.24724610  1
  Ag  Ag4  1  0.74404729  -0.00614793  0.25143019  1
  Ag  Ag5  1  0.50085949  0.50101952  0.00655860  1
  Ag  Ag6  1  0.25237000  0.25220068  0.50219291  1
  Ag  Ag7  1  0.74885690  0.75248223  0.49395339  1
  Ag  Ag8  1  0.25489539  0.49583214  0.74599438  1
  Ag  Ag9  1  0.49630159  0.24790058  0.74971902  1
  Ag  Ag10  1  0.25852512  0.49829202  0.25313218  1
  Ag  Ag11  1  0.74538319  -0.00064465  0.74838564  1
  Ag  Ag12  1  0.25522559  0.00413318  0.74700919  1
  Ag  Ag13  1  0.74279843  0.75230027  0.00718623  1
  Ag  Ag14  1  0.50015115  0.25455050  0.24950085  1
  Ag  Ag15  1  0.50448494  -0.00105393  0.00009953  1
  Sb  Sb16  1  -0.00094742  0.74967808  0.74729385  1
  Sb  Sb17  1  0.25655593  0.74997161  0.00201385  1
  Sb  Sb18  1  0.74447814  0.24803624  0.00107270  1
  Sb  Sb19  1  -0.00083384  0.50183708  0.00152028  1
  Sb  Sb20  1  0.25621642  0.00140646  0.25246721  1
  Sb  Sb21  1  0.74793818  0.24877586  0.49866105  1
  Sb  Sb22  1  0.00056664  0.25005358  0.25388460  1
  Sb  Sb23  1  0.49849003  0.49964642  0.49324020  1
  Sb  Sb24  1  0.00435612  0.25014611  0.74597329  1
  Sb  Sb25  1  0.25118839  0.74889729  0.49795392  1
  Sb  Sb26  1  -0.00384592  -0.00175216  -0.00086179  1
  Sb  Sb27  1  0.74482482  0.49982509  0.74864484  1
  Sb  Sb28  1  0.50164789  0.75113504  0.75242070  1
  Sb  Sb29  1  0.25579890  0.25054433  -0.00178208  1
  Sb  Sb30  1  -0.00825670  0.74966235  0.25314107  1
  Sb  Sb31  1  0.50287925  0.00031326  0.50148201  1
  Te  Te32  1  0.25574243  0.25344392  0.25438937  1
  Te  Te33  1  0.25444493  0.25000024  0.74651637  1
  Te  Te34  1  0.25900444  0.74491646  0.24963679  1
  Te  Te35  1  0.25039702  0.74985846  0.75039399  1
  Te  Te36  1  0.74331085  0.25119877  0.25109800  1
  Te  Te37  1  0.74184270  0.24388833  0.74929350  1
  Te  Te38  1  0.74672269  0.75010540  0.25175816  1
  Te  Te39  1  0.74929234  0.75500459  0.74691543  1
  Te  Te40  1  0.25331800  -0.00149579  -0.00536512  1
  Te  Te41  1  0.24517836  0.00018124  0.50310924  1
  Te  Te42  1  0.25285801  0.50099937  0.00058926  1
  Te  Te43  1  0.24733645  0.50046836  0.50030998  1
  Te  Te44  1  0.74731429  -0.00272106  0.00091958  1
  Te  Te45  1  0.75288885  -0.00017505  0.49948042  1
  Te  Te46  1  0.74700853  0.50395635  0.00218819  1
  Te  Te47  1  0.75510944  0.50116195  0.49816224  1
  Te  Te48  1  0.00013795  0.25009205  0.00000800  1
  Te  Te49  1  0.00700862  0.25022642  0.49943181  1
  Te  Te50  1  -0.01161061  0.74999711  0.00047599  1
  Te  Te51  1  -0.00622694  0.75057555  0.49931832  1
  Te  Te52  1  0.49980439  0.25029718  0.00133560  1
  Te  Te53  1  0.49402792  0.25013421  0.50056382  1
  Te  Te54  1  0.50448940  0.75016518  0.00351483  1
  Te  Te55  1  0.50732628  0.75001334  0.49301216  1
  Te  Te56  1  -0.00500092  0.00090714  0.25433585  1
  Te  Te57  1  -0.00079386  0.00044364  0.74682876  1
  Te  Te58  1  0.00066156  0.49956894  0.25337893  1
  Te  Te59  1  0.00620713  0.49890599  0.74556824  1
  Te  Te60  1  0.50194044  0.00138869  0.24652561  1
  Te  Te61  1  0.50010143  0.00104466  0.75244492  1
  Te  Te62  1  0.50115474  0.49788876  0.24885405  1
  Te  Te63  1  0.49690831  0.49720958  0.75553809  1
