# generated using pymatgen
data_AgSbTe2
_symmetry_space_group_name_H-M   'P 1'
_cell_length_a   12.22140037
_cell_length_b   12.23359363
_cell_length_c   12.23532369
_cell_angle_alpha   90.00096891
_cell_angle_beta   90.00085877
_cell_angle_gamma   89.99409830
_symmetry_Int_Tables_number   1
_chemical_formula_structural   AgSbTe2
_chemical_formula_sum   'Ag16 Sb16 Te32'
_cell_volume   1829.32337047
_cell_formula_units_Z   16
loop_
 _symmetry_equiv_pos_site_id
 _symmetry_equiv_pos_as_xyz
  1  'x, y, z'
loop_
 _atom_site_type_symbol
 _atom_site_label
 _atom_site_symmetry_multiplicity
 _atom_site_fract_x
 _atom_site_fract_y
 _atom_site_fract_z
 _atom_site_occupancy
  Ag  Ag0  1  0.76027609  0.74313167  0.00362329  1
  Ag  Ag1  1  0.00071767  0.24992298  0.75564564  1
  Ag  Ag2  1  0.49827570  0.50057001  0.00101425  1
  Ag  Ag3  1  0.24255148  -0.00144943  0.75259507  1
  Ag  Ag4  1  0.00230624  0.00173062  0.50104877  1
  Ag  Ag5  1  0.24088383  0.74339656  0.00109129  1
  Ag  Ag6  1  -0.00272732  0.25675026  0.24397313  1
  Ag  Ag7  1  0.00240705  0.74287493  0.24270652  1
  Ag  Ag8  1  0.24366452  0.74884892  0.49964200  1
  Ag  Ag9  1  0.00184991  0.00019268  -0.00068974  1
  Ag  Ag10  1  0.75766369  0.25702535  0.00264876  1
  Ag  Ag11  1  0.75738157  0.25181837  0.49757026  1
  Ag  Ag12  1  0.00104751  0.50101152  0.00613091  1
  Ag  Ag13  1  0.75963506  0.49804228  0.24288867  1
  Ag  Ag14  1  0.24465768  0.50165253  0.75821454  1
  Ag  Ag15  1  0.24035844  0.50314438  0.24179469  1
  Sb  Sb16  1  0.76022316  0.74888074  0.49444072  1
  Sb  Sb17  1  0.75821099  0.49795047  0.75945247  1
  Sb  Sb18  1  0.23930040  0.25880634  0.00032842  1
  Sb  Sb19  1  0.24224318  0.24978642  0.49960310  1
  Sb  Sb20  1  0.00398890  0.74844697  0.75850380  1
  Sb  Sb21  1  0.49816350  0.49941384  0.50004641  1
  Sb  Sb22  1  0.49691885  0.74633609  0.24783575  1
  Sb  Sb23  1  0.49673317  0.74704100  0.75224696  1
  Sb  Sb24  1  0.00063109  0.49795774  0.49379320  1
  Sb  Sb25  1  0.24307309  -0.00430882  0.24641505  1
  Sb  Sb26  1  0.75551668  0.00318806  0.24839758  1
  Sb  Sb27  1  0.49879806  0.25315170  0.75294598  1
  Sb  Sb28  1  0.50314980  0.25440953  0.24704159  1
  Sb  Sb29  1  0.49656683  0.00051832  0.50215344  1
  Sb  Sb30  1  0.75964414  0.00180881  0.75198576  1
  Sb  Sb31  1  0.49749284  0.00005587  -0.00200264  1
  Te  Te32  1  0.24415758  0.25727203  0.25111631  1
  Te  Te33  1  0.24487840  0.25128255  0.74931437  1
  Te  Te34  1  0.24646982  0.74682347  0.24737256  1
  Te  Te35  1  0.24801753  0.74771076  0.75121694  1
  Te  Te36  1  0.75404236  0.25275984  0.24736250  1
  Te  Te37  1  0.75589042  0.25087604  0.75106412  1
  Te  Te38  1  0.75493095  0.74507712  0.24677646  1
  Te  Te39  1  0.74831840  0.74983520  0.75592757  1
  Te  Te40  1  0.24679645  -0.00667128  -0.00218774  1
  Te  Te41  1  0.24606126  -0.00307001  0.50288970  1
  Te  Te42  1  0.24618422  0.50064349  0.00107198  1
  Te  Te43  1  0.25146427  0.50432409  0.50013072  1
  Te  Te44  1  0.75399530  -0.00141584  -0.00090852  1
  Te  Te45  1  0.75506906  0.00259286  0.50065022  1
  Te  Te46  1  0.75427235  0.50074662  0.00098121  1
  Te  Te47  1  0.74805993  0.49740361  0.49358425  1
  Te  Te48  1  -0.00108783  0.24929591  0.00166068  1
  Te  Te49  1  -0.00339898  0.24730589  0.49902161  1
  Te  Te50  1  0.00083161  0.74933886  0.00116979  1
  Te  Te51  1  0.00257577  0.75503211  0.49393168  1
  Te  Te52  1  0.51327054  0.25398071  -0.00032725  1
  Te  Te53  1  0.51294748  0.24874173  0.50044742  1
  Te  Te54  1  0.50016535  0.74558009  0.00085119  1
  Te  Te55  1  0.49104637  0.75128709  0.49978527  1
  Te  Te56  1  0.00128441  0.00124951  0.24755751  1
  Te  Te57  1  0.00398728  0.00340944  0.75206804  1
  Te  Te58  1  0.00050842  0.49978738  0.24963168  1
  Te  Te59  1  0.00456955  0.49608336  0.75430627  1
  Te  Te60  1  0.49889561  0.00103242  0.25005124  1
  Te  Te61  1  0.48630767  0.00101343  0.74995624  1
  Te  Te62  1  0.49863666  0.49948861  0.24406044  1
  Te  Te63  1  0.48924801  0.49907619  0.75637992  1
