# generated using pymatgen
data_AgSbTe2
_symmetry_space_group_name_H-M   'P 1'
_cell_length_a   12.21602150
_cell_length_b   12.22216106
_cell_length_c   12.21651680
_cell_angle_alpha   90.00044855
_cell_angle_beta   90.00197211
_cell_angle_gamma   90.00592053
_symmetry_Int_Tables_number   1
_chemical_formula_structural   AgSbTe2
_chemical_formula_sum   'Ag16 Sb16 Te32'
_cell_volume   1824.00147400
_cell_formula_units_Z   16
loop_
 _symmetry_equiv_pos_site_id
 _symmetry_equiv_pos_as_xyz
  1  'x, y, z'
loop_
 _atom_site_type_symbol
 _atom_site_label
 _atom_site_symmetry_multiplicity
 _atom_site_fract_x
 _atom_site_fract_y
 _atom_site_fract_z
 _atom_site_occupancy
  Ag  Ag0  1  0.50273690  0.50123753  -0.00444216  1
  Ag  Ag1  1  0.50412330  0.50059853  0.50483376  1
  Ag  Ag2  1  0.50383411  -0.00114565  0.49942175  1
  Ag  Ag3  1  0.25534254  0.50059007  0.74720707  1
  Ag  Ag4  1  0.50044404  0.25550783  0.74573369  1
  Ag  Ag5  1  0.74530812  0.50371210  0.74555988  1
  Ag  Ag6  1  0.50340209  0.25013713  0.25491197  1
  Ag  Ag7  1  -0.00347627  0.74809483  0.74496047  1
  Ag  Ag8  1  0.50582308  0.74983814  0.25456498  1
  Ag  Ag9  1  0.25239711  -0.00121955  0.74565813  1
  Ag  Ag10  1  0.74725233  -0.00195051  0.25522371  1
  Ag  Ag11  1  0.74733137  0.74785702  -0.00117712  1
  Ag  Ag12  1  0.74815931  0.74908704  0.50103678  1
  Ag  Ag13  1  -0.00370348  -0.00246773  0.50046438  1
  Ag  Ag14  1  -0.00447253  0.24932042  0.25485135  1
  Ag  Ag15  1  -0.00428977  0.50286083  0.50358126  1
  Sb  Sb16  1  0.50254203  -0.00222126  -0.00084770  1
  Sb  Sb17  1  0.25393027  0.74764080  -0.00400179  1
  Sb  Sb18  1  0.25178812  0.25163366  -0.00190889  1
  Sb  Sb19  1  0.25219953  0.00041032  0.25422001  1
  Sb  Sb20  1  0.50373740  0.74369759  0.74587525  1
  Sb  Sb21  1  0.74715042  0.50211436  0.25451099  1
  Sb  Sb22  1  -0.00616794  0.75058103  0.25651543  1
  Sb  Sb23  1  0.74727680  0.25304781  0.00026345  1
  Sb  Sb24  1  0.74701400  0.25186300  0.49949623  1
  Sb  Sb25  1  0.25230535  0.74965584  0.50301447  1
  Sb  Sb26  1  -0.00295170  -0.00218810  -0.00087433  1
  Sb  Sb27  1  -0.00280890  0.50246826  -0.00254550  1
  Sb  Sb28  1  0.25330691  0.25046420  0.50141291  1
  Sb  Sb29  1  0.74780286  -0.00358545  0.74352942  1
  Sb  Sb30  1  -0.00100035  0.25186130  0.74481960  1
  Sb  Sb31  1  0.25309451  0.49977982  0.25359766  1
  Te  Te32  1  0.25365599  0.24925486  0.24844751  1
  Te  Te33  1  0.25496776  0.25128677  0.75095816  1
  Te  Te34  1  0.25984070  0.75064112  0.24769249  1
  Te  Te35  1  0.24286848  0.74938411  0.75094868  1
  Te  Te36  1  0.74672357  0.24484172  0.24904345  1
  Te  Te37  1  0.74486528  0.25623441  0.75184570  1
  Te  Te38  1  0.74629483  0.75199969  0.25237492  1
  Te  Te39  1  0.75320848  0.74744903  0.74749220  1
  Te  Te40  1  0.24945555  -0.00067915  -0.01119323  1
  Te  Te41  1  0.25028033  -0.00092305  0.50618141  1
  Te  Te42  1  0.25610413  0.50093337  -0.00858079  1
  Te  Te43  1  0.25048741  0.50072367  0.50603750  1
  Te  Te44  1  0.75021934  -0.00794349  0.00722582  1
  Te  Te45  1  0.74867078  -0.00570998  0.49773335  1
  Te  Te46  1  0.74584348  0.50519014  -0.00431379  1
  Te  Te47  1  0.74873783  0.50474054  0.50228746  1
  Te  Te48  1  -0.00064702  0.25042243  0.01047177  1
  Te  Te49  1  -0.00070083  0.24972837  0.49533515  1
  Te  Te50  1  -0.00706211  0.74898594  -0.00506589  1
  Te  Te51  1  -0.00403247  0.74930145  0.50175342  1
  Te  Te52  1  0.50116069  0.25599055  0.00117732  1
  Te  Te53  1  0.50106149  0.25083168  0.49872251  1
  Te  Te54  1  0.50506747  0.74615337  0.00422672  1
  Te  Te55  1  0.50351519  0.74986699  0.49821683  1
  Te  Te56  1  -0.00061105  0.00191311  0.25566297  1
  Te  Te57  1  0.00073851  0.00066248  0.74483843  1
  Te  Te58  1  0.00113943  0.49648627  0.25536085  1
  Te  Te59  1  -0.00055917  0.49870407  0.74630138  1
  Te  Te60  1  0.50026004  0.00263520  0.25292711  1
  Te  Te61  1  0.49935879  0.00298450  0.74682060  1
  Te  Te62  1  0.49927068  0.49700422  0.25348660  1
  Te  Te63  1  0.50038487  0.50162443  0.74611629  1
