# generated using pymatgen
data_AgSbTe2
_symmetry_space_group_name_H-M   'P 1'
_cell_length_a   12.30399434
_cell_length_b   12.31892756
_cell_length_c   12.30984954
_cell_angle_alpha   90.00235187
_cell_angle_beta   89.99359528
_cell_angle_gamma   89.98982644
_symmetry_Int_Tables_number   1
_chemical_formula_structural   AgSbTe2
_chemical_formula_sum   'Ag16 Sb16 Te32'
_cell_volume   1865.82865621
_cell_formula_units_Z   16
loop_
 _symmetry_equiv_pos_site_id
 _symmetry_equiv_pos_as_xyz
  1  'x, y, z'
loop_
 _atom_site_type_symbol
 _atom_site_label
 _atom_site_symmetry_multiplicity
 _atom_site_fract_x
 _atom_site_fract_y
 _atom_site_fract_z
 _atom_site_occupancy
  Ag  Ag0  1  0.75486382  0.00854373  0.25812848  1
  Ag  Ag1  1  0.24429937  0.00354996  0.72812756  1
  Ag  Ag2  1  0.75321330  0.74951815  0.01111735  1
  Ag  Ag3  1  0.50406278  0.75735876  0.25384205  1
  Ag  Ag4  1  0.01875593  0.01938291  0.49188728  1
  Ag  Ag5  1  0.22801656  0.23027602  0.49454205  1
  Ag  Ag6  1  0.24468999  0.00341124  0.26297278  1
  Ag  Ag7  1  0.75808922  0.48792816  0.24887265  1
  Ag  Ag8  1  -0.00703418  0.49157412  0.01170669  1
  Ag  Ag9  1  -0.01171599  0.24753327  0.26459900  1
  Ag  Ag10  1  0.76793327  0.24177768  0.48688208  1
  Ag  Ag11  1  0.75968233  0.25144538  0.01622490  1
  Ag  Ag12  1  -0.00033424  0.24712166  0.72845762  1
  Ag  Ag13  1  0.24428524  0.77026503  0.49457742  1
  Ag  Ag14  1  -0.00077835  0.48103567  0.49294963  1
  Ag  Ag15  1  0.47954846  0.00336880  0.49317369  1
  Sb  Sb16  1  0.24334153  0.49727146  0.74551504  1
  Sb  Sb17  1  -0.00011779  0.75193744  0.25101246  1
  Sb  Sb18  1  0.75259910  0.75267762  0.49500750  1
  Sb  Sb19  1  0.75364283  0.49844761  0.74883206  1
  Sb  Sb20  1  0.50146139  0.49774170  0.49612408  1
  Sb  Sb21  1  0.50313123  -0.00016040  0.00453683  1
  Sb  Sb22  1  -0.00276486  0.00495001  0.00501218  1
  Sb  Sb23  1  0.50861356  0.49931015  0.00770090  1
  Sb  Sb24  1  0.75181190  0.00238672  0.74026766  1
  Sb  Sb25  1  0.24114062  0.24891793  0.00400190  1
  Sb  Sb26  1  0.49965687  0.75540488  0.74714190  1
  Sb  Sb27  1  0.24823759  0.75145125  0.00389696  1
  Sb  Sb28  1  0.00110497  0.75376458  0.74801705  1
  Sb  Sb29  1  0.24243308  0.49718182  0.25363623  1
  Sb  Sb30  1  0.50502984  0.24672311  0.25176141  1
  Sb  Sb31  1  0.49998899  0.24695972  0.74699463  1
  Te  Te32  1  0.24969312  0.24759773  0.25033502  1
  Te  Te33  1  0.24785610  0.24693928  0.75209733  1
  Te  Te34  1  0.25023922  0.75282075  0.25219060  1
  Te  Te35  1  0.24998850  0.75565232  0.74685248  1
  Te  Te36  1  0.75092628  0.24785047  0.25414830  1
  Te  Te37  1  0.75298770  0.24903850  0.74532637  1
  Te  Te38  1  0.75102200  0.75588175  0.24863947  1
  Te  Te39  1  0.74953808  0.75093718  0.76655877  1
  Te  Te40  1  0.25113255  0.00019259  0.00448991  1
  Te  Te41  1  0.25073015  -0.00120764  0.49716884  1
  Te  Te42  1  0.24083495  0.49977532  -0.00076163  1
  Te  Te43  1  0.24590689  0.49660995  0.49783563  1
  Te  Te44  1  0.74956513  0.00285297  0.00637763  1
  Te  Te45  1  0.75614096  -0.00074377  0.49595337  1
  Te  Te46  1  0.75333351  0.49462064  0.00118093  1
  Te  Te47  1  0.75370464  0.50221560  0.49894581  1
  Te  Te48  1  -0.00302446  0.25190361  0.00760316  1
  Te  Te49  1  -0.00161031  0.25000332  0.49794220  1
  Te  Te50  1  -0.00370159  0.74201108  -0.00193441  1
  Te  Te51  1  0.00181186  0.75078491  0.50238647  1
  Te  Te52  1  0.51338164  0.25043823  -0.00050495  1
  Te  Te53  1  0.49867122  0.24815800  0.49965112  1
  Te  Te54  1  0.50288388  0.74981420  0.00486954  1
  Te  Te55  1  0.50051011  0.75050729  0.49663769  1
  Te  Te56  1  -0.00141589  0.00110313  0.25138442  1
  Te  Te57  1  0.00102751  0.00362505  0.74723290  1
  Te  Te58  1  -0.00355730  0.49935357  0.25318040  1
  Te  Te59  1  -0.00033811  0.49290874  0.74172051  1
  Te  Te60  1  0.50171576  -0.00102613  0.25205523  1
  Te  Te61  1  0.49386975  0.00040828  0.74122264  1
  Te  Te62  1  0.51120109  0.50861953  0.24906199  1
  Te  Te63  1  0.49808670  0.50129737  0.75263225  1
