# generated using pymatgen
data_AgSbTe2
_symmetry_space_group_name_H-M   'P 1'
_cell_length_a   12.21628521
_cell_length_b   12.21323397
_cell_length_c   12.21440452
_cell_angle_alpha   89.99073817
_cell_angle_beta   90.00311260
_cell_angle_gamma   90.00062462
_symmetry_Int_Tables_number   1
_chemical_formula_structural   AgSbTe2
_chemical_formula_sum   'Ag16 Sb16 Te32'
_cell_volume   1822.39339676
_cell_formula_units_Z   16
loop_
 _symmetry_equiv_pos_site_id
 _symmetry_equiv_pos_as_xyz
  1  'x, y, z'
loop_
 _atom_site_type_symbol
 _atom_site_label
 _atom_site_symmetry_multiplicity
 _atom_site_fract_x
 _atom_site_fract_y
 _atom_site_fract_z
 _atom_site_occupancy
  Ag  Ag0  1  0.24986640  0.49706768  0.74526855  1
  Ag  Ag1  1  0.49431191  0.49803942  0.49384826  1
  Ag  Ag2  1  0.49613506  0.74366237  0.24877353  1
  Ag  Ag3  1  0.49624080  0.00157987  0.49868563  1
  Ag  Ag4  1  0.49538349  -0.00231532  0.00155037  1
  Ag  Ag5  1  0.25373049  0.74700681  0.00386636  1
  Ag  Ag6  1  0.00524347  0.25314135  0.74281522  1
  Ag  Ag7  1  0.25060256  0.50135600  0.25437793  1
  Ag  Ag8  1  0.74979795  0.49886741  0.25378793  1
  Ag  Ag9  1  0.00220048  0.25827618  0.25744231  1
  Ag  Ag10  1  0.25169679  0.00267659  0.74824670  1
  Ag  Ag11  1  0.24730111  0.25620451  0.50079597  1
  Ag  Ag12  1  0.00419387  0.74178933  0.25148875  1
  Ag  Ag13  1  0.00538220  0.49388706  0.49413472  1
  Ag  Ag14  1  0.75235644  0.25408682  0.49748465  1
  Ag  Ag15  1  0.49503411  0.50284021  0.00643576  1
  Sb  Sb16  1  0.74940923  0.25294443  0.00431716  1
  Sb  Sb17  1  0.25101133  0.25287491  -0.00025098  1
  Sb  Sb18  1  0.00633143  0.74516791  0.74691674  1
  Sb  Sb19  1  0.75065436  0.49592458  0.74548155  1
  Sb  Sb20  1  0.49325230  0.25059251  0.74557286  1
  Sb  Sb21  1  0.74713341  0.00372579  0.25251577  1
  Sb  Sb22  1  0.00646487  0.50112275  0.00802714  1
  Sb  Sb23  1  0.74512440  0.74761935  0.00412795  1
  Sb  Sb24  1  0.49635930  0.25925816  0.25417103  1
  Sb  Sb25  1  0.25310076  -0.00071307  0.25226744  1
  Sb  Sb26  1  0.00625350  -0.00124478  0.00005828  1
  Sb  Sb27  1  0.74875414  0.74475667  0.49637712  1
  Sb  Sb28  1  0.49571094  0.74890522  0.75189386  1
  Sb  Sb29  1  0.74767081  0.00446391  0.74695422  1
  Sb  Sb30  1  0.25076228  0.74174661  0.49379194  1
  Sb  Sb31  1  0.00592889  0.00812781  0.49985509  1
  Te  Te32  1  0.24556940  0.25392112  0.25345921  1
  Te  Te33  1  0.24622690  0.25228905  0.74778925  1
  Te  Te34  1  0.25085043  0.74742371  0.24706737  1
  Te  Te35  1  0.24862276  0.74898414  0.75780323  1
  Te  Te36  1  0.75702129  0.25488928  0.25460649  1
  Te  Te37  1  0.76055890  0.25046001  0.74262643  1
  Te  Te38  1  0.75040086  0.74310838  0.25017391  1
  Te  Te39  1  0.75257008  0.75054838  0.75075272  1
  Te  Te40  1  0.25589336  -0.00278292  -0.00391928  1
  Te  Te41  1  0.25515105  0.00541650  0.50351301  1
  Te  Te42  1  0.25427900  0.50169921  0.00055266  1
  Te  Te43  1  0.25108880  0.49970291  0.49930968  1
  Te  Te44  1  0.73835737  0.00035481  -0.00076580  1
  Te  Te45  1  0.74016128  0.00827328  0.50086914  1
  Te  Te46  1  0.73965693  0.49939065  0.00609502  1
  Te  Te47  1  0.74864152  0.49569927  0.49666790  1
  Te  Te48  1  -0.00099286  0.24897532  0.00080208  1
  Te  Te49  1  0.00273744  0.25130401  0.49806284  1
  Te  Te50  1  0.00598089  0.75086727  0.00717925  1
  Te  Te51  1  -0.00033663  0.74362224  0.49370856  1
  Te  Te52  1  0.50047228  0.24928512  -0.00009595  1
  Te  Te53  1  0.49820699  0.25175289  0.49935895  1
  Te  Te54  1  0.49658197  0.74840988  0.00334290  1
  Te  Te55  1  0.50000922  0.74921294  0.49464316  1
  Te  Te56  1  -0.00065799  -0.00117912  0.24985094  1
  Te  Te57  1  0.00675013  0.00485451  0.75014154  1
  Te  Te58  1  0.00191605  0.49970335  0.25060797  1
  Te  Te59  1  0.00380167  0.49687010  0.74515996  1
  Te  Te60  1  0.49992624  -0.00709433  0.25023955  1
  Te  Te61  1  0.49462655  -0.00022491  0.74907621  1
  Te  Te62  1  0.49752400  0.50040565  0.25213052  1
  Te  Te63  1  0.49500507  0.50041823  0.74811074  1
