# generated using pymatgen
data_AgSbTe2
_symmetry_space_group_name_H-M   'P 1'
_cell_length_a   12.21261410
_cell_length_b   12.22091180
_cell_length_c   12.22102659
_cell_angle_alpha   90.00151245
_cell_angle_beta   89.99751616
_cell_angle_gamma   89.99945167
_symmetry_Int_Tables_number   1
_chemical_formula_structural   AgSbTe2
_chemical_formula_sum   'Ag16 Sb16 Te32'
_cell_volume   1823.97941420
_cell_formula_units_Z   16
loop_
 _symmetry_equiv_pos_site_id
 _symmetry_equiv_pos_as_xyz
  1  'x, y, z'
loop_
 _atom_site_type_symbol
 _atom_site_label
 _atom_site_symmetry_multiplicity
 _atom_site_fract_x
 _atom_site_fract_y
 _atom_site_fract_z
 _atom_site_occupancy
  Ag  Ag0  1  0.50276782  0.24996541  0.74558910  1
  Ag  Ag1  1  0.50370132  0.00010356  -0.00344681  1
  Ag  Ag2  1  0.74696105  0.50541354  0.74348515  1
  Ag  Ag3  1  -0.00043719  0.24969235  0.25656691  1
  Ag  Ag4  1  0.74684303  -0.00487293  0.74515409  1
  Ag  Ag5  1  -0.00911301  0.50008080  0.50079648  1
  Ag  Ag6  1  0.50949345  0.49797442  0.50382608  1
  Ag  Ag7  1  -0.00299562  0.00061395  0.50053887  1
  Ag  Ag8  1  0.75165695  0.74618072  0.50625092  1
  Ag  Ag9  1  0.50314688  0.00282106  0.50387534  1
  Ag  Ag10  1  0.25001030  0.00324096  0.25488991  1
  Ag  Ag11  1  0.74827851  0.74841783  -0.00646417  1
  Ag  Ag12  1  -0.00907601  0.75015610  0.74518727  1
  Ag  Ag13  1  0.25056885  0.24736534  0.49905864  1
  Ag  Ag14  1  0.74933511  0.50069449  0.25674167  1
  Ag  Ag15  1  0.50647842  0.49994589  -0.00310277  1
  Sb  Sb16  1  0.25305910  0.24816352  0.00075171  1
  Sb  Sb17  1  0.25297990  0.75168441  -0.00156977  1
  Sb  Sb18  1  0.25419226  0.00124577  0.74631379  1
  Sb  Sb19  1  -0.00249857  0.25011306  0.74329201  1
  Sb  Sb20  1  0.50904535  0.74989876  0.74912345  1
  Sb  Sb21  1  0.24932732  0.49725211  0.25326412  1
  Sb  Sb22  1  0.74835284  0.25505608  0.50049718  1
  Sb  Sb23  1  0.74755902  0.25083347  -0.00106578  1
  Sb  Sb24  1  -0.00438042  -0.00160178  -0.00151326  1
  Sb  Sb25  1  0.50022477  0.24981498  0.25552754  1
  Sb  Sb26  1  0.24934320  0.75192876  0.50100089  1
  Sb  Sb27  1  0.25436755  0.49920785  0.74817576  1
  Sb  Sb28  1  0.75001121  0.00012647  0.25551796  1
  Sb  Sb29  1  -0.00748167  0.50193718  -0.00175060  1
  Sb  Sb30  1  -0.00388632  0.74958239  0.25518078  1
  Sb  Sb31  1  0.50277327  0.74958169  0.25103497  1
  Te  Te32  1  0.24598268  0.24615949  0.25517807  1
  Te  Te33  1  0.25583258  0.24988341  0.74391696  1
  Te  Te34  1  0.24830360  0.75897135  0.24897618  1
  Te  Te35  1  0.23492005  0.75013728  0.75057550  1
  Te  Te36  1  0.75578804  0.25659516  0.24907152  1
  Te  Te37  1  0.74549164  0.24891347  0.75067090  1
  Te  Te38  1  0.75094790  0.74362587  0.25111786  1
  Te  Te39  1  0.75185067  0.74985908  0.74737932  1
  Te  Te40  1  0.25758188  -0.00076039  0.00519376  1
  Te  Te41  1  0.25136659  0.00202063  0.49797594  1
  Te  Te42  1  0.26122191  0.50083093  0.00093315  1
  Te  Te43  1  0.25127948  0.49657578  0.49861671  1
  Te  Te44  1  0.74497975  -0.00399102  -0.00190969  1
  Te  Te45  1  0.74880189  -0.00350048  0.50030128  1
  Te  Te46  1  0.74592190  0.50320713  -0.00175849  1
  Te  Te47  1  0.74891354  0.50081467  0.50160086  1
  Te  Te48  1  0.00179437  0.25004883  0.00754067  1
  Te  Te49  1  0.00381235  0.24897906  0.49868837  1
  Te  Te50  1  -0.00646342  0.74981584  -0.00637466  1
  Te  Te51  1  -0.00226067  0.75002037  0.50283111  1
  Te  Te52  1  0.49901897  0.24937467  -0.00497664  1
  Te  Te53  1  0.49751250  0.24895096  0.50230614  1
  Te  Te54  1  0.50502591  0.75011181  -0.00001460  1
  Te  Te55  1  0.50370985  0.74973392  0.50013469  1
  Te  Te56  1  0.00068590  0.00274616  0.25427749  1
  Te  Te57  1  -0.00428432  0.00044715  0.74647187  1
  Te  Te58  1  -0.00193157  0.49768030  0.25416919  1
  Te  Te59  1  -0.00467222  0.49973449  0.74661252  1
  Te  Te60  1  0.49863919  0.00122406  0.25170007  1
  Te  Te61  1  0.50279747  0.00147633  0.74727914  1
  Te  Te62  1  0.50350044  0.49902861  0.25147352  1
  Te  Te63  1  0.50332249  0.49866688  0.74731387  1
