# generated using pymatgen
data_AgSbTe2
_symmetry_space_group_name_H-M   'P 1'
_cell_length_a   12.22619935
_cell_length_b   12.22903231
_cell_length_c   12.22619949
_cell_angle_alpha   90.00310896
_cell_angle_beta   89.99603057
_cell_angle_gamma   90.00310893
_symmetry_Int_Tables_number   1
_chemical_formula_structural   AgSbTe2
_chemical_formula_sum   'Ag16 Sb16 Te32'
_cell_volume   1827.99515621
_cell_formula_units_Z   16
loop_
 _symmetry_equiv_pos_site_id
 _symmetry_equiv_pos_as_xyz
  1  'x, y, z'
loop_
 _atom_site_type_symbol
 _atom_site_label
 _atom_site_symmetry_multiplicity
 _atom_site_fract_x
 _atom_site_fract_y
 _atom_site_fract_z
 _atom_site_occupancy
  Ag  Ag0  1  0.24511553  0.24456637  -0.00562828  1
  Ag  Ag1  1  0.25200873  0.49234333  0.75200871  1
  Ag  Ag2  1  0.00500594  0.24750343  0.24321336  1
  Ag  Ag3  1  0.00583348  0.49003172  -0.00298296  1
  Ag  Ag4  1  0.25568707  0.24780230  0.50774941  1
  Ag  Ag5  1  0.25125371  0.75707171  -0.00396155  1
  Ag  Ag6  1  0.25002191  0.00527969  0.24414146  1
  Ag  Ag7  1  0.49701705  0.49003173  0.50583320  1
  Ag  Ag8  1  0.00949199  0.00867844  -0.00279772  1
  Ag  Ag9  1  0.49219928  0.00413431  -0.00780075  1
  Ag  Ag10  1  0.74414133  0.00527973  0.75002190  1
  Ag  Ag11  1  0.49603846  0.75707164  0.75125368  1
  Ag  Ag12  1  0.00774938  0.24780228  0.75568708  1
  Ag  Ag13  1  0.49437168  0.24456650  0.74511555  1
  Ag  Ag14  1  0.49720231  0.00867866  0.50949203  1
  Ag  Ag15  1  0.74321336  0.24750342  0.50500591  1
  Sb  Sb16  1  0.00567768  0.75325679  0.75401745  1
  Sb  Sb17  1  0.74707323  0.75287635  -0.00369848  1
  Sb  Sb18  1  0.25401746  0.75325677  0.50567768  1
  Sb  Sb19  1  0.49491257  0.24769541  0.25386420  1
  Sb  Sb20  1  0.74866980  0.49499333  0.74849581  1
  Sb  Sb21  1  0.49355369  0.49457634  -0.00644625  1
  Sb  Sb22  1  0.75386425  0.24769543  -0.00508742  1
  Sb  Sb23  1  0.49630152  0.75287640  0.24707323  1
  Sb  Sb24  1  0.75095167  0.00420319  0.25095168  1
  Sb  Sb25  1  0.00451347  0.75336860  0.24550980  1
  Sb  Sb26  1  0.75104967  0.49407210  0.25104970  1
  Sb  Sb27  1  0.00334896  0.49350754  0.50334898  1
  Sb  Sb28  1  0.00448912  0.00545678  0.50448915  1
  Sb  Sb29  1  0.74550980  0.75336856  0.50451347  1
  Sb  Sb30  1  0.25681623  0.00869511  0.75681554  1
  Sb  Sb31  1  0.24849578  0.49499333  0.24866983  1
  Te  Te32  1  0.24605810  0.24655025  0.24803013  1
  Te  Te33  1  0.25026961  0.25115449  0.75026953  1
  Te  Te34  1  0.24988403  0.75738297  0.24216720  1
  Te  Te35  1  0.25395176  0.74066695  0.75395175  1
  Te  Te36  1  0.75955407  0.24970024  0.25955408  1
  Te  Te37  1  0.74803011  0.24655019  0.74605808  1
  Te  Te38  1  0.75042736  0.74958339  0.25042734  1
  Te  Te39  1  0.74216719  0.75738299  0.74988403  1
  Te  Te40  1  0.25036078  0.00365050  -0.00103734  1
  Te  Te41  1  0.25294336  0.00325483  0.49379730  1
  Te  Te42  1  0.24813132  0.49596710  -0.00167267  1
  Te  Te43  1  0.25348368  0.49728323  0.50243305  1
  Te  Te44  1  0.74775234  -0.00002885  -0.00291260  1
  Te  Te45  1  0.74561681  0.00391137  0.50240537  1
  Te  Te46  1  0.75912582  0.50078400  0.00016993  1
  Te  Te47  1  0.74417567  0.49470409  0.50046110  1
  Te  Te48  1  -0.00056012  0.24755506  -0.00347475  1
  Te  Te49  1  0.00410738  0.24994470  0.50410740  1
  Te  Te50  1  0.00569276  0.75268825  -0.00079006  1
  Te  Te51  1  -0.00061469  0.74790568  0.49938531  1
  Te  Te52  1  0.49867366  0.24849004  -0.00132633  1
  Te  Te53  1  0.49652527  0.24755487  0.49943992  1
  Te  Te54  1  0.49579407  0.75191194  -0.00420595  1
  Te  Te55  1  0.49920994  0.75268823  0.50569277  1
  Te  Te56  1  0.00240533  0.00391132  0.24561681  1
  Te  Te57  1  -0.00620268  0.00325485  0.75294336  1
  Te  Te58  1  0.00046111  0.49470409  0.24417569  1
  Te  Te59  1  0.00243304  0.49728323  0.75348365  1
  Te  Te60  1  0.49708744  -0.00002885  0.24775236  1
  Te  Te61  1  0.49896208  0.00365046  0.75036076  1
  Te  Te62  1  0.50016996  0.50078398  0.25912583  1
  Te  Te63  1  0.49832735  0.49596712  0.74813151  1
