# generated using pymatgen
data_AgSbTe2
_symmetry_space_group_name_H-M   'P 1'
_cell_length_a   12.22008126
_cell_length_b   12.22091159
_cell_length_c   12.21763569
_cell_angle_alpha   89.99848715
_cell_angle_beta   90.00322215
_cell_angle_gamma   90.00184595
_symmetry_Int_Tables_number   1
_chemical_formula_structural   AgSbTe2
_chemical_formula_sum   'Ag16 Sb16 Te32'
_cell_volume   1824.58821683
_cell_formula_units_Z   16
loop_
 _symmetry_equiv_pos_site_id
 _symmetry_equiv_pos_as_xyz
  1  'x, y, z'
loop_
 _atom_site_type_symbol
 _atom_site_label
 _atom_site_symmetry_multiplicity
 _atom_site_fract_x
 _atom_site_fract_y
 _atom_site_fract_z
 _atom_site_occupancy
  Ag  Ag0  1  0.24372391  0.25418229  0.49572792  1
  Ag  Ag1  1  0.24921151  0.74497341  0.49575390  1
  Ag  Ag2  1  0.00111589  0.25395745  0.25560775  1
  Ag  Ag3  1  0.00062733  0.25504969  0.74417131  1
  Ag  Ag4  1  0.00144310  0.49632522  0.00223290  1
  Ag  Ag5  1  -0.00347716  0.49533007  0.49782964  1
  Ag  Ag6  1  0.75470764  0.49924520  0.74190473  1
  Ag  Ag7  1  0.75082430  0.74307947  0.49527022  1
  Ag  Ag8  1  0.49969985  0.25441794  0.25380503  1
  Ag  Ag9  1  0.24887993  0.74579949  0.00451251  1
  Ag  Ag10  1  0.75100582  0.49962060  0.25772139  1
  Ag  Ag11  1  -0.00100324  0.00482258  0.49654245  1
  Ag  Ag12  1  0.75226251  0.00114332  0.25465938  1
  Ag  Ag13  1  0.50100659  0.74542352  0.25450019  1
  Ag  Ag14  1  0.24577700  0.25418032  0.00458137  1
  Ag  Ag15  1  0.50356498  0.50067768  0.49428461  1
  Sb  Sb16  1  0.50272075  0.00093993  0.49597308  1
  Sb  Sb17  1  0.75460992  0.00170592  0.74172977  1
  Sb  Sb18  1  0.24464646  0.49889306  0.74718502  1
  Sb  Sb19  1  0.75494790  0.25297013  0.00392676  1
  Sb  Sb20  1  0.24584297  0.00167403  0.25258895  1
  Sb  Sb21  1  0.75896676  0.25953381  0.49597156  1
  Sb  Sb22  1  0.24689279  0.49831756  0.25352186  1
  Sb  Sb23  1  0.49723490  0.49925695  0.00723011  1
  Sb  Sb24  1  0.24685856  0.00103440  0.74725869  1
  Sb  Sb25  1  0.49933413  0.25525219  0.74454213  1
  Sb  Sb26  1  -0.00121270  0.74400261  0.74707589  1
  Sb  Sb27  1  0.00032652  0.00292607  0.00423630  1
  Sb  Sb28  1  -0.00060205  0.74502318  0.25313958  1
  Sb  Sb29  1  0.49933038  0.00061149  0.00472958  1
  Sb  Sb30  1  0.50090901  0.74528964  0.74502836  1
  Sb  Sb31  1  0.75101777  0.74576715  0.00598554  1
  Te  Te32  1  0.24917288  0.24898591  0.25128636  1
  Te  Te33  1  0.24593815  0.25003054  0.74941033  1
  Te  Te34  1  0.25373658  0.75152643  0.25268874  1
  Te  Te35  1  0.25059644  0.75024991  0.74865583  1
  Te  Te36  1  0.74903954  0.25198696  0.24960481  1
  Te  Te37  1  0.75429868  0.25398344  0.75282432  1
  Te  Te38  1  0.74834872  0.74694188  0.25320520  1
  Te  Te39  1  0.74969564  0.74518062  0.74365710  1
  Te  Te40  1  0.24867823  -0.00117278  -0.00063321  1
  Te  Te41  1  0.24382536  -0.00099513  0.49982246  1
  Te  Te42  1  0.24554229  0.49987483  -0.00223067  1
  Te  Te43  1  0.24815298  0.50125950  0.50090251  1
  Te  Te44  1  0.75109857  -0.00200007  0.00813827  1
  Te  Te45  1  0.75364501  -0.00849000  0.49623014  1
  Te  Te46  1  0.75592348  0.50177785  0.00137024  1
  Te  Te47  1  0.75205064  0.50056643  0.49702485  1
  Te  Te48  1  0.00460787  0.25259990  0.00294046  1
  Te  Te49  1  0.00075365  0.25351431  0.49702134  1
  Te  Te50  1  0.00662943  0.74639246  -0.00042354  1
  Te  Te51  1  0.00287662  0.74695132  0.49942706  1
  Te  Te52  1  0.48956260  0.25092372  0.00598494  1
  Te  Te53  1  0.49173767  0.25212473  0.49622491  1
  Te  Te54  1  0.49257223  0.74942165  0.00653449  1
  Te  Te55  1  0.49727891  0.74778044  0.49614839  1
  Te  Te56  1  -0.00489128  0.00623106  0.25477184  1
  Te  Te57  1  -0.00160249  0.00991010  0.74289808  1
  Te  Te58  1  -0.00326052  0.49691451  0.25193646  1
  Te  Te59  1  -0.00438728  0.49542068  0.74821805  1
  Te  Te60  1  0.50854012  0.00176081  0.25105407  1
  Te  Te61  1  0.50276981  0.00062826  0.75098142  1
  Te  Te62  1  0.50533692  0.49900903  0.25336925  1
  Te  Te63  1  0.51053849  0.49928432  0.74172703  1
