# generated using pymatgen
data_AgSbTe2
_symmetry_space_group_name_H-M   'P 1'
_cell_length_a   12.22010854
_cell_length_b   12.22080946
_cell_length_c   12.21136131
_cell_angle_alpha   89.99485992
_cell_angle_beta   90.00569708
_cell_angle_gamma   90.00343297
_symmetry_Int_Tables_number   1
_chemical_formula_structural   AgSbTe2
_chemical_formula_sum   'Ag16 Sb16 Te32'
_cell_volume   1823.64001474
_cell_formula_units_Z   16
loop_
 _symmetry_equiv_pos_site_id
 _symmetry_equiv_pos_as_xyz
  1  'x, y, z'
loop_
 _atom_site_type_symbol
 _atom_site_label
 _atom_site_symmetry_multiplicity
 _atom_site_fract_x
 _atom_site_fract_y
 _atom_site_fract_z
 _atom_site_occupancy
  Ag  Ag0  1  0.00107872  0.50471940  -0.00344787  1
  Ag  Ag1  1  -0.00227084  -0.00237672  0.50558050  1
  Ag  Ag2  1  0.50003775  0.25170068  0.25427572  1
  Ag  Ag3  1  0.49865447  -0.00738957  -0.00388278  1
  Ag  Ag4  1  0.25212076  0.25017565  0.50112073  1
  Ag  Ag5  1  -0.00200984  0.50226927  0.50334320  1
  Ag  Ag6  1  0.49836239  0.50771134  -0.00003213  1
  Ag  Ag7  1  0.49981887  0.75231118  0.75202933  1
  Ag  Ag8  1  -0.00050089  0.75135837  0.74690725  1
  Ag  Ag9  1  0.25575303  0.74981298  -0.00443917  1
  Ag  Ag10  1  0.74763037  0.24999095  0.50097886  1
  Ag  Ag11  1  0.25196016  -0.00464737  0.74864633  1
  Ag  Ag12  1  0.74848612  0.75050389  0.50468943  1
  Ag  Ag13  1  0.49997786  0.74827930  0.24829716  1
  Ag  Ag14  1  0.74847979  -0.00480583  0.74566760  1
  Ag  Ag15  1  0.50181966  0.50140216  0.49953156  1
  Sb  Sb16  1  -0.00018203  0.24931564  0.74691042  1
  Sb  Sb17  1  0.50029233  0.24884776  0.74567581  1
  Sb  Sb18  1  0.25333261  0.24991516  -0.00142780  1
  Sb  Sb19  1  0.74709178  -0.00118845  0.25474247  1
  Sb  Sb20  1  0.74951716  0.50463212  0.74613892  1
  Sb  Sb21  1  0.25041282  0.50460400  0.74932207  1
  Sb  Sb22  1  -0.00015028  0.25119119  0.25435454  1
  Sb  Sb23  1  0.25285400  -0.00122857  0.25251663  1
  Sb  Sb24  1  0.25122315  0.75059114  0.50422005  1
  Sb  Sb25  1  0.74364450  0.75060034  -0.00481285  1
  Sb  Sb26  1  -0.00009564  0.74891055  0.25202963  1
  Sb  Sb27  1  0.74690732  0.24933924  -0.00114614  1
  Sb  Sb28  1  0.00131982  -0.00544538  -0.00638114  1
  Sb  Sb29  1  0.74586243  0.50128743  0.25334257  1
  Sb  Sb30  1  0.50175868  -0.00119084  0.50414803  1
  Sb  Sb31  1  0.25387270  0.50133855  0.25136255  1
  Te  Te32  1  0.25700565  0.24841122  0.25677763  1
  Te  Te33  1  0.24992258  0.24041840  0.74438365  1
  Te  Te34  1  0.25741296  0.75138753  0.24148882  1
  Te  Te35  1  0.25107228  0.75436119  0.75293775  1
  Te  Te36  1  0.74299805  0.24822751  0.25767575  1
  Te  Te37  1  0.75008253  0.24050095  0.74272781  1
  Te  Te38  1  0.74295895  0.75144756  0.25918506  1
  Te  Te39  1  0.74980339  0.75429791  0.74581413  1
  Te  Te40  1  0.25277772  -0.00177800  -0.00526446  1
  Te  Te41  1  0.24684778  0.00198115  0.50426595  1
  Te  Te42  1  0.25220700  0.50222502  -0.00108918  1
  Te  Te43  1  0.24990701  0.49579557  0.50132018  1
  Te  Te44  1  0.74639157  0.00151752  -0.00753656  1
  Te  Te45  1  0.75154898  -0.00098952  0.50378741  1
  Te  Te46  1  0.74957154  0.49860758  -0.00162432  1
  Te  Te47  1  0.75001551  0.49966239  0.50184454  1
  Te  Te48  1  0.00013551  0.25955443  0.00158159  1
  Te  Te49  1  -0.00098939  0.25369652  0.49877221  1
  Te  Te50  1  0.00227990  0.74602975  -0.00149364  1
  Te  Te51  1  0.00054369  0.74727735  0.50121107  1
  Te  Te52  1  0.49981866  0.25379752  0.00523407  1
  Te  Te53  1  0.50093456  0.25179795  0.49839471  1
  Te  Te54  1  0.50102148  0.74745468  -0.00199945  1
  Te  Te55  1  0.49963178  0.74801226  0.50176195  1
  Te  Te56  1  -0.00024665  -0.00037776  0.25778266  1
  Te  Te57  1  -0.00007710  -0.00426134  0.74704598  1
  Te  Te58  1  -0.00004183  0.50068546  0.25111721  1
  Te  Te59  1  0.00031732  0.50568608  0.74793001  1
  Te  Te60  1  0.50010461  -0.00181658  0.24291800  1
  Te  Te61  1  0.49938150  -0.00291432  0.75229472  1
  Te  Te62  1  0.49997059  0.50179843  0.25050761  1
  Te  Te63  1  0.49963215  0.50497004  0.74998564  1
