# generated using pymatgen
data_AgSbTe2
_symmetry_space_group_name_H-M   'P 1'
_cell_length_a   12.21512940
_cell_length_b   12.20871414
_cell_length_c   12.20911472
_cell_angle_alpha   89.99360709
_cell_angle_beta   89.99748115
_cell_angle_gamma   89.99549966
_symmetry_Int_Tables_number   1
_chemical_formula_structural   AgSbTe2
_chemical_formula_sum   'Ag16 Sb16 Te32'
_cell_volume   1820.75775058
_cell_formula_units_Z   16
loop_
 _symmetry_equiv_pos_site_id
 _symmetry_equiv_pos_as_xyz
  1  'x, y, z'
loop_
 _atom_site_type_symbol
 _atom_site_label
 _atom_site_symmetry_multiplicity
 _atom_site_fract_x
 _atom_site_fract_y
 _atom_site_fract_z
 _atom_site_occupancy
  Ag  Ag0  1  0.74576339  0.50767569  0.75054660  1
  Ag  Ag1  1  0.25114171  0.25077836  -0.00432906  1
  Ag  Ag2  1  0.74609008  0.74936188  -0.00467023  1
  Ag  Ag3  1  0.00002334  0.74617176  0.75134797  1
  Ag  Ag4  1  0.50006931  0.50751555  0.50715307  1
  Ag  Ag5  1  -0.00003973  0.25084439  0.24633963  1
  Ag  Ag6  1  0.49704782  0.25274957  0.75204331  1
  Ag  Ag7  1  0.00025538  0.50167133  -0.00419336  1
  Ag  Ag8  1  0.25477344  0.50533997  0.75063625  1
  Ag  Ag9  1  0.49965422  0.74594535  0.74726563  1
  Ag  Ag10  1  0.25637841  0.74802954  0.50772454  1
  Ag  Ag11  1  0.25482436  -0.00455550  0.75194908  1
  Ag  Ag12  1  0.74752365  -0.00441465  0.24824926  1
  Ag  Ag13  1  0.74321683  0.74807784  0.50497690  1
  Ag  Ag14  1  0.50314715  0.75061976  0.25122667  1
  Ag  Ag15  1  0.49997953  -0.00428817  -0.00376319  1
  Sb  Sb16  1  0.74841826  0.25081833  -0.00212775  1
  Sb  Sb17  1  -0.00015211  -0.00203043  0.50118952  1
  Sb  Sb18  1  0.25325939  0.74933529  -0.00953653  1
  Sb  Sb19  1  0.49988988  -0.00956800  0.50369926  1
  Sb  Sb20  1  0.25328986  0.25215530  0.50428148  1
  Sb  Sb21  1  0.50007805  0.50389187  -0.00905289  1
  Sb  Sb22  1  0.50002128  0.24937717  0.24765496  1
  Sb  Sb23  1  -0.00003685  0.50328666  0.50418453  1
  Sb  Sb24  1  -0.00239250  0.74965267  0.24812311  1
  Sb  Sb25  1  0.25231593  -0.00254789  0.24782081  1
  Sb  Sb26  1  0.74503455  -0.00939057  0.75162318  1
  Sb  Sb27  1  0.00273622  0.25354973  0.75322159  1
  Sb  Sb28  1  0.25127410  0.50180366  0.24829700  1
  Sb  Sb29  1  0.74839816  0.50390413  0.24892736  1
  Sb  Sb30  1  -0.00022693  -0.00207172  -0.00163836  1
  Sb  Sb31  1  0.74683698  0.25145296  0.50235216  1
  Te  Te32  1  0.24695924  0.24933171  0.24484480  1
  Te  Te33  1  0.25238275  0.25069339  0.75286918  1
  Te  Te34  1  0.25390775  0.75105127  0.25802397  1
  Te  Te35  1  0.25182052  0.74817717  0.74969593  1
  Te  Te36  1  0.75287854  0.24428262  0.25041428  1
  Te  Te37  1  0.74586578  0.25629491  0.74947493  1
  Te  Te38  1  0.74803939  0.75272374  0.24963781  1
  Te  Te39  1  0.74849114  0.74941077  0.75006034  1
  Te  Te40  1  0.25416957  0.00295600  -0.00399156  1
  Te  Te41  1  0.25020065  -0.00529472  0.50617869  1
  Te  Te42  1  0.24708020  0.49717608  -0.00486885  1
  Te  Te43  1  0.25327129  0.50404441  0.50583072  1
  Te  Te44  1  0.74578711  -0.00474019  0.00226829  1
  Te  Te45  1  0.74958989  -0.00673349  0.49516749  1
  Te  Te46  1  0.75284308  0.50434169  -0.00408634  1
  Te  Te47  1  0.74673721  0.50560971  0.50481462  1
  Te  Te48  1  0.00336812  0.25370093  0.00221736  1
  Te  Te49  1  0.00017630  0.25055788  0.49220500  1
  Te  Te50  1  -0.00357231  0.74620512  -0.00338375  1
  Te  Te51  1  -0.00043674  0.74826025  0.50435456  1
  Te  Te52  1  0.49670644  0.24668949  -0.00354471  1
  Te  Te53  1  0.49954773  0.25850372  0.50518554  1
  Te  Te54  1  0.50243351  0.75173185  -0.00097055  1
  Te  Te55  1  0.50080962  0.74826400  0.50295117  1
  Te  Te56  1  -0.00447840  0.00313154  0.24950392  1
  Te  Te57  1  0.00624858  -0.00428144  0.75073392  1
  Te  Te58  1  -0.00030951  0.49649353  0.24309143  1
  Te  Te59  1  0.00016183  0.50259131  0.75373959  1
  Te  Te60  1  0.50328233  -0.00308526  0.24511850  1
  Te  Te61  1  0.49758448  -0.00105062  0.75346804  1
  Te  Te62  1  0.50051323  0.50466356  0.25745280  1
  Te  Te63  1  0.49934754  0.50315720  0.75002037  1
