# generated using pymatgen
data_AgSbTe2
_symmetry_space_group_name_H-M   'P 1'
_cell_length_a   12.22064027
_cell_length_b   12.21461954
_cell_length_c   12.21168790
_cell_angle_alpha   89.99457696
_cell_angle_beta   89.99717013
_cell_angle_gamma   89.99964061
_symmetry_Int_Tables_number   1
_chemical_formula_structural   AgSbTe2
_chemical_formula_sum   'Ag16 Sb16 Te32'
_cell_volume   1822.84439960
_cell_formula_units_Z   16
loop_
 _symmetry_equiv_pos_site_id
 _symmetry_equiv_pos_as_xyz
  1  'x, y, z'
loop_
 _atom_site_type_symbol
 _atom_site_label
 _atom_site_symmetry_multiplicity
 _atom_site_fract_x
 _atom_site_fract_y
 _atom_site_fract_z
 _atom_site_occupancy
  Ag  Ag0  1  0.75067060  0.49358112  0.24942282  1
  Ag  Ag1  1  -0.00453040  0.50220575  0.50212547  1
  Ag  Ag2  1  0.24742846  0.74928829  0.50091319  1
  Ag  Ag3  1  -0.00574639  0.25050078  0.24807167  1
  Ag  Ag4  1  -0.00600919  0.25300502  0.75153298  1
  Ag  Ag5  1  0.75083984  0.00742627  0.24976306  1
  Ag  Ag6  1  0.50469846  0.49630684  0.00000060  1
  Ag  Ag7  1  0.75051321  0.25281975  0.00416434  1
  Ag  Ag8  1  0.50586785  0.25088043  0.24555482  1
  Ag  Ag9  1  0.75261365  0.74716311  0.50582937  1
  Ag  Ag10  1  0.24899815  0.00400742  0.25014312  1
  Ag  Ag11  1  0.75294533  0.50260022  0.74927378  1
  Ag  Ag12  1  0.24937898  0.25064090  0.00333239  1
  Ag  Ag13  1  0.75194994  -0.00242446  0.74956425  1
  Ag  Ag14  1  0.50756295  0.74807936  0.74893031  1
  Ag  Ag15  1  -0.00787426  0.74713925  0.74485600  1
  Sb  Sb16  1  -0.00293630  0.74824716  0.25468858  1
  Sb  Sb17  1  -0.00490711  0.49580811  -0.00200671  1
  Sb  Sb18  1  0.50484354  0.50185180  0.50071642  1
  Sb  Sb19  1  0.24604460  0.25004793  0.49745611  1
  Sb  Sb20  1  0.75282459  0.25335634  0.49506494  1
  Sb  Sb21  1  0.74907537  0.74677842  -0.00620269  1
  Sb  Sb22  1  0.50772366  0.25186555  0.75477752  1
  Sb  Sb23  1  -0.00193716  -0.00324430  0.49991292  1
  Sb  Sb24  1  0.24819262  0.00042373  0.74982962  1
  Sb  Sb25  1  -0.00197899  0.00344948  0.00031229  1
  Sb  Sb26  1  0.25122628  0.74936689  0.00015832  1
  Sb  Sb27  1  0.24638452  0.49995490  0.74979876  1
  Sb  Sb28  1  0.50220175  0.00385738  0.00062452  1
  Sb  Sb29  1  0.50285858  0.74895125  0.24984050  1
  Sb  Sb30  1  0.50240955  -0.00130285  0.49976649  1
  Sb  Sb31  1  0.24887907  0.49668773  0.24984431  1
  Te  Te32  1  0.24770862  0.24717949  0.24750948  1
  Te  Te33  1  0.24422746  0.24746897  0.75446192  1
  Te  Te34  1  0.24978822  0.75597974  0.25352050  1
  Te  Te35  1  0.24912045  0.75186323  0.74683133  1
  Te  Te36  1  0.75216970  0.24931990  0.25124030  1
  Te  Te37  1  0.75177275  0.25004864  0.75119120  1
  Te  Te38  1  0.75033073  0.75080773  0.25340821  1
  Te  Te39  1  0.75114452  0.74956356  0.75042734  1
  Te  Te40  1  0.25133102  0.00623673  0.00661139  1
  Te  Te41  1  0.24975742  -0.00605842  0.49428651  1
  Te  Te42  1  0.25799121  0.49399581  0.00091088  1
  Te  Te43  1  0.24345698  0.50655080  0.49919732  1
  Te  Te44  1  0.74910449  0.00614971  0.00208075  1
  Te  Te45  1  0.75037917  -0.00720029  0.49970874  1
  Te  Te46  1  0.74674694  0.49683778  0.00066466  1
  Te  Te47  1  0.75339763  0.50332694  0.50120633  1
  Te  Te48  1  -0.00181346  0.25130313  0.00027918  1
  Te  Te49  1  0.00124463  0.25660720  0.50117887  1
  Te  Te50  1  0.00220928  0.74821336  -0.01022174  1
  Te  Te51  1  -0.00232342  0.74596862  0.50341223  1
  Te  Te52  1  0.50226081  0.25372639  0.00298956  1
  Te  Te53  1  0.49691063  0.25092633  0.49136443  1
  Te  Te54  1  0.49836336  0.74203581  -0.00592064  1
  Te  Te55  1  0.50091839  0.74925166  0.50511263  1
  Te  Te56  1  -0.00358635  0.00481811  0.24990310  1
  Te  Te57  1  -0.00539256  0.00181786  0.75028761  1
  Te  Te58  1  -0.00474725  0.49710239  0.25252727  1
  Te  Te59  1  -0.00367472  0.49809191  0.74845875  1
  Te  Te60  1  0.50378465  0.00359058  0.25011795  1
  Te  Te61  1  0.50645439  -0.00427521  0.74996511  1
  Te  Te62  1  0.50500249  0.49741824  0.24777787  1
  Te  Te63  1  0.50575010  0.50201374  0.75145084  1
