# generated using pymatgen
data_AgSbTe2
_symmetry_space_group_name_H-M   'P 1'
_cell_length_a   12.22552744
_cell_length_b   12.22201104
_cell_length_c   12.21058240
_cell_angle_alpha   90.01087637
_cell_angle_beta   89.99750796
_cell_angle_gamma   90.00021638
_symmetry_Int_Tables_number   1
_chemical_formula_structural   AgSbTe2
_chemical_formula_sum   'Ag16 Sb16 Te32'
_cell_volume   1824.51167565
_cell_formula_units_Z   16
loop_
 _symmetry_equiv_pos_site_id
 _symmetry_equiv_pos_as_xyz
  1  'x, y, z'
loop_
 _atom_site_type_symbol
 _atom_site_label
 _atom_site_symmetry_multiplicity
 _atom_site_fract_x
 _atom_site_fract_y
 _atom_site_fract_z
 _atom_site_occupancy
  Ag  Ag0  1  0.50008347  0.24455533  0.25433774  1
  Ag  Ag1  1  0.00376060  0.50324995  0.00870090  1
  Ag  Ag2  1  0.00172936  0.49844875  0.49079163  1
  Ag  Ag3  1  0.24888323  0.49973571  0.75052585  1
  Ag  Ag4  1  0.74996822  0.24729099  0.49443107  1
  Ag  Ag5  1  0.75239038  0.74973019  0.00693475  1
  Ag  Ag6  1  0.49924471  0.25001561  0.74585414  1
  Ag  Ag7  1  0.49611435  0.75438277  0.24983577  1
  Ag  Ag8  1  0.24363518  0.50387143  0.24853505  1
  Ag  Ag9  1  0.00412243  0.74886800  0.24834384  1
  Ag  Ag10  1  0.24952482  -0.00355946  0.25158854  1
  Ag  Ag11  1  0.24741962  0.74652223  0.00754571  1
  Ag  Ag12  1  -0.00101866  0.00207330  0.49183488  1
  Ag  Ag13  1  0.50101023  0.00382848  0.49232085  1
  Ag  Ag14  1  0.00057704  0.25050437  0.25412550  1
  Ag  Ag15  1  0.75051881  0.00005859  0.25344697  1
  Sb  Sb16  1  0.49888814  0.49581708  0.49580850  1
  Sb  Sb17  1  0.49727336  0.75022145  0.74830116  1
  Sb  Sb18  1  0.00150744  0.74895388  0.75198658  1
  Sb  Sb19  1  0.49953633  -0.00072562  0.00984620  1
  Sb  Sb20  1  0.75180363  0.24986667  0.00657919  1
  Sb  Sb21  1  0.00083575  -0.00422717  0.01165415  1
  Sb  Sb22  1  0.24974654  0.25002378  0.49573536  1
  Sb  Sb23  1  0.00099915  0.25234071  0.74460005  1
  Sb  Sb24  1  0.25171180  0.00044996  0.74875842  1
  Sb  Sb25  1  0.74978297  0.49833220  0.74963822  1
  Sb  Sb26  1  0.74897046  0.00161238  0.74635885  1
  Sb  Sb27  1  0.75801860  0.50074452  0.25018446  1
  Sb  Sb28  1  0.49591418  0.50115572  0.00365693  1
  Sb  Sb29  1  0.24838952  0.25375617  0.00436608  1
  Sb  Sb30  1  0.24868044  0.74965649  0.49045538  1
  Sb  Sb31  1  0.75134166  0.75309180  0.49240722  1
  Te  Te32  1  0.24979329  0.24961406  0.24871644  1
  Te  Te33  1  0.25536368  0.25419940  0.75274203  1
  Te  Te34  1  0.24887124  0.74956656  0.24830393  1
  Te  Te35  1  0.25182175  0.74461976  0.76066078  1
  Te  Te36  1  0.74938488  0.24701746  0.25247133  1
  Te  Te37  1  0.74387074  0.24944124  0.74462030  1
  Te  Te38  1  0.75041154  0.75235712  0.24714297  1
  Te  Te39  1  0.74859839  0.75026266  0.76138329  1
  Te  Te40  1  0.24900418  -0.00747056  0.00492017  1
  Te  Te41  1  0.24892286  -0.00088817  0.49581518  1
  Te  Te42  1  0.24664230  0.50275537  0.00394252  1
  Te  Te43  1  0.24447595  0.50068099  0.49858306  1
  Te  Te44  1  0.75071568  -0.00478455  0.00524679  1
  Te  Te45  1  0.75084743  0.00251244  0.49644761  1
  Te  Te46  1  0.75744042  0.50499278  -0.00103277  1
  Te  Te47  1  0.75696372  0.49457765  0.50127971  1
  Te  Te48  1  -0.00168314  0.25653516  0.00548975  1
  Te  Te49  1  -0.00251603  0.24977984  0.49646898  1
  Te  Te50  1  0.00105444  0.74737468  0.00322794  1
  Te  Te51  1  -0.00129365  0.74938996  0.49534836  1
  Te  Te52  1  0.50186536  0.25000666  0.00233214  1
  Te  Te53  1  0.50284936  0.24845536  0.49472541  1
  Te  Te54  1  0.50018829  0.74972750  0.00557185  1
  Te  Te55  1  0.50209726  0.75535134  0.49461795  1
  Te  Te56  1  0.00136136  0.00047087  0.25201564  1
  Te  Te57  1  0.00146694  0.00115070  0.73715310  1
  Te  Te58  1  0.00125619  0.50041538  0.25129784  1
  Te  Te59  1  0.00592775  0.49919324  0.74851519  1
  Te  Te60  1  0.49849289  0.00103061  0.25259232  1
  Te  Te61  1  0.49816898  0.00535193  0.73984525  1
  Te  Te62  1  0.49234517  0.50010578  0.25135522  1
  Te  Te63  1  0.49392703  0.49556053  0.74870977  1
