# generated using pymatgen
data_AgSbTe2
_symmetry_space_group_name_H-M   'P 1'
_cell_length_a   12.34785533
_cell_length_b   12.30332911
_cell_length_c   12.34975659
_cell_angle_alpha   89.98407022
_cell_angle_beta   89.99926993
_cell_angle_gamma   90.01052844
_symmetry_Int_Tables_number   1
_chemical_formula_structural   AgSbTe2
_chemical_formula_sum   'Ag16 Sb16 Te32'
_cell_volume   1876.17155724
_cell_formula_units_Z   16
loop_
 _symmetry_equiv_pos_site_id
 _symmetry_equiv_pos_as_xyz
  1  'x, y, z'
loop_
 _atom_site_type_symbol
 _atom_site_label
 _atom_site_symmetry_multiplicity
 _atom_site_fract_x
 _atom_site_fract_y
 _atom_site_fract_z
 _atom_site_occupancy
  Ag  Ag0  1  0.50460148  0.50886042  0.50557709  1
  Ag  Ag1  1  0.50771213  0.50412607  -0.00880527  1
  Ag  Ag2  1  0.50541354  0.74193998  0.26362505  1
  Ag  Ag3  1  0.50500048  0.73762793  0.74193653  1
  Ag  Ag4  1  0.50544540  0.26619908  0.74533162  1
  Ag  Ag5  1  0.26133397  0.50422535  0.26347080  1
  Ag  Ag6  1  0.74616802  0.26728312  0.50761983  1
  Ag  Ag7  1  0.73915600  0.50662222  0.25847762  1
  Ag  Ag8  1  0.74592188  -0.00242401  0.74628782  1
  Ag  Ag9  1  0.74237308  0.74089607  -0.00939965  1
  Ag  Ag10  1  -0.01298882  0.26124920  0.74608547  1
  Ag  Ag11  1  0.26632113  0.73965332  0.50350258  1
  Ag  Ag12  1  0.74072775  0.73920376  0.50157608  1
  Ag  Ag13  1  -0.00813671  0.50119293  0.50749332  1
  Ag  Ag14  1  -0.00885418  0.50059305  -0.00992242  1
  Ag  Ag15  1  0.25884556  0.50373940  0.73873806  1
  Sb  Sb16  1  0.25522861  0.74161651  -0.00211394  1
  Sb  Sb17  1  0.50261969  0.26204147  0.25340879  1
  Sb  Sb18  1  0.74883372  -0.00477623  0.25213993  1
  Sb  Sb19  1  0.74406606  0.50053425  0.74353789  1
  Sb  Sb20  1  0.25355702  -0.01011645  0.25355905  1
  Sb  Sb21  1  -0.00173296  0.26212932  0.25312433  1
  Sb  Sb22  1  0.25036919  0.25922859  -0.00243692  1
  Sb  Sb23  1  -0.00311489  0.74420755  0.25140249  1
  Sb  Sb24  1  0.74878793  0.26329154  -0.00651451  1
  Sb  Sb25  1  -0.00429378  -0.00105460  0.50284127  1
  Sb  Sb26  1  0.50325703  -0.00535874  -0.00534420  1
  Sb  Sb27  1  0.25255774  0.26091755  0.50243883  1
  Sb  Sb28  1  0.50102497  -0.00664351  0.50108630  1
  Sb  Sb29  1  -0.00773201  -0.00321293  -0.00791217  1
  Sb  Sb30  1  -0.00380123  0.74084245  0.74772381  1
  Sb  Sb31  1  0.25123815  -0.00136595  0.74872843  1
  Te  Te32  1  0.25172006  0.25298382  0.25056467  1
  Te  Te33  1  0.25905544  0.24841723  0.74908503  1
  Te  Te34  1  0.25238424  0.74400394  0.25029124  1
  Te  Te35  1  0.25364289  0.74861174  0.74973169  1
  Te  Te36  1  0.74788876  0.24718953  0.26006720  1
  Te  Te37  1  0.74669432  0.25176331  0.74704130  1
  Te  Te38  1  0.75027171  0.74831747  0.25920335  1
  Te  Te39  1  0.74910530  0.74978022  0.74683818  1
  Te  Te40  1  0.24746481  0.00133665  0.00310797  1
  Te  Te41  1  0.24845407  -0.01957083  0.49867816  1
  Te  Te42  1  0.25107964  0.50065331  -0.00133694  1
  Te  Te43  1  0.25276395  0.50121945  0.50136845  1
  Te  Te44  1  0.74965369  -0.01399768  -0.00081936  1
  Te  Te45  1  0.75060539  -0.00382007  0.50411659  1
  Te  Te46  1  0.74821056  0.50206791  0.00778976  1
  Te  Te47  1  0.74943604  0.49872401  0.49853379  1
  Te  Te48  1  -0.00096546  0.25661579  -0.00454093  1
  Te  Te49  1  0.00023098  0.25316763  0.50348904  1
  Te  Te50  1  -0.00786390  0.74502136  -0.00098785  1
  Te  Te51  1  -0.00812378  0.74705890  0.50147009  1
  Te  Te52  1  0.50078384  0.25581078  -0.00449422  1
  Te  Te53  1  0.50074717  0.25207880  0.50228418  1
  Te  Te54  1  0.50352655  0.74710581  -0.00850468  1
  Te  Te55  1  0.50215177  0.74916959  0.50331809  1
  Te  Te56  1  0.00301417  0.00451888  0.24715022  1
  Te  Te57  1  -0.00148726  0.01584604  0.74954357  1
  Te  Te58  1  0.00123456  0.50050314  0.25300919  1
  Te  Te59  1  0.00718905  0.49978261  0.74789776  1
  Te  Te60  1  0.49909510  -0.01390086  0.24807644  1
  Te  Te61  1  0.50330848  0.00269563  0.74977097  1
  Te  Te62  1  0.50072636  0.50252960  0.25268884  1
  Te  Te63  1  0.49809553  0.50104763  0.74830432  1
