# generated using pymatgen
data_AgSbTe2
_symmetry_space_group_name_H-M   'P 1'
_cell_length_a   12.21322763
_cell_length_b   12.20626365
_cell_length_c   12.21166347
_cell_angle_alpha   90.00176104
_cell_angle_beta   90.00220393
_cell_angle_gamma   89.98918103
_symmetry_Int_Tables_number   1
_chemical_formula_structural   AgSbTe2
_chemical_formula_sum   'Ag16 Sb16 Te32'
_cell_volume   1820.48882438
_cell_formula_units_Z   16
loop_
 _symmetry_equiv_pos_site_id
 _symmetry_equiv_pos_as_xyz
  1  'x, y, z'
loop_
 _atom_site_type_symbol
 _atom_site_label
 _atom_site_symmetry_multiplicity
 _atom_site_fract_x
 _atom_site_fract_y
 _atom_site_fract_z
 _atom_site_occupancy
  Ag  Ag0  1  0.24989192  0.74997335  -0.00066402  1
  Ag  Ag1  1  0.25121658  0.49879918  0.25262764  1
  Ag  Ag2  1  0.24784930  0.00166666  0.25268304  1
  Ag  Ag3  1  0.49992082  0.49658518  0.50260039  1
  Ag  Ag4  1  0.24999625  0.74995112  0.50077414  1
  Ag  Ag5  1  -0.00342516  0.24641663  0.25382832  1
  Ag  Ag6  1  0.50319340  0.25047204  0.25362745  1
  Ag  Ag7  1  0.75003193  0.24989496  -0.00058768  1
  Ag  Ag8  1  0.49810509  0.74673145  0.74702559  1
  Ag  Ag9  1  0.75011120  0.24987754  0.50053750  1
  Ag  Ag10  1  0.50653155  0.25410487  0.74549093  1
  Ag  Ag11  1  0.00211463  0.75000079  0.74724496  1
  Ag  Ag12  1  0.74736456  0.49378705  0.74756884  1
  Ag  Ag13  1  0.75186033  0.00766999  0.25281384  1
  Ag  Ag14  1  -0.00632309  0.25027320  0.74577409  1
  Ag  Ag15  1  0.00003683  0.00352734  0.49757912  1
  Sb  Sb16  1  0.24813968  -0.00222563  0.74666784  1
  Sb  Sb17  1  0.25267725  0.50238469  0.74695035  1
  Sb  Sb18  1  0.75016665  0.75079580  -0.00332709  1
  Sb  Sb19  1  0.74859596  0.49099287  0.25258830  1
  Sb  Sb20  1  0.49676239  0.74778817  0.25288100  1
  Sb  Sb21  1  0.49969130  0.49900351  -0.00268383  1
  Sb  Sb22  1  0.00043054  0.49956319  -0.00057831  1
  Sb  Sb23  1  0.49983852  0.00044392  0.00113140  1
  Sb  Sb24  1  0.00006565  0.49686683  0.50092332  1
  Sb  Sb25  1  0.74996619  0.75031088  0.50242612  1
  Sb  Sb26  1  0.25005084  0.24990403  0.00365141  1
  Sb  Sb27  1  0.49999760  0.00319969  0.49802820  1
  Sb  Sb28  1  0.00023085  0.00108887  0.00344910  1
  Sb  Sb29  1  0.75192037  0.00815109  0.74696125  1
  Sb  Sb30  1  0.00345644  0.75305380  0.25324128  1
  Sb  Sb31  1  0.24989104  0.24989173  0.49729525  1
  Te  Te32  1  0.25023052  0.24900266  0.24848307  1
  Te  Te33  1  0.24974234  0.25007911  0.75153704  1
  Te  Te34  1  0.25018273  0.75044999  0.25137480  1
  Te  Te35  1  0.24958166  0.74959482  0.74858501  1
  Te  Te36  1  0.75001861  0.24989515  0.25172174  1
  Te  Te37  1  0.74991932  0.25023744  0.74828196  1
  Te  Te38  1  0.74999507  0.75713392  0.24769782  1
  Te  Te39  1  0.74992440  0.74546127  0.75172090  1
  Te  Te40  1  0.25000418  -0.00654419  0.00948996  1
  Te  Te41  1  0.24561757  -0.00511083  0.49440122  1
  Te  Te42  1  0.25020098  0.50664569  0.00862997  1
  Te  Te43  1  0.25439228  0.50513046  0.49557893  1
  Te  Te44  1  0.74991022  0.00652355  0.00851329  1
  Te  Te45  1  0.75459625  0.00457489  0.49502209  1
  Te  Te46  1  0.75017990  0.49371428  -0.00567586  1
  Te  Te47  1  0.74506452  0.49566930  0.50384536  1
  Te  Te48  1  -0.00427080  0.24937786  -0.00156358  1
  Te  Te49  1  -0.00083662  0.24766084  0.50081390  1
  Te  Te50  1  0.00463371  0.75039802  -0.00863075  1
  Te  Te51  1  0.00284675  0.75302250  0.50492532  1
  Te  Te52  1  0.50429417  0.25040151  -0.00065320  1
  Te  Te53  1  0.50088193  0.25230125  0.50117162  1
  Te  Te54  1  0.49525190  0.74987103  -0.00780456  1
  Te  Te55  1  0.49719903  0.74669444  0.50479648  1
  Te  Te56  1  0.00151830  0.00353402  0.25391503  1
  Te  Te57  1  -0.00021912  0.00150801  0.74369937  1
  Te  Te58  1  0.00436172  0.49413276  0.25119681  1
  Te  Te59  1  -0.00329040  0.49776830  0.74862220  1
  Te  Te60  1  0.49886550  0.00580892  0.25139764  1
  Te  Te61  1  0.49996383  0.00086520  0.74898360  1
  Te  Te62  1  0.49728780  0.49583367  0.25537701  1
  Te  Te63  1  0.50159434  0.49741935  0.74601605  1
