# generated using pymatgen
data_AgSbTe2
_symmetry_space_group_name_H-M   'P 1'
_cell_length_a   12.25955746
_cell_length_b   12.25209406
_cell_length_c   12.27168501
_cell_angle_alpha   89.99844646
_cell_angle_beta   89.99737759
_cell_angle_gamma   90.00819761
_symmetry_Int_Tables_number   1
_chemical_formula_structural   AgSbTe2
_chemical_formula_sum   'Ag16 Sb16 Te32'
_cell_volume   1843.27150689
_cell_formula_units_Z   16
loop_
 _symmetry_equiv_pos_site_id
 _symmetry_equiv_pos_as_xyz
  1  'x, y, z'
loop_
 _atom_site_type_symbol
 _atom_site_label
 _atom_site_symmetry_multiplicity
 _atom_site_fract_x
 _atom_site_fract_y
 _atom_site_fract_z
 _atom_site_occupancy
  Ag  Ag0  1  0.50082798  -0.00580151  0.01042507  1
  Ag  Ag1  1  0.49753422  0.50574486  0.01135863  1
  Ag  Ag2  1  0.00019247  0.00153794  0.49551627  1
  Ag  Ag3  1  0.26034399  0.74998671  0.49588673  1
  Ag  Ag4  1  0.00084924  0.24672195  0.74365848  1
  Ag  Ag5  1  0.49699730  0.75139631  0.74063152  1
  Ag  Ag6  1  0.49384593  0.51249611  0.48893497  1
  Ag  Ag7  1  0.73488746  0.50106503  0.25236274  1
  Ag  Ag8  1  0.26139513  -0.00323254  0.25702595  1
  Ag  Ag9  1  0.49885800  -0.01168202  0.48919190  1
  Ag  Ag10  1  0.26487136  0.50426168  0.25594532  1
  Ag  Ag11  1  0.25772475  0.50277303  0.74439299  1
  Ag  Ag12  1  0.00069925  0.24551917  0.25582839  1
  Ag  Ag13  1  0.73835144  -0.00076642  0.25566789  1
  Ag  Ag14  1  0.74450297  -0.00034815  0.74431310  1
  Ag  Ag15  1  0.49617904  0.75074129  0.25855509  1
  Sb  Sb16  1  0.73639261  0.75301196  0.49873109  1
  Sb  Sb17  1  0.25541754  0.75091776  0.00620586  1
  Sb  Sb18  1  0.00025876  0.00065473  0.00356623  1
  Sb  Sb19  1  0.74922863  0.25025357  0.00172247  1
  Sb  Sb20  1  0.49919559  0.24905252  0.25135494  1
  Sb  Sb21  1  0.00633420  0.49873634  0.49757194  1
  Sb  Sb22  1  0.00498892  0.75544316  0.25639122  1
  Sb  Sb23  1  0.00240083  0.49981152  0.00294405  1
  Sb  Sb24  1  0.74437325  0.74991773  0.00203179  1
  Sb  Sb25  1  0.25063620  0.24898086  0.00116831  1
  Sb  Sb26  1  0.75110208  0.24757929  0.49831255  1
  Sb  Sb27  1  0.49821232  0.24868465  0.74848064  1
  Sb  Sb28  1  0.74091051  0.49973057  0.74663803  1
  Sb  Sb29  1  0.25527810  -0.00381458  0.74112332  1
  Sb  Sb30  1  0.00407874  0.75321336  0.74203407  1
  Sb  Sb31  1  0.24957952  0.24922535  0.49848194  1
  Te  Te32  1  0.23897885  0.25096661  0.25112076  1
  Te  Te33  1  0.24251429  0.25826660  0.74903419  1
  Te  Te34  1  0.25505446  0.74849878  0.25444939  1
  Te  Te35  1  0.25620622  0.74571613  0.74207727  1
  Te  Te36  1  0.76231953  0.24689156  0.25027233  1
  Te  Te37  1  0.75950613  0.24387065  0.75026600  1
  Te  Te38  1  0.74168625  0.75216496  0.25113898  1
  Te  Te39  1  0.74141513  0.75633043  0.74918891  1
  Te  Te40  1  0.25892806  -0.00113802  0.01118525  1
  Te  Te41  1  0.25477681  -0.00238442  0.49669447  1
  Te  Te42  1  0.25888806  0.50120487  0.00385355  1
  Te  Te43  1  0.25220745  0.50318796  0.49566416  1
  Te  Te44  1  0.74137599  -0.00063210  0.00419240  1
  Te  Te45  1  0.74730158  -0.00207527  0.49574776  1
  Te  Te46  1  0.73894858  0.50086415  0.00857990  1
  Te  Te47  1  0.74297648  0.50151612  0.49318665  1
  Te  Te48  1  0.00087180  0.24896165  -0.00064868  1
  Te  Te49  1  0.00072004  0.24194383  0.49939191  1
  Te  Te50  1  0.00173961  0.75038723  -0.00150567  1
  Te  Te51  1  0.01737412  0.76061968  0.49969084  1
  Te  Te52  1  0.49904811  0.24957993  -0.00370249  1
  Te  Te53  1  0.49928463  0.24818045  0.50309741  1
  Te  Te54  1  0.49779866  0.75057902  0.00247520  1
  Te  Te55  1  0.49378514  0.75164436  0.49627496  1
  Te  Te56  1  -0.00205613  0.00068706  0.25075523  1
  Te  Te57  1  -0.00163757  0.00266909  0.74957587  1
  Te  Te58  1  0.00105537  0.49522904  0.25066833  1
  Te  Te59  1  0.00303236  0.49497427  0.74980816  1
  Te  Te60  1  0.50145386  0.00870766  0.25293041  1
  Te  Te61  1  0.50004794  -0.00154685  0.74783899  1
  Te  Te62  1  0.49761899  0.49114501  0.25141218  1
  Te  Te63  1  0.50033091  0.50117735  0.74883191  1
