# generated using pymatgen
data_AgSbTe2
_symmetry_space_group_name_H-M   'P 1'
_cell_length_a   12.20640830
_cell_length_b   12.21499511
_cell_length_c   12.21377576
_cell_angle_alpha   90.00327738
_cell_angle_beta   90.00527148
_cell_angle_gamma   89.99871352
_symmetry_Int_Tables_number   1
_chemical_formula_structural   AgSbTe2
_chemical_formula_sum   'Ag16 Sb16 Te32'
_cell_volume   1821.08882626
_cell_formula_units_Z   16
loop_
 _symmetry_equiv_pos_site_id
 _symmetry_equiv_pos_as_xyz
  1  'x, y, z'
loop_
 _atom_site_type_symbol
 _atom_site_label
 _atom_site_symmetry_multiplicity
 _atom_site_fract_x
 _atom_site_fract_y
 _atom_site_fract_z
 _atom_site_occupancy
  Ag  Ag0  1  -0.00533111  0.50109234  0.00457839  1
  Ag  Ag1  1  0.50882571  0.24896138  0.24960582  1
  Ag  Ag2  1  0.75449247  0.75003533  0.00338347  1
  Ag  Ag3  1  0.75298991  0.49719075  0.75029471  1
  Ag  Ag4  1  0.24451065  0.74779792  0.49931385  1
  Ag  Ag5  1  0.24696767  0.49949266  0.74827910  1
  Ag  Ag6  1  -0.00889972  0.25011570  0.25181628  1
  Ag  Ag7  1  -0.00570762  -0.00120830  0.00779515  1
  Ag  Ag8  1  0.75351157  0.25217325  0.49410333  1
  Ag  Ag9  1  -0.00415635  0.74995008  0.24983400  1
  Ag  Ag10  1  0.75605457  0.00460101  0.24753662  1
  Ag  Ag11  1  -0.00325576  0.49955679  0.49570362  1
  Ag  Ag12  1  0.75715509  0.49500200  0.24986649  1
  Ag  Ag13  1  -0.00317544  0.00064258  0.49221375  1
  Ag  Ag14  1  0.50562221  0.00218405  0.00303214  1
  Ag  Ag15  1  0.50393886  0.25148844  0.75073837  1
  Sb  Sb16  1  0.24064167  0.50023674  0.25227894  1
  Sb  Sb17  1  0.24948170  0.00085372  0.74876751  1
  Sb  Sb18  1  0.75030083  0.00410152  0.75300388  1
  Sb  Sb19  1  0.50616373  0.49755935  0.00121195  1
  Sb  Sb20  1  0.24886532  0.25197047  -0.00066577  1
  Sb  Sb21  1  -0.00087226  0.74691586  0.74999658  1
  Sb  Sb22  1  0.50395354  0.49839932  0.49926911  1
  Sb  Sb23  1  0.50193028  0.74890597  0.75170180  1
  Sb  Sb24  1  0.50369515  0.00289265  0.49651481  1
  Sb  Sb25  1  0.50490748  0.75172496  0.24805746  1
  Sb  Sb26  1  0.75616015  0.74825296  0.49641169  1
  Sb  Sb27  1  0.75116637  0.24962630  0.00819663  1
  Sb  Sb28  1  0.24466337  0.74811834  0.00099867  1
  Sb  Sb29  1  0.24196646  -0.00007204  0.25054255  1
  Sb  Sb30  1  -0.00502716  0.25382692  0.74838969  1
  Sb  Sb31  1  0.24492412  0.25196777  0.50072650  1
  Te  Te32  1  0.25245081  0.25099090  0.25095961  1
  Te  Te33  1  0.25816162  0.25649442  0.74880937  1
  Te  Te34  1  0.24390473  0.74892888  0.25469594  1
  Te  Te35  1  0.25088193  0.74310279  0.74495916  1
  Te  Te36  1  0.75155881  0.25038252  0.25122310  1
  Te  Te37  1  0.74623570  0.25475404  0.74300451  1
  Te  Te38  1  0.75401216  0.74976214  0.24786240  1
  Te  Te39  1  0.74869827  0.74205475  0.75516127  1
  Te  Te40  1  0.24757957  -0.00190678  -0.00091790  1
  Te  Te41  1  0.24242043  -0.00456923  0.50137967  1
  Te  Te42  1  0.24253518  0.50189807  -0.00630259  1
  Te  Te43  1  0.24387972  0.50253915  0.50339050  1
  Te  Te44  1  0.75365770  -0.00270401  0.00147552  1
  Te  Te45  1  0.75529611  0.00145194  0.49718976  1
  Te  Te46  1  0.75380411  0.50272750  0.00076491  1
  Te  Te47  1  0.75408495  0.49903751  0.49901568  1
  Te  Te48  1  0.00069439  0.24937787  0.00484407  1
  Te  Te49  1  -0.00334714  0.25068052  0.49729868  1
  Te  Te50  1  -0.00290680  0.75043205  0.00335670  1
  Te  Te51  1  0.00082692  0.74934678  0.49685827  1
  Te  Te52  1  0.49902722  0.24542500  0.00147508  1
  Te  Te53  1  0.50494901  0.24833622  0.49799641  1
  Te  Te54  1  0.50484096  0.75705842  0.00102640  1
  Te  Te55  1  0.49111507  0.75127725  0.49936876  1
  Te  Te56  1  -0.00223249  0.00135415  0.24899882  1
  Te  Te57  1  -0.00022728  0.00151016  0.75176447  1
  Te  Te58  1  -0.00202502  0.49866245  0.25000658  1
  Te  Te59  1  -0.00263002  0.49831977  0.75012912  1
  Te  Te60  1  0.50627407  0.00350788  0.24637422  1
  Te  Te61  1  0.50033504  0.00622939  0.75523617  1
  Te  Te62  1  0.50761105  0.49418830  0.24844357  1
  Te  Te63  1  0.50206974  0.49499240  0.75065465  1
