# generated using pymatgen
data_AgSbTe2
_symmetry_space_group_name_H-M   'P 1'
_cell_length_a   12.28822769
_cell_length_b   12.27272542
_cell_length_c   12.29855309
_cell_angle_alpha   89.99455336
_cell_angle_beta   89.99545521
_cell_angle_gamma   90.00138060
_symmetry_Int_Tables_number   1
_chemical_formula_structural   AgSbTe2
_chemical_formula_sum   'Ag16 Sb16 Te32'
_cell_volume   1854.74532200
_cell_formula_units_Z   16
loop_
 _symmetry_equiv_pos_site_id
 _symmetry_equiv_pos_as_xyz
  1  'x, y, z'
loop_
 _atom_site_type_symbol
 _atom_site_label
 _atom_site_symmetry_multiplicity
 _atom_site_fract_x
 _atom_site_fract_y
 _atom_site_fract_z
 _atom_site_occupancy
  Ag  Ag0  1  0.24618664  -0.01056499  0.24592186  1
  Ag  Ag1  1  0.00719814  0.73865358  0.23564203  1
  Ag  Ag2  1  0.76590633  0.73948655  0.00429617  1
  Ag  Ag3  1  0.00562344  0.26429741  0.76839716  1
  Ag  Ag4  1  0.24297555  0.74524127  0.49784885  1
  Ag  Ag5  1  0.77024511  0.26198904  0.00324751  1
  Ag  Ag6  1  0.24001220  0.51010913  0.75631449  1
  Ag  Ag7  1  0.01068763  0.73602908  0.76480165  1
  Ag  Ag8  1  0.23088798  0.25928683  0.00142093  1
  Ag  Ag9  1  0.00327049  0.26360988  0.23225758  1
  Ag  Ag10  1  0.00165476  0.50232441  0.00140835  1
  Ag  Ag11  1  0.48962598  0.74626886  0.24389141  1
  Ag  Ag12  1  0.76068145  0.50507527  0.24151374  1
  Ag  Ag13  1  0.23527384  0.74263879  0.00149814  1
  Ag  Ag14  1  0.00451340  0.50554837  0.49873496  1
  Ag  Ag15  1  0.48887305  0.74500728  0.75640909  1
  Sb  Sb16  1  0.75160017  -0.00107014  0.75287273  1
  Sb  Sb17  1  0.00086579  -0.00107618  0.00160865  1
  Sb  Sb18  1  0.75743669  0.25766061  0.49577322  1
  Sb  Sb19  1  0.49802820  -0.00503961  0.00157865  1
  Sb  Sb20  1  0.49453393  -0.00430574  0.49713634  1
  Sb  Sb21  1  0.75861429  0.74388807  0.49613915  1
  Sb  Sb22  1  0.75394941  -0.00328688  0.24826642  1
  Sb  Sb23  1  0.00399227  -0.00861686  0.49839866  1
  Sb  Sb24  1  0.49017678  0.50413792  0.49792426  1
  Sb  Sb25  1  0.49573435  0.25679953  0.24600927  1
  Sb  Sb26  1  0.76211296  0.50139159  0.76242657  1
  Sb  Sb27  1  0.49555375  0.50367610  0.00048655  1
  Sb  Sb28  1  0.23899072  0.50810652  0.24095310  1
  Sb  Sb29  1  0.49357252  0.25931389  0.75524296  1
  Sb  Sb30  1  0.24884174  -0.00765375  0.75475358  1
  Sb  Sb31  1  0.24434751  0.25793356  0.49675501  1
  Te  Te32  1  0.24935162  0.24952554  0.24664321  1
  Te  Te33  1  0.24837525  0.24900056  0.75350514  1
  Te  Te34  1  0.24636280  0.74563199  0.24335820  1
  Te  Te35  1  0.24454312  0.75068463  0.75725945  1
  Te  Te36  1  0.75133753  0.24816715  0.24368886  1
  Te  Te37  1  0.75269227  0.24993642  0.75995371  1
  Te  Te38  1  0.75539293  0.75074541  0.24563710  1
  Te  Te39  1  0.75236251  0.74795826  0.75744722  1
  Te  Te40  1  0.25125526  -0.00069020  0.00597724  1
  Te  Te41  1  0.24880318  -0.01114646  0.48984551  1
  Te  Te42  1  0.24477322  0.50208257  -0.00182321  1
  Te  Te43  1  0.24302491  0.50554129  0.50927225  1
  Te  Te44  1  0.74630796  0.00039323  0.00000182  1
  Te  Te45  1  0.74894790  0.00104184  0.49997975  1
  Te  Te46  1  0.75743626  0.50287019  0.00301905  1
  Te  Te47  1  0.76259812  0.50147268  0.48687601  1
  Te  Te48  1  0.00215518  0.24372232  0.00098309  1
  Te  Te49  1  0.00107637  0.26130012  0.50036602  1
  Te  Te50  1  0.00172941  0.75383896  0.00059962  1
  Te  Te51  1  0.00377884  0.74311969  0.50021426  1
  Te  Te52  1  0.49988283  0.25145364  -0.00122123  1
  Te  Te53  1  0.50092420  0.25040849  0.50226394  1
  Te  Te54  1  0.49871050  0.74646646  0.00128875  1
  Te  Te55  1  0.49155479  0.74669640  0.49944416  1
  Te  Te56  1  0.00460473  -0.00064329  0.25283274  1
  Te  Te57  1  0.00107097  0.00173180  0.74439823  1
  Te  Te58  1  0.00022313  0.50092151  0.24196903  1
  Te  Te59  1  0.00254739  0.50228700  0.75734390  1
  Te  Te60  1  0.49238932  -0.01111871  0.25092767  1
  Te  Te61  1  0.50080202  -0.01377592  0.74823440  1
  Te  Te62  1  0.51498611  0.50643767  0.25015590  1
  Te  Te63  1  0.48803233  0.50707934  0.74962915  1
