# generated using pymatgen
data_AgSbTe2
_symmetry_space_group_name_H-M   'P 1'
_cell_length_a   12.21938192
_cell_length_b   12.21527877
_cell_length_c   12.21199586
_cell_angle_alpha   89.99792176
_cell_angle_beta   90.00030398
_cell_angle_gamma   90.00128962
_symmetry_Int_Tables_number   1
_chemical_formula_structural   AgSbTe2
_chemical_formula_sum   'Ag16 Sb16 Te32'
_cell_volume   1822.80104922
_cell_formula_units_Z   16
loop_
 _symmetry_equiv_pos_site_id
 _symmetry_equiv_pos_as_xyz
  1  'x, y, z'
loop_
 _atom_site_type_symbol
 _atom_site_label
 _atom_site_symmetry_multiplicity
 _atom_site_fract_x
 _atom_site_fract_y
 _atom_site_fract_z
 _atom_site_occupancy
  Ag  Ag0  1  -0.00511506  0.25195568  0.24565845  1
  Ag  Ag1  1  0.24905881  -0.00009365  0.75203462  1
  Ag  Ag2  1  0.75107132  0.00704617  0.75511566  1
  Ag  Ag3  1  0.75456410  0.49347486  0.75721148  1
  Ag  Ag4  1  0.75036133  0.25363095  -0.00443168  1
  Ag  Ag5  1  0.75089477  0.74585027  -0.00306474  1
  Ag  Ag6  1  0.75059691  0.00562176  0.24448106  1
  Ag  Ag7  1  -0.00493569  0.25608594  0.75376590  1
  Ag  Ag8  1  0.50353207  0.49618359  -0.00426464  1
  Ag  Ag9  1  0.50525348  0.25092721  0.24429445  1
  Ag  Ag10  1  0.24530627  0.50031621  0.75339585  1
  Ag  Ag11  1  0.00094051  0.49823369  0.50702081  1
  Ag  Ag12  1  0.24775547  0.74727294  0.50623311  1
  Ag  Ag13  1  0.24905712  0.74612200  -0.00549344  1
  Ag  Ag14  1  0.50507326  0.25281641  0.75577839  1
  Ag  Ag15  1  -0.00351044  0.49671783  -0.00702829  1
  Sb  Sb16  1  0.24894857  0.49945895  0.24518667  1
  Sb  Sb17  1  0.24924285  0.25561247  -0.00520062  1
  Sb  Sb18  1  0.75107794  0.49057391  0.23810213  1
  Sb  Sb19  1  0.24938011  0.00150566  0.24610494  1
  Sb  Sb20  1  0.49908650  0.00092442  0.50223783  1
  Sb  Sb21  1  0.50311010  0.74831622  0.24500000  1
  Sb  Sb22  1  0.24744252  0.25479465  0.50595083  1
  Sb  Sb23  1  0.49808374  0.74567022  0.75446437  1
  Sb  Sb24  1  0.50314510  0.00701186  -0.00201486  1
  Sb  Sb25  1  0.00228022  0.73968498  0.75301831  1
  Sb  Sb26  1  0.00148269  0.00161086  0.50358750  1
  Sb  Sb27  1  -0.00297954  0.00559717  -0.00332682  1
  Sb  Sb28  1  0.49803353  0.49884537  0.50614624  1
  Sb  Sb29  1  0.75400436  0.74720952  0.50412438  1
  Sb  Sb30  1  0.75214343  0.25240143  0.50648096  1
  Sb  Sb31  1  -0.00257415  0.74777850  0.24638968  1
  Te  Te32  1  0.24980506  0.24686604  0.25003245  1
  Te  Te33  1  0.24947292  0.25003969  0.75058574  1
  Te  Te34  1  0.25056385  0.75244181  0.24754414  1
  Te  Te35  1  0.25080607  0.74989249  0.75259754  1
  Te  Te36  1  0.75051347  0.24678695  0.24638837  1
  Te  Te37  1  0.75080722  0.24985822  0.75037498  1
  Te  Te38  1  0.74922741  0.76099363  0.24248770  1
  Te  Te39  1  0.74885731  0.75179698  0.75612633  1
  Te  Te40  1  0.24975084  -0.01097565  -0.00687789  1
  Te  Te41  1  0.24912958  -0.01003908  0.50888665  1
  Te  Te42  1  0.24908340  0.50417379  -0.00456613  1
  Te  Te43  1  0.24609391  0.50507850  0.50724211  1
  Te  Te44  1  0.75026766  0.00023180  -0.00321438  1
  Te  Te45  1  0.75029241  -0.00416424  0.50300895  1
  Te  Te46  1  0.75101290  0.49917871  -0.00243258  1
  Te  Te47  1  0.75627925  0.50389366  0.51114249  1
  Te  Te48  1  -0.00241176  0.25440632  -0.00143551  1
  Te  Te49  1  0.00079846  0.25772613  0.50051268  1
  Te  Te50  1  -0.00065088  0.74074220  0.00166601  1
  Te  Te51  1  0.00656247  0.74106496  0.49760733  1
  Te  Te52  1  0.50275486  0.25467468  -0.00174019  1
  Te  Te53  1  0.49895865  0.25180240  0.49889069  1
  Te  Te54  1  0.50055511  0.73990440  0.00112944  1
  Te  Te55  1  0.48934809  0.74826420  0.49735598  1
  Te  Te56  1  -0.00578516  0.01008008  0.25164069  1
  Te  Te57  1  -0.00109943  0.01040963  0.74887540  1
  Te  Te58  1  0.00005473  0.49207372  0.24942873  1
  Te  Te59  1  0.00032537  0.49805642  0.75216690  1
  Te  Te60  1  0.50616044  0.00965680  0.25030001  1
  Te  Te61  1  0.50094399  0.00963246  0.75025352  1
  Te  Te62  1  0.49997640  0.49141194  0.24373349  1
  Te  Te63  1  0.49973322  0.49488230  0.75332986  1
