# generated using pymatgen
data_AgSbTe2
_symmetry_space_group_name_H-M   'P 1'
_cell_length_a   12.29553729
_cell_length_b   12.32209286
_cell_length_c   12.27344621
_cell_angle_alpha   90.00792838
_cell_angle_beta   89.98246955
_cell_angle_gamma   90.00374282
_symmetry_Int_Tables_number   1
_chemical_formula_structural   AgSbTe2
_chemical_formula_sum   'Ag16 Sb16 Te32'
_cell_volume   1859.50986498
_cell_formula_units_Z   16
loop_
 _symmetry_equiv_pos_site_id
 _symmetry_equiv_pos_as_xyz
  1  'x, y, z'
loop_
 _atom_site_type_symbol
 _atom_site_label
 _atom_site_symmetry_multiplicity
 _atom_site_fract_x
 _atom_site_fract_y
 _atom_site_fract_z
 _atom_site_occupancy
  Ag  Ag0  1  0.23851275  0.24344352  0.00208723  1
  Ag  Ag1  1  0.74984140  0.23845285  0.48903314  1
  Ag  Ag2  1  0.76002272  0.75559772  0.01533900  1
  Ag  Ag3  1  0.50273106  -0.00019439  0.49802325  1
  Ag  Ag4  1  0.75665716  -0.00670185  0.25873911  1
  Ag  Ag5  1  -0.00837891  0.00167376  0.00708635  1
  Ag  Ag6  1  -0.00329901  -0.00330459  0.49377101  1
  Ag  Ag7  1  0.24632918  0.00192426  0.73862611  1
  Ag  Ag8  1  0.75462099  0.50660426  0.25199266  1
  Ag  Ag9  1  0.76122085  0.24546213  0.01040567  1
  Ag  Ag10  1  0.50524227  0.50017733  0.49538569  1
  Ag  Ag11  1  -0.00899988  0.49704720  0.00895855  1
  Ag  Ag12  1  0.75385965  0.76191473  0.48740700  1
  Ag  Ag13  1  -0.00949621  0.75518921  0.25242418  1
  Ag  Ag14  1  0.24900874  0.23724612  0.49930263  1
  Ag  Ag15  1  0.24634111  0.76497665  0.49697270  1
  Sb  Sb16  1  0.24906600  0.49906534  0.74730090  1
  Sb  Sb17  1  -0.00044865  0.75059131  0.74463504  1
  Sb  Sb18  1  0.50837231  0.75122149  0.25341136  1
  Sb  Sb19  1  0.50038424  0.75234998  0.74745346  1
  Sb  Sb20  1  -0.00035601  0.24926691  0.75035252  1
  Sb  Sb21  1  0.49988366  0.24789277  0.74785177  1
  Sb  Sb22  1  -0.00285417  0.49985871  0.49239686  1
  Sb  Sb23  1  0.50542580  0.49889140  0.00651242  1
  Sb  Sb24  1  0.24300631  0.50108518  0.25061463  1
  Sb  Sb25  1  0.75243132  -0.00075212  0.74619242  1
  Sb  Sb26  1  -0.00275291  0.24428412  0.24944938  1
  Sb  Sb27  1  0.75048526  0.50040947  0.74875879  1
  Sb  Sb28  1  0.24286938  -0.00050853  0.25434352  1
  Sb  Sb29  1  0.23838057  0.75720248  0.00350032  1
  Sb  Sb30  1  0.50465969  0.00009428  0.00411310  1
  Sb  Sb31  1  0.50250703  0.24810188  0.25225438  1
  Te  Te32  1  0.24980232  0.25043417  0.25038558  1
  Te  Te33  1  0.24955587  0.24693572  0.74637335  1
  Te  Te34  1  0.23930497  0.74896111  0.25588618  1
  Te  Te35  1  0.25027150  0.75434035  0.74118122  1
  Te  Te36  1  0.75140707  0.24855824  0.25175231  1
  Te  Te37  1  0.75025525  0.24974903  0.75209475  1
  Te  Te38  1  0.75354399  0.75283998  0.25242206  1
  Te  Te39  1  0.74966069  0.75058064  0.74879157  1
  Te  Te40  1  0.25386297  0.00240581  0.00513622  1
  Te  Te41  1  0.24448644  0.00246995  0.49564783  1
  Te  Te42  1  0.25245670  0.49383903  0.00035318  1
  Te  Te43  1  0.24951818  0.49386239  0.49884870  1
  Te  Te44  1  0.74794481  0.00303043  -0.00606383  1
  Te  Te45  1  0.75633084  0.00179383  0.50279339  1
  Te  Te46  1  0.74951488  0.49539124  0.00047798  1
  Te  Te47  1  0.75283057  0.49710071  0.49870476  1
  Te  Te48  1  -0.00130894  0.24201900  0.00006387  1
  Te  Te49  1  -0.00087539  0.24989942  0.50025777  1
  Te  Te50  1  -0.00197176  0.75936952  0.00164693  1
  Te  Te51  1  -0.00442588  0.74917677  0.49904995  1
  Te  Te52  1  0.49933140  0.25013491  -0.00002585  1
  Te  Te53  1  0.50192076  0.24557564  0.49871620  1
  Te  Te54  1  0.51070641  0.74897385  0.00034045  1
  Te  Te55  1  0.50231769  0.75442336  0.49742938  1
  Te  Te56  1  -0.00539430  -0.00247003  0.25036351  1
  Te  Te57  1  0.00505998  0.00035797  0.74986999  1
  Te  Te58  1  -0.00550827  0.50879574  0.24391176  1
  Te  Te59  1  -0.00017586  0.50127587  0.77132596  1
  Te  Te60  1  0.51497313  -0.00034829  0.25638327  1
  Te  Te61  1  0.48859377  -0.00030246  0.73902528  1
  Te  Te62  1  0.51128894  0.50097385  0.25746292  1
  Te  Te63  1  0.49944756  0.50128868  0.73469821  1
