# generated using pymatgen
data_AgSbTe2
_symmetry_space_group_name_H-M   'P 1'
_cell_length_a   12.20096602
_cell_length_b   12.20202151
_cell_length_c   12.20559833
_cell_angle_alpha   89.99665207
_cell_angle_beta   90.00308099
_cell_angle_gamma   90.00234422
_symmetry_Int_Tables_number   1
_chemical_formula_structural   AgSbTe2
_chemical_formula_sum   'Ag16 Sb16 Te32'
_cell_volume   1817.12613925
_cell_formula_units_Z   16
loop_
 _symmetry_equiv_pos_site_id
 _symmetry_equiv_pos_as_xyz
  1  'x, y, z'
loop_
 _atom_site_type_symbol
 _atom_site_label
 _atom_site_symmetry_multiplicity
 _atom_site_fract_x
 _atom_site_fract_y
 _atom_site_fract_z
 _atom_site_occupancy
  Ag  Ag0  1  0.50150658  0.50231472  0.49983120  1
  Ag  Ag1  1  0.25185754  0.25061783  0.50240162  1
  Ag  Ag2  1  0.49708843  0.25459690  0.74999321  1
  Ag  Ag3  1  0.49952369  0.50039369  0.00000911  1
  Ag  Ag4  1  0.25034848  0.75155712  0.00163742  1
  Ag  Ag5  1  0.74919782  -0.00376118  0.24996556  1
  Ag  Ag6  1  0.74513960  0.50416965  0.25186672  1
  Ag  Ag7  1  0.25268987  0.74939248  0.49830766  1
  Ag  Ag8  1  0.00286784  0.25075453  0.75129606  1
  Ag  Ag9  1  0.25039757  -0.00285310  0.24797824  1
  Ag  Ag10  1  0.25046833  0.24867490  -0.00222684  1
  Ag  Ag11  1  0.50014762  0.74745406  0.25194401  1
  Ag  Ag12  1  0.00087361  0.74926490  0.75037254  1
  Ag  Ag13  1  0.74747567  0.50107814  0.74848682  1
  Ag  Ag14  1  0.74772496  0.74646304  0.49748745  1
  Ag  Ag15  1  0.00323172  -0.00052229  0.00012128  1
  Sb  Sb16  1  0.00120310  -0.00034536  0.49979847  1
  Sb  Sb17  1  0.00263485  0.24894942  0.24804485  1
  Sb  Sb18  1  0.00188845  0.50064083  -0.00279915  1
  Sb  Sb19  1  0.49949833  0.74410855  0.74872712  1
  Sb  Sb20  1  0.24851084  0.00119025  0.75330907  1
  Sb  Sb21  1  0.49901896  -0.00313013  0.49836248  1
  Sb  Sb22  1  0.74931125  0.74885649  0.00280958  1
  Sb  Sb23  1  0.00040289  0.75158809  0.24911208  1
  Sb  Sb24  1  0.25514810  0.50464289  0.25049400  1
  Sb  Sb25  1  0.74704529  0.25388456  0.50156323  1
  Sb  Sb26  1  0.25388228  0.49816160  0.74957828  1
  Sb  Sb27  1  0.75164515  -0.00246984  0.74972433  1
  Sb  Sb28  1  -0.00163312  0.50059702  0.50188397  1
  Sb  Sb29  1  0.49767086  0.25389882  0.25010686  1
  Sb  Sb30  1  0.74931840  0.25062185  -0.00120674  1
  Sb  Sb31  1  0.49607960  -0.00082451  0.00255364  1
  Te  Te32  1  0.25037508  0.24462578  0.25005846  1
  Te  Te33  1  0.24899732  0.24964125  0.74977389  1
  Te  Te34  1  0.25103375  0.75227592  0.25099847  1
  Te  Te35  1  0.24702675  0.75025745  0.74870329  1
  Te  Te36  1  0.75012157  0.24877337  0.25130579  1
  Te  Te37  1  0.75124550  0.25421479  0.74861551  1
  Te  Te38  1  0.74864087  0.74969928  0.25259679  1
  Te  Te39  1  0.75224145  0.74683301  0.74596261  1
  Te  Te40  1  0.24755829  -0.00042640  0.00346784  1
  Te  Te41  1  0.24952651  -0.00155933  0.49313549  1
  Te  Te42  1  0.25465000  0.49992486  0.00097236  1
  Te  Te43  1  0.25530522  0.50136309  0.49872049  1
  Te  Te44  1  0.75564494  -0.00016837  0.00669999  1
  Te  Te45  1  0.75039976  -0.00628816  0.49304208  1
  Te  Te46  1  0.74393496  0.50041189  -0.00015665  1
  Te  Te47  1  0.74622935  0.50298727  0.49980544  1
  Te  Te48  1  0.00635072  0.24754313  -0.00545854  1
  Te  Te49  1  0.00788458  0.24996643  0.50805731  1
  Te  Te50  1  0.00590769  0.75202419  -0.00486833  1
  Te  Te51  1  0.00228041  0.75011832  0.50619953  1
  Te  Te52  1  0.49431304  0.25435595  -0.00325742  1
  Te  Te53  1  0.49535371  0.25538427  0.50337357  1
  Te  Te54  1  0.49451709  0.74630698  0.00196674  1
  Te  Te55  1  0.49820636  0.74659237  0.49833696  1
  Te  Te56  1  0.00021224  -0.00006281  0.24408582  1
  Te  Te57  1  -0.00180614  0.00034319  0.75594988  1
  Te  Te58  1  -0.01188592  0.49960535  0.24950639  1
  Te  Te59  1  -0.00800000  0.49995954  0.75110727  1
  Te  Te60  1  0.50045739  -0.00588738  0.24886700  1
  Te  Te61  1  0.50237149  0.01060373  0.75061543  1
  Te  Te62  1  0.50450603  0.50362618  0.25028009  1
  Te  Te63  1  0.50423543  0.49698894  0.75000235  1
