# generated using pymatgen
data_AgSbTe2
_symmetry_space_group_name_H-M   'P 1'
_cell_length_a   12.21711173
_cell_length_b   12.21809698
_cell_length_c   12.22418298
_cell_angle_alpha   89.99383630
_cell_angle_beta   90.00419798
_cell_angle_gamma   90.00036092
_symmetry_Int_Tables_number   1
_chemical_formula_structural   AgSbTe2
_chemical_formula_sum   'Ag16 Sb16 Te32'
_cell_volume   1824.70201681
_cell_formula_units_Z   16
loop_
 _symmetry_equiv_pos_site_id
 _symmetry_equiv_pos_as_xyz
  1  'x, y, z'
loop_
 _atom_site_type_symbol
 _atom_site_label
 _atom_site_symmetry_multiplicity
 _atom_site_fract_x
 _atom_site_fract_y
 _atom_site_fract_z
 _atom_site_occupancy
  Ag  Ag0  1  0.24761052  0.00314304  0.75461145  1
  Ag  Ag1  1  -0.00031308  0.24591515  0.75606336  1
  Ag  Ag2  1  0.49934645  0.49516781  0.49540120  1
  Ag  Ag3  1  0.49709052  0.00512159  0.00155038  1
  Ag  Ag4  1  -0.00084616  0.24887817  0.24362680  1
  Ag  Ag5  1  0.00110563  0.00542076  0.49824293  1
  Ag  Ag6  1  0.24845082  0.75247324  0.00489176  1
  Ag  Ag7  1  0.00494046  0.75045945  0.24555269  1
  Ag  Ag8  1  0.75368184  0.24863025  0.00158548  1
  Ag  Ag9  1  0.75055510  0.24960654  0.49857250  1
  Ag  Ag10  1  0.00247588  0.49356782  0.00479998  1
  Ag  Ag11  1  0.24958811  0.50037410  0.24731632  1
  Ag  Ag12  1  0.50031421  0.24802964  0.75310390  1
  Ag  Ag13  1  0.49513221  0.74858075  0.24719443  1
  Ag  Ag14  1  0.00322584  0.00665232  0.00134641  1
  Ag  Ag15  1  0.50047537  0.25119150  0.24774535  1
  Sb  Sb16  1  0.24933290  0.24924703  0.49873436  1
  Sb  Sb17  1  0.24738040  -0.00081556  0.24519559  1
  Sb  Sb18  1  0.75054661  0.49487667  0.75083564  1
  Sb  Sb19  1  0.75081338  0.75058455  0.49683110  1
  Sb  Sb20  1  0.24953236  0.75095102  0.49395378  1
  Sb  Sb21  1  0.00032206  0.49435895  0.49505607  1
  Sb  Sb22  1  0.24942856  0.49742804  0.75309744  1
  Sb  Sb23  1  0.49896649  0.00499385  0.49888233  1
  Sb  Sb24  1  0.75260683  0.00493429  0.75111610  1
  Sb  Sb25  1  0.24410422  0.24613955  0.00087109  1
  Sb  Sb26  1  0.75005376  0.49564231  0.24940109  1
  Sb  Sb27  1  0.75101543  0.75088050  0.00267858  1
  Sb  Sb28  1  0.75278760  0.00454697  0.24914416  1
  Sb  Sb29  1  0.49698708  0.49389228  0.00443732  1
  Sb  Sb30  1  0.49601959  0.75229276  0.75270238  1
  Sb  Sb31  1  0.00372738  0.75462497  0.75423111  1
  Te  Te32  1  0.25080795  0.25477334  0.25023989  1
  Te  Te33  1  0.25004602  0.24613482  0.74950917  1
  Te  Te34  1  0.24935746  0.74787324  0.24581666  1
  Te  Te35  1  0.25030827  0.75514127  0.75815559  1
  Te  Te36  1  0.75009690  0.25011958  0.24868295  1
  Te  Te37  1  0.75004921  0.25000275  0.75119242  1
  Te  Te38  1  0.74941718  0.74918197  0.25022709  1
  Te  Te39  1  0.74923994  0.74842106  0.74931762  1
  Te  Te40  1  0.24905472  -0.00364726  -0.00261074  1
  Te  Te41  1  0.24378549  -0.00176240  0.50861006  1
  Te  Te42  1  0.24580850  0.50754760  0.00385834  1
  Te  Te43  1  0.25488418  0.50152900  0.49482440  1
  Te  Te44  1  0.74988310  0.00594581  -0.00017128  1
  Te  Te45  1  0.75677842  0.00706837  0.50064638  1
  Te  Te46  1  0.75779977  0.49345688  -0.00099056  1
  Te  Te47  1  0.74455058  0.49308873  0.50112825  1
  Te  Te48  1  0.00048263  0.24733567  0.00183049  1
  Te  Te49  1  -0.00351837  0.24834439  0.49840122  1
  Te  Te50  1  -0.00027457  0.75260598  0.00365696  1
  Te  Te51  1  -0.00196226  0.75409092  0.49401476  1
  Te  Te52  1  0.50298465  0.24907567  0.00136067  1
  Te  Te53  1  0.50364778  0.24969152  0.49750549  1
  Te  Te54  1  0.50018624  0.75272821  0.00439047  1
  Te  Te55  1  0.50173043  0.74722002  0.49360084  1
  Te  Te56  1  0.00225329  0.00233349  0.24746829  1
  Te  Te57  1  0.00340157  0.00346062  0.75303384  1
  Te  Te58  1  0.00420866  0.49850225  0.24843029  1
  Te  Te59  1  0.00245541  0.49389589  0.75374002  1
  Te  Te60  1  0.49770751  0.00231551  0.24674897  1
  Te  Te61  1  0.49521873  0.00435471  0.75270950  1
  Te  Te62  1  0.49586144  0.49759299  0.25072747  1
  Te  Te63  1  0.49729082  0.49378710  0.74517142  1
