# generated using pymatgen
data_AgSbTe2
_symmetry_space_group_name_H-M   'P 1'
_cell_length_a   12.26604265
_cell_length_b   12.24400537
_cell_length_c   12.26926232
_cell_angle_alpha   90.00288671
_cell_angle_beta   89.99368163
_cell_angle_gamma   89.99764111
_symmetry_Int_Tables_number   1
_chemical_formula_structural   AgSbTe2
_chemical_formula_sum   'Ag16 Sb16 Te32'
_cell_volume   1842.66518357
_cell_formula_units_Z   16
loop_
 _symmetry_equiv_pos_site_id
 _symmetry_equiv_pos_as_xyz
  1  'x, y, z'
loop_
 _atom_site_type_symbol
 _atom_site_label
 _atom_site_symmetry_multiplicity
 _atom_site_fract_x
 _atom_site_fract_y
 _atom_site_fract_z
 _atom_site_occupancy
  Ag  Ag0  1  0.75001932  0.47910493  0.75399952  1
  Ag  Ag1  1  -0.00398209  0.00868994  0.50051469  1
  Ag  Ag2  1  0.51770389  0.00921361  0.00224211  1
  Ag  Ag3  1  0.74588861  0.23328657  -0.01695499  1
  Ag  Ag4  1  -0.01696168  0.00768770  -0.00042551  1
  Ag  Ag5  1  0.25150477  0.48414072  0.24844937  1
  Ag  Ag6  1  0.49586677  0.24415408  0.24268219  1
  Ag  Ag7  1  0.74962835  0.00934299  0.23289199  1
  Ag  Ag8  1  0.25485376  0.24285924  0.00816022  1
  Ag  Ag9  1  0.24881221  0.24567992  0.49225658  1
  Ag  Ag10  1  0.75003721  0.77019077  -0.00147631  1
  Ag  Ag11  1  0.75186648  0.24273256  0.51673950  1
  Ag  Ag12  1  0.75222741  0.01826083  0.76844003  1
  Ag  Ag13  1  0.25138263  0.01256895  0.24607188  1
  Ag  Ag14  1  -0.01815677  0.24450530  0.75161080  1
  Ag  Ag15  1  0.51732185  0.24609285  0.75733403  1
  Sb  Sb16  1  0.50106618  0.48509166  -0.00024195  1
  Sb  Sb17  1  0.74765900  0.48232917  0.24761352  1
  Sb  Sb18  1  0.24938090  0.76009501  0.00213922  1
  Sb  Sb19  1  0.50374297  0.75891096  0.24544631  1
  Sb  Sb20  1  0.25073561  0.48756176  0.75176544  1
  Sb  Sb21  1  0.75206172  0.76048560  0.50029465  1
  Sb  Sb22  1  -0.00201483  0.48679275  -0.00105439  1
  Sb  Sb23  1  -0.00086127  0.48449717  0.50103609  1
  Sb  Sb24  1  0.50034256  0.49166904  0.50018562  1
  Sb  Sb25  1  0.00649464  0.24407832  0.24652097  1
  Sb  Sb26  1  0.50369697  0.00697397  0.49752699  1
  Sb  Sb27  1  -0.00347261  0.75581747  0.24680747  1
  Sb  Sb28  1  0.24788385  0.00793603  0.75344400  1
  Sb  Sb29  1  0.50523659  0.75815810  0.75527315  1
  Sb  Sb30  1  0.24738712  0.75874009  0.49701081  1
  Sb  Sb31  1  -0.00441091  0.75877254  0.75358950  1
  Te  Te32  1  0.24903196  0.24547950  0.24897792  1
  Te  Te33  1  0.25236781  0.25101574  0.74963106  1
  Te  Te34  1  0.25218254  0.75186539  0.24946336  1
  Te  Te35  1  0.25119490  0.74424116  0.74981703  1
  Te  Te36  1  0.74586570  0.24913694  0.24929505  1
  Te  Te37  1  0.74927116  0.24769657  0.74909819  1
  Te  Te38  1  0.74808538  0.75802547  0.24401024  1
  Te  Te39  1  0.74926675  0.75104010  0.75540140  1
  Te  Te40  1  0.24866207  0.00386595  0.00387259  1
  Te  Te41  1  0.24504102  0.00585860  0.49425311  1
  Te  Te42  1  0.24918902  0.49433221  0.00588007  1
  Te  Te43  1  0.24860038  0.49141961  0.49319147  1
  Te  Te44  1  0.75068225  0.00327793  0.00149436  1
  Te  Te45  1  0.75330484  0.00439732  0.49886243  1
  Te  Te46  1  0.75128189  0.49750551  -0.00387048  1
  Te  Te47  1  0.75184707  0.49313143  0.50437130  1
  Te  Te48  1  -0.00025933  0.24359531  -0.00362860  1
  Te  Te49  1  -0.00068544  0.24323389  0.50573589  1
  Te  Te50  1  -0.00643187  0.76435601  -0.00182815  1
  Te  Te51  1  0.00001388  0.76637541  0.50193091  1
  Te  Te52  1  0.49914323  0.24492908  0.00036491  1
  Te  Te53  1  0.49900016  0.24653136  0.50042805  1
  Te  Te54  1  0.50632150  0.76542952  -0.00052693  1
  Te  Te55  1  0.49953914  0.74987018  0.50112181  1
  Te  Te56  1  -0.00186322  0.00217992  0.24796015  1
  Te  Te57  1  -0.00177956  0.00605899  0.75172675  1
  Te  Te58  1  0.00986282  0.50380489  0.25032975  1
  Te  Te59  1  -0.00722849  0.49091190  0.75008738  1
  Te  Te60  1  0.50039399  0.00657283  0.24765814  1
  Te  Te61  1  0.50422872  0.00713093  0.75478618  1
  Te  Te62  1  0.49355731  0.49014672  0.24960525  1
  Te  Te63  1  0.50737121  0.49016302  0.75060593  1
