# generated using pymatgen
data_AgSbTe2
_symmetry_space_group_name_H-M   'P 1'
_cell_length_a   12.32368281
_cell_length_b   12.29420029
_cell_length_c   12.31334109
_cell_angle_alpha   89.98597546
_cell_angle_beta   89.99229955
_cell_angle_gamma   89.99400445
_symmetry_Int_Tables_number   1
_chemical_formula_structural   AgSbTe2
_chemical_formula_sum   'Ag16 Sb16 Te32'
_cell_volume   1865.59206847
_cell_formula_units_Z   16
loop_
 _symmetry_equiv_pos_site_id
 _symmetry_equiv_pos_as_xyz
  1  'x, y, z'
loop_
 _atom_site_type_symbol
 _atom_site_label
 _atom_site_symmetry_multiplicity
 _atom_site_fract_x
 _atom_site_fract_y
 _atom_site_fract_z
 _atom_site_occupancy
  Ag  Ag0  1  0.49923088  0.00819817  0.01400932  1
  Ag  Ag1  1  0.24832962  0.75955430  0.49787927  1
  Ag  Ag2  1  0.24765902  0.24056597  0.00725127  1
  Ag  Ag3  1  0.75080891  0.00661232  0.25034215  1
  Ag  Ag4  1  0.75244865  0.24277202  0.01318457  1
  Ag  Ag5  1  0.50174655  0.00936648  0.48707436  1
  Ag  Ag6  1  0.00366235  0.75757990  0.74885317  1
  Ag  Ag7  1  0.50146793  0.24431133  0.74570280  1
  Ag  Ag8  1  0.50015066  0.47999714  0.49635772  1
  Ag  Ag9  1  0.00039027  0.01088370  0.01470406  1
  Ag  Ag10  1  -0.00012866  0.48135312  0.00345943  1
  Ag  Ag11  1  0.50843285  0.24148375  0.25173836  1
  Ag  Ag12  1  -0.00572216  0.24099864  0.23832386  1
  Ag  Ag13  1  0.24958097  0.00574560  0.24961851  1
  Ag  Ag14  1  0.73899832  0.24235323  0.48814239  1
  Ag  Ag15  1  0.00099919  0.00862556  0.48737267  1
  Sb  Sb16  1  0.00085609  0.75991054  0.24959336  1
  Sb  Sb17  1  0.49877707  0.76024095  0.25055255  1
  Sb  Sb18  1  0.75013451  0.49519158  0.75022977  1
  Sb  Sb19  1  0.75198561  0.75884402  0.00169042  1
  Sb  Sb20  1  0.74886970  0.75808791  0.49901624  1
  Sb  Sb21  1  0.50045183  0.48470743  0.00152735  1
  Sb  Sb22  1  -0.00061457  0.49424078  0.49817173  1
  Sb  Sb23  1  0.74999064  0.00315855  0.75029915  1
  Sb  Sb24  1  0.00089809  0.24845065  0.75278132  1
  Sb  Sb25  1  0.24823693  0.75746210  0.00269281  1
  Sb  Sb26  1  0.25025709  0.49619965  0.74982997  1
  Sb  Sb27  1  0.25002439  0.49150773  0.24974119  1
  Sb  Sb28  1  0.24964440  0.00221781  0.74959298  1
  Sb  Sb29  1  0.25291427  0.24650356  0.49489629  1
  Sb  Sb30  1  0.49906939  0.75337419  0.74777696  1
  Sb  Sb31  1  0.75021217  0.48808374  0.25025832  1
  Te  Te32  1  0.24564944  0.24583688  0.24671704  1
  Te  Te33  1  0.25705430  0.25030265  0.76311994  1
  Te  Te34  1  0.25129483  0.76129261  0.25397028  1
  Te  Te35  1  0.24576700  0.74924525  0.74594694  1
  Te  Te36  1  0.75189113  0.24597692  0.25135148  1
  Te  Te37  1  0.74331663  0.25021505  0.74702980  1
  Te  Te38  1  0.74909078  0.76609498  0.24874256  1
  Te  Te39  1  0.75912007  0.74790404  0.75141262  1
  Te  Te40  1  0.24861225  0.00259249  0.00137771  1
  Te  Te41  1  0.24701377  0.00058696  0.49970848  1
  Te  Te42  1  0.24693496  0.49828525  0.00083170  1
  Te  Te43  1  0.25270091  0.50779260  0.49916856  1
  Te  Te44  1  0.75125913  0.00258185  -0.00060552  1
  Te  Te45  1  0.75024793  0.00412040  0.50103836  1
  Te  Te46  1  0.75293086  0.49413679  0.00103813  1
  Te  Te47  1  0.74602394  0.49279353  0.49911823  1
  Te  Te48  1  -0.00348390  0.24673085  -0.00298305  1
  Te  Te49  1  0.00328586  0.24589855  0.50619204  1
  Te  Te50  1  -0.00042307  0.75654543  -0.00006712  1
  Te  Te51  1  0.00051547  0.75006322  0.49941350  1
  Te  Te52  1  0.50371215  0.24753027  0.00517917  1
  Te  Te53  1  0.49686014  0.24702146  0.49661496  1
  Te  Te54  1  0.50059137  0.76128402  -0.00143785  1
  Te  Te55  1  0.49999255  0.75924002  0.49975288  1
  Te  Te56  1  0.00157354  0.00353376  0.25205480  1
  Te  Te57  1  0.00005472  -0.00156792  0.74643559  1
  Te  Te58  1  -0.00019856  0.48875668  0.24505520  1
  Te  Te59  1  0.00062832  0.50243103  0.75384703  1
  Te  Te60  1  0.49817136  0.00194794  0.24985387  1
  Te  Te61  1  0.49979770  0.00277418  0.74828444  1
  Te  Te62  1  0.50033711  0.49203251  0.25424705  1
  Te  Te63  1  0.49991432  0.49743736  0.74492687  1
