# generated using pymatgen
data_AgSbTe2
_symmetry_space_group_name_H-M   'P 1'
_cell_length_a   12.30534625
_cell_length_b   12.28930141
_cell_length_c   12.29529132
_cell_angle_alpha   89.99986429
_cell_angle_beta   89.99571847
_cell_angle_gamma   90.00253169
_symmetry_Int_Tables_number   1
_chemical_formula_structural   AgSbTe2
_chemical_formula_sum   'Ag16 Sb16 Te32'
_cell_volume   1859.34446853
_cell_formula_units_Z   16
loop_
 _symmetry_equiv_pos_site_id
 _symmetry_equiv_pos_as_xyz
  1  'x, y, z'
loop_
 _atom_site_type_symbol
 _atom_site_label
 _atom_site_symmetry_multiplicity
 _atom_site_fract_x
 _atom_site_fract_y
 _atom_site_fract_z
 _atom_site_occupancy
  Ag  Ag0  1  0.75812780  0.73345557  -0.00262900  1
  Ag  Ag1  1  -0.01890260  0.50936969  -0.00602397  1
  Ag  Ag2  1  0.50979837  0.50316482  0.50100950  1
  Ag  Ag3  1  0.52042155  0.50132200  -0.00031812  1
  Ag  Ag4  1  0.75859008  0.73871972  0.50248006  1
  Ag  Ag5  1  0.50626541  0.26001515  0.24643109  1
  Ag  Ag6  1  0.24100234  0.74123560  -0.01077868  1
  Ag  Ag7  1  0.74695934  0.50067248  0.23011366  1
  Ag  Ag8  1  0.24272544  -0.01287785  0.75090637  1
  Ag  Ag9  1  0.24049700  0.74314823  0.51086425  1
  Ag  Ag10  1  0.24698785  0.50943282  0.75260837  1
  Ag  Ag11  1  0.75352165  0.50401479  0.76713816  1
  Ag  Ag12  1  -0.00850610  0.51176919  0.50703661  1
  Ag  Ag13  1  -0.00005354  -0.01023726  -0.00589919  1
  Ag  Ag14  1  0.00188180  -0.01178165  0.50627048  1
  Ag  Ag15  1  0.75016004  0.27291191  0.00191164  1
  Sb  Sb16  1  0.50219198  0.25462664  0.75154566  1
  Sb  Sb17  1  -0.00354717  0.25463266  0.24799030  1
  Sb  Sb18  1  0.74923774  0.26320810  0.49884033  1
  Sb  Sb19  1  0.49858994  -0.00629277  0.50076358  1
  Sb  Sb20  1  0.49900467  -0.00228457  -0.00124511  1
  Sb  Sb21  1  0.00169911  0.74583113  0.75118079  1
  Sb  Sb22  1  -0.00175217  0.25277038  0.75077660  1
  Sb  Sb23  1  0.25049416  0.25748229  0.50188763  1
  Sb  Sb24  1  0.24940190  -0.00176729  0.24938073  1
  Sb  Sb25  1  0.50208507  0.74526562  0.24955386  1
  Sb  Sb26  1  0.75016337  -0.00120617  0.25004608  1
  Sb  Sb27  1  0.49987343  0.74775312  0.75057840  1
  Sb  Sb28  1  0.75618215  -0.00605228  0.75065879  1
  Sb  Sb29  1  0.25251251  0.50119923  0.24884955  1
  Sb  Sb30  1  0.24918689  0.25818340  -0.00164261  1
  Sb  Sb31  1  -0.00055325  0.74742222  0.24977053  1
  Te  Te32  1  0.26054321  0.24936731  0.25049037  1
  Te  Te33  1  0.25080771  0.25500763  0.74904836  1
  Te  Te34  1  0.25223369  0.75032279  0.24951409  1
  Te  Te35  1  0.24999754  0.74442392  0.75073051  1
  Te  Te36  1  0.74765213  0.25309601  0.24747665  1
  Te  Te37  1  0.74967632  0.25744487  0.75680751  1
  Te  Te38  1  0.74947040  0.74547170  0.24919989  1
  Te  Te39  1  0.74809454  0.74479672  0.75061355  1
  Te  Te40  1  0.24760812  -0.00539739  -0.00036235  1
  Te  Te41  1  0.24847845  -0.00638366  0.50023285  1
  Te  Te42  1  0.24622280  0.50315583  -0.00059342  1
  Te  Te43  1  0.24509437  0.50215501  0.49896282  1
  Te  Te44  1  0.75457157  -0.00962971  -0.00285496  1
  Te  Te45  1  0.75412122  -0.01102871  0.50360819  1
  Te  Te46  1  0.74996873  0.50114649  -0.00126105  1
  Te  Te47  1  0.75311834  0.50200576  0.50462949  1
  Te  Te48  1  -0.00214976  0.25183839  0.00020484  1
  Te  Te49  1  -0.00036303  0.24763992  0.49880468  1
  Te  Te50  1  0.00054980  0.74708568  0.00057456  1
  Te  Te51  1  0.00019181  0.74654426  0.49877545  1
  Te  Te52  1  0.50110034  0.25251307  0.00072986  1
  Te  Te53  1  0.50094743  0.25881322  0.49638169  1
  Te  Te54  1  0.50130615  0.74643199  0.00077704  1
  Te  Te55  1  0.50165527  0.74431854  0.49942357  1
  Te  Te56  1  -0.00117963  0.00332455  0.25007885  1
  Te  Te57  1  0.00513835  0.00418564  0.74995663  1
  Te  Te58  1  -0.00711120  0.49902135  0.25002151  1
  Te  Te59  1  0.00211615  0.49984371  0.74927916  1
  Te  Te60  1  0.50142741  0.01338275  0.25143250  1
  Te  Te61  1  0.48496062  0.00347573  0.74832469  1
  Te  Te62  1  0.50199052  0.49918963  0.24878034  1
  Te  Te63  1  0.49751383  0.50133008  0.75015582  1
