# generated using pymatgen
data_AgSbTe2
_symmetry_space_group_name_H-M   'P 1'
_cell_length_a   12.26391192
_cell_length_b   12.26555767
_cell_length_c   12.23563173
_cell_angle_alpha   90.00021533
_cell_angle_beta   90.00114711
_cell_angle_gamma   90.00366338
_symmetry_Int_Tables_number   1
_chemical_formula_structural   AgSbTe2
_chemical_formula_sum   'Ag16 Sb16 Te32'
_cell_volume   1840.52922375
_cell_formula_units_Z   16
loop_
 _symmetry_equiv_pos_site_id
 _symmetry_equiv_pos_as_xyz
  1  'x, y, z'
loop_
 _atom_site_type_symbol
 _atom_site_label
 _atom_site_symmetry_multiplicity
 _atom_site_fract_x
 _atom_site_fract_y
 _atom_site_fract_z
 _atom_site_occupancy
  Ag  Ag0  1  0.75265701  0.24652415  0.00105011  1
  Ag  Ag1  1  0.74974840  0.49934123  0.24257613  1
  Ag  Ag2  1  0.74981036  0.00545479  0.75865907  1
  Ag  Ag3  1  0.49704003  0.74947678  0.75072714  1
  Ag  Ag4  1  -0.00043372  0.49699774  0.00411801  1
  Ag  Ag5  1  -0.00587891  0.00333024  0.00391194  1
  Ag  Ag6  1  0.50350863  0.24965638  0.75524268  1
  Ag  Ag7  1  -0.00398781  0.24980390  0.75986313  1
  Ag  Ag8  1  0.50315597  0.24990772  0.24488834  1
  Ag  Ag9  1  0.25181485  0.74836026  0.49190536  1
  Ag  Ag10  1  0.00620755  0.74984295  0.24722665  1
  Ag  Ag11  1  0.49315758  0.75003337  0.24984889  1
  Ag  Ag12  1  0.75015863  0.00113507  0.24186235  1
  Ag  Ag13  1  0.24975807  0.50935544  0.24704422  1
  Ag  Ag14  1  0.25031967  -0.00916561  0.24721307  1
  Ag  Ag15  1  0.25064530  0.50145838  0.75264296  1
  Sb  Sb16  1  0.50755318  0.00267864  0.00292731  1
  Sb  Sb17  1  0.00163383  -0.00010713  0.49394908  1
  Sb  Sb18  1  0.74835427  0.75012907  0.49704614  1
  Sb  Sb19  1  -0.00456898  0.25006539  0.23949463  1
  Sb  Sb20  1  0.00158551  0.50008408  0.49412276  1
  Sb  Sb21  1  0.75155835  0.75512308  0.00275966  1
  Sb  Sb22  1  0.24971277  0.74960408  0.00947882  1
  Sb  Sb23  1  0.50118630  0.49752189  0.00346027  1
  Sb  Sb24  1  0.24864766  0.25094680  0.49656069  1
  Sb  Sb25  1  0.24634748  0.25034702  0.00049409  1
  Sb  Sb26  1  0.49839402  0.50097365  0.49785824  1
  Sb  Sb27  1  0.75094420  0.24975185  0.49737622  1
  Sb  Sb28  1  0.49785824  -0.00079579  0.49726832  1
  Sb  Sb29  1  0.00319116  0.74968578  0.75286970  1
  Sb  Sb30  1  0.75009910  0.49490983  0.76115537  1
  Sb  Sb31  1  0.25010063  -0.00312810  0.75595325  1
  Te  Te32  1  0.25944510  0.25297586  0.25134244  1
  Te  Te33  1  0.25713946  0.25260390  0.74909187  1
  Te  Te34  1  0.25484076  0.74691764  0.24987911  1
  Te  Te35  1  0.25472178  0.74919061  0.74483826  1
  Te  Te36  1  0.74587225  0.24628377  0.24920253  1
  Te  Te37  1  0.74474304  0.24930401  0.75131704  1
  Te  Te38  1  0.74551178  0.75320792  0.25117442  1
  Te  Te39  1  0.74226370  0.75494109  0.74736592  1
  Te  Te40  1  0.23527756  0.00277314  0.00858074  1
  Te  Te41  1  0.24819010  -0.00869033  0.48750498  1
  Te  Te42  1  0.23982808  0.49782153  0.00201421  1
  Te  Te43  1  0.24842170  0.50665904  0.49802360  1
  Te  Te44  1  0.75525473  0.00339265  0.00309898  1
  Te  Te45  1  0.75218987  -0.00035311  0.49763186  1
  Te  Te46  1  0.75868730  0.49202212  0.00717866  1
  Te  Te47  1  0.75259608  0.50073088  0.48099311  1
  Te  Te48  1  -0.00470440  0.24979588  -0.00462326  1
  Te  Te49  1  0.00107656  0.24981839  0.52193077  1
  Te  Te50  1  -0.00193129  0.74907871  0.00725444  1
  Te  Te51  1  0.00921428  0.75007116  0.48977893  1
  Te  Te52  1  0.50972784  0.25051731  -0.00164632  1
  Te  Te53  1  0.49937814  0.25025539  0.50352892  1
  Te  Te54  1  0.50089804  0.74936952  -0.00015740  1
  Te  Te55  1  0.49221869  0.74954432  0.49792156  1
  Te  Te56  1  -0.00372903  0.00210437  0.24542238  1
  Te  Te57  1  -0.00140570  -0.00096992  0.75739038  1
  Te  Te58  1  0.00368980  0.49814470  0.24533120  1
  Te  Te59  1  0.00101357  0.50136014  0.75735216  1
  Te  Te60  1  0.50262770  -0.00153247  0.24642180  1
  Te  Te61  1  0.50259324  0.00284472  0.75335300  1
  Te  Te62  1  0.49680953  0.50172088  0.24640711  1
  Te  Te63  1  0.49726044  0.49879329  0.75354203  1
