# generated using pymatgen
data_AgSbTe2
_symmetry_space_group_name_H-M   'P 1'
_cell_length_a   12.26249091
_cell_length_b   12.26014123
_cell_length_c   12.25145893
_cell_angle_alpha   90.00479405
_cell_angle_beta   90.00142163
_cell_angle_gamma   90.00501419
_symmetry_Int_Tables_number   1
_chemical_formula_structural   AgSbTe2
_chemical_formula_sum   'Ag16 Sb16 Te32'
_cell_volume   1841.88273494
_cell_formula_units_Z   16
loop_
 _symmetry_equiv_pos_site_id
 _symmetry_equiv_pos_as_xyz
  1  'x, y, z'
loop_
 _atom_site_type_symbol
 _atom_site_label
 _atom_site_symmetry_multiplicity
 _atom_site_fract_x
 _atom_site_fract_y
 _atom_site_fract_z
 _atom_site_occupancy
  Ag  Ag0  1  0.50033142  0.25870820  0.25053060  1
  Ag  Ag1  1  0.74217708  0.00553620  0.25099013  1
  Ag  Ag2  1  0.73700706  0.49431046  0.24613171  1
  Ag  Ag3  1  0.25838113  0.00292332  0.24885119  1
  Ag  Ag4  1  -0.00339146  0.25656498  0.74987410  1
  Ag  Ag5  1  0.26286928  0.49838252  0.24085813  1
  Ag  Ag6  1  0.00475559  0.49856857  -0.00257103  1
  Ag  Ag7  1  0.49991898  0.74109003  0.75755129  1
  Ag  Ag8  1  0.49703219  0.74053635  0.24283327  1
  Ag  Ag9  1  0.74778794  0.25183911  0.49909609  1
  Ag  Ag10  1  0.49472860  0.50430875  0.00565682  1
  Ag  Ag11  1  0.74759664  0.00543303  0.74897418  1
  Ag  Ag12  1  0.25300224  0.25409475  0.49577796  1
  Ag  Ag13  1  0.25737542  0.74057627  0.00328359  1
  Ag  Ag14  1  0.25448271  0.49841229  0.75906884  1
  Ag  Ag15  1  0.74623375  0.49455822  0.75373088  1
  Sb  Sb16  1  0.74881031  0.25330213  0.00266371  1
  Sb  Sb17  1  0.00394813  0.74649929  0.24500494  1
  Sb  Sb18  1  -0.00033728  0.00313847  0.50131888  1
  Sb  Sb19  1  0.74778662  0.74647075  0.49804905  1
  Sb  Sb20  1  0.50027362  0.49814165  0.49050142  1
  Sb  Sb21  1  0.74073699  0.74519719  0.00073820  1
  Sb  Sb22  1  -0.00006254  0.74218784  0.75603624  1
  Sb  Sb23  1  0.49906579  -0.00472845  0.00217284  1
  Sb  Sb24  1  0.25134561  0.26165912  0.00540476  1
  Sb  Sb25  1  0.00016401  0.49691781  0.50504288  1
  Sb  Sb26  1  0.50050366  0.00262291  0.49785716  1
  Sb  Sb27  1  0.25438435  0.00236960  0.75108375  1
  Sb  Sb28  1  0.00196131  0.00399836  -0.00165377  1
  Sb  Sb29  1  0.25269037  0.74461920  0.49687115  1
  Sb  Sb30  1  0.50242041  0.26176540  0.75081090  1
  Sb  Sb31  1  -0.00068560  0.25313943  0.24896286  1
  Te  Te32  1  0.24810381  0.25248035  0.25251147  1
  Te  Te33  1  0.25429352  0.25038307  0.74398455  1
  Te  Te34  1  0.25553772  0.74613533  0.25122744  1
  Te  Te35  1  0.25504233  0.74867337  0.74846948  1
  Te  Te36  1  0.75193997  0.25126866  0.25260000  1
  Te  Te37  1  0.74481504  0.25410576  0.74583501  1
  Te  Te38  1  0.74044745  0.74995994  0.25173646  1
  Te  Te39  1  0.74386782  0.74673840  0.74931294  1
  Te  Te40  1  0.24841890  -0.01229781  0.00696827  1
  Te  Te41  1  0.24891048  0.00983221  0.49176240  1
  Te  Te42  1  0.25357664  0.50174815  0.00071054  1
  Te  Te43  1  0.24832446  0.49359330  0.49957546  1
  Te  Te44  1  0.75137130  -0.00202612  0.00359766  1
  Te  Te45  1  0.75034768  0.00925360  0.49638158  1
  Te  Te46  1  0.74837248  0.50210526  0.00044194  1
  Te  Te47  1  0.75142591  0.49303470  0.49989847  1
  Te  Te48  1  0.00122879  0.26006757  -0.01127883  1
  Te  Te49  1  -0.00148320  0.25238034  0.51010810  1
  Te  Te50  1  0.01521841  0.73680610  -0.00084457  1
  Te  Te51  1  0.00069633  0.74998313  0.50118428  1
  Te  Te52  1  0.49872105  0.26266098  0.01092395  1
  Te  Te53  1  0.50022738  0.25015738  0.49082222  1
  Te  Te54  1  0.49432067  0.74252452  0.00253539  1
  Te  Te55  1  0.49970467  0.75055913  0.49989257  1
  Te  Te56  1  -0.00489981  0.00024614  0.24647385  1
  Te  Te57  1  -0.00990676  0.00739498  0.75322107  1
  Te  Te58  1  -0.00174029  0.49911790  0.23986349  1
  Te  Te59  1  -0.00238575  0.49740406  0.75497165  1
  Te  Te60  1  0.50289028  -0.00071771  0.24601795  1
  Te  Te61  1  0.50704206  -0.00824936  0.75478708  1
  Te  Te62  1  0.50093276  0.50109004  0.24860292  1
  Te  Te63  1  0.50134356  0.50044289  0.75620253  1
