# generated using pymatgen
data_AgSbTe2
_symmetry_space_group_name_H-M   'P 1'
_cell_length_a   12.22751065
_cell_length_b   12.21808829
_cell_length_c   12.22250549
_cell_angle_alpha   89.99989709
_cell_angle_beta   90.00082550
_cell_angle_gamma   89.99947813
_symmetry_Int_Tables_number   1
_chemical_formula_structural   AgSbTe2
_chemical_formula_sum   'Ag16 Sb16 Te32'
_cell_volume   1826.00326520
_cell_formula_units_Z   16
loop_
 _symmetry_equiv_pos_site_id
 _symmetry_equiv_pos_as_xyz
  1  'x, y, z'
loop_
 _atom_site_type_symbol
 _atom_site_label
 _atom_site_symmetry_multiplicity
 _atom_site_fract_x
 _atom_site_fract_y
 _atom_site_fract_z
 _atom_site_occupancy
  Ag  Ag0  1  -0.00282311  0.75236907  0.24518257  1
  Ag  Ag1  1  0.75353693  0.00509246  0.75440818  1
  Ag  Ag2  1  0.24812984  0.24715281  0.49992095  1
  Ag  Ag3  1  0.50282264  0.00731167  0.00365908  1
  Ag  Ag4  1  -0.00082910  0.75384255  0.75503551  1
  Ag  Ag5  1  0.50299627  0.75337447  0.24593823  1
  Ag  Ag6  1  -0.00056864  0.24638381  0.75651483  1
  Ag  Ag7  1  0.50511114  0.24698410  0.24288306  1
  Ag  Ag8  1  0.74884431  0.00665335  0.24593442  1
  Ag  Ag9  1  0.24552497  0.00537140  0.75354709  1
  Ag  Ag10  1  -0.00495701  0.24800295  0.24320658  1
  Ag  Ag11  1  0.75078520  0.24643782  0.00380722  1
  Ag  Ag12  1  -0.00071355  0.49328176  0.00072521  1
  Ag  Ag13  1  0.24880533  0.24814347  -0.00025809  1
  Ag  Ag14  1  0.50083267  0.49164969  0.00286732  1
  Ag  Ag15  1  0.75178882  0.24675844  0.49627482  1
  Sb  Sb16  1  0.50062967  0.00437224  0.49477968  1
  Sb  Sb17  1  0.50105290  0.24700975  0.75985211  1
  Sb  Sb18  1  0.24981790  0.49605994  0.24643745  1
  Sb  Sb19  1  -0.00399834  0.00949474  -0.00107661  1
  Sb  Sb20  1  -0.00023900  0.49523201  0.49783219  1
  Sb  Sb21  1  0.24776888  0.75480426  -0.00051693  1
  Sb  Sb22  1  0.75208861  0.75543736  0.00172495  1
  Sb  Sb23  1  -0.00045396  0.00497318  0.50091560  1
  Sb  Sb24  1  0.24794917  0.49280160  0.75354541  1
  Sb  Sb25  1  0.50175156  0.75451680  0.75516555  1
  Sb  Sb26  1  0.75025964  0.49054073  0.24598119  1
  Sb  Sb27  1  0.75141238  0.75463026  0.49743989  1
  Sb  Sb28  1  0.25065375  0.00470057  0.24490984  1
  Sb  Sb29  1  0.50031735  0.49480273  0.49538253  1
  Sb  Sb30  1  0.24870405  0.75541269  0.50070477  1
  Sb  Sb31  1  0.75201286  0.49295453  0.75425015  1
  Te  Te32  1  0.24780196  0.24769174  0.24864417  1
  Te  Te33  1  0.24679235  0.24593661  0.75189307  1
  Te  Te34  1  0.24685501  0.75227180  0.25221066  1
  Te  Te35  1  0.24248325  0.75891139  0.74777247  1
  Te  Te36  1  0.75159234  0.24745468  0.24759950  1
  Te  Te37  1  0.75262720  0.24522414  0.75156070  1
  Te  Te38  1  0.75246261  0.75903914  0.25164894  1
  Te  Te39  1  0.75678048  0.75968618  0.74828796  1
  Te  Te40  1  0.25720812  0.00539377  -0.00438587  1
  Te  Te41  1  0.25143147  0.00791032  0.51007256  1
  Te  Te42  1  0.25000100  0.49134599  -0.00039182  1
  Te  Te43  1  0.25117772  0.48807464  0.50178721  1
  Te  Te44  1  0.74670933  0.00426176  0.00062328  1
  Te  Te45  1  0.74915320  0.00732027  0.50023891  1
  Te  Te46  1  0.75001575  0.49166832  -0.00061180  1
  Te  Te47  1  0.74876627  0.48829284  0.50239308  1
  Te  Te48  1  -0.00004001  0.24996409  0.00130463  1
  Te  Te49  1  0.00000395  0.25165759  0.49834331  1
  Te  Te50  1  0.00036524  0.74167165  0.00244951  1
  Te  Te51  1  0.00044618  0.74603825  0.49722306  1
  Te  Te52  1  0.50035251  0.24963261  0.00180779  1
  Te  Te53  1  0.50010689  0.25168981  0.49034568  1
  Te  Te54  1  0.49942522  0.74934657  0.00635091  1
  Te  Te55  1  0.49926679  0.74718858  0.48857443  1
  Te  Te56  1  -0.00341291  0.00009809  0.24944579  1
  Te  Te57  1  -0.00163832  0.00162301  0.75055532  1
  Te  Te58  1  -0.00000217  0.50047909  0.24381112  1
  Te  Te59  1  -0.00006634  0.50017239  0.75696375  1
  Te  Te60  1  0.50176273  0.00205512  0.24614423  1
  Te  Te61  1  0.50272009  -0.00256047  0.75660541  1
  Te  Te62  1  0.49992382  0.49979540  0.24324338  1
  Te  Te63  1  0.49991411  0.50411145  0.76051391  1
