# generated using pymatgen
data_AgSbTe2
_symmetry_space_group_name_H-M   'P 1'
_cell_length_a   12.20095089
_cell_length_b   12.20048540
_cell_length_c   12.20919804
_cell_angle_alpha   89.99494458
_cell_angle_beta   90.00734621
_cell_angle_gamma   90.00346282
_symmetry_Int_Tables_number   1
_chemical_formula_structural   AgSbTe2
_chemical_formula_sum   'Ag16 Sb16 Te32'
_cell_volume   1817.43095621
_cell_formula_units_Z   16
loop_
 _symmetry_equiv_pos_site_id
 _symmetry_equiv_pos_as_xyz
  1  'x, y, z'
loop_
 _atom_site_type_symbol
 _atom_site_label
 _atom_site_symmetry_multiplicity
 _atom_site_fract_x
 _atom_site_fract_y
 _atom_site_fract_z
 _atom_site_occupancy
  Ag  Ag0  1  -0.00465167  0.50269502  0.49717650  1
  Ag  Ag1  1  0.24996006  0.24810998  0.00197413  1
  Ag  Ag2  1  0.50076226  0.24545122  0.25051319  1
  Ag  Ag3  1  0.25011614  0.75208828  0.49783722  1
  Ag  Ag4  1  0.74710369  -0.00287425  0.74705260  1
  Ag  Ag5  1  0.50335748  -0.00291342  0.49899140  1
  Ag  Ag6  1  0.25346334  -0.00011334  0.25053359  1
  Ag  Ag7  1  0.75010148  0.75052859  0.00115897  1
  Ag  Ag8  1  0.75025003  0.24919009  0.49943717  1
  Ag  Ag9  1  -0.00269463  0.50072169  0.00252595  1
  Ag  Ag10  1  -0.00401386  0.74714709  0.25282683  1
  Ag  Ag11  1  0.50097004  -0.00055634  0.00153243  1
  Ag  Ag12  1  0.74989056  0.75078240  0.49895708  1
  Ag  Ag13  1  0.75368753  0.50330620  0.25278560  1
  Ag  Ag14  1  -0.00225435  0.25030666  0.74938109  1
  Ag  Ag15  1  0.50456864  0.75518591  0.74727465  1
  Sb  Sb16  1  0.24629200  0.50140544  0.25054536  1
  Sb  Sb17  1  0.75243682  0.50219654  0.74722208  1
  Sb  Sb18  1  0.74690601  -0.00193906  0.25233961  1
  Sb  Sb19  1  -0.00184047  -0.00067285  0.00070044  1
  Sb  Sb20  1  0.75007663  0.24945294  0.00071768  1
  Sb  Sb21  1  0.24986436  0.75193183  0.00192210  1
  Sb  Sb22  1  0.24812084  0.50021633  0.74959253  1
  Sb  Sb23  1  0.50459028  0.50271923  0.49727016  1
  Sb  Sb24  1  0.50294612  0.50091338  0.00311002  1
  Sb  Sb25  1  0.24984053  0.24799633  0.49802411  1
  Sb  Sb26  1  -0.00430119  0.75000769  0.74750890  1
  Sb  Sb27  1  0.25303818  -0.00058186  0.74889133  1
  Sb  Sb28  1  0.50271598  0.24456022  0.74967601  1
  Sb  Sb29  1  -0.00120452  0.25285109  0.25028614  1
  Sb  Sb30  1  -0.00355071  -0.00243556  0.49907834  1
  Sb  Sb31  1  0.50278933  0.75466077  0.25253409  1
  Te  Te32  1  0.25379380  0.24536271  0.24700237  1
  Te  Te33  1  0.24466506  0.24898576  0.75519604  1
  Te  Te34  1  0.24712127  0.75338578  0.25425019  1
  Te  Te35  1  0.25504922  0.75120303  0.74382873  1
  Te  Te36  1  0.74691531  0.25214750  0.25422049  1
  Te  Te37  1  0.75301612  0.24551724  0.74527909  1
  Te  Te38  1  0.75243840  0.74821181  0.25155085  1
  Te  Te39  1  0.74807686  0.75369828  0.74838221  1
  Te  Te40  1  0.25558786  0.00297455  0.00412930  1
  Te  Te41  1  0.25544986  -0.00407300  0.49638410  1
  Te  Te42  1  0.24357605  0.49498691  0.00102608  1
  Te  Te43  1  0.24293016  0.50599618  0.49887477  1
  Te  Te44  1  0.74531195  -0.00417628  -0.00246821  1
  Te  Te45  1  0.74612675  -0.00152738  0.50157046  1
  Te  Te46  1  0.75446972  0.50458429  0.00460307  1
  Te  Te47  1  0.75365176  0.50155679  0.49676217  1
  Te  Te48  1  0.00245649  0.25419378  -0.00174064  1
  Te  Te49  1  -0.00291289  0.25411101  0.50204677  1
  Te  Te50  1  -0.00280179  0.74573781  0.00202141  1
  Te  Te51  1  -0.00283021  0.74698753  0.49867388  1
  Te  Te52  1  0.49746387  0.24641478  0.00167871  1
  Te  Te53  1  0.50272017  0.24619330  0.49801877  1
  Te  Te54  1  0.50283279  0.75319738  -0.00216266  1
  Te  Te55  1  0.50276559  0.75308384  0.50104372  1
  Te  Te56  1  0.00658492  -0.00606363  0.24944614  1
  Te  Te57  1  -0.00691754  0.00618565  0.75067064  1
  Te  Te58  1  -0.00396386  0.50344376  0.25092477  1
  Te  Te59  1  -0.00113444  0.49477594  0.75007568  1
  Te  Te60  1  0.49721069  0.00329541  0.25013856  1
  Te  Te61  1  0.50411884  -0.00298173  0.74920975  1
  Te  Te62  1  0.50691047  0.49201824  0.24955273  1
  Te  Te63  1  0.49997983  0.50823453  0.75043276  1
