# generated using pymatgen
data_AgSbTe2
_symmetry_space_group_name_H-M   'P 1'
_cell_length_a   12.21374751
_cell_length_b   12.21866011
_cell_length_c   12.20839193
_cell_angle_alpha   89.99943178
_cell_angle_beta   90.00046066
_cell_angle_gamma   90.00323873
_symmetry_Int_Tables_number   1
_chemical_formula_structural   AgSbTe2
_chemical_formula_sum   'Ag16 Sb16 Te32'
_cell_volume   1821.92705227
_cell_formula_units_Z   16
loop_
 _symmetry_equiv_pos_site_id
 _symmetry_equiv_pos_as_xyz
  1  'x, y, z'
loop_
 _atom_site_type_symbol
 _atom_site_label
 _atom_site_symmetry_multiplicity
 _atom_site_fract_x
 _atom_site_fract_y
 _atom_site_fract_z
 _atom_site_occupancy
  Ag  Ag0  1  0.74919222  0.49819305  0.24668947  1
  Ag  Ag1  1  0.75229747  0.00184375  0.24954314  1
  Ag  Ag2  1  0.00241860  0.24796568  0.75005282  1
  Ag  Ag3  1  0.49851882  0.49502446  0.49676654  1
  Ag  Ag4  1  0.49621188  0.00581111  0.49878735  1
  Ag  Ag5  1  0.50356270  0.49693672  0.00393219  1
  Ag  Ag6  1  -0.00231103  0.75090154  0.24821992  1
  Ag  Ag7  1  0.25073648  0.49622632  0.25169489  1
  Ag  Ag8  1  0.24823229  0.00431617  0.25361853  1
  Ag  Ag9  1  0.25307984  0.24758283  0.49862395  1
  Ag  Ag10  1  0.00007537  0.24921228  0.24966736  1
  Ag  Ag11  1  0.74945089  0.25217018  0.00418797  1
  Ag  Ag12  1  0.49771439  0.24942695  0.74760559  1
  Ag  Ag13  1  0.00013471  0.75144113  0.75145806  1
  Ag  Ag14  1  0.75152605  0.74799875  0.00417145  1
  Ag  Ag15  1  0.24948194  0.00476175  0.74618256  1
  Sb  Sb16  1  0.24779215  0.74785014  0.00154584  1
  Sb  Sb17  1  0.49906450  0.25162927  0.25260056  1
  Sb  Sb18  1  0.49958903  0.75194680  0.75189782  1
  Sb  Sb19  1  0.75054022  0.74970455  0.49567377  1
  Sb  Sb20  1  0.74890437  0.49911439  0.75367847  1
  Sb  Sb21  1  0.50138279  0.00412300  0.00138676  1
  Sb  Sb22  1  -0.00443687  0.49902143  0.00371023  1
  Sb  Sb23  1  0.74683460  0.25052450  0.49530731  1
  Sb  Sb24  1  0.25044864  0.75272238  0.49870879  1
  Sb  Sb25  1  -0.00125216  0.00112780  0.00232905  1
  Sb  Sb26  1  0.00169858  0.49739178  0.49629009  1
  Sb  Sb27  1  0.25098819  0.49550172  0.74698602  1
  Sb  Sb28  1  0.50359467  0.74842551  0.24872211  1
  Sb  Sb29  1  0.75120706  0.00164093  0.74867065  1
  Sb  Sb30  1  0.00436404  0.00258114  0.49766671  1
  Sb  Sb31  1  0.25057068  0.25199620  0.00156853  1
  Te  Te32  1  0.24725739  0.24862073  0.25060580  1
  Te  Te33  1  0.24795691  0.24732502  0.74948164  1
  Te  Te34  1  0.24193018  0.75123486  0.24932648  1
  Te  Te35  1  0.24322704  0.75639971  0.75042924  1
  Te  Te36  1  0.75316119  0.25013843  0.24812258  1
  Te  Te37  1  0.75282130  0.24881913  0.75475224  1
  Te  Te38  1  0.75413757  0.74993132  0.24662698  1
  Te  Te39  1  0.75703185  0.75086395  0.75645173  1
  Te  Te40  1  0.25253827  -0.00037985  0.00285643  1
  Te  Te41  1  0.25420927  0.00320816  0.49748414  1
  Te  Te42  1  0.25932578  0.50015024  0.00790367  1
  Te  Te43  1  0.25559255  0.49522088  0.49524301  1
  Te  Te44  1  0.74837694  0.00098913  0.00685795  1
  Te  Te45  1  0.74046862  0.00014558  0.49319209  1
  Te  Te46  1  0.74637942  0.49834794  0.00412781  1
  Te  Te47  1  0.74162052  0.49970819  0.49153973  1
  Te  Te48  1  -0.00528348  0.25085519  -0.00058485  1
  Te  Te49  1  0.00548842  0.25082261  0.50125800  1
  Te  Te50  1  -0.00558019  0.74890272  0.00080105  1
  Te  Te51  1  -0.00063750  0.74868883  0.50103188  1
  Te  Te52  1  0.50432330  0.25394122  -0.00562529  1
  Te  Te53  1  0.49713467  0.25009212  0.50286927  1
  Te  Te54  1  0.50788346  0.74248779  -0.00198924  1
  Te  Te55  1  0.50010298  0.74825761  0.50190205  1
  Te  Te56  1  0.00094412  0.00128181  0.25148919  1
  Te  Te57  1  0.00327628  0.00302376  0.74840826  1
  Te  Te58  1  0.00016586  0.49871913  0.25043553  1
  Te  Te59  1  0.00122775  0.49839872  0.74901194  1
  Te  Te60  1  0.49744723  -0.00062651  0.25308419  1
  Te  Te61  1  0.49685764  0.00320993  0.74658743  1
  Te  Te62  1  0.49988579  0.50030063  0.25058302  1
  Te  Te63  1  0.49911577  0.49580678  0.74779155  1
