# generated using pymatgen
data_AgSbTe2
_symmetry_space_group_name_H-M   'P 1'
_cell_length_a   12.20755617
_cell_length_b   12.21112857
_cell_length_c   12.21477878
_cell_angle_alpha   90.00319733
_cell_angle_beta   89.99715746
_cell_angle_gamma   89.99812586
_symmetry_Int_Tables_number   1
_chemical_formula_structural   AgSbTe2
_chemical_formula_sum   'Ag16 Sb16 Te32'
_cell_volume   1820.83310053
_cell_formula_units_Z   16
loop_
 _symmetry_equiv_pos_site_id
 _symmetry_equiv_pos_as_xyz
  1  'x, y, z'
loop_
 _atom_site_type_symbol
 _atom_site_label
 _atom_site_symmetry_multiplicity
 _atom_site_fract_x
 _atom_site_fract_y
 _atom_site_fract_z
 _atom_site_occupancy
  Ag  Ag0  1  0.50401036  0.00060077  -0.00284642  1
  Ag  Ag1  1  0.50288401  0.50497800  0.50208524  1
  Ag  Ag2  1  0.50246797  0.24620778  0.75018693  1
  Ag  Ag3  1  0.50304434  0.75371452  0.25539776  1
  Ag  Ag4  1  0.74386993  -0.00002094  0.75003643  1
  Ag  Ag5  1  0.25426332  0.49994121  0.74997776  1
  Ag  Ag6  1  -0.00421067  0.00407692  0.00265927  1
  Ag  Ag7  1  -0.00282279  0.24650189  0.24622620  1
  Ag  Ag8  1  0.25088804  -0.00006562  0.25009546  1
  Ag  Ag9  1  0.74916730  0.49986716  0.24958304  1
  Ag  Ag10  1  0.75176559  0.24655261  0.00054399  1
  Ag  Ag11  1  -0.00322574  0.49630396  0.00137964  1
  Ag  Ag12  1  0.50441679  -0.00603357  0.50271199  1
  Ag  Ag13  1  0.74270487  0.75349338  0.49974005  1
  Ag  Ag14  1  -0.00357163  -0.00001275  0.49770002  1
  Ag  Ag15  1  0.50259849  0.75403326  0.74441299  1
  Sb  Sb16  1  0.25173451  0.75098126  -0.00020667  1
  Sb  Sb17  1  -0.00290341  0.49983151  0.49919168  1
  Sb  Sb18  1  -0.00230791  0.75216142  0.74821344  1
  Sb  Sb19  1  0.50233658  0.24616702  0.24921953  1
  Sb  Sb20  1  0.74811706  0.24611797  0.50011633  1
  Sb  Sb21  1  -0.00281622  0.24741113  0.75338527  1
  Sb  Sb22  1  0.74729312  0.75337097  -0.00017397  1
  Sb  Sb23  1  0.74637500  0.50026109  0.75042540  1
  Sb  Sb24  1  0.24883199  0.24855730  -0.00028507  1
  Sb  Sb25  1  0.25117871  0.50031348  0.25011105  1
  Sb  Sb26  1  0.50225104  0.49871551  -0.00088778  1
  Sb  Sb27  1  0.25918054  0.75132302  0.50013806  1
  Sb  Sb28  1  0.25708881  -0.00015100  0.74986412  1
  Sb  Sb29  1  -0.00310719  0.75374095  0.25149434  1
  Sb  Sb30  1  0.74967344  -0.00007223  0.24996303  1
  Sb  Sb31  1  0.25138872  0.24875177  0.50035109  1
  Te  Te32  1  0.24330512  0.24472391  0.25009212  1
  Te  Te33  1  0.25797028  0.25544478  0.75013162  1
  Te  Te34  1  0.25811137  0.75525324  0.24973362  1
  Te  Te35  1  0.25796191  0.74444754  0.75021748  1
  Te  Te36  1  0.75376620  0.25555343  0.24509261  1
  Te  Te37  1  0.74549235  0.24541391  0.75484825  1
  Te  Te38  1  0.74482197  0.74437764  0.25416443  1
  Te  Te39  1  0.74444427  0.75458023  0.74550656  1
  Te  Te40  1  0.24915628  0.00046339  0.00340377  1
  Te  Te41  1  0.24965247  -0.00027741  0.49653396  1
  Te  Te42  1  0.24382692  0.49982262  -0.00303267  1
  Te  Te43  1  0.25456204  0.50010851  0.50350404  1
  Te  Te44  1  0.75026035  0.00232562  -0.00162798  1
  Te  Te45  1  0.74772295  -0.00197180  0.50183919  1
  Te  Te46  1  0.75392540  0.49661007  0.00244918  1
  Te  Te47  1  0.74702895  0.50342671  0.49743746  1
  Te  Te48  1  -0.00436287  0.24652145  0.00201995  1
  Te  Te49  1  -0.00141262  0.24424167  0.49504002  1
  Te  Te50  1  -0.00091104  0.75248738  0.00018205  1
  Te  Te51  1  -0.00955723  0.75607019  0.49995709  1
  Te  Te52  1  0.50532479  0.24588859  -0.00267016  1
  Te  Te53  1  0.50169602  0.24930227  0.50377722  1
  Te  Te54  1  0.50164854  0.75527590  0.00006261  1
  Te  Te55  1  0.50336211  0.75221640  0.50026544  1
  Te  Te56  1  0.00076083  0.00124209  0.24833721  1
  Te  Te57  1  -0.00255859  0.00040866  0.75104671  1
  Te  Te58  1  -0.00127858  0.49759734  0.24732337  1
  Te  Te59  1  0.00418121  0.49984589  0.75341369  1
  Te  Te60  1  0.49879496  -0.00044808  0.25074257  1
  Te  Te61  1  0.49950354  -0.00060599  0.74937860  1
  Te  Te62  1  0.50118098  0.50168482  0.25179528  1
  Te  Te63  1  0.49905416  0.50034930  0.74822449  1
