# generated using pymatgen
data_AgSbTe2
_symmetry_space_group_name_H-M   'P 1'
_cell_length_a   12.21662572
_cell_length_b   12.22060945
_cell_length_c   12.20877653
_cell_angle_alpha   89.99723807
_cell_angle_beta   90.00627018
_cell_angle_gamma   89.99958195
_symmetry_Int_Tables_number   1
_chemical_formula_structural   AgSbTe2
_chemical_formula_sum   'Ag16 Sb16 Te32'
_cell_volume   1822.70453742
_cell_formula_units_Z   16
loop_
 _symmetry_equiv_pos_site_id
 _symmetry_equiv_pos_as_xyz
  1  'x, y, z'
loop_
 _atom_site_type_symbol
 _atom_site_label
 _atom_site_symmetry_multiplicity
 _atom_site_fract_x
 _atom_site_fract_y
 _atom_site_fract_z
 _atom_site_occupancy
  Ag  Ag0  1  0.00205823  0.00371057  0.00452891  1
  Ag  Ag1  1  0.24627905  0.50282478  0.24901828  1
  Ag  Ag2  1  0.75284831  0.49599532  0.74870536  1
  Ag  Ag3  1  0.00198347  0.25139750  0.24452294  1
  Ag  Ag4  1  0.49572161  0.74932219  0.24978679  1
  Ag  Ag5  1  0.00491347  0.74843863  0.24465138  1
  Ag  Ag6  1  0.75336128  0.25428178  0.49977289  1
  Ag  Ag7  1  -0.00369751  0.25261352  0.75451418  1
  Ag  Ag8  1  0.24531975  0.75063754  0.00868125  1
  Ag  Ag9  1  0.24720946  -0.00262752  0.24626133  1
  Ag  Ag10  1  0.24048516  0.24868759  0.00526013  1
  Ag  Ag11  1  0.50021330  0.00048382  0.49485697  1
  Ag  Ag12  1  0.75442729  0.74920026  0.00320113  1
  Ag  Ag13  1  -0.00196976  0.49631319  0.49630379  1
  Ag  Ag14  1  0.75906203  0.25099815  0.00002712  1
  Ag  Ag15  1  0.50190279  0.49937045  0.49629195  1
  Sb  Sb16  1  0.24765348  0.49778347  0.75074830  1
  Sb  Sb17  1  -0.00174611  0.74665052  0.75625154  1
  Sb  Sb18  1  0.75092269  0.74654177  0.49716957  1
  Sb  Sb19  1  0.24641876  0.25088043  0.49495371  1
  Sb  Sb20  1  0.75375419  0.49900995  0.25194434  1
  Sb  Sb21  1  0.75242018  0.00033962  0.24920216  1
  Sb  Sb22  1  0.49795734  -0.00090436  0.00443991  1
  Sb  Sb23  1  0.00000186  0.00282662  0.49485755  1
  Sb  Sb24  1  0.25015127  0.74929321  0.49033295  1
  Sb  Sb25  1  0.50121263  0.74780764  0.74986287  1
  Sb  Sb26  1  0.75198591  0.00373566  0.75100970  1
  Sb  Sb27  1  0.49749634  0.25065688  0.25167933  1
  Sb  Sb28  1  -0.00038098  0.49457636  0.00477031  1
  Sb  Sb29  1  0.50317576  0.25214825  0.74906769  1
  Sb  Sb30  1  0.24772754  0.00187469  0.75356762  1
  Sb  Sb31  1  0.50076258  0.50082909  0.00492070  1
  Te  Te32  1  0.24704402  0.25066145  0.24606757  1
  Te  Te33  1  0.24343145  0.25109190  0.75940233  1
  Te  Te34  1  0.24778585  0.74896011  0.24696821  1
  Te  Te35  1  0.24975740  0.74948547  0.76325199  1
  Te  Te36  1  0.75479199  0.25039349  0.24774785  1
  Te  Te37  1  0.75331457  0.25341321  0.75198232  1
  Te  Te38  1  0.75117382  0.74974805  0.24450683  1
  Te  Te39  1  0.75008665  0.74364362  0.75814897  1
  Te  Te40  1  0.24802730  0.00141154  0.00368467  1
  Te  Te41  1  0.25389006  0.00029249  0.49457575  1
  Te  Te42  1  0.25141170  0.49971442  0.00398826  1
  Te  Te43  1  0.25034954  0.49957521  0.49652188  1
  Te  Te44  1  0.75296476  0.00168186  0.00021012  1
  Te  Te45  1  0.74632268  0.00534656  0.50012095  1
  Te  Te46  1  0.74851474  0.49791770  -0.00349513  1
  Te  Te47  1  0.75060822  0.49722324  0.50072082  1
  Te  Te48  1  -0.00165539  0.25087379  0.00329724  1
  Te  Te49  1  -0.00353812  0.25106539  0.49795803  1
  Te  Te50  1  -0.00040796  0.75237016  0.00265885  1
  Te  Te51  1  -0.00111333  0.74715212  0.49498886  1
  Te  Te52  1  0.50277593  0.24890431  -0.00021881  1
  Te  Te53  1  0.50546435  0.25214836  0.49916859  1
  Te  Te54  1  0.50106372  0.75090439  0.00565091  1
  Te  Te55  1  0.50066410  0.74853128  0.49477498  1
  Te  Te56  1  0.00348726  0.00013431  0.24694794  1
  Te  Te57  1  0.00026936  0.00605898  0.75550825  1
  Te  Te58  1  0.00303949  0.49966738  0.25421453  1
  Te  Te59  1  -0.00315006  0.49592018  0.74140823  1
  Te  Te60  1  0.49482290  -0.00383411  0.25421090  1
  Te  Te61  1  0.49977256  -0.00019754  0.73889847  1
  Te  Te62  1  0.49506142  0.50357449  0.25517900  1
  Te  Te63  1  0.50433765  0.50046863  0.73978800  1
