# generated using pymatgen
data_AgSbTe2
_symmetry_space_group_name_H-M   'P 1'
_cell_length_a   12.20575692
_cell_length_b   12.21477481
_cell_length_c   12.20392837
_cell_angle_alpha   90.00557795
_cell_angle_beta   90.01983145
_cell_angle_gamma   89.99274730
_symmetry_Int_Tables_number   1
_chemical_formula_structural   AgSbTe2
_chemical_formula_sum   'Ag16 Sb16 Te32'
_cell_volume   1819.49053260
_cell_formula_units_Z   16
loop_
 _symmetry_equiv_pos_site_id
 _symmetry_equiv_pos_as_xyz
  1  'x, y, z'
loop_
 _atom_site_type_symbol
 _atom_site_label
 _atom_site_symmetry_multiplicity
 _atom_site_fract_x
 _atom_site_fract_y
 _atom_site_fract_z
 _atom_site_occupancy
  Ag  Ag0  1  0.24735911  0.49982776  0.24639394  1
  Ag  Ag1  1  0.74925151  -0.00216516  0.25312176  1
  Ag  Ag2  1  0.00214100  0.25433469  0.74978874  1
  Ag  Ag3  1  0.24547824  0.00156414  0.75178163  1
  Ag  Ag4  1  0.75288215  0.24829747  0.50006006  1
  Ag  Ag5  1  0.00357553  0.49969958  -0.00505506  1
  Ag  Ag6  1  0.50205299  0.75258045  0.25007360  1
  Ag  Ag7  1  -0.00235737  0.74955998  0.25298456  1
  Ag  Ag8  1  0.49890845  0.00120757  0.00342106  1
  Ag  Ag9  1  0.75904246  0.49984690  0.74920049  1
  Ag  Ag10  1  0.75503315  0.75207234  0.49760090  1
  Ag  Ag11  1  0.49999903  0.24775140  0.24856176  1
  Ag  Ag12  1  -0.00333884  -0.00241786  0.50120449  1
  Ag  Ag13  1  0.24882499  0.25228194  -0.00193660  1
  Ag  Ag14  1  -0.00019922  0.74578974  0.74770300  1
  Ag  Ag15  1  0.24104080  0.49766074  0.75418181  1
  Sb  Sb16  1  0.24467331  0.75110607  0.49974327  1
  Sb  Sb17  1  -0.00122326  0.50278767  0.50640105  1
  Sb  Sb18  1  0.50320889  -0.00006282  0.49693820  1
  Sb  Sb19  1  0.24919487  0.74723041  -0.00005236  1
  Sb  Sb20  1  0.50093610  0.50014102  0.49877993  1
  Sb  Sb21  1  0.24694684  0.24880608  0.50182304  1
  Sb  Sb22  1  0.49858823  0.24869056  0.75088329  1
  Sb  Sb23  1  0.00134913  0.00072637  -0.00072350  1
  Sb  Sb24  1  0.75347373  0.50171934  0.25088054  1
  Sb  Sb25  1  0.75129556  0.25011399  -0.00011453  1
  Sb  Sb26  1  -0.00006949  0.25153041  0.25142468  1
  Sb  Sb27  1  0.49635885  0.49812105  0.00195359  1
  Sb  Sb28  1  0.75102295  0.75005343  0.00213630  1
  Sb  Sb29  1  0.75500749  0.00006656  0.74683081  1
  Sb  Sb30  1  0.25040551  0.00050385  0.24788180  1
  Sb  Sb31  1  0.50124498  0.75116110  0.74910636  1
  Te  Te32  1  0.25240653  0.25304759  0.24767403  1
  Te  Te33  1  0.24787157  0.25250961  0.75162482  1
  Te  Te34  1  0.24893352  0.74605315  0.25081693  1
  Te  Te35  1  0.24567027  0.74817586  0.74932303  1
  Te  Te36  1  0.74755368  0.24903987  0.25377395  1
  Te  Te37  1  0.75259073  0.25189343  0.74616851  1
  Te  Te38  1  0.75185906  0.75054579  0.25331415  1
  Te  Te39  1  0.75340306  0.74805751  0.74537884  1
  Te  Te40  1  0.25264479  0.00582851  -0.00404306  1
  Te  Te41  1  0.24347145  0.00063726  0.50692296  1
  Te  Te42  1  0.24649381  0.49607681  -0.00179391  1
  Te  Te43  1  0.25028189  0.49944576  0.50092798  1
  Te  Te44  1  0.74468938  0.00105217  0.00657394  1
  Te  Te45  1  0.75338916  -0.00034118  0.49673418  1
  Te  Te46  1  0.75641383  0.49919270  -0.00710167  1
  Te  Te47  1  0.75002163  0.49929142  0.50494331  1
  Te  Te48  1  0.00453709  0.25291032  -0.00441898  1
  Te  Te49  1  -0.00464086  0.24395210  0.50349859  1
  Te  Te50  1  -0.00005215  0.74616401  -0.00068432  1
  Te  Te51  1  -0.00420444  0.75387440  0.49967822  1
  Te  Te52  1  0.49561732  0.24688336  0.00424791  1
  Te  Te53  1  0.50727189  0.24898622  0.49369230  1
  Te  Te54  1  0.50005334  0.75591782  0.00763177  1
  Te  Te55  1  0.50858573  0.75111389  0.49284907  1
  Te  Te56  1  -0.00181808  -0.00428049  0.25132458  1
  Te  Te57  1  0.00208413  -0.00114209  0.74923890  1
  Te  Te58  1  0.00325887  0.50360866  0.24550953  1
  Te  Te59  1  0.00185147  0.50080396  0.75035714  1
  Te  Te60  1  0.50108004  -0.00063832  0.24753394  1
  Te  Te61  1  0.49354776  -0.00137006  0.75554752  1
  Te  Te62  1  0.49553307  0.50049988  0.24829456  1
  Te  Te63  1  0.49749281  0.50162331  0.75148268  1
