# generated using pymatgen
data_AgSbTe2
_symmetry_space_group_name_H-M   'P 1'
_cell_length_a   12.25201242
_cell_length_b   12.26154710
_cell_length_c   12.25553201
_cell_angle_alpha   89.99621621
_cell_angle_beta   89.99689603
_cell_angle_gamma   90.00586899
_symmetry_Int_Tables_number   1
_chemical_formula_structural   AgSbTe2
_chemical_formula_sum   'Ag16 Sb16 Te32'
_cell_volume   1841.13173551
_cell_formula_units_Z   16
loop_
 _symmetry_equiv_pos_site_id
 _symmetry_equiv_pos_as_xyz
  1  'x, y, z'
loop_
 _atom_site_type_symbol
 _atom_site_label
 _atom_site_symmetry_multiplicity
 _atom_site_fract_x
 _atom_site_fract_y
 _atom_site_fract_z
 _atom_site_occupancy
  Ag  Ag0  1  0.49941040  0.49642002  0.50486382  1
  Ag  Ag1  1  0.74932741  0.26639241  0.49776790  1
  Ag  Ag2  1  0.00818627  0.74100560  0.74707416  1
  Ag  Ag3  1  0.24764984  0.73353597  0.50900855  1
  Ag  Ag4  1  -0.00251409  0.25889425  0.25493707  1
  Ag  Ag5  1  0.49642398  0.25775472  0.74105162  1
  Ag  Ag6  1  0.24887522  -0.00520007  0.74574675  1
  Ag  Ag7  1  0.24465282  0.74227954  -0.00948017  1
  Ag  Ag8  1  0.75109236  0.50066123  0.73408198  1
  Ag  Ag9  1  0.00460066  0.50224773  -0.00064762  1
  Ag  Ag10  1  0.75361991  0.00268675  0.25617896  1
  Ag  Ag11  1  0.75148806  0.73311863  0.50198505  1
  Ag  Ag12  1  0.24467308  0.49914418  0.26285630  1
  Ag  Ag13  1  0.24801692  0.50541308  0.73693372  1
  Ag  Ag14  1  0.25128423  0.26659969  0.50372010  1
  Ag  Ag15  1  0.75592578  0.49663295  0.26640586  1
  Sb  Sb16  1  0.00041702  -0.00034834  0.50026276  1
  Sb  Sb17  1  0.24561115  0.00190324  0.25339932  1
  Sb  Sb18  1  0.50068627  0.74735753  0.25346216  1
  Sb  Sb19  1  0.49560494  0.49975028  -0.00514399  1
  Sb  Sb20  1  0.00019715  0.50041879  0.50023712  1
  Sb  Sb21  1  0.49072225  0.74142682  0.74585429  1
  Sb  Sb22  1  0.49904854  0.00548243  0.50217159  1
  Sb  Sb23  1  0.24691890  0.25813421  -0.00316051  1
  Sb  Sb24  1  0.00207505  -0.00369670  -0.00039800  1
  Sb  Sb25  1  0.00159159  0.26174061  0.74408849  1
  Sb  Sb26  1  0.75172518  0.25329130  0.00339532  1
  Sb  Sb27  1  0.75731202  0.74540881  -0.00517520  1
  Sb  Sb28  1  0.50209407  0.25402608  0.25944467  1
  Sb  Sb29  1  0.75191019  -0.00093441  0.74363270  1
  Sb  Sb30  1  -0.00030181  0.73861440  0.25385603  1
  Sb  Sb31  1  0.49851044  -0.00012272  -0.00189817  1
  Te  Te32  1  0.24946428  0.25109507  0.25570510  1
  Te  Te33  1  0.24517394  0.25542007  0.74513417  1
  Te  Te34  1  0.24781227  0.74765877  0.25701710  1
  Te  Te35  1  0.25006081  0.74389715  0.74273041  1
  Te  Te36  1  0.74985951  0.25870471  0.25504857  1
  Te  Te37  1  0.75444593  0.25127410  0.74257566  1
  Te  Te38  1  0.75214296  0.74314708  0.25752260  1
  Te  Te39  1  0.75398773  0.74876856  0.74563261  1
  Te  Te40  1  0.24980323  -0.01098847  -0.00414839  1
  Te  Te41  1  0.25168530  -0.00172658  0.50374542  1
  Te  Te42  1  0.24851656  0.50408499  0.00012394  1
  Te  Te43  1  0.24412347  0.50037634  0.50081372  1
  Te  Te44  1  0.74971015  -0.00292433  0.01006143  1
  Te  Te45  1  0.74826601  -0.00067395  0.49569227  1
  Te  Te46  1  0.75373134  0.50291257  0.00076713  1
  Te  Te47  1  0.75640426  0.50002473  0.50013056  1
  Te  Te48  1  0.00099938  0.25980928  0.00991480  1
  Te  Te49  1  -0.00047455  0.24892865  0.49480769  1
  Te  Te50  1  0.00604858  0.74309432  -0.00635141  1
  Te  Te51  1  0.00137281  0.75065967  0.50545246  1
  Te  Te52  1  0.49956973  0.25165872  -0.01638381  1
  Te  Te53  1  0.49908350  0.25728956  0.50566444  1
  Te  Te54  1  0.48506092  0.74818392  -0.00109358  1
  Te  Te55  1  0.50046568  0.73816808  0.50193641  1
  Te  Te56  1  -0.00536422  0.01162104  0.24780814  1
  Te  Te57  1  0.00563431  -0.00929287  0.75212469  1
  Te  Te58  1  0.00014136  0.49833538  0.24275456  1
  Te  Te59  1  0.00158979  0.50104875  0.75726202  1
  Te  Te60  1  0.51010022  0.00332270  0.24967626  1
  Te  Te61  1  0.49389104  0.01271410  0.74895862  1
  Te  Te62  1  0.49982515  0.49747142  0.25750709  1
  Te  Te63  1  0.50003271  0.49589746  0.74489668  1
