# generated using pymatgen
data_AgSbTe2
_symmetry_space_group_name_H-M   'P 1'
_cell_length_a   12.20960111
_cell_length_b   12.22440612
_cell_length_c   12.22190981
_cell_angle_alpha   89.99929725
_cell_angle_beta   90.00199990
_cell_angle_gamma   89.99911635
_symmetry_Int_Tables_number   1
_chemical_formula_structural   AgSbTe2
_chemical_formula_sum   'Ag16 Sb16 Te32'
_cell_volume   1824.18264479
_cell_formula_units_Z   16
loop_
 _symmetry_equiv_pos_site_id
 _symmetry_equiv_pos_as_xyz
  1  'x, y, z'
loop_
 _atom_site_type_symbol
 _atom_site_label
 _atom_site_symmetry_multiplicity
 _atom_site_fract_x
 _atom_site_fract_y
 _atom_site_fract_z
 _atom_site_occupancy
  Ag  Ag0  1  0.75344509  0.00166721  0.74715393  1
  Ag  Ag1  1  0.74967769  0.24593058  0.00508276  1
  Ag  Ag2  1  0.24973893  0.24435418  0.00137277  1
  Ag  Ag3  1  -0.00734839  0.75474167  0.25007411  1
  Ag  Ag4  1  0.24841303  0.75639274  0.00185397  1
  Ag  Ag5  1  0.74989319  0.75173948  0.49340461  1
  Ag  Ag6  1  -0.00816228  -0.00148062  0.49835052  1
  Ag  Ag7  1  0.50805454  0.25018176  0.25003170  1
  Ag  Ag8  1  0.50817341  0.74956295  0.25143843  1
  Ag  Ag9  1  0.24701412  0.00018607  0.75441232  1
  Ag  Ag10  1  0.50816970  0.50014867  0.49573209  1
  Ag  Ag11  1  -0.00164019  -0.00029048  0.00122548  1
  Ag  Ag12  1  0.74657695  0.50006137  0.25468499  1
  Ag  Ag13  1  0.75225861  -0.00028269  0.25334650  1
  Ag  Ag14  1  0.74847308  0.49887626  0.74528561  1
  Ag  Ag15  1  0.74863607  0.24849799  0.49493438  1
  Sb  Sb16  1  -0.00310800  0.24632877  0.75073017  1
  Sb  Sb17  1  0.25283199  0.49948631  0.24995331  1
  Sb  Sb18  1  0.50313086  0.74959596  0.74973173  1
  Sb  Sb19  1  0.24662471  0.00017115  0.24506465  1
  Sb  Sb20  1  0.75166975  0.75613067  0.00771598  1
  Sb  Sb21  1  0.50186505  0.00059136  0.00172312  1
  Sb  Sb22  1  0.25188386  0.49932949  0.75060041  1
  Sb  Sb23  1  0.50406995  0.49997742  0.00474011  1
  Sb  Sb24  1  -0.00990764  0.24516329  0.24926741  1
  Sb  Sb25  1  0.25030015  0.75367198  0.49836723  1
  Sb  Sb26  1  0.50955985  -0.00044417  0.49728824  1
  Sb  Sb27  1  -0.00945083  0.50167978  0.49684366  1
  Sb  Sb28  1  -0.00337813  0.50076275  0.00277331  1
  Sb  Sb29  1  -0.00237747  0.75405396  0.75017166  1
  Sb  Sb30  1  0.50388314  0.25032496  0.74983326  1
  Sb  Sb31  1  0.25212639  0.24509559  0.49794241  1
  Te  Te32  1  0.25785707  0.25057734  0.24486952  1
  Te  Te33  1  0.25186956  0.24649216  0.75659790  1
  Te  Te34  1  0.25102348  0.75019566  0.24639653  1
  Te  Te35  1  0.25115596  0.75347707  0.75565664  1
  Te  Te36  1  0.74906462  0.24896645  0.24985658  1
  Te  Te37  1  0.74863956  0.24719000  0.75019352  1
  Te  Te38  1  0.74867193  0.75141926  0.24985879  1
  Te  Te39  1  0.74875869  0.75198599  0.74503432  1
  Te  Te40  1  0.24682495  0.00140017  -0.00241666  1
  Te  Te41  1  0.24090330  0.00100641  0.50802575  1
  Te  Te42  1  0.24895702  0.49714948  -0.00245301  1
  Te  Te43  1  0.25708720  0.49931119  0.50277127  1
  Te  Te44  1  0.75279869  0.00237567  -0.00113250  1
  Te  Te45  1  0.75201761  -0.00006371  0.50027678  1
  Te  Te46  1  0.75052389  0.49273135  -0.00033745  1
  Te  Te47  1  0.74903563  0.49949623  0.49833747  1
  Te  Te48  1  -0.00027349  0.24419035  0.00122717  1
  Te  Te49  1  -0.00506932  0.24455807  0.49869984  1
  Te  Te50  1  0.00305632  0.75526577  0.00506515  1
  Te  Te51  1  -0.00293290  0.75387440  0.49456597  1
  Te  Te52  1  0.50181935  0.25032765  0.00616682  1
  Te  Te53  1  0.50380448  0.25308092  0.49403547  1
  Te  Te54  1  0.49428511  0.74939038  0.00717770  1
  Te  Te55  1  0.50282839  0.74711170  0.49383151  1
  Te  Te56  1  -0.00354285  -0.00331276  0.24912266  1
  Te  Te57  1  -0.00375129  -0.00078031  0.75129300  1
  Te  Te58  1  -0.00602431  0.50865849  0.25066727  1
  Te  Te59  1  -0.00871605  0.50153494  0.74955855  1
  Te  Te60  1  0.50555802  -0.00052476  0.25104872  1
  Te  Te61  1  0.50175692  -0.00060933  0.74904371  1
  Te  Te62  1  0.50377633  0.50072746  0.25310132  1
  Te  Te63  1  0.50713893  0.50058994  0.74272887  1
