# generated using pymatgen
data_AgSbTe2
_symmetry_space_group_name_H-M   'P 1'
_cell_length_a   12.21950925
_cell_length_b   12.21544946
_cell_length_c   12.21832471
_cell_angle_alpha   89.99638073
_cell_angle_beta   89.99591857
_cell_angle_gamma   89.99562813
_symmetry_Int_Tables_number   1
_chemical_formula_structural   AgSbTe2
_chemical_formula_sum   'Ag16 Sb16 Te32'
_cell_volume   1823.79018889
_cell_formula_units_Z   16
loop_
 _symmetry_equiv_pos_site_id
 _symmetry_equiv_pos_as_xyz
  1  'x, y, z'
loop_
 _atom_site_type_symbol
 _atom_site_label
 _atom_site_symmetry_multiplicity
 _atom_site_fract_x
 _atom_site_fract_y
 _atom_site_fract_z
 _atom_site_occupancy
  Ag  Ag0  1  -0.00013368  0.25064718  0.24514067  1
  Ag  Ag1  1  0.49754485  0.49657340  -0.00657559  1
  Ag  Ag2  1  0.74427294  0.49915975  0.75481037  1
  Ag  Ag3  1  0.00047560  0.74694329  0.75474181  1
  Ag  Ag4  1  0.50016790  0.25373266  0.75391711  1
  Ag  Ag5  1  0.49892129  0.00272964  -0.00106794  1
  Ag  Ag6  1  0.50107172  0.00210579  0.50117561  1
  Ag  Ag7  1  0.74464134  0.00082011  0.75263625  1
  Ag  Ag8  1  0.50082056  0.49756483  0.50612038  1
  Ag  Ag9  1  0.25547291  0.49962137  0.75708305  1
  Ag  Ag10  1  0.25332878  0.25288689  -0.00036238  1
  Ag  Ag11  1  0.74831481  0.49725976  0.24533594  1
  Ag  Ag12  1  0.25417138  0.00221941  0.24549654  1
  Ag  Ag13  1  0.74609811  0.00268142  0.24709977  1
  Ag  Ag14  1  0.00206965  0.49933461  -0.00260489  1
  Ag  Ag15  1  0.25040484  0.74665374  -0.00207653  1
  Sb  Sb16  1  0.00141544  0.74887277  0.24475086  1
  Sb  Sb17  1  0.00086305  0.00147653  0.00012446  1
  Sb  Sb18  1  0.74987265  0.74828893  -0.00186404  1
  Sb  Sb19  1  -0.00076594  0.00088606  0.50017822  1
  Sb  Sb20  1  0.00037911  0.25238211  0.75583208  1
  Sb  Sb21  1  0.49956087  0.74442336  0.75299293  1
  Sb  Sb22  1  0.74677341  0.24999397  0.50011284  1
  Sb  Sb23  1  0.25382035  0.25044397  0.50031501  1
  Sb  Sb24  1  -0.00125289  0.49906189  0.50168758  1
  Sb  Sb25  1  0.25753267  0.00013668  0.75499020  1
  Sb  Sb26  1  0.49902476  0.75128280  0.24698294  1
  Sb  Sb27  1  0.25208999  0.49736407  0.24171770  1
  Sb  Sb28  1  0.74585578  0.25149485  -0.00010285  1
  Sb  Sb29  1  0.25161714  0.74920065  0.50252268  1
  Sb  Sb30  1  0.74867376  0.74988954  0.50169263  1
  Sb  Sb31  1  0.49982588  0.24809933  0.24470305  1
  Te  Te32  1  0.24786092  0.24610271  0.24468497  1
  Te  Te33  1  0.25182944  0.25297893  0.75507845  1
  Te  Te34  1  0.24785489  0.75714711  0.24341099  1
  Te  Te35  1  0.24528005  0.74718870  0.75446811  1
  Te  Te36  1  0.75340904  0.24887665  0.24956749  1
  Te  Te37  1  0.74725751  0.25051536  0.75022823  1
  Te  Te38  1  0.75246805  0.75158903  0.24938302  1
  Te  Te39  1  0.75588136  0.74915576  0.75121738  1
  Te  Te40  1  0.25226262  0.00102785  0.00183654  1
  Te  Te41  1  0.25657178  -0.00055504  0.49341368  1
  Te  Te42  1  0.25234266  0.49931547  -0.00042935  1
  Te  Te43  1  0.25629010  0.50098914  0.50647744  1
  Te  Te44  1  0.74574236  -0.00097803  0.00092534  1
  Te  Te45  1  0.74340322  0.00003481  0.49898447  1
  Te  Te46  1  0.74810370  0.50067089  -0.00104471  1
  Te  Te47  1  0.74445036  0.50010799  0.50057899  1
  Te  Te48  1  0.00722035  0.25443512  0.00342395  1
  Te  Te49  1  0.00248225  0.25007739  0.48951278  1
  Te  Te50  1  0.00602651  0.74454919  -0.00445948  1
  Te  Te51  1  0.00124321  0.74968855  0.51001875  1
  Te  Te52  1  0.49617221  0.25059906  -0.00391304  1
  Te  Te53  1  0.49862264  0.25030132  0.50832012  1
  Te  Te54  1  0.49275207  0.75036800  -0.00029602  1
  Te  Te55  1  0.49885131  0.75072337  0.49977230  1
  Te  Te56  1  -0.00433121  0.00215234  0.25050827  1
  Te  Te57  1  -0.00876115  -0.00084910  0.74888281  1
  Te  Te58  1  -0.00438914  0.49796520  0.24803186  1
  Te  Te59  1  -0.00258953  0.49904371  0.75226376  1
  Te  Te60  1  0.50320968  0.00144111  0.24833894  1
  Te  Te61  1  0.50265920  0.00190676  0.75162045  1
  Te  Te62  1  0.50470516  0.49878464  0.24928724  1
  Te  Te63  1  0.50218938  0.50041463  0.75239983  1
