# generated using pymatgen
data_AgSbTe2
_symmetry_space_group_name_H-M   'P 1'
_cell_length_a   12.28284589
_cell_length_b   12.30759444
_cell_length_c   12.28421679
_cell_angle_alpha   90.00091414
_cell_angle_beta   89.99027965
_cell_angle_gamma   89.99670547
_symmetry_Int_Tables_number   1
_chemical_formula_structural   AgSbTe2
_chemical_formula_sum   'Ag16 Sb16 Te32'
_cell_volume   1857.03310107
_cell_formula_units_Z   16
loop_
 _symmetry_equiv_pos_site_id
 _symmetry_equiv_pos_as_xyz
  1  'x, y, z'
loop_
 _atom_site_type_symbol
 _atom_site_label
 _atom_site_symmetry_multiplicity
 _atom_site_fract_x
 _atom_site_fract_y
 _atom_site_fract_z
 _atom_site_occupancy
  Ag  Ag0  1  0.75791963  0.74959999  -0.01198474  1
  Ag  Ag1  1  -0.00957258  0.75547590  0.75001741  1
  Ag  Ag2  1  -0.01056496  0.24454768  0.74387050  1
  Ag  Ag3  1  -0.00519293  0.49534050  -0.00668172  1
  Ag  Ag4  1  -0.00691970  0.00580752  -0.01219598  1
  Ag  Ag5  1  0.76414573  0.24707265  0.51525698  1
  Ag  Ag6  1  0.24253445  0.00762515  0.25273274  1
  Ag  Ag7  1  0.75814458  0.00741435  0.74983668  1
  Ag  Ag8  1  0.24508782  0.49372124  0.25110948  1
  Ag  Ag9  1  -0.00255148  0.48845678  0.50703756  1
  Ag  Ag10  1  0.76024157  0.25019690  -0.01510246  1
  Ag  Ag11  1  0.51511627  0.24989811  0.75161122  1
  Ag  Ag12  1  -0.00552576  0.01203330  0.51123397  1
  Ag  Ag13  1  0.50771867  0.49511678  -0.00165795  1
  Ag  Ag14  1  0.75980467  0.75264500  0.51281486  1
  Ag  Ag15  1  0.23378512  0.24950262  0.50164019  1
  Sb  Sb16  1  0.24048184  0.00339347  0.74847839  1
  Sb  Sb17  1  0.50241655  0.49651527  0.50104811  1
  Sb  Sb18  1  0.00003286  0.24965188  0.25607369  1
  Sb  Sb19  1  0.75412309  0.00096598  0.25005936  1
  Sb  Sb20  1  0.23900561  0.25050156  -0.00257613  1
  Sb  Sb21  1  0.50594621  0.00454705  -0.00202716  1
  Sb  Sb22  1  0.50449983  0.00213853  0.50146601  1
  Sb  Sb23  1  0.51475523  0.74895038  0.75314648  1
  Sb  Sb24  1  0.23727570  0.75048054  0.50097067  1
  Sb  Sb25  1  -0.00099647  0.75034170  0.24877858  1
  Sb  Sb26  1  0.50149261  0.74842160  0.24733428  1
  Sb  Sb27  1  0.49996353  0.25149893  0.24469169  1
  Sb  Sb28  1  0.24581470  0.49816039  0.74817258  1
  Sb  Sb29  1  0.75409620  0.49955342  0.24870440  1
  Sb  Sb30  1  0.75340068  0.49232274  0.75152192  1
  Sb  Sb31  1  0.24021273  0.74895900  -0.00117399  1
  Te  Te32  1  0.24985958  0.25007699  0.25747963  1
  Te  Te33  1  0.24612594  0.24813532  0.74328032  1
  Te  Te34  1  0.25152096  0.74869075  0.24926191  1
  Te  Te35  1  0.23900733  0.75212436  0.75013254  1
  Te  Te36  1  0.74876704  0.24994915  0.25102916  1
  Te  Te37  1  0.75472240  0.24973847  0.75047275  1
  Te  Te38  1  0.74894216  0.74991957  0.24947417  1
  Te  Te39  1  0.75648312  0.75519604  0.75062297  1
  Te  Te40  1  0.24206234  0.00010181  0.00218608  1
  Te  Te41  1  0.24484904  -0.00041175  0.50071910  1
  Te  Te42  1  0.24051307  0.49925470  0.00293406  1
  Te  Te43  1  0.24724381  0.50064872  0.49889628  1
  Te  Te44  1  0.75491580  0.00352504  0.00510830  1
  Te  Te45  1  0.75362355  0.00456093  0.49610886  1
  Te  Te46  1  0.75816001  0.49685340  -0.00025458  1
  Te  Te47  1  0.75428089  0.49611440  0.49860901  1
  Te  Te48  1  -0.00163017  0.25187403  -0.00369058  1
  Te  Te49  1  -0.00218306  0.25115254  0.50092670  1
  Te  Te50  1  -0.00315134  0.74695337  -0.00220619  1
  Te  Te51  1  -0.00437891  0.74812095  0.50269017  1
  Te  Te52  1  0.50550215  0.25208346  -0.00487553  1
  Te  Te53  1  0.50627654  0.25107337  0.50812257  1
  Te  Te54  1  0.51148308  0.74336520  -0.00153272  1
  Te  Te55  1  0.51675591  0.74874214  0.50195730  1
  Te  Te56  1  0.00414096  0.00073521  0.24995403  1
  Te  Te57  1  -0.00550585  0.00449131  0.75018993  1
  Te  Te58  1  0.00359377  0.49925670  0.24800433  1
  Te  Te59  1  -0.00157922  0.49673560  0.75019559  1
  Te  Te60  1  0.48390550  -0.00095634  0.25000993  1
  Te  Te61  1  0.51191328  0.00571095  0.75072868  1
  Te  Te62  1  0.49025257  0.50059424  0.24279722  1
  Te  Te63  1  0.49683575  0.49473244  0.75646035  1
