# generated using pymatgen
data_AgSbTe2
_symmetry_space_group_name_H-M   'P 1'
_cell_length_a   12.30780611
_cell_length_b   12.30849789
_cell_length_c   12.31548171
_cell_angle_alpha   89.98983935
_cell_angle_beta   90.00532445
_cell_angle_gamma   89.99234561
_symmetry_Int_Tables_number   1
_chemical_formula_structural   AgSbTe2
_chemical_formula_sum   'Ag16 Sb16 Te32'
_cell_volume   1865.67972695
_cell_formula_units_Z   16
loop_
 _symmetry_equiv_pos_site_id
 _symmetry_equiv_pos_as_xyz
  1  'x, y, z'
loop_
 _atom_site_type_symbol
 _atom_site_label
 _atom_site_symmetry_multiplicity
 _atom_site_fract_x
 _atom_site_fract_y
 _atom_site_fract_z
 _atom_site_occupancy
  Ag  Ag0  1  0.51970085  0.49473521  0.50851877  1
  Ag  Ag1  1  0.75373894  0.75230596  0.50596364  1
  Ag  Ag2  1  0.23761872  -0.00163218  0.24737218  1
  Ag  Ag3  1  -0.01334637  0.24177483  0.74910089  1
  Ag  Ag4  1  -0.00938955  0.00744638  0.51284576  1
  Ag  Ag5  1  -0.00329969  0.00612032  -0.01341691  1
  Ag  Ag6  1  0.23326886  0.00432123  0.75262513  1
  Ag  Ag7  1  0.52088833  0.24920068  0.74688748  1
  Ag  Ag8  1  0.76059755  0.48225809  0.73694776  1
  Ag  Ag9  1  0.75700366  0.24967488  0.51629463  1
  Ag  Ag10  1  0.24284365  0.75960842  -0.00359940  1
  Ag  Ag11  1  0.76418892  0.01881443  0.74345387  1
  Ag  Ag12  1  -0.00964060  0.49204190  0.51422099  1
  Ag  Ag13  1  -0.00568548  0.48999005  -0.01459826  1
  Ag  Ag14  1  0.76177893  0.00370766  0.25895667  1
  Ag  Ag15  1  0.75814678  0.24277665  -0.01911726  1
  Sb  Sb16  1  0.24676380  0.50120953  0.24834963  1
  Sb  Sb17  1  0.50485786  0.24894977  0.25348478  1
  Sb  Sb18  1  0.50359612  0.00279552  -0.00180692  1
  Sb  Sb19  1  -0.00211990  0.24737861  0.25322032  1
  Sb  Sb20  1  0.24192106  0.49629837  0.75018811  1
  Sb  Sb21  1  0.50672595  0.49542547  -0.00805975  1
  Sb  Sb22  1  0.50266072  0.75186389  0.25219718  1
  Sb  Sb23  1  -0.00120606  0.75580953  0.74991350  1
  Sb  Sb24  1  0.24534613  0.24709936  0.50202421  1
  Sb  Sb25  1  0.24059468  0.24632486  -0.00351572  1
  Sb  Sb26  1  0.24876424  0.75382827  0.50038281  1
  Sb  Sb27  1  -0.00090151  0.75297435  0.25049285  1
  Sb  Sb28  1  0.75169645  0.49598608  0.25516536  1
  Sb  Sb29  1  0.50952472  0.00265476  0.50277317  1
  Sb  Sb30  1  0.75131506  0.75338895  -0.00242154  1
  Sb  Sb31  1  0.50279454  0.74998686  0.74841248  1
  Te  Te32  1  0.25284810  0.24025401  0.24950647  1
  Te  Te33  1  0.24701193  0.24553358  0.74901536  1
  Te  Te34  1  0.25018292  0.75684498  0.24841085  1
  Te  Te35  1  0.25057200  0.75915451  0.75226640  1
  Te  Te36  1  0.74869231  0.24478576  0.24914632  1
  Te  Te37  1  0.75202123  0.25315473  0.75130802  1
  Te  Te38  1  0.74922401  0.76088528  0.25484737  1
  Te  Te39  1  0.75020633  0.74830556  0.74599748  1
  Te  Te40  1  0.24725279  0.00118235  -0.00364485  1
  Te  Te41  1  0.24037922  0.00025847  0.50225056  1
  Te  Te42  1  0.24075150  0.50144789  0.00303216  1
  Te  Te43  1  0.23685677  0.50080815  0.49685326  1
  Te  Te44  1  0.75163943  -0.00393917  -0.00560139  1
  Te  Te45  1  0.75266856  0.00366409  0.50385924  1
  Te  Te46  1  0.75589334  0.50689522  0.00414078  1
  Te  Te47  1  0.75459715  0.49553582  0.49840495  1
  Te  Te48  1  -0.00477753  0.24753672  -0.00151438  1
  Te  Te49  1  -0.00143569  0.24760074  0.50078489  1
  Te  Te50  1  0.00313596  0.75300840  0.00029125  1
  Te  Te51  1  -0.00401881  0.74846486  0.50008117  1
  Te  Te52  1  0.51305199  0.25203001  -0.00538001  1
  Te  Te53  1  0.50384061  0.25224992  0.50286111  1
  Te  Te54  1  0.48987929  0.74785738  0.00162060  1
  Te  Te55  1  0.50535996  0.74153045  0.49971819  1
  Te  Te56  1  -0.00230371  0.00068088  0.25001223  1
  Te  Te57  1  -0.00290373  0.00115354  0.75042973  1
  Te  Te58  1  0.00112221  0.49947026  0.24971783  1
  Te  Te59  1  -0.00110557  0.49668898  0.74987653  1
  Te  Te60  1  0.49826774  0.00004657  0.25051396  1
  Te  Te61  1  0.50283373  0.00452444  0.74928403  1
  Te  Te62  1  0.49783786  0.50036093  0.26194302  1
  Te  Te63  1  0.49967071  0.49690598  0.74671047  1
