# generated using pymatgen
data_AgSbTe2
_symmetry_space_group_name_H-M   'P 1'
_cell_length_a   12.28984244
_cell_length_b   12.27702608
_cell_length_c   12.28798003
_cell_angle_alpha   89.99370862
_cell_angle_beta   90.00197273
_cell_angle_gamma   89.99443515
_symmetry_Int_Tables_number   1
_chemical_formula_structural   AgSbTe2
_chemical_formula_sum   'Ag16 Sb16 Te32'
_cell_volume   1854.04378093
_cell_formula_units_Z   16
loop_
 _symmetry_equiv_pos_site_id
 _symmetry_equiv_pos_as_xyz
  1  'x, y, z'
loop_
 _atom_site_type_symbol
 _atom_site_label
 _atom_site_symmetry_multiplicity
 _atom_site_fract_x
 _atom_site_fract_y
 _atom_site_fract_z
 _atom_site_occupancy
  Ag  Ag0  1  0.76922169  0.50541155  0.24139649  1
  Ag  Ag1  1  0.74151271  -0.00440736  0.75781195  1
  Ag  Ag2  1  0.75239381  -0.00534165  0.24310620  1
  Ag  Ag3  1  -0.00675241  0.50729479  0.01810111  1
  Ag  Ag4  1  0.50103069  0.00215170  0.50341426  1
  Ag  Ag5  1  -0.00392997  0.75124601  0.75687155  1
  Ag  Ag6  1  0.22921612  0.50257662  0.24575243  1
  Ag  Ag7  1  0.50461653  -0.00050903  -0.00325916  1
  Ag  Ag8  1  0.25951659  -0.00224342  0.75481434  1
  Ag  Ag9  1  -0.00473368  0.73262635  0.24430415  1
  Ag  Ag10  1  0.50537111  0.50252886  0.00619724  1
  Ag  Ag11  1  -0.00105519  0.26980687  0.24819451  1
  Ag  Ag12  1  0.75422033  0.75108730  0.00462906  1
  Ag  Ag13  1  -0.00139188  0.50285058  0.47839089  1
  Ag  Ag14  1  0.24727942  -0.00252657  0.24614700  1
  Ag  Ag15  1  0.50103314  0.23934057  0.75464479  1
  Sb  Sb16  1  -0.00532225  -0.00477667  0.00358198  1
  Sb  Sb17  1  0.24861873  0.75064196  0.49740058  1
  Sb  Sb18  1  -0.00047343  0.24888522  0.75182467  1
  Sb  Sb19  1  0.24510335  0.75207596  0.00200394  1
  Sb  Sb20  1  0.50133598  0.49730984  0.49580699  1
  Sb  Sb21  1  0.75047412  0.24943797  0.49976535  1
  Sb  Sb22  1  0.24858713  0.24704051  0.00013425  1
  Sb  Sb23  1  -0.00084079  -0.00188331  0.49652321  1
  Sb  Sb24  1  0.50437827  0.75060470  0.24654362  1
  Sb  Sb25  1  0.50417900  0.75536162  0.75479224  1
  Sb  Sb26  1  0.75170239  0.75023420  0.49519534  1
  Sb  Sb27  1  0.24925987  0.50439800  0.75513746  1
  Sb  Sb28  1  0.24957698  0.24915086  0.49946731  1
  Sb  Sb29  1  0.75122393  0.50659666  0.75939038  1
  Sb  Sb30  1  0.50094322  0.24783956  0.24703958  1
  Sb  Sb31  1  0.75004927  0.24769318  0.00011467  1
  Te  Te32  1  0.24577101  0.24440319  0.24921401  1
  Te  Te33  1  0.25018720  0.23928062  0.75039140  1
  Te  Te34  1  0.24144200  0.75476272  0.24943598  1
  Te  Te35  1  0.23975687  0.75606286  0.75053324  1
  Te  Te36  1  0.75275945  0.24547171  0.24975525  1
  Te  Te37  1  0.74923778  0.23824779  0.74985697  1
  Te  Te38  1  0.75198684  0.75425994  0.24719875  1
  Te  Te39  1  0.75476129  0.75407253  0.75561135  1
  Te  Te40  1  0.25777722  -0.00094971  0.00537842  1
  Te  Te41  1  0.25380792  -0.00054493  0.49340290  1
  Te  Te42  1  0.25666402  0.50071356  0.00396766  1
  Te  Te43  1  0.25110960  0.50058896  0.49089533  1
  Te  Te44  1  0.75022831  -0.00113940  0.00467025  1
  Te  Te45  1  0.74755497  -0.00037297  0.49515383  1
  Te  Te46  1  0.74668477  0.50216937  0.00155602  1
  Te  Te47  1  0.74898054  0.50036388  0.48974025  1
  Te  Te48  1  0.00029992  0.26311312  0.00321317  1
  Te  Te49  1  -0.00018107  0.25853908  0.49646843  1
  Te  Te50  1  -0.00465994  0.74842543  0.00177633  1
  Te  Te51  1  -0.00016548  0.74654832  0.49934004  1
  Te  Te52  1  0.50012903  0.25024180  -0.00336680  1
  Te  Te53  1  0.50012174  0.24529925  0.50854682  1
  Te  Te54  1  0.51029812  0.74656280  0.00069179  1
  Te  Te55  1  0.49993550  0.75730322  0.50139715  1
  Te  Te56  1  -0.00005371  -0.00218356  0.24858929  1
  Te  Te57  1  -0.00060648  0.00067353  0.75024351  1
  Te  Te58  1  -0.00021818  0.49951610  0.24969660  1
  Te  Te59  1  0.00129827  0.50055762  0.75242983  1
  Te  Te60  1  0.50014017  -0.00002743  0.24450971  1
  Te  Te61  1  0.50019934  -0.00036914  0.75612676  1
  Te  Te62  1  0.50051863  0.49942006  0.24795198  1
  Te  Te63  1  0.49788958  0.49648625  0.75038537  1
