# generated using pymatgen
data_AgSbTe2
_symmetry_space_group_name_H-M   'P 1'
_cell_length_a   12.24166912
_cell_length_b   12.23781556
_cell_length_c   12.25498727
_cell_angle_alpha   90.00486633
_cell_angle_beta   89.99560834
_cell_angle_gamma   89.99218736
_symmetry_Int_Tables_number   1
_chemical_formula_structural   AgSbTe2
_chemical_formula_sum   'Ag16 Sb16 Te32'
_cell_volume   1835.93540864
_cell_formula_units_Z   16
loop_
 _symmetry_equiv_pos_site_id
 _symmetry_equiv_pos_as_xyz
  1  'x, y, z'
loop_
 _atom_site_type_symbol
 _atom_site_label
 _atom_site_symmetry_multiplicity
 _atom_site_fract_x
 _atom_site_fract_y
 _atom_site_fract_z
 _atom_site_occupancy
  Ag  Ag0  1  0.49406938  0.24244510  0.75142238  1
  Ag  Ag1  1  0.23579842  0.00289691  0.24414614  1
  Ag  Ag2  1  0.00478072  0.23485723  0.24658102  1
  Ag  Ag3  1  0.00685808  0.50292401  -0.00084323  1
  Ag  Ag4  1  0.24554023  0.24062998  -0.00012479  1
  Ag  Ag5  1  0.24651211  0.49713126  0.75458558  1
  Ag  Ag6  1  0.75425849  0.00073845  0.75206463  1
  Ag  Ag7  1  0.00407626  0.00129631  0.48475990  1
  Ag  Ag8  1  0.49244624  0.00215377  -0.00067434  1
  Ag  Ag9  1  0.00308644  0.76557093  0.24190236  1
  Ag  Ag10  1  0.49520492  0.00394469  0.50132044  1
  Ag  Ag11  1  0.24813292  0.24187536  0.50092518  1
  Ag  Ag12  1  0.00393315  0.75827918  0.75899756  1
  Ag  Ag13  1  0.24226856  0.76016521  -0.00061821  1
  Ag  Ag14  1  0.76511059  0.00049922  0.24840479  1
  Ag  Ag15  1  0.00858432  -0.00285069  0.01401683  1
  Sb  Sb16  1  0.24726042  0.00125779  0.75490711  1
  Sb  Sb17  1  0.00413932  0.49888354  0.50088894  1
  Sb  Sb18  1  0.00332397  0.24325239  0.75252127  1
  Sb  Sb19  1  0.24665988  0.49826740  0.24755822  1
  Sb  Sb20  1  0.49356690  0.49482891  0.50365692  1
  Sb  Sb21  1  0.75231393  0.75625018  0.49962806  1
  Sb  Sb22  1  0.49250494  0.49799368  -0.00325031  1
  Sb  Sb23  1  0.75896013  0.75650052  0.00018853  1
  Sb  Sb24  1  0.75732000  0.49965481  0.24768293  1
  Sb  Sb25  1  0.49710519  0.75795238  0.24716757  1
  Sb  Sb26  1  0.75226204  0.24383836  0.49983763  1
  Sb  Sb27  1  0.49556435  0.24348654  0.24864371  1
  Sb  Sb28  1  0.49796100  0.75702796  0.75280226  1
  Sb  Sb29  1  0.24690406  0.75864241  0.50099937  1
  Sb  Sb30  1  0.75433858  0.24411676  0.00041560  1
  Sb  Sb31  1  0.75398661  0.49857272  0.75230505  1
  Te  Te32  1  0.24668496  0.24836603  0.24764241  1
  Te  Te33  1  0.25157543  0.25175940  0.75215020  1
  Te  Te34  1  0.24594333  0.75166579  0.24754039  1
  Te  Te35  1  0.24607439  0.74493764  0.75217873  1
  Te  Te36  1  0.75747034  0.24518381  0.25006695  1
  Te  Te37  1  0.74179087  0.24583428  0.75002541  1
  Te  Te38  1  0.75615548  0.75510979  0.25002989  1
  Te  Te39  1  0.75469130  0.75434286  0.74977758  1
  Te  Te40  1  0.24868978  0.00101001  0.00035216  1
  Te  Te41  1  0.24862042  0.00334698  0.49768943  1
  Te  Te42  1  0.24597305  0.49780071  -0.00288087  1
  Te  Te43  1  0.25050118  0.49109774  0.50586618  1
  Te  Te44  1  0.74796423  0.00006058  0.00019932  1
  Te  Te45  1  0.75146402  0.00121436  0.49930251  1
  Te  Te46  1  0.75800069  0.50018273  0.00007117  1
  Te  Te47  1  0.74784513  0.49981263  0.50007012  1
  Te  Te48  1  0.00361278  0.24614276  0.00007649  1
  Te  Te49  1  0.00412408  0.24649610  0.49846356  1
  Te  Te50  1  0.00281912  0.75495182  -0.00029317  1
  Te  Te51  1  0.00113456  0.75311515  0.49955366  1
  Te  Te52  1  0.49413875  0.24650337  -0.00173055  1
  Te  Te53  1  0.49481126  0.24431128  0.50144908  1
  Te  Te54  1  0.49030215  0.75358427  -0.00030936  1
  Te  Te55  1  0.50027427  0.75773186  0.49986004  1
  Te  Te56  1  0.00272863  0.00063384  0.24973868  1
  Te  Te57  1  -0.00374166  -0.00154434  0.75073164  1
  Te  Te58  1  -0.00064715  0.50113868  0.24635319  1
  Te  Te59  1  0.00186796  0.50378725  0.75305773  1
  Te  Te60  1  0.50026073  0.00001326  0.24864161  1
  Te  Te61  1  0.50316714  0.00211885  0.75093503  1
  Te  Te62  1  0.50332671  0.50155686  0.25056584  1
  Te  Te63  1  0.49754396  0.49465039  0.75000580  1
