# generated using pymatgen
data_AgSbTe2
_symmetry_space_group_name_H-M   'P 1'
_cell_length_a   12.21483278
_cell_length_b   12.21565320
_cell_length_c   12.22036321
_cell_angle_alpha   90.00185855
_cell_angle_beta   89.99277088
_cell_angle_gamma   89.99905650
_symmetry_Int_Tables_number   1
_chemical_formula_structural   AgSbTe2
_chemical_formula_sum   'Ag16 Sb16 Te32'
_cell_volume   1823.42678843
_cell_formula_units_Z   16
loop_
 _symmetry_equiv_pos_site_id
 _symmetry_equiv_pos_as_xyz
  1  'x, y, z'
loop_
 _atom_site_type_symbol
 _atom_site_label
 _atom_site_symmetry_multiplicity
 _atom_site_fract_x
 _atom_site_fract_y
 _atom_site_fract_z
 _atom_site_occupancy
  Ag  Ag0  1  -0.00522277  0.25243923  0.24362900  1
  Ag  Ag1  1  0.50484286  0.49892422  0.49779773  1
  Ag  Ag2  1  0.75603214  0.25712053  0.00308516  1
  Ag  Ag3  1  -0.00309041  0.25438585  0.75562689  1
  Ag  Ag4  1  0.50554311  0.25539081  0.24924021  1
  Ag  Ag5  1  0.50353551  0.00087153  0.49759876  1
  Ag  Ag6  1  0.75138330  0.74682453  0.49802281  1
  Ag  Ag7  1  0.24576600  0.74469086  0.00048102  1
  Ag  Ag8  1  -0.00189897  0.00417036  0.00288660  1
  Ag  Ag9  1  0.24798157  0.49962559  0.75430214  1
  Ag  Ag10  1  -0.00429831  0.49561404  0.00078491  1
  Ag  Ag11  1  0.75122528  0.49674735  0.24653915  1
  Ag  Ag12  1  0.50449934  0.49729275  0.00167835  1
  Ag  Ag13  1  0.75212571  0.49797075  0.75379376  1
  Ag  Ag14  1  -0.00298050  0.74815109  0.24735844  1
  Ag  Ag15  1  -0.00327838  0.00037003  0.49731571  1
  Sb  Sb16  1  0.24674447  0.00059592  0.75148444  1
  Sb  Sb17  1  0.50092328  0.74655407  0.74989945  1
  Sb  Sb18  1  0.24742991  -0.00043983  0.24914035  1
  Sb  Sb19  1  0.75245504  0.00328924  0.25048521  1
  Sb  Sb20  1  -0.00491503  0.50005181  0.49925945  1
  Sb  Sb21  1  0.24815665  0.74735987  0.49927747  1
  Sb  Sb22  1  0.50412983  0.74506159  0.25046662  1
  Sb  Sb23  1  -0.00132324  0.74548851  0.75230933  1
  Sb  Sb24  1  0.50374109  0.25494110  0.75205356  1
  Sb  Sb25  1  0.75260952  0.00221980  0.74948207  1
  Sb  Sb26  1  0.24856869  0.50069380  0.24632470  1
  Sb  Sb27  1  0.75061287  0.25311557  0.49660695  1
  Sb  Sb28  1  0.50103459  0.00352247  0.00313697  1
  Sb  Sb29  1  0.24954872  0.25272691  0.50058070  1
  Sb  Sb30  1  0.75403471  0.74181460  0.00231478  1
  Sb  Sb31  1  0.24276816  0.25525756  -0.00114472  1
  Te  Te32  1  0.24832433  0.25023479  0.25007093  1
  Te  Te33  1  0.24212596  0.25707420  0.75016381  1
  Te  Te34  1  0.24132675  0.74937259  0.24533434  1
  Te  Te35  1  0.24985172  0.74279705  0.75530644  1
  Te  Te36  1  0.75230960  0.25491854  0.24767034  1
  Te  Te37  1  0.75464829  0.25611664  0.75440886  1
  Te  Te38  1  0.75512217  0.74293300  0.25350663  1
  Te  Te39  1  0.75054094  0.74185282  0.74380022  1
  Te  Te40  1  0.24545555  -0.00810601  -0.00163478  1
  Te  Te41  1  0.24996368  -0.00194031  0.50138416  1
  Te  Te42  1  0.24966594  0.50283415  -0.00354541  1
  Te  Te43  1  0.25962809  0.50180731  0.50764787  1
  Te  Te44  1  0.75482157  0.00578089  -0.00130822  1
  Te  Te45  1  0.75086507  -0.00506393  0.50071929  1
  Te  Te46  1  0.75070512  0.49930209  0.00051729  1
  Te  Te47  1  0.74671626  0.50232204  0.49942360  1
  Te  Te48  1  -0.00085500  0.25189167  0.00276650  1
  Te  Te49  1  -0.00083963  0.24508509  0.49735773  1
  Te  Te50  1  -0.00011422  0.74893372  0.00266330  1
  Te  Te51  1  -0.00268805  0.75372948  0.49649360  1
  Te  Te52  1  0.50413378  0.25143669  0.00356128  1
  Te  Te53  1  0.50034296  0.25080848  0.49526830  1
  Te  Te54  1  0.49628907  0.74744937  0.00153842  1
  Te  Te55  1  0.50343368  0.74987186  0.49861122  1
  Te  Te56  1  -0.00110162  0.00224002  0.24969178  1
  Te  Te57  1  0.00020647  0.00619934  0.74954728  1
  Te  Te58  1  -0.00150418  0.49748964  0.24933529  1
  Te  Te59  1  -0.00233804  0.49679085  0.75014505  1
  Te  Te60  1  0.50062797  0.00615996  0.25503428  1
  Te  Te61  1  0.49980928  0.00215851  0.74195777  1
  Te  Te62  1  0.50159514  0.49725991  0.24935872  1
  Te  Te63  1  0.50224659  0.49741702  0.75138616  1
