# generated using pymatgen
data_AgSbTe2
_symmetry_space_group_name_H-M   'P 1'
_cell_length_a   12.21407798
_cell_length_b   12.21941115
_cell_length_c   12.21733365
_cell_angle_alpha   89.99830919
_cell_angle_beta   90.00075776
_cell_angle_gamma   90.00043698
_symmetry_Int_Tables_number   1
_chemical_formula_structural   AgSbTe2
_chemical_formula_sum   'Ag16 Sb16 Te32'
_cell_volume   1823.42288106
_cell_formula_units_Z   16
loop_
 _symmetry_equiv_pos_site_id
 _symmetry_equiv_pos_as_xyz
  1  'x, y, z'
loop_
 _atom_site_type_symbol
 _atom_site_label
 _atom_site_symmetry_multiplicity
 _atom_site_fract_x
 _atom_site_fract_y
 _atom_site_fract_z
 _atom_site_occupancy
  Ag  Ag0  1  0.00259204  0.50467585  -0.00369969  1
  Ag  Ag1  1  0.49736657  0.50375896  -0.00135448  1
  Ag  Ag2  1  0.49915615  0.25443910  0.74729226  1
  Ag  Ag3  1  0.25219900  -0.00160054  0.25226753  1
  Ag  Ag4  1  0.49866683  0.50161112  0.50146774  1
  Ag  Ag5  1  0.74933127  0.74652277  -0.00413626  1
  Ag  Ag6  1  0.25308143  0.50139477  0.24841018  1
  Ag  Ag7  1  0.00103916  0.50381716  0.50448463  1
  Ag  Ag8  1  0.25057774  0.74531251  -0.00044342  1
  Ag  Ag9  1  0.00074276  0.25427179  0.74809722  1
  Ag  Ag10  1  -0.00124415  0.74566649  0.74880528  1
  Ag  Ag11  1  0.74949552  0.74868817  0.50430370  1
  Ag  Ag12  1  0.49876542  -0.00189561  0.49994796  1
  Ag  Ag13  1  0.49685604  0.25297276  0.25300842  1
  Ag  Ag14  1  0.50140780  0.74570190  0.74909709  1
  Ag  Ag15  1  0.00092294  -0.00355013  0.50162547  1
  Sb  Sb16  1  0.74863601  0.25526804  -0.00221523  1
  Sb  Sb17  1  0.00317027  -0.00658874  -0.00258281  1
  Sb  Sb18  1  0.74918176  -0.00435465  0.74760199  1
  Sb  Sb19  1  0.49726984  -0.00560803  0.00044205  1
  Sb  Sb20  1  0.74759510  0.25311367  0.50179958  1
  Sb  Sb21  1  0.74514301  0.50116934  0.25066582  1
  Sb  Sb22  1  0.25070547  0.25680818  0.00086962  1
  Sb  Sb23  1  0.74965973  0.50427331  0.74915512  1
  Sb  Sb24  1  0.49720795  0.74650528  0.25244891  1
  Sb  Sb25  1  0.25033464  0.50229749  0.75259794  1
  Sb  Sb26  1  0.25080269  -0.00259406  0.74604397  1
  Sb  Sb27  1  0.00434421  0.25230817  0.25274192  1
  Sb  Sb28  1  0.74631252  -0.00148328  0.25336528  1
  Sb  Sb29  1  0.25024760  0.74810007  0.50119809  1
  Sb  Sb30  1  0.00216278  0.74816250  0.25308651  1
  Sb  Sb31  1  0.25246894  0.25178962  0.49945536  1
  Te  Te32  1  0.25684891  0.25058945  0.24915408  1
  Te  Te33  1  0.25146734  0.24843000  0.75122763  1
  Te  Te34  1  0.25030049  0.74890658  0.24240092  1
  Te  Te35  1  0.25013828  0.75097828  0.75720881  1
  Te  Te36  1  0.73795985  0.24940669  0.24910707  1
  Te  Te37  1  0.74861473  0.24790101  0.75084915  1
  Te  Te38  1  0.75025990  0.75041496  0.24944446  1
  Te  Te39  1  0.74967417  0.75065710  0.74966936  1
  Te  Te40  1  0.24944054  -0.00898074  0.01006869  1
  Te  Te41  1  0.25076485  -0.00119177  0.49360525  1
  Te  Te42  1  0.25065409  0.50389524  0.00419538  1
  Te  Te43  1  0.25033896  0.50126957  0.49203709  1
  Te  Te44  1  0.75065404  -0.01241500  0.00264382  1
  Te  Te45  1  0.74994533  -0.00896454  0.49836338  1
  Te  Te46  1  0.75011940  0.50724075  0.00231095  1
  Te  Te47  1  0.75050696  0.50719952  0.49794959  1
  Te  Te48  1  -0.00126415  0.25754711  -0.00778772  1
  Te  Te49  1  -0.00220710  0.25202440  0.50591073  1
  Te  Te50  1  -0.00069725  0.74677062  -0.00504771  1
  Te  Te51  1  -0.00069191  0.74782670  0.50341010  1
  Te  Te52  1  0.50161129  0.25666639  -0.00447381  1
  Te  Te53  1  0.50203023  0.25205891  0.50394045  1
  Te  Te54  1  0.50060093  0.74704786  -0.00457684  1
  Te  Te55  1  0.50062355  0.74842877  0.50325134  1
  Te  Te56  1  0.00708680  0.00348181  0.25822435  1
  Te  Te57  1  0.00153516  -0.00007836  0.74353313  1
  Te  Te58  1  0.00717232  0.49695110  0.25070275  1
  Te  Te59  1  0.00168705  0.50133467  0.74838062  1
  Te  Te60  1  0.49570119  0.00563468  0.25510295  1
  Te  Te61  1  0.49853618  0.00092495  0.74362659  1
  Te  Te62  1  0.49604188  0.49698307  0.25116446  1
  Te  Te63  1  0.49834699  0.50010627  0.74855527  1
