# generated using pymatgen
data_AgSbTe2
_symmetry_space_group_name_H-M   'P 1'
_cell_length_a   12.22729048
_cell_length_b   12.21864819
_cell_length_c   12.21281361
_cell_angle_alpha   90.00696419
_cell_angle_beta   90.00962794
_cell_angle_gamma   90.00382886
_symmetry_Int_Tables_number   1
_chemical_formula_structural   AgSbTe2
_chemical_formula_sum   'Ag16 Sb16 Te32'
_cell_volume   1824.60604291
_cell_formula_units_Z   16
loop_
 _symmetry_equiv_pos_site_id
 _symmetry_equiv_pos_as_xyz
  1  'x, y, z'
loop_
 _atom_site_type_symbol
 _atom_site_label
 _atom_site_symmetry_multiplicity
 _atom_site_fract_x
 _atom_site_fract_y
 _atom_site_fract_z
 _atom_site_occupancy
  Ag  Ag0  1  -0.01407933  0.50285319  0.00623456  1
  Ag  Ag1  1  0.75632926  0.50063134  0.23480081  1
  Ag  Ag2  1  0.25087999  -0.00152749  0.74722793  1
  Ag  Ag3  1  0.74807272  0.00173258  0.75178042  1
  Ag  Ag4  1  0.51560327  0.50040262  -0.00085751  1
  Ag  Ag5  1  0.24730519  0.75341855  0.49889455  1
  Ag  Ag6  1  0.24676411  0.74556613  0.00271801  1
  Ag  Ag7  1  -0.00203747  0.25705114  0.24726033  1
  Ag  Ag8  1  0.50405844  0.24807631  0.75212077  1
  Ag  Ag9  1  0.00166873  -0.00249267  0.50099002  1
  Ag  Ag10  1  0.75237430  0.73462017  0.00011347  1
  Ag  Ag11  1  0.24304156  0.50428910  0.24448098  1
  Ag  Ag12  1  0.49856038  -0.00057211  0.50574944  1
  Ag  Ag13  1  0.74960447  0.49911838  0.76543859  1
  Ag  Ag14  1  0.00211348  0.74355023  0.24591952  1
  Ag  Ag15  1  0.75073384  0.26514632  -0.00226785  1
  Sb  Sb16  1  0.24863917  0.25327116  0.00065143  1
  Sb  Sb17  1  0.50057761  0.75173014  0.75080904  1
  Sb  Sb18  1  -0.00317621  0.25040583  0.75210723  1
  Sb  Sb19  1  0.49899994  0.74803043  0.24830097  1
  Sb  Sb20  1  0.00073230  0.50177218  0.49342513  1
  Sb  Sb21  1  0.50096882  0.00046643  -0.00443044  1
  Sb  Sb22  1  0.75248309  -0.00050397  0.24713955  1
  Sb  Sb23  1  0.24727532  -0.00381715  0.25112243  1
  Sb  Sb24  1  0.50172494  0.25299940  0.24838628  1
  Sb  Sb25  1  0.75259224  0.75089759  0.49869111  1
  Sb  Sb26  1  0.49954337  0.50037604  0.50135140  1
  Sb  Sb27  1  -0.00118676  -0.00238500  -0.00049465  1
  Sb  Sb28  1  -0.00032024  0.74993012  0.75368551  1
  Sb  Sb29  1  0.25028787  0.50129522  0.75460790  1
  Sb  Sb30  1  0.24878359  0.24692466  0.49958630  1
  Sb  Sb31  1  0.75088311  0.24906196  0.50165152  1
  Te  Te32  1  0.24518194  0.25653427  0.24913007  1
  Te  Te33  1  0.25469000  0.24460294  0.75051132  1
  Te  Te34  1  0.24719846  0.74702704  0.24674002  1
  Te  Te35  1  0.24973409  0.75389320  0.75022661  1
  Te  Te36  1  0.75341060  0.25253584  0.24560592  1
  Te  Te37  1  0.74815131  0.24949062  0.75271646  1
  Te  Te38  1  0.75384568  0.74765892  0.24610311  1
  Te  Te39  1  0.75048385  0.74940176  0.75446585  1
  Te  Te40  1  0.25108161  -0.00672976  -0.00441334  1
  Te  Te41  1  0.24864823  -0.00324921  0.50207826  1
  Te  Te42  1  0.24877323  0.50406966  0.00138417  1
  Te  Te43  1  0.25095351  0.50719164  0.49696517  1
  Te  Te44  1  0.74928604  -0.00089703  -0.00541927  1
  Te  Te45  1  0.75045932  -0.00113963  0.50592409  1
  Te  Te46  1  0.75010510  0.50113272  0.00008672  1
  Te  Te47  1  0.74858880  0.50150940  0.50104285  1
  Te  Te48  1  -0.00317489  0.25229818  0.00425860  1
  Te  Te49  1  0.00027310  0.24482556  0.49379772  1
  Te  Te50  1  -0.00003953  0.74805312  0.00329186  1
  Te  Te51  1  0.00406103  0.75301012  0.49492103  1
  Te  Te52  1  0.50378602  0.25275293  -0.00329695  1
  Te  Te53  1  0.49961847  0.24523179  0.50527064  1
  Te  Te54  1  0.50093332  0.74567465  0.00056770  1
  Te  Te55  1  0.49378283  0.75496957  0.49933232  1
  Te  Te56  1  -0.00039965  -0.00044038  0.25444693  1
  Te  Te57  1  -0.00046862  0.00034553  0.74520969  1
  Te  Te58  1  -0.00121023  0.50106515  0.24942449  1
  Te  Te59  1  -0.00455698  0.49830034  0.75531629  1
  Te  Te60  1  0.50012200  0.00150484  0.25965815  1
  Te  Te61  1  0.50194822  0.00276952  0.74764322  1
  Te  Te62  1  0.50210127  0.49867496  0.24654244  1
  Te  Te63  1  0.50283075  0.49561290  0.75327313  1
