# generated using pymatgen
data_AgSbTe2
_symmetry_space_group_name_H-M   'P 1'
_cell_length_a   12.20763973
_cell_length_b   12.20499925
_cell_length_c   12.20030480
_cell_angle_alpha   89.99792715
_cell_angle_beta   89.99973258
_cell_angle_gamma   89.99771981
_symmetry_Int_Tables_number   1
_chemical_formula_structural   AgSbTe2
_chemical_formula_sum   'Ag16 Sb16 Te32'
_cell_volume   1817.77506262
_cell_formula_units_Z   16
loop_
 _symmetry_equiv_pos_site_id
 _symmetry_equiv_pos_as_xyz
  1  'x, y, z'
loop_
 _atom_site_type_symbol
 _atom_site_label
 _atom_site_symmetry_multiplicity
 _atom_site_fract_x
 _atom_site_fract_y
 _atom_site_fract_z
 _atom_site_occupancy
  Ag  Ag0  1  0.74722609  0.24904393  -0.00465117  1
  Ag  Ag1  1  0.00211704  0.50166386  0.50484786  1
  Ag  Ag2  1  0.25163928  -0.00089587  0.25065918  1
  Ag  Ag3  1  0.49992944  0.24997782  0.75251697  1
  Ag  Ag4  1  0.00019321  0.25044866  0.74925037  1
  Ag  Ag5  1  0.25132853  -0.00039457  0.74937356  1
  Ag  Ag6  1  0.49745718  0.50328123  0.50400694  1
  Ag  Ag7  1  0.49946042  0.49801563  -0.00427990  1
  Ag  Ag8  1  0.74898442  0.74880224  0.50318767  1
  Ag  Ag9  1  0.25100013  0.50053775  0.74622239  1
  Ag  Ag10  1  0.00225245  0.74926015  0.74547781  1
  Ag  Ag11  1  0.74863705  0.00175605  0.75079600  1
  Ag  Ag12  1  0.49958179  0.00155706  -0.00406354  1
  Ag  Ag13  1  0.00102187  0.24974087  0.25078242  1
  Ag  Ag14  1  0.49820321  0.75048683  0.25314561  1
  Ag  Ag15  1  0.25109258  0.74780578  0.50369679  1
  Sb  Sb16  1  0.25227819  0.75051503  -0.00432412  1
  Sb  Sb17  1  0.00241600  0.75033285  0.25585770  1
  Sb  Sb18  1  0.49781527  0.74923486  0.74598113  1
  Sb  Sb19  1  0.25078077  0.50127502  0.25402282  1
  Sb  Sb20  1  0.49861709  0.24932844  0.24743078  1
  Sb  Sb21  1  0.00016298  0.00210348  -0.00312980  1
  Sb  Sb22  1  0.24967187  0.25316018  0.50359410  1
  Sb  Sb23  1  0.74974807  0.49960194  0.25038284  1
  Sb  Sb24  1  0.74807918  0.49853013  0.74902219  1
  Sb  Sb25  1  0.74824647  0.00034928  0.24906492  1
  Sb  Sb26  1  0.00104477  0.49684923  -0.00552861  1
  Sb  Sb27  1  0.00112712  -0.00177543  0.50350219  1
  Sb  Sb28  1  0.49806615  -0.00340553  0.50397905  1
  Sb  Sb29  1  0.25410154  0.24956549  -0.00361582  1
  Sb  Sb30  1  0.74639649  0.75155393  -0.00376013  1
  Sb  Sb31  1  0.75012242  0.25005536  0.50487400  1
  Te  Te32  1  0.24480808  0.24345663  0.25046544  1
  Te  Te33  1  0.24890133  0.24789374  0.74941180  1
  Te  Te34  1  0.25255888  0.75419682  0.25530030  1
  Te  Te35  1  0.24744849  0.75145098  0.74631068  1
  Te  Te36  1  0.75564675  0.24777959  0.24465410  1
  Te  Te37  1  0.75060292  0.24579209  0.75219458  1
  Te  Te38  1  0.74586715  0.75202736  0.25632911  1
  Te  Te39  1  0.75410858  0.75511834  0.74567971  1
  Te  Te40  1  0.25659063  -0.00062194  -0.00253536  1
  Te  Te41  1  0.25095005  -0.00695972  0.50249884  1
  Te  Te42  1  0.25723824  0.50057396  -0.00700680  1
  Te  Te43  1  0.25075906  0.50423578  0.50401467  1
  Te  Te44  1  0.74409275  0.00279989  -0.00484580  1
  Te  Te45  1  0.74966467  -0.00631294  0.50615333  1
  Te  Te46  1  0.74223511  0.49511590  -0.00009207  1
  Te  Te47  1  0.74955082  0.50622974  0.50057108  1
  Te  Te48  1  -0.00692234  0.25174933  -0.00286114  1
  Te  Te49  1  -0.00134212  0.25665924  0.50298527  1
  Te  Te50  1  -0.00163918  0.74865053  -0.00685132  1
  Te  Te51  1  0.00071550  0.74538549  0.50297999  1
  Te  Te52  1  0.50351518  0.25033686  -0.00236423  1
  Te  Te53  1  0.50179511  0.25812271  0.50438397  1
  Te  Te54  1  0.50174516  0.74967250  0.00593925  1
  Te  Te55  1  0.49908483  0.74611590  0.49767148  1
  Te  Te56  1  0.00582724  0.00417254  0.24893244  1
  Te  Te57  1  0.00265510  0.00261104  0.75046804  1
  Te  Te58  1  0.00171510  0.49567714  0.25497391  1
  Te  Te59  1  0.00346386  0.49819365  0.74777451  1
  Te  Te60  1  0.49625773  -0.00169720  0.24618073  1
  Te  Te61  1  0.49767350  0.00148764  0.75228057  1
  Te  Te62  1  0.49815920  0.50259576  0.25074477  1
  Te  Te63  1  0.49747356  0.49912900  0.74933593  1
