# generated using pymatgen
data_AgSbTe2
_symmetry_space_group_name_H-M   'P 1'
_cell_length_a   12.21198632
_cell_length_b   12.22550435
_cell_length_c   12.21698386
_cell_angle_alpha   90.00959847
_cell_angle_beta   89.99619358
_cell_angle_gamma   89.99516453
_symmetry_Int_Tables_number   1
_chemical_formula_structural   AgSbTe2
_chemical_formula_sum   'Ag16 Sb16 Te32'
_cell_volume   1823.96745688
_cell_formula_units_Z   16
loop_
 _symmetry_equiv_pos_site_id
 _symmetry_equiv_pos_as_xyz
  1  'x, y, z'
loop_
 _atom_site_type_symbol
 _atom_site_label
 _atom_site_symmetry_multiplicity
 _atom_site_fract_x
 _atom_site_fract_y
 _atom_site_fract_z
 _atom_site_occupancy
  Ag  Ag0  1  0.25128201  0.75621330  0.50189786  1
  Ag  Ag1  1  0.24983267  -0.00410078  0.74674382  1
  Ag  Ag2  1  0.75019613  0.50097545  0.24650507  1
  Ag  Ag3  1  0.00307482  0.24678463  0.24832818  1
  Ag  Ag4  1  0.49142450  -0.00073874  0.49746480  1
  Ag  Ag5  1  0.49478498  0.75273479  0.24921613  1
  Ag  Ag6  1  0.25168705  0.24380634  0.50131387  1
  Ag  Ag7  1  0.00515522  0.50335360  0.00102417  1
  Ag  Ag8  1  0.75098288  -0.00117845  0.24947658  1
  Ag  Ag9  1  0.49482010  0.50233052  0.00085723  1
  Ag  Ag10  1  0.24980332  -0.00273192  0.25299767  1
  Ag  Ag11  1  0.24711553  0.75019213  -0.00300370  1
  Ag  Ag12  1  0.24999178  0.50418659  0.75394025  1
  Ag  Ag13  1  0.00643457  -0.00261034  0.00341720  1
  Ag  Ag14  1  0.49224967  0.24939327  0.74922265  1
  Ag  Ag15  1  0.01000994  0.75065339  0.75432447  1
  Sb  Sb16  1  0.24958170  0.24963868  -0.00070319  1
  Sb  Sb17  1  0.75150101  0.75017150  0.00229158  1
  Sb  Sb18  1  0.24982912  0.50194783  0.24515531  1
  Sb  Sb19  1  0.49653904  0.24830915  0.25098139  1
  Sb  Sb20  1  0.75031193  -0.00063344  0.75114205  1
  Sb  Sb21  1  0.49353263  -0.00227893  0.00220787  1
  Sb  Sb22  1  0.75043311  0.24982675  0.00240179  1
  Sb  Sb23  1  0.00712544  0.24960351  0.75100742  1
  Sb  Sb24  1  0.00547395  0.75228785  0.24647094  1
  Sb  Sb25  1  0.74883837  0.75306972  0.49617216  1
  Sb  Sb26  1  0.49069403  0.75009846  0.75091475  1
  Sb  Sb27  1  0.00924074  -0.00088014  0.49669229  1
  Sb  Sb28  1  0.00335885  0.50121369  0.49812163  1
  Sb  Sb29  1  0.74921471  0.24712046  0.49630826  1
  Sb  Sb30  1  0.49588198  0.50127964  0.49889337  1
  Sb  Sb31  1  0.75004335  0.50061445  0.75333892  1
  Te  Te32  1  0.24646410  0.24633093  0.25433631  1
  Te  Te33  1  0.25277104  0.24863966  0.74663152  1
  Te  Te34  1  0.25269348  0.75276474  0.24972281  1
  Te  Te35  1  0.24847993  0.75117017  0.75128433  1
  Te  Te36  1  0.75527687  0.24873938  0.25152514  1
  Te  Te37  1  0.74051627  0.24980777  0.74825947  1
  Te  Te38  1  0.74432979  0.75137517  0.25095716  1
  Te  Te39  1  0.76074673  0.75014470  0.74907090  1
  Te  Te40  1  0.24749502  -0.00279891  0.00031156  1
  Te  Te41  1  0.25155725  -0.00148996  0.50027593  1
  Te  Te42  1  0.24885243  0.50260189  -0.00288832  1
  Te  Te43  1  0.25038213  0.50111887  0.50685198  1
  Te  Te44  1  0.75702809  -0.00045856  0.00722815  1
  Te  Te45  1  0.74076279  -0.00029197  0.49252095  1
  Te  Te46  1  0.75108426  0.50007758  0.00538002  1
  Te  Te47  1  0.75023437  0.50008766  0.49060351  1
  Te  Te48  1  -0.00008232  0.25040272  0.00417514  1
  Te  Te49  1  0.00714680  0.25027429  0.49468509  1
  Te  Te50  1  0.00469036  0.74934631  -0.00157642  1
  Te  Te51  1  0.00785244  0.74986483  0.50618880  1
  Te  Te52  1  0.49996709  0.25655413  -0.00483924  1
  Te  Te53  1  0.49345453  0.24611203  0.50256515  1
  Te  Te54  1  0.49498579  0.74579595  0.00322972  1
  Te  Te55  1  0.49398234  0.75400352  0.49604813  1
  Te  Te56  1  0.00173006  0.00068583  0.24699729  1
  Te  Te57  1  0.00266166  -0.00088869  0.75501000  1
  Te  Te58  1  -0.00201267  0.49859727  0.24487967  1
  Te  Te59  1  0.00222461  0.50060046  0.75620803  1
  Te  Te60  1  0.49731275  -0.00137444  0.24967400  1
  Te  Te61  1  0.49748224  0.00176703  0.74891073  1
  Te  Te62  1  0.50173359  0.50129377  0.24611656  1
  Te  Te63  1  0.49775110  0.49849291  0.75453312  1
