# generated using pymatgen
data_AgSbTe2
_symmetry_space_group_name_H-M   'P 1'
_cell_length_a   12.20654313
_cell_length_b   12.21227963
_cell_length_c   12.20987594
_cell_angle_alpha   89.99882757
_cell_angle_beta   89.99340699
_cell_angle_gamma   89.99501942
_symmetry_Int_Tables_number   1
_chemical_formula_structural   AgSbTe2
_chemical_formula_sum   'Ag16 Sb16 Te32'
_cell_volume   1820.12274373
_cell_formula_units_Z   16
loop_
 _symmetry_equiv_pos_site_id
 _symmetry_equiv_pos_as_xyz
  1  'x, y, z'
loop_
 _atom_site_type_symbol
 _atom_site_label
 _atom_site_symmetry_multiplicity
 _atom_site_fract_x
 _atom_site_fract_y
 _atom_site_fract_z
 _atom_site_occupancy
  Ag  Ag0  1  -0.00359943  0.50332638  -0.00359700  1
  Ag  Ag1  1  0.75360985  -0.00315439  0.74978656  1
  Ag  Ag2  1  -0.00277361  0.74551526  0.74853655  1
  Ag  Ag3  1  -0.00064926  0.25242825  0.25337922  1
  Ag  Ag4  1  0.75276562  0.74815311  -0.00052787  1
  Ag  Ag5  1  -0.00008774  0.25411856  0.74685045  1
  Ag  Ag6  1  0.24600456  0.75131963  0.50107653  1
  Ag  Ag7  1  0.24446534  0.24857758  0.50179536  1
  Ag  Ag8  1  0.50240601  0.75128073  0.25072632  1
  Ag  Ag9  1  0.24091553  0.50127156  0.74839649  1
  Ag  Ag10  1  0.00084690  -0.00115264  0.50255121  1
  Ag  Ag11  1  0.50321744  -0.00393610  -0.00071904  1
  Ag  Ag12  1  0.75910093  0.50391467  0.75267245  1
  Ag  Ag13  1  0.49936555  -0.00293655  0.50045686  1
  Ag  Ag14  1  0.75601878  0.50463991  0.24760167  1
  Ag  Ag15  1  -0.00350452  0.74670826  0.25141640  1
  Sb  Sb16  1  0.24676393  0.25143055  -0.00242762  1
  Sb  Sb17  1  -0.00366328  -0.00407654  -0.00292202  1
  Sb  Sb18  1  0.24203750  0.50141380  0.25092255  1
  Sb  Sb19  1  0.75734916  0.24829910  0.50037975  1
  Sb  Sb20  1  0.49976206  0.24827598  0.74753172  1
  Sb  Sb21  1  0.00087767  0.50204108  0.50603828  1
  Sb  Sb22  1  0.24514099  -0.00135510  0.74629409  1
  Sb  Sb23  1  0.24762703  0.74859729  -0.00204894  1
  Sb  Sb24  1  0.50310261  0.75223854  0.74846214  1
  Sb  Sb25  1  0.50107084  0.24889139  0.25342465  1
  Sb  Sb26  1  0.75491501  0.75131271  0.50082682  1
  Sb  Sb27  1  0.75205153  0.25188126  -0.00064192  1
  Sb  Sb28  1  0.50413880  0.50417771  0.00080589  1
  Sb  Sb29  1  0.24880688  -0.00112782  0.25315720  1
  Sb  Sb30  1  0.49867581  0.50447353  0.49915392  1
  Sb  Sb31  1  0.75147932  -0.00531627  0.24916170  1
  Te  Te32  1  0.24294761  0.25170868  0.25613194  1
  Te  Te33  1  0.24443098  0.25404707  0.74604246  1
  Te  Te34  1  0.24829349  0.74850874  0.25493625  1
  Te  Te35  1  0.24528661  0.74661769  0.74651934  1
  Te  Te36  1  0.75643654  0.25766085  0.25002176  1
  Te  Te37  1  0.75603213  0.25129016  0.75014235  1
  Te  Te38  1  0.75326890  0.74713339  0.24837103  1
  Te  Te39  1  0.75310186  0.74843596  0.75147417  1
  Te  Te40  1  0.25920336  -0.00058557  -0.00170254  1
  Te  Te41  1  0.24913571  -0.00118276  0.50136320  1
  Te  Te42  1  0.24472848  0.50042414  -0.00748890  1
  Te  Te43  1  0.25173701  0.50096071  0.50577786  1
  Te  Te44  1  0.74720201  -0.00488388  -0.00457723  1
  Te  Te45  1  0.74991711  0.00002782  0.50538293  1
  Te  Te46  1  0.75315052  0.50382579  -0.00235461  1
  Te  Te47  1  0.74783345  0.49948468  0.50224589  1
  Te  Te48  1  0.00090001  0.25337916  -0.00016345  1
  Te  Te49  1  0.00357824  0.24529704  0.50069787  1
  Te  Te50  1  -0.00281771  0.74877127  0.00065338  1
  Te  Te51  1  0.00286420  0.75353473  0.49954173  1
  Te  Te52  1  0.49908137  0.24120257  0.00146651  1
  Te  Te53  1  0.49063930  0.24097813  0.49817415  1
  Te  Te54  1  0.50315377  0.75384359  0.00440238  1
  Te  Te55  1  0.49430948  0.75526875  0.49638268  1
  Te  Te56  1  -0.00166264  -0.00102964  0.25281325  1
  Te  Te57  1  -0.00350476  -0.00075087  0.74893940  1
  Te  Te58  1  -0.00268788  0.50258977  0.24676912  1
  Te  Te59  1  -0.00240554  0.50118852  0.74946869  1
  Te  Te60  1  0.50128095  -0.00398418  0.25249013  1
  Te  Te61  1  0.50629731  0.00006109  0.74775262  1
  Te  Te62  1  0.50723209  0.50536676  0.24819453  1
  Te  Te63  1  0.50279823  0.49957841  0.75161074  1
