# generated using pymatgen
data_AgSbTe2
_symmetry_space_group_name_H-M   'P 1'
_cell_length_a   12.22341252
_cell_length_b   12.22739403
_cell_length_c   12.22370530
_cell_angle_alpha   89.99970798
_cell_angle_beta   89.99752104
_cell_angle_gamma   90.00703830
_symmetry_Int_Tables_number   1
_chemical_formula_structural   AgSbTe2
_chemical_formula_sum   'Ag16 Sb16 Te32'
_cell_volume   1826.96086167
_cell_formula_units_Z   16
loop_
 _symmetry_equiv_pos_site_id
 _symmetry_equiv_pos_as_xyz
  1  'x, y, z'
loop_
 _atom_site_type_symbol
 _atom_site_label
 _atom_site_symmetry_multiplicity
 _atom_site_fract_x
 _atom_site_fract_y
 _atom_site_fract_z
 _atom_site_occupancy
  Ag  Ag0  1  0.00059960  0.24998888  0.74743891  1
  Ag  Ag1  1  0.74959585  0.74595050  0.01340313  1
  Ag  Ag2  1  0.75073278  0.50437476  0.74915122  1
  Ag  Ag3  1  0.24944373  0.24886579  0.49644998  1
  Ag  Ag4  1  -0.01423527  0.75091408  0.25103803  1
  Ag  Ag5  1  0.24899264  0.00157978  0.25233872  1
  Ag  Ag6  1  -0.00432761  0.74957542  0.74901711  1
  Ag  Ag7  1  0.50573628  0.50187125  0.00813262  1
  Ag  Ag8  1  0.75000445  0.74607638  0.48661966  1
  Ag  Ag9  1  0.24700458  0.00106591  0.74695107  1
  Ag  Ag10  1  -0.00112613  0.24877964  0.25278972  1
  Ag  Ag11  1  0.50471100  0.50057906  0.49228677  1
  Ag  Ag12  1  0.74437190  0.51314763  0.25082178  1
  Ag  Ag13  1  0.75087525  -0.01313627  0.25080326  1
  Ag  Ag14  1  0.50179695  0.25479860  0.25203939  1
  Ag  Ag15  1  0.51353632  0.74410792  0.25066777  1
  Sb  Sb16  1  0.25049568  0.74979169  0.00218902  1
  Sb  Sb17  1  0.50204597  -0.00243371  0.00442289  1
  Sb  Sb18  1  0.75390211  -0.00363066  0.74863305  1
  Sb  Sb19  1  0.49923485  0.25242489  0.74686299  1
  Sb  Sb20  1  0.74854788  0.25466720  0.00383073  1
  Sb  Sb21  1  0.24714920  0.49932675  0.74729570  1
  Sb  Sb22  1  0.25067871  0.24955168  0.00321751  1
  Sb  Sb23  1  0.25593642  0.49737403  0.25208475  1
  Sb  Sb24  1  0.74988150  0.25413062  0.49605011  1
  Sb  Sb25  1  -0.00582478  0.50190606  0.00209061  1
  Sb  Sb26  1  0.25021949  0.75060883  0.49729615  1
  Sb  Sb27  1  -0.00021209  0.00036946  0.49697684  1
  Sb  Sb28  1  -0.00510942  0.50068636  0.49772933  1
  Sb  Sb29  1  0.50413082  0.74773062  0.74901309  1
  Sb  Sb30  1  0.50037602  -0.00060884  0.49569314  1
  Sb  Sb31  1  -0.00151124  -0.00129536  0.00318156  1
  Te  Te32  1  0.24722831  0.24715727  0.25228526  1
  Te  Te33  1  0.24535643  0.24760617  0.74705875  1
  Te  Te34  1  0.24776457  0.75693868  0.25083585  1
  Te  Te35  1  0.24161609  0.75428185  0.75001088  1
  Te  Te36  1  0.75197096  0.25016364  0.25089155  1
  Te  Te37  1  0.75613890  0.25078074  0.74928767  1
  Te  Te38  1  0.75078268  0.74854492  0.25104940  1
  Te  Te39  1  0.75393945  0.74983665  0.74911335  1
  Te  Te40  1  0.25133655  -0.00022471  0.00114706  1
  Te  Te41  1  0.25128811  0.00449530  0.49838132  1
  Te  Te42  1  0.26273135  0.50058034  -0.00132907  1
  Te  Te43  1  0.25943184  0.49421015  0.50100733  1
  Te  Te44  1  0.74864804  -0.00876352  0.00554467  1
  Te  Te45  1  0.74848304  -0.00838468  0.49511305  1
  Te  Te46  1  0.74598289  0.50352727  0.00097404  1
  Te  Te47  1  0.74641317  0.50305481  0.49882177  1
  Te  Te48  1  -0.00001673  0.25160947  0.00096345  1
  Te  Te49  1  0.00372059  0.25160778  0.49778496  1
  Te  Te50  1  -0.00422776  0.74849229  0.00137838  1
  Te  Te51  1  -0.00268173  0.74829000  0.49840510  1
  Te  Te52  1  0.50072277  0.25660196  0.00770823  1
  Te  Te53  1  0.49789496  0.25384626  0.49507707  1
  Te  Te54  1  0.50337604  0.74609696  0.00351929  1
  Te  Te55  1  0.50193873  0.74577879  0.49689463  1
  Te  Te56  1  0.00010644  0.00102235  0.24963742  1
  Te  Te57  1  0.00322185  0.00097102  0.75054077  1
  Te  Te58  1  -0.00458805  0.49979841  0.24967090  1
  Te  Te59  1  -0.00490257  0.50055890  0.75053149  1
  Te  Te60  1  0.49963678  0.00085587  0.24984593  1
  Te  Te61  1  0.49219477  0.00115681  0.75098194  1
  Te  Te62  1  0.50041914  0.50062143  0.25131156  1
  Te  Te63  1  0.50641892  0.49974781  0.74903941  1
