# generated using pymatgen
data_AgSbTe2
_symmetry_space_group_name_H-M   'P 1'
_cell_length_a   12.22260131
_cell_length_b   12.22952918
_cell_length_c   12.23158021
_cell_angle_alpha   90.00244804
_cell_angle_beta   89.99888125
_cell_angle_gamma   90.00467069
_symmetry_Int_Tables_number   1
_chemical_formula_structural   AgSbTe2
_chemical_formula_sum   'Ag16 Sb16 Te32'
_cell_volume   1828.33574157
_cell_formula_units_Z   16
loop_
 _symmetry_equiv_pos_site_id
 _symmetry_equiv_pos_as_xyz
  1  'x, y, z'
loop_
 _atom_site_type_symbol
 _atom_site_label
 _atom_site_symmetry_multiplicity
 _atom_site_fract_x
 _atom_site_fract_y
 _atom_site_fract_z
 _atom_site_occupancy
  Ag  Ag0  1  0.75244284  0.00508456  0.75784402  1
  Ag  Ag1  1  0.74703045  0.25306213  0.49356143  1
  Ag  Ag2  1  0.50513438  0.25101555  0.25159604  1
  Ag  Ag3  1  0.75347014  0.00676130  0.24281328  1
  Ag  Ag4  1  0.75090049  0.49507599  0.75544927  1
  Ag  Ag5  1  0.75114473  0.49255508  0.24427602  1
  Ag  Ag6  1  0.75293243  0.25065260  0.00555056  1
  Ag  Ag7  1  0.24722392  0.00648001  0.24628061  1
  Ag  Ag8  1  0.25288441  0.25220310  0.49550985  1
  Ag  Ag9  1  0.50315494  0.49347862  0.49853212  1
  Ag  Ag10  1  0.75501377  0.74934549  0.00368652  1
  Ag  Ag11  1  -0.00678942  0.00174174  0.00483027  1
  Ag  Ag12  1  -0.00435466  0.75118476  0.24435709  1
  Ag  Ag13  1  0.24758050  0.25095407  0.00461665  1
  Ag  Ag14  1  -0.00704818  0.49788498  0.00178550  1
  Ag  Ag15  1  0.24942869  0.49524784  0.75204945  1
  Sb  Sb16  1  0.24803911  0.49169572  0.24778068  1
  Sb  Sb17  1  -0.00214424  0.74881796  0.75543946  1
  Sb  Sb18  1  0.50129129  0.00629476  0.49637135  1
  Sb  Sb19  1  -0.00382643  0.25126427  0.75326779  1
  Sb  Sb20  1  0.24709888  0.00571922  0.75458442  1
  Sb  Sb21  1  0.50718725  0.49606697  0.00161316  1
  Sb  Sb22  1  0.24464211  0.74851951  0.00310397  1
  Sb  Sb23  1  0.50184487  0.74721680  0.75080754  1
  Sb  Sb24  1  0.24978485  0.74705792  0.49691956  1
  Sb  Sb25  1  0.50820511  0.00432739  0.00194621  1
  Sb  Sb26  1  0.50327970  0.25236655  0.74750640  1
  Sb  Sb27  1  0.75012950  0.74790910  0.49767323  1
  Sb  Sb28  1  -0.00672468  0.24814076  0.24629463  1
  Sb  Sb29  1  0.50300901  0.74849816  0.24930524  1
  Sb  Sb30  1  -0.00263192  0.49798877  0.49717053  1
  Sb  Sb31  1  -0.00166775  0.00191088  0.49436628  1
  Te  Te32  1  0.25343595  0.24749601  0.24856467  1
  Te  Te33  1  0.25269633  0.25337907  0.75111408  1
  Te  Te34  1  0.24752981  0.75946438  0.24969534  1
  Te  Te35  1  0.25039121  0.74291998  0.74960629  1
  Te  Te36  1  0.74971590  0.25026325  0.24916781  1
  Te  Te37  1  0.74802287  0.25222270  0.75102442  1
  Te  Te38  1  0.75128099  0.75114047  0.24769449  1
  Te  Te39  1  0.75016044  0.74791877  0.75357096  1
  Te  Te40  1  0.24491177  0.00282946  -0.00020487  1
  Te  Te41  1  0.24984760  0.00650625  0.49938463  1
  Te  Te42  1  0.24613868  0.49743691  -0.00216808  1
  Te  Te43  1  0.25014425  0.49546274  0.50217712  1
  Te  Te44  1  0.75174519  0.00445310  0.00194264  1
  Te  Te45  1  0.75048965  0.00466597  0.49884859  1
  Te  Te46  1  0.75072878  0.49551570  -0.00021731  1
  Te  Te47  1  0.75053325  0.49663083  0.50112061  1
  Te  Te48  1  -0.00048462  0.25130171  0.00026481  1
  Te  Te49  1  0.00069739  0.24967137  0.50093324  1
  Te  Te50  1  -0.00459788  0.74920169  0.00421549  1
  Te  Te51  1  0.00046720  0.75067572  0.48966449  1
  Te  Te52  1  0.49843332  0.25037157  0.00759856  1
  Te  Te53  1  0.50191470  0.25417134  0.49544337  1
  Te  Te54  1  0.50948512  0.74954530  0.00056177  1
  Te  Te55  1  0.49931391  0.73894307  0.50008219  1
  Te  Te56  1  -0.00264997  -0.00200101  0.24609063  1
  Te  Te57  1  -0.00606096  -0.00193907  0.75778706  1
  Te  Te58  1  -0.00357671  0.50471445  0.24573078  1
  Te  Te59  1  -0.00270221  0.50102124  0.75563560  1
  Te  Te60  1  0.50054010  0.00383646  0.25081573  1
  Te  Te61  1  0.50780862  -0.00161191  0.74859844  1
  Te  Te62  1  0.50382490  0.49704063  0.25317959  1
  Te  Te63  1  0.50214833  0.50022932  0.74518773  1
