# generated using pymatgen
data_AgSbTe2
_symmetry_space_group_name_H-M   'P 1'
_cell_length_a   12.22972471
_cell_length_b   12.23203465
_cell_length_c   12.23780941
_cell_angle_alpha   89.99925043
_cell_angle_beta   89.99605037
_cell_angle_gamma   90.00343861
_symmetry_Int_Tables_number   1
_chemical_formula_structural   AgSbTe2
_chemical_formula_sum   'Ag16 Sb16 Te32'
_cell_volume   1830.70794794
_cell_formula_units_Z   16
loop_
 _symmetry_equiv_pos_site_id
 _symmetry_equiv_pos_as_xyz
  1  'x, y, z'
loop_
 _atom_site_type_symbol
 _atom_site_label
 _atom_site_symmetry_multiplicity
 _atom_site_fract_x
 _atom_site_fract_y
 _atom_site_fract_z
 _atom_site_occupancy
  Ag  Ag0  1  0.25687664  0.51289495  0.25405416  1
  Ag  Ag1  1  0.49358993  0.74506285  0.74505790  1
  Ag  Ag2  1  0.01477708  0.75234059  0.25045975  1
  Ag  Ag3  1  0.25346843  0.25621140  0.49507059  1
  Ag  Ag4  1  0.25618253  0.74427689  0.48638988  1
  Ag  Ag5  1  0.25323750  0.74749933  0.01468061  1
  Ag  Ag6  1  0.25411775  0.50471378  0.74533049  1
  Ag  Ag7  1  0.48621379  0.74538180  0.25434256  1
  Ag  Ag8  1  0.74227117  0.74910976  0.49412369  1
  Ag  Ag9  1  0.49269959  0.50658019  0.49455580  1
  Ag  Ag10  1  0.00357374  -0.00269695  0.00499313  1
  Ag  Ag11  1  0.49346161  0.50497111  0.00638902  1
  Ag  Ag12  1  0.25064141  -0.01519793  0.25028888  1
  Ag  Ag13  1  0.49329755  0.25460495  0.25291160  1
  Ag  Ag14  1  0.74885388  -0.00571322  0.25037934  1
  Ag  Ag15  1  0.00513051  0.25072168  0.74941238  1
  Sb  Sb16  1  0.00872314  0.50102885  0.49902419  1
  Sb  Sb17  1  0.00559219  0.74965109  0.74931759  1
  Sb  Sb18  1  0.49718492  -0.00421719  0.00585796  1
  Sb  Sb19  1  0.74179121  0.50539536  0.25225022  1
  Sb  Sb20  1  0.25184420  0.25178484  0.00338899  1
  Sb  Sb21  1  0.49871787  -0.00777177  0.49621357  1
  Sb  Sb22  1  0.74742469  0.75095516  0.00475102  1
  Sb  Sb23  1  0.75110932  -0.00345762  0.74951581  1
  Sb  Sb24  1  0.00216595  -0.00142150  0.49609593  1
  Sb  Sb25  1  0.49571826  0.25479673  0.74720973  1
  Sb  Sb26  1  0.24958083  -0.00262703  0.74948578  1
  Sb  Sb27  1  0.74867915  0.24887378  0.00272854  1
  Sb  Sb28  1  0.00629246  0.50147657  0.00220122  1
  Sb  Sb29  1  0.74630156  0.25158975  0.49632024  1
  Sb  Sb30  1  0.00627214  0.24861938  0.25016160  1
  Sb  Sb31  1  0.74667942  0.50267638  0.74776786  1
  Te  Te32  1  0.25319104  0.25055793  0.25375241  1
  Te  Te33  1  0.24843017  0.25162553  0.74550512  1
  Te  Te34  1  0.25055975  0.75057047  0.25004204  1
  Te  Te35  1  0.25268262  0.74737024  0.74821071  1
  Te  Te36  1  0.74504765  0.24291805  0.25143921  1
  Te  Te37  1  0.75678891  0.24931110  0.74893483  1
  Te  Te38  1  0.74945109  0.75286512  0.25333594  1
  Te  Te39  1  0.74540466  0.75050453  0.74272689  1
  Te  Te40  1  0.24707828  -0.00346799  0.00336440  1
  Te  Te41  1  0.24967749  -0.00061899  0.49613591  1
  Te  Te42  1  0.25321445  0.50250059  0.00090578  1
  Te  Te43  1  0.25179379  0.50209150  0.49861192  1
  Te  Te44  1  0.75588341  -0.00010237  0.00541560  1
  Te  Te45  1  0.75077342  -0.00515812  0.49456738  1
  Te  Te46  1  0.74089324  0.49996280  -0.00031275  1
  Te  Te47  1  0.74156347  0.50488851  0.49989785  1
  Te  Te48  1  -0.00063563  0.24727877  -0.00260969  1
  Te  Te49  1  0.00378940  0.25027271  0.50348424  1
  Te  Te50  1  0.00246764  0.75212006  0.00198498  1
  Te  Te51  1  0.00253288  0.74910110  0.49727998  1
  Te  Te52  1  0.50017866  0.25613097  0.00353044  1
  Te  Te53  1  0.49582547  0.25548845  0.49740244  1
  Te  Te54  1  0.49719588  0.74766797  0.00270126  1
  Te  Te55  1  0.49611255  0.74899584  0.49707090  1
  Te  Te56  1  0.00372713  -0.00188451  0.24724191  1
  Te  Te57  1  -0.00058842  0.00289059  0.75714658  1
  Te  Te58  1  0.00593937  0.50334104  0.24894478  1
  Te  Te59  1  0.00548117  0.49638763  0.75086553  1
  Te  Te60  1  0.49673340  -0.00111367  0.24862580  1
  Te  Te61  1  0.50142283  -0.00600500  0.75285030  1
  Te  Te62  1  0.49831623  0.50222852  0.25132700  1
  Te  Te63  1  0.49659757  0.50316671  0.74889025  1
