# generated using pymatgen
data_AgSbTe2
_symmetry_space_group_name_H-M   'P 1'
_cell_length_a   12.22686925
_cell_length_b   12.22440198
_cell_length_c   12.21896084
_cell_angle_alpha   90.00620000
_cell_angle_beta   89.99464760
_cell_angle_gamma   90.00321768
_symmetry_Int_Tables_number   1
_chemical_formula_structural   AgSbTe2
_chemical_formula_sum   'Ag16 Sb16 Te32'
_cell_volume   1826.32119085
_cell_formula_units_Z   16
loop_
 _symmetry_equiv_pos_site_id
 _symmetry_equiv_pos_as_xyz
  1  'x, y, z'
loop_
 _atom_site_type_symbol
 _atom_site_label
 _atom_site_symmetry_multiplicity
 _atom_site_fract_x
 _atom_site_fract_y
 _atom_site_fract_z
 _atom_site_occupancy
  Ag  Ag0  1  0.74702916  0.24904830  0.01059610  1
  Ag  Ag1  1  0.74992452  0.50122609  0.74343308  1
  Ag  Ag2  1  -0.00711861  0.00152891  0.00405987  1
  Ag  Ag3  1  -0.01089405  0.25181142  0.25036053  1
  Ag  Ag4  1  -0.00371370  0.74748728  0.74648496  1
  Ag  Ag5  1  0.50482118  0.49756911  0.01038081  1
  Ag  Ag6  1  0.50932151  0.25565224  0.24810113  1
  Ag  Ag7  1  0.74943948  0.74012957  0.49711691  1
  Ag  Ag8  1  0.25619179  0.50101666  0.25353584  1
  Ag  Ag9  1  0.50700176  0.00204032  0.00722183  1
  Ag  Ag10  1  0.50658756  0.50216176  0.49165809  1
  Ag  Ag11  1  0.25069493  0.74383330  0.49641848  1
  Ag  Ag12  1  0.74774477  0.00625773  0.24667028  1
  Ag  Ag13  1  -0.00812073  0.50225791  0.49688590  1
  Ag  Ag14  1  0.74938490  0.25760778  0.49098099  1
  Ag  Ag15  1  0.50340017  0.74275483  0.25325004  1
  Sb  Sb16  1  0.25169452  -0.00147431  0.24966454  1
  Sb  Sb17  1  0.24883493  -0.00359661  0.75058187  1
  Sb  Sb18  1  0.75114552  -0.00215490  0.75237200  1
  Sb  Sb19  1  0.50390337  0.25191949  0.75121667  1
  Sb  Sb20  1  -0.00338583  -0.00057508  0.49699536  1
  Sb  Sb21  1  -0.00496406  0.25159586  0.74900701  1
  Sb  Sb22  1  -0.00459015  0.74746699  0.25311998  1
  Sb  Sb23  1  0.50288237  0.74727466  0.74663121  1
  Sb  Sb24  1  0.50361565  -0.00082912  0.49389031  1
  Sb  Sb25  1  0.74811337  0.74887113  0.00464924  1
  Sb  Sb26  1  -0.00645860  0.49811424  0.00402862  1
  Sb  Sb27  1  0.74305642  0.49355111  0.25704592  1
  Sb  Sb28  1  0.24925902  0.50301144  0.74772413  1
  Sb  Sb29  1  0.25087621  0.74780380  0.00351914  1
  Sb  Sb30  1  0.25310387  0.25174199  0.00338606  1
  Sb  Sb31  1  0.25149456  0.25589607  0.49487822  1
  Te  Te32  1  0.25091539  0.25481353  0.25118620  1
  Te  Te33  1  0.24948345  0.24945823  0.74882315  1
  Te  Te34  1  0.25411911  0.74609964  0.25434153  1
  Te  Te35  1  0.24342405  0.74966015  0.74214407  1
  Te  Te36  1  0.74933141  0.24856523  0.24968073  1
  Te  Te37  1  0.75024857  0.25478420  0.74766904  1
  Te  Te38  1  0.74664408  0.75813631  0.25452608  1
  Te  Te39  1  0.75372291  0.74656126  0.74344184  1
  Te  Te40  1  0.25053466  -0.00026833  -0.00027427  1
  Te  Te41  1  0.25035871  -0.00988794  0.50063126  1
  Te  Te42  1  0.25801222  0.50037161  0.00434901  1
  Te  Te43  1  0.25149725  0.50334132  0.49725285  1
  Te  Te44  1  0.74900307  0.00149061  0.00272433  1
  Te  Te45  1  0.74976167  0.00271014  0.49666390  1
  Te  Te46  1  0.74628830  0.49797207  -0.00695212  1
  Te  Te47  1  0.74983402  0.49995062  0.50017209  1
  Te  Te48  1  -0.00409599  0.24770974  0.00343073  1
  Te  Te49  1  -0.00281512  0.25248320  0.49681967  1
  Te  Te50  1  0.00031339  0.75346582  -0.00343957  1
  Te  Te51  1  -0.00395138  0.74805825  0.50021578  1
  Te  Te52  1  0.50317634  0.25155833  0.00295776  1
  Te  Te53  1  0.50280757  0.25234104  0.49604048  1
  Te  Te54  1  0.50018315  0.74860404  0.00398423  1
  Te  Te55  1  0.50342387  0.74852914  0.49708789  1
  Te  Te56  1  -0.00231329  0.00335283  0.24547786  1
  Te  Te57  1  -0.00003386  -0.00449852  0.75735648  1
  Te  Te58  1  0.00680162  0.49743750  0.25232626  1
  Te  Te59  1  -0.00254177  0.50330791  0.74718497  1
  Te  Te60  1  0.50186712  0.00165569  0.24622740  1
  Te  Te61  1  0.49960320  -0.00025605  0.76254920  1
  Te  Te62  1  0.50025842  0.50017112  0.25085354  1
  Te  Te63  1  0.50386202  0.50132134  0.74868251  1
