# generated using pymatgen
data_AgSbTe2
_symmetry_space_group_name_H-M   'P 1'
_cell_length_a   12.23348089
_cell_length_b   12.24396913
_cell_length_c   12.23966111
_cell_angle_alpha   90.00079330
_cell_angle_beta   89.99788215
_cell_angle_gamma   89.99735564
_symmetry_Int_Tables_number   1
_chemical_formula_structural   AgSbTe2
_chemical_formula_sum   'Ag16 Sb16 Te32'
_cell_volume   1833.33431074
_cell_formula_units_Z   16
loop_
 _symmetry_equiv_pos_site_id
 _symmetry_equiv_pos_as_xyz
  1  'x, y, z'
loop_
 _atom_site_type_symbol
 _atom_site_label
 _atom_site_symmetry_multiplicity
 _atom_site_fract_x
 _atom_site_fract_y
 _atom_site_fract_z
 _atom_site_occupancy
  Ag  Ag0  1  0.00817689  0.00084271  0.50306114  1
  Ag  Ag1  1  0.49333599  0.49991841  -0.00917907  1
  Ag  Ag2  1  0.00731106  0.25283135  0.74547676  1
  Ag  Ag3  1  0.49347824  0.00076039  -0.00434017  1
  Ag  Ag4  1  0.25090463  0.73669597  0.50433319  1
  Ag  Ag5  1  0.25148810  0.49875298  0.26426517  1
  Ag  Ag6  1  0.25188132  0.25203025  -0.00692142  1
  Ag  Ag7  1  0.25073673  0.00146706  0.25712130  1
  Ag  Ag8  1  0.01371867  0.49948355  0.50439054  1
  Ag  Ag9  1  0.25123775  0.00479897  0.74350820  1
  Ag  Ag10  1  0.74764922  0.74598698  0.50459829  1
  Ag  Ag11  1  0.49553925  0.74359956  0.74612144  1
  Ag  Ag12  1  0.48615342  0.50286927  0.50849669  1
  Ag  Ag13  1  0.25414330  0.49685339  0.73698921  1
  Ag  Ag14  1  0.74386586  0.50161757  0.74486038  1
  Ag  Ag15  1  0.24785473  0.26250673  0.50670589  1
  Sb  Sb16  1  0.75130394  0.25402317  0.50463563  1
  Sb  Sb17  1  0.00508455  0.74978690  0.25518955  1
  Sb  Sb18  1  0.00471215  0.74839258  0.74521510  1
  Sb  Sb19  1  0.74607774  0.25248193  -0.00597876  1
  Sb  Sb20  1  0.74784974  0.50162725  0.25504798  1
  Sb  Sb21  1  0.00848401  0.00415503  -0.00328233  1
  Sb  Sb22  1  0.49613214  0.74916568  0.25498622  1
  Sb  Sb23  1  0.74856401  -0.00225648  0.74723935  1
  Sb  Sb24  1  0.49098479  0.25723838  0.74961461  1
  Sb  Sb25  1  0.74403677  0.74716131  -0.00619897  1
  Sb  Sb26  1  0.49477447  0.25031574  0.25077898  1
  Sb  Sb27  1  0.48845946  -0.00299678  0.50505437  1
  Sb  Sb28  1  0.00657839  0.25058057  0.25610795  1
  Sb  Sb29  1  0.25316132  0.74902250  -0.00545239  1
  Sb  Sb30  1  0.00844451  0.49645703  -0.00592959  1
  Sb  Sb31  1  0.74825636  -0.00195894  0.25404754  1
  Te  Te32  1  0.24932516  0.25021305  0.25061844  1
  Te  Te33  1  0.24935924  0.24962351  0.74843378  1
  Te  Te34  1  0.25048830  0.74953685  0.25727890  1
  Te  Te35  1  0.25272652  0.74932990  0.74653911  1
  Te  Te36  1  0.75246400  0.24939345  0.24786589  1
  Te  Te37  1  0.76150187  0.25567180  0.75026847  1
  Te  Te38  1  0.75004110  0.75030797  0.26027500  1
  Te  Te39  1  0.74478118  0.74607944  0.74473369  1
  Te  Te40  1  0.25264936  0.00028281  -0.00140598  1
  Te  Te41  1  0.25029265  0.00138310  0.50166825  1
  Te  Te42  1  0.25309811  0.49856583  -0.00083492  1
  Te  Te43  1  0.25008186  0.49960241  0.50094433  1
  Te  Te44  1  0.74147335  -0.00024793  0.00146585  1
  Te  Te45  1  0.75802501  -0.00428017  0.49902057  1
  Te  Te46  1  0.74241399  0.49986170  -0.00361638  1
  Te  Te47  1  0.74967615  0.50230603  0.50282224  1
  Te  Te48  1  0.00669024  0.24966634  -0.00772090  1
  Te  Te49  1  0.00232988  0.25099952  0.50372672  1
  Te  Te50  1  -0.00312286  0.75068024  0.00083728  1
  Te  Te51  1  0.00388988  0.74876407  0.50179220  1
  Te  Te52  1  0.49502993  0.25122109  -0.00017784  1
  Te  Te53  1  0.49654188  0.25545211  0.49960923  1
  Te  Te54  1  0.50022519  0.74743363  -0.00658547  1
  Te  Te55  1  0.49691882  0.74804234  0.50389867  1
  Te  Te56  1  0.00614922  -0.00039272  0.25457628  1
  Te  Te57  1  0.00323926  0.00159006  0.74659401  1
  Te  Te58  1  0.00467928  0.50014386  0.25600771  1
  Te  Te59  1  0.00397715  0.49938037  0.74747493  1
  Te  Te60  1  0.49413619  -0.00020059  0.24324827  1
  Te  Te61  1  0.49727617  -0.00456286  0.75209605  1
  Te  Te62  1  0.49614358  0.50026145  0.24920079  1
  Te  Te63  1  0.49711882  0.49968029  0.74878207  1
