# generated using pymatgen
data_AgSbTe2
_symmetry_space_group_name_H-M   'P 1'
_cell_length_a   12.31521159
_cell_length_b   12.31062579
_cell_length_c   12.31135151
_cell_angle_alpha   90.02254260
_cell_angle_beta   90.01013382
_cell_angle_gamma   89.99224721
_symmetry_Int_Tables_number   1
_chemical_formula_structural   AgSbTe2
_chemical_formula_sum   'Ag16 Sb16 Te32'
_cell_volume   1866.49871282
_cell_formula_units_Z   16
loop_
 _symmetry_equiv_pos_site_id
 _symmetry_equiv_pos_as_xyz
  1  'x, y, z'
loop_
 _atom_site_type_symbol
 _atom_site_label
 _atom_site_symmetry_multiplicity
 _atom_site_fract_x
 _atom_site_fract_y
 _atom_site_fract_z
 _atom_site_occupancy
  Ag  Ag0  1  0.49120212  0.50297758  -0.01610824  1
  Ag  Ag1  1  0.26292865  0.73938969  -0.01458724  1
  Ag  Ag2  1  0.49150232  0.73289669  0.76215119  1
  Ag  Ag3  1  0.01828511  0.50289334  0.51068985  1
  Ag  Ag4  1  0.25562236  0.73314229  0.51763721  1
  Ag  Ag5  1  0.74212399  -0.00146965  0.24404030  1
  Ag  Ag6  1  0.72796339  0.50468319  0.75208968  1
  Ag  Ag7  1  0.01338046  0.74025598  0.75011023  1
  Ag  Ag8  1  0.25855745  0.26677351  0.51206591  1
  Ag  Ag9  1  0.26055735  0.26280645  -0.01091054  1
  Ag  Ag10  1  0.49915668  -0.00175242  -0.00287860  1
  Ag  Ag11  1  0.48843258  0.49869115  0.51926755  1
  Ag  Ag12  1  0.49075340  0.26803045  0.75651974  1
  Ag  Ag13  1  0.49704925  0.25323916  0.24147132  1
  Ag  Ag14  1  0.73251320  0.74615806  -0.00817316  1
  Ag  Ag15  1  0.26442307  0.50821030  0.74287585  1
  Sb  Sb16  1  0.74522293  0.50059199  0.24647476  1
  Sb  Sb17  1  0.00072783  -0.00158535  -0.00188566  1
  Sb  Sb18  1  0.25201641  -0.00472649  0.75003910  1
  Sb  Sb19  1  0.00047882  0.74778048  0.25069639  1
  Sb  Sb20  1  0.00726901  0.50241489  -0.00649714  1
  Sb  Sb21  1  0.25248763  0.00110306  0.24677069  1
  Sb  Sb22  1  0.74347808  -0.00316837  0.75190356  1
  Sb  Sb23  1  0.00955347  0.25827032  0.74796124  1
  Sb  Sb24  1  0.25282178  0.50054401  0.25180878  1
  Sb  Sb25  1  0.74058547  0.25415959  0.50175523  1
  Sb  Sb26  1  0.49958051  0.74816163  0.24557453  1
  Sb  Sb27  1  0.00250280  0.25224053  0.25093015  1
  Sb  Sb28  1  0.74394929  0.74597018  0.50642095  1
  Sb  Sb29  1  0.73838439  0.25371212  -0.00338884  1
  Sb  Sb30  1  0.00288729  -0.00176871  0.50224674  1
  Sb  Sb31  1  0.49791067  -0.00065123  0.50169260  1
  Te  Te32  1  0.25359868  0.25030239  0.24799120  1
  Te  Te33  1  0.25156976  0.24960752  0.74991574  1
  Te  Te34  1  0.24877408  0.75149175  0.24696828  1
  Te  Te35  1  0.25559364  0.74977674  0.75035667  1
  Te  Te36  1  0.74711630  0.24954617  0.24943292  1
  Te  Te37  1  0.74792608  0.25491351  0.75056522  1
  Te  Te38  1  0.75007119  0.75067487  0.24035704  1
  Te  Te39  1  0.73996158  0.74758724  0.75247969  1
  Te  Te40  1  0.25454658  -0.00306778  -0.00045438  1
  Te  Te41  1  0.24895086  0.00016961  0.49896959  1
  Te  Te42  1  0.25111730  0.50226571  0.00208465  1
  Te  Te43  1  0.25604047  0.50216434  0.49818095  1
  Te  Te44  1  0.74797767  -0.00136705  0.00054350  1
  Te  Te45  1  0.75148625  0.00099015  0.49231367  1
  Te  Te46  1  0.75126118  0.50161528  -0.00556014  1
  Te  Te47  1  0.74058236  0.50010847  0.50609410  1
  Te  Te48  1  0.01812282  0.24904799  0.00057843  1
  Te  Te49  1  0.01175566  0.25104569  0.50037915  1
  Te  Te50  1  0.00767009  0.74972854  -0.00136435  1
  Te  Te51  1  0.00465948  0.74887440  0.50158170  1
  Te  Te52  1  0.49767155  0.25421908  -0.00401458  1
  Te  Te53  1  0.49764057  0.24629470  0.50627796  1
  Te  Te54  1  0.49814962  0.74522514  0.00204417  1
  Te  Te55  1  0.49653458  0.75120703  0.49846338  1
  Te  Te56  1  -0.01077958  0.00030748  0.25025095  1
  Te  Te57  1  -0.00328203  -0.01421501  0.75005892  1
  Te  Te58  1  -0.00307534  0.49896609  0.26753684  1
  Te  Te59  1  0.00581231  0.50364189  0.74728237  1
  Te  Te60  1  0.50093066  0.00301378  0.24643762  1
  Te  Te61  1  0.49949895  0.00143500  0.75568211  1
  Te  Te62  1  0.49961220  0.49450571  0.24906493  1
  Te  Te63  1  0.49819671  0.49994913  0.75073757  1
