# generated using pymatgen
data_AgSbTe2
_symmetry_space_group_name_H-M   'P 1'
_cell_length_a   12.22828955
_cell_length_b   12.24660239
_cell_length_c   12.23508765
_cell_angle_alpha   89.99792401
_cell_angle_beta   90.00205004
_cell_angle_gamma   90.00193531
_symmetry_Int_Tables_number   1
_chemical_formula_structural   AgSbTe2
_chemical_formula_sum   'Ag16 Sb16 Te32'
_cell_volume   1832.26554731
_cell_formula_units_Z   16
loop_
 _symmetry_equiv_pos_site_id
 _symmetry_equiv_pos_as_xyz
  1  'x, y, z'
loop_
 _atom_site_type_symbol
 _atom_site_label
 _atom_site_symmetry_multiplicity
 _atom_site_fract_x
 _atom_site_fract_y
 _atom_site_fract_z
 _atom_site_occupancy
  Ag  Ag0  1  0.48804670  0.75226844  0.25146243  1
  Ag  Ag1  1  0.24386758  0.00160714  0.25120697  1
  Ag  Ag2  1  0.48997099  0.00707760  0.49734703  1
  Ag  Ag3  1  0.01065146  0.75609349  0.24719994  1
  Ag  Ag4  1  0.00853794  0.00164218  0.00971844  1
  Ag  Ag5  1  0.74607682  0.24800003  0.49777130  1
  Ag  Ag6  1  0.01017368  0.00499746  0.49183515  1
  Ag  Ag7  1  0.49473147  0.49269299  0.49655902  1
  Ag  Ag8  1  0.49384547  0.24752551  0.74341713  1
  Ag  Ag9  1  0.24606605  0.24473442  0.00710077  1
  Ag  Ag10  1  0.25036988  0.00474979  0.74753824  1
  Ag  Ag11  1  0.00820099  0.24373584  0.25043827  1
  Ag  Ag12  1  0.25265090  0.24269963  0.49512358  1
  Ag  Ag13  1  0.24662404  0.75475719  0.00813037  1
  Ag  Ag14  1  0.24778870  0.49930551  0.24928102  1
  Ag  Ag15  1  0.00731511  0.49818681  0.00648057  1
  Sb  Sb16  1  0.74915543  0.49558667  0.74778894  1
  Sb  Sb17  1  0.48964605  0.24740188  0.25647298  1
  Sb  Sb18  1  0.75283734  0.24917690  0.00214713  1
  Sb  Sb19  1  0.49336106  0.75201727  0.74797128  1
  Sb  Sb20  1  0.00565090  0.75337698  0.75086315  1
  Sb  Sb21  1  0.75348814  0.75095413  0.00371895  1
  Sb  Sb22  1  0.25129551  0.49585228  0.74957019  1
  Sb  Sb23  1  0.00606798  0.49569152  0.49334103  1
  Sb  Sb24  1  0.24993963  0.75883342  0.49069037  1
  Sb  Sb25  1  0.00491718  0.24756527  0.74964202  1
  Sb  Sb26  1  0.74873381  0.00320108  0.74691591  1
  Sb  Sb27  1  0.49246497  0.49788738  0.00473274  1
  Sb  Sb28  1  0.75549473  0.00193610  0.25179608  1
  Sb  Sb29  1  0.48955395  0.00138886  0.00357188  1
  Sb  Sb30  1  0.75032865  0.49746348  0.25185290  1
  Sb  Sb31  1  0.75027003  0.75098310  0.49698711  1
  Te  Te32  1  0.24844527  0.24840940  0.24929560  1
  Te  Te33  1  0.25272842  0.24601574  0.74896000  1
  Te  Te34  1  0.24878330  0.75062648  0.24874455  1
  Te  Te35  1  0.25003546  0.75762665  0.76210769  1
  Te  Te36  1  0.76057953  0.25052717  0.25430252  1
  Te  Te37  1  0.74124155  0.24960056  0.74394811  1
  Te  Te38  1  0.74979971  0.74955543  0.25026455  1
  Te  Te39  1  0.74857768  0.74965004  0.75046840  1
  Te  Te40  1  0.24865425  0.00340848  0.00413208  1
  Te  Te41  1  0.24927621  0.00028644  0.49683464  1
  Te  Te42  1  0.24772617  0.49726997  0.00216457  1
  Te  Te43  1  0.25245138  0.49471711  0.49821280  1
  Te  Te44  1  0.76226444  0.00075956  -0.00103890  1
  Te  Te45  1  0.74976279  0.00492406  0.50068380  1
  Te  Te46  1  0.75915269  0.49946181  -0.00067573  1
  Te  Te47  1  0.74404016  0.49435246  0.49998853  1
  Te  Te48  1  0.00234218  0.24760036  0.00033875  1
  Te  Te49  1  0.00452803  0.24884822  0.49935495  1
  Te  Te50  1  0.00257449  0.75258202  0.00357784  1
  Te  Te51  1  -0.00137944  0.75333785  0.49515968  1
  Te  Te52  1  0.49812372  0.25009126  -0.00542542  1
  Te  Te53  1  0.49576570  0.24759272  0.49782495  1
  Te  Te54  1  0.49749617  0.74976032  0.00542376  1
  Te  Te55  1  0.50016505  0.75114799  0.49601874  1
  Te  Te56  1  0.00191665  0.00072976  0.25149169  1
  Te  Te57  1  0.00532529  -0.00028163  0.74676885  1
  Te  Te58  1  0.00432126  0.50059686  0.24844022  1
  Te  Te59  1  0.00028274  0.50104884  0.75809016  1
  Te  Te60  1  0.49620392  -0.00230125  0.25335201  1
  Te  Te61  1  0.49563178  0.00271473  0.74593047  1
  Te  Te62  1  0.49534361  0.50268477  0.25301399  1
  Te  Te63  1  0.49971666  0.49726552  0.74357323  1
