# generated using pymatgen
data_AgSbTe2
_symmetry_space_group_name_H-M   'P 1'
_cell_length_a   12.27114339
_cell_length_b   12.27416408
_cell_length_c   12.28918396
_cell_angle_alpha   89.99479641
_cell_angle_beta   89.99818671
_cell_angle_gamma   89.98918546
_symmetry_Int_Tables_number   1
_chemical_formula_structural   AgSbTe2
_chemical_formula_sum   'Ag16 Sb16 Te32'
_cell_volume   1850.97260505
_cell_formula_units_Z   16
loop_
 _symmetry_equiv_pos_site_id
 _symmetry_equiv_pos_as_xyz
  1  'x, y, z'
loop_
 _atom_site_type_symbol
 _atom_site_label
 _atom_site_symmetry_multiplicity
 _atom_site_fract_x
 _atom_site_fract_y
 _atom_site_fract_z
 _atom_site_occupancy
  Ag  Ag0  1  0.25288643  0.24431133  -0.00441074  1
  Ag  Ag1  1  0.49922745  0.24372070  0.23824572  1
  Ag  Ag2  1  0.00100532  0.75317224  0.23877778  1
  Ag  Ag3  1  0.24873063  -0.00745609  0.76047653  1
  Ag  Ag4  1  0.75064565  -0.00436489  0.23895880  1
  Ag  Ag5  1  0.76293824  0.75939506  -0.00251145  1
  Ag  Ag6  1  0.49672784  0.24618778  0.76102163  1
  Ag  Ag7  1  0.24717199  0.50854231  0.75681976  1
  Ag  Ag8  1  0.24911034  -0.00485430  0.23916251  1
  Ag  Ag9  1  0.75664384  0.75487938  0.50274366  1
  Ag  Ag10  1  0.24311482  0.75270805  0.50731921  1
  Ag  Ag11  1  0.75080819  -0.00640324  0.76081825  1
  Ag  Ag12  1  0.00633075  0.75136148  0.76071719  1
  Ag  Ag13  1  0.74682082  0.24089193  -0.00117474  1
  Ag  Ag14  1  0.23684487  0.75479900  -0.00749254  1
  Ag  Ag15  1  0.00412137  0.50878588  -0.00300006  1
  Sb  Sb16  1  0.49815326  0.50193544  0.50205328  1
  Sb  Sb17  1  0.75294191  0.50653656  0.75338082  1
  Sb  Sb18  1  0.75061116  0.50504193  0.24713365  1
  Sb  Sb19  1  0.00289757  0.50631310  0.50559661  1
  Sb  Sb20  1  0.74865339  0.24211274  0.50104504  1
  Sb  Sb21  1  -0.00013115  -0.00384543  0.50055819  1
  Sb  Sb22  1  0.25060359  0.24476803  0.50186348  1
  Sb  Sb23  1  0.00080415  0.24585504  0.75724982  1
  Sb  Sb24  1  0.00002957  0.24269389  0.24121690  1
  Sb  Sb25  1  0.00069983  -0.01094591  -0.00067590  1
  Sb  Sb26  1  0.49608382  0.75569963  0.75230181  1
  Sb  Sb27  1  0.49970557  -0.00021368  0.50044088  1
  Sb  Sb28  1  0.24851151  0.50416670  0.24379432  1
  Sb  Sb29  1  0.49936927  0.75661059  0.24710746  1
  Sb  Sb30  1  0.49955280  0.00327569  -0.00077847  1
  Sb  Sb31  1  0.49436536  0.49853332  -0.00196120  1
  Te  Te32  1  0.24788380  0.24371423  0.24934666  1
  Te  Te33  1  0.24790391  0.24045008  0.75209206  1
  Te  Te34  1  0.25314901  0.75468347  0.24542301  1
  Te  Te35  1  0.25360481  0.75752299  0.75525655  1
  Te  Te36  1  0.75229815  0.24146877  0.24926820  1
  Te  Te37  1  0.75179228  0.24404292  0.75099118  1
  Te  Te38  1  0.74663942  0.75537642  0.24390515  1
  Te  Te39  1  0.74593747  0.75308233  0.75610539  1
  Te  Te40  1  0.24916448  0.00010084  -0.00096144  1
  Te  Te41  1  0.24898821  -0.00685372  0.50093632  1
  Te  Te42  1  0.24691441  0.50108984  -0.00336791  1
  Te  Te43  1  0.24935681  0.51019276  0.50993819  1
  Te  Te44  1  0.75046894  -0.00034369  -0.00123847  1
  Te  Te45  1  0.75131589  -0.00813835  0.50127940  1
  Te  Te46  1  0.75738993  0.50030271  -0.00078930  1
  Te  Te47  1  0.75049997  0.51515058  0.50040368  1
  Te  Te48  1  0.00050050  0.26556482  -0.00026497  1
  Te  Te49  1  -0.00151735  0.25684014  0.49809807  1
  Te  Te50  1  0.00117891  0.74740214  -0.00195017  1
  Te  Te51  1  0.00140657  0.75004169  0.50119134  1
  Te  Te52  1  0.50001665  0.25133932  -0.00098103  1
  Te  Te53  1  0.50085335  0.25118149  0.50027142  1
  Te  Te54  1  0.50227679  0.74460465  0.00055365  1
  Te  Te55  1  0.50043295  0.74880897  0.49927983  1
  Te  Te56  1  0.00064038  -0.00831939  0.25073221  1
  Te  Te57  1  0.00068222  -0.00669780  0.74964775  1
  Te  Te58  1  0.00117840  0.51345013  0.24125300  1
  Te  Te59  1  0.00456943  0.50831136  0.75496483  1
  Te  Te60  1  0.49957559  0.00686041  0.25071820  1
  Te  Te61  1  0.49932795  0.00664544  0.74990558  1
  Te  Te62  1  0.49939504  0.48201436  0.25091247  1
  Te  Te63  1  0.49019496  0.48589585  0.75028097  1
