# generated using pymatgen
data_AgSbTe2
_symmetry_space_group_name_H-M   'P 1'
_cell_length_a   12.21936335
_cell_length_b   12.21640244
_cell_length_c   12.22010286
_cell_angle_alpha   89.99704101
_cell_angle_beta   90.00770410
_cell_angle_gamma   90.00353225
_symmetry_Int_Tables_number   1
_chemical_formula_structural   AgSbTe2
_chemical_formula_sum   'Ag16 Sb16 Te32'
_cell_volume   1824.17612078
_cell_formula_units_Z   16
loop_
 _symmetry_equiv_pos_site_id
 _symmetry_equiv_pos_as_xyz
  1  'x, y, z'
loop_
 _atom_site_type_symbol
 _atom_site_label
 _atom_site_symmetry_multiplicity
 _atom_site_fract_x
 _atom_site_fract_y
 _atom_site_fract_z
 _atom_site_occupancy
  Ag  Ag0  1  -0.00941640  0.75331892  0.24843950  1
  Ag  Ag1  1  0.49915186  0.24676319  0.75488916  1
  Ag  Ag2  1  0.50973741  0.75337764  0.24538576  1
  Ag  Ag3  1  0.75002339  -0.00808255  0.24455732  1
  Ag  Ag4  1  0.24990306  0.49465455  0.75278618  1
  Ag  Ag5  1  -0.00190817  0.50008599  0.49997071  1
  Ag  Ag6  1  0.50203720  0.49931517  -0.00008770  1
  Ag  Ag7  1  0.25202808  0.24971575  -0.00545302  1
  Ag  Ag8  1  0.00079450  0.24679032  0.75169133  1
  Ag  Ag9  1  0.74847742  0.75543163  0.00661259  1
  Ag  Ag10  1  0.50537733  0.00019447  0.50005137  1
  Ag  Ag11  1  0.75011412  0.50833222  0.24674760  1
  Ag  Ag12  1  0.75007924  0.00070271  0.75427855  1
  Ag  Ag13  1  -0.00511271  -0.00003108  0.50004793  1
  Ag  Ag14  1  0.50768945  0.00013204  -0.00001833  1
  Ag  Ag15  1  -0.00772595  -0.00000099  -0.00005289  1
  Sb  Sb16  1  0.74828609  0.24282650  -0.00156207  1
  Sb  Sb17  1  0.50223511  0.49980627  0.49953782  1
  Sb  Sb18  1  0.75068039  0.24645215  0.50119470  1
  Sb  Sb19  1  0.24955453  0.75005217  0.50017088  1
  Sb  Sb20  1  0.24991411  -0.00099760  0.24891052  1
  Sb  Sb21  1  -0.00277130  0.75356151  0.75129345  1
  Sb  Sb22  1  -0.00248961  0.49919217  0.00022398  1
  Sb  Sb23  1  0.75028762  0.75330592  0.49187398  1
  Sb  Sb24  1  0.75031306  0.49969589  0.75317934  1
  Sb  Sb25  1  0.50287845  0.75408491  0.75365933  1
  Sb  Sb26  1  -0.00171525  0.24652389  0.24782275  1
  Sb  Sb27  1  0.24983418  0.00436927  0.75233088  1
  Sb  Sb28  1  0.24943916  0.25067659  0.50514346  1
  Sb  Sb29  1  0.25151646  0.75064942  0.00008698  1
  Sb  Sb30  1  0.24937270  0.50087990  0.24789152  1
  Sb  Sb31  1  0.50169428  0.24643983  0.24531206  1
  Te  Te32  1  0.25020536  0.25107031  0.23955874  1
  Te  Te33  1  0.24980844  0.25379551  0.75420109  1
  Te  Te34  1  0.24923419  0.74896910  0.24986362  1
  Te  Te35  1  0.25015419  0.73793727  0.75062139  1
  Te  Te36  1  0.74986531  0.25100224  0.24973052  1
  Te  Te37  1  0.75059693  0.24485662  0.75041039  1
  Te  Te38  1  0.75029894  0.75204437  0.24616068  1
  Te  Te39  1  0.74975099  0.75647696  0.76052913  1
  Te  Te40  1  0.25074600  0.00353095  -0.00098920  1
  Te  Te41  1  0.24807367  0.00037084  0.50048136  1
  Te  Te42  1  0.25428470  0.49687563  -0.00304409  1
  Te  Te43  1  0.24445813  0.49976569  0.50468130  1
  Te  Te44  1  0.74939769  -0.00093540  0.00153352  1
  Te  Te45  1  0.75131317  -0.00063812  0.50002865  1
  Te  Te46  1  0.74591369  0.50546749  0.00304335  1
  Te  Te47  1  0.75538191  0.50060801  0.49570998  1
  Te  Te48  1  0.00391886  0.24652683  -0.00393208  1
  Te  Te49  1  0.00116091  0.24705209  0.50496314  1
  Te  Te50  1  -0.00231673  0.75424037  0.00382224  1
  Te  Te51  1  0.00042779  0.75297063  0.49531884  1
  Te  Te52  1  0.49805744  0.24879205  -0.00320767  1
  Te  Te53  1  0.49799731  0.24455462  0.50686224  1
  Te  Te54  1  0.50113943  0.75210234  0.00323897  1
  Te  Te55  1  0.49946058  0.75570774  0.49342227  1
  Te  Te56  1  -0.00304225  -0.00159947  0.25078657  1
  Te  Te57  1  -0.00100122  0.00195323  0.74922991  1
  Te  Te58  1  -0.00269435  0.50227709  0.25246286  1
  Te  Te59  1  -0.00036611  0.49678343  0.74759860  1
  Te  Te60  1  0.50309121  -0.00160403  0.24869311  1
  Te  Te61  1  0.50111308  0.00196804  0.75127401  1
  Te  Te62  1  0.50299827  0.50233775  0.24880075  1
  Te  Te63  1  0.50029269  0.49652104  0.75123014  1
