# generated using pymatgen
data_AgSbTe2
_symmetry_space_group_name_H-M   'P 1'
_cell_length_a   12.22710710
_cell_length_b   12.22839086
_cell_length_c   12.23732485
_cell_angle_alpha   90.00082058
_cell_angle_beta   90.00408539
_cell_angle_gamma   90.01168449
_symmetry_Int_Tables_number   1
_chemical_formula_structural   AgSbTe2
_chemical_formula_sum   'Ag16 Sb16 Te32'
_cell_volume   1829.69839213
_cell_formula_units_Z   16
loop_
 _symmetry_equiv_pos_site_id
 _symmetry_equiv_pos_as_xyz
  1  'x, y, z'
loop_
 _atom_site_type_symbol
 _atom_site_label
 _atom_site_symmetry_multiplicity
 _atom_site_fract_x
 _atom_site_fract_y
 _atom_site_fract_z
 _atom_site_occupancy
  Ag  Ag0  1  0.24214497  0.50324168  0.75569331  1
  Ag  Ag1  1  0.24789608  0.74758780  -0.00125240  1
  Ag  Ag2  1  0.24504185  0.74769350  0.50147860  1
  Ag  Ag3  1  0.24850875  -0.00589207  0.24441686  1
  Ag  Ag4  1  0.49697739  -0.00303717  -0.00065477  1
  Ag  Ag5  1  0.00224518  0.74570459  0.24559485  1
  Ag  Ag6  1  0.75242465  0.73557134  0.00025405  1
  Ag  Ag7  1  -0.01301340  0.50265942  -0.00439665  1
  Ag  Ag8  1  0.24818657  -0.00482970  0.75460132  1
  Ag  Ag9  1  0.75768517  0.49709277  0.76428748  1
  Ag  Ag10  1  -0.00244367  0.50038344  0.50557899  1
  Ag  Ag11  1  0.75474924  0.25650285  0.50355826  1
  Ag  Ag12  1  -0.00299039  0.25765873  0.75174556  1
  Ag  Ag13  1  0.75404424  0.50106984  0.23506464  1
  Ag  Ag14  1  0.51426079  0.50192147  -0.00142636  1
  Ag  Ag15  1  0.75233305  0.26485637  -0.00246994  1
  Sb  Sb16  1  0.50117359  0.25110185  0.24682690  1
  Sb  Sb17  1  0.00130150  -0.00149215  0.50148784  1
  Sb  Sb18  1  0.75113420  -0.00102635  0.24604952  1
  Sb  Sb19  1  0.00284546  -0.00311170  -0.00126828  1
  Sb  Sb20  1  0.24634680  0.50488329  0.24461031  1
  Sb  Sb21  1  0.24578266  0.25274598  0.50315972  1
  Sb  Sb22  1  0.49755473  0.74912139  0.75420603  1
  Sb  Sb23  1  0.49869711  0.74920889  0.24556085  1
  Sb  Sb24  1  0.49725943  -0.00026694  0.50086937  1
  Sb  Sb25  1  0.50341349  0.25153227  0.75291320  1
  Sb  Sb26  1  0.75225946  0.00130220  0.75438080  1
  Sb  Sb27  1  0.75553208  0.74314085  0.49963464  1
  Sb  Sb28  1  0.50070088  0.50042616  0.50120632  1
  Sb  Sb29  1  0.24798557  0.25187721  -0.00234456  1
  Sb  Sb30  1  0.00276478  0.74223914  0.75376286  1
  Sb  Sb31  1  -0.00194926  0.25335610  0.24875661  1
  Te  Te32  1  0.24971834  0.23980259  0.25165360  1
  Te  Te33  1  0.24480466  0.25318694  0.74897901  1
  Te  Te34  1  0.24667984  0.75156414  0.24582485  1
  Te  Te35  1  0.24862359  0.74848017  0.75375363  1
  Te  Te36  1  0.75055093  0.25255414  0.24674580  1
  Te  Te37  1  0.75334011  0.25130460  0.75296115  1
  Te  Te38  1  0.75460482  0.74704770  0.24786890  1
  Te  Te39  1  0.75122095  0.74730722  0.75343823  1
  Te  Te40  1  0.25161722  -0.00042211  -0.00225079  1
  Te  Te41  1  0.25132630  -0.00375794  0.50342805  1
  Te  Te42  1  0.24872111  0.50199038  -0.00115987  1
  Te  Te43  1  0.24915943  0.50291403  0.50192168  1
  Te  Te44  1  0.74483245  -0.00221534  -0.00022560  1
  Te  Te45  1  0.74826752  0.00601946  0.50024762  1
  Te  Te46  1  0.75076662  0.50174820  -0.00132702  1
  Te  Te47  1  0.75166270  0.49914304  0.50224468  1
  Te  Te48  1  -0.00398512  0.25420471  -0.00210644  1
  Te  Te49  1  -0.00412261  0.25547316  0.50174284  1
  Te  Te50  1  0.00157292  0.74742428  0.00277118  1
  Te  Te51  1  0.00402694  0.74591582  0.49477157  1
  Te  Te52  1  0.50585877  0.25255419  -0.00022148  1
  Te  Te53  1  0.50975830  0.25024751  0.49931876  1
  Te  Te54  1  0.49913359  0.74854251  0.00008409  1
  Te  Te55  1  0.49022420  0.75053946  0.49897517  1
  Te  Te56  1  0.00429288  -0.00616971  0.25047654  1
  Te  Te57  1  0.00489789  0.00961473  0.74955244  1
  Te  Te58  1  -0.00168000  0.50283988  0.24856988  1
  Te  Te59  1  0.00036791  0.49884894  0.75107901  1
  Te  Te60  1  0.49507627  0.00052456  0.24417071  1
  Te  Te61  1  0.49284089  0.00049486  0.75582789  1
  Te  Te62  1  0.50645549  0.49943480  0.24467982  1
  Te  Te63  1  0.49853213  0.49962002  0.75431818  1
