# generated using pymatgen
data_AgSbTe2
_symmetry_space_group_name_H-M   'P 1'
_cell_length_a   12.31629198
_cell_length_b   12.29880302
_cell_length_c   12.31759891
_cell_angle_alpha   90.00202717
_cell_angle_beta   89.99874656
_cell_angle_gamma   90.01762837
_symmetry_Int_Tables_number   1
_chemical_formula_structural   AgSbTe2
_chemical_formula_sum   'Ag16 Sb16 Te32'
_cell_volume   1865.81619921
_cell_formula_units_Z   16
loop_
 _symmetry_equiv_pos_site_id
 _symmetry_equiv_pos_as_xyz
  1  'x, y, z'
loop_
 _atom_site_type_symbol
 _atom_site_label
 _atom_site_symmetry_multiplicity
 _atom_site_fract_x
 _atom_site_fract_y
 _atom_site_fract_z
 _atom_site_occupancy
  Ag  Ag0  1  0.74848803  0.00909309  0.76307398  1
  Ag  Ag1  1  0.74768099  0.23928249  -0.00131172  1
  Ag  Ag2  1  0.51389285  0.24709187  0.23443584  1
  Ag  Ag3  1  -0.01413604  0.24290346  0.76057306  1
  Ag  Ag4  1  0.75421021  0.24639432  0.50177217  1
  Ag  Ag5  1  0.25660460  0.00743606  0.75845902  1
  Ag  Ag6  1  0.25707876  0.24551470  -0.00622485  1
  Ag  Ag7  1  0.50406212  0.48915679  -0.00075802  1
  Ag  Ag8  1  -0.00505758  0.48929185  0.50199724  1
  Ag  Ag9  1  0.51103145  0.24297732  0.76409011  1
  Ag  Ag10  1  0.50704143  0.75876275  0.76341364  1
  Ag  Ag11  1  -0.00914651  0.01154399  -0.00412389  1
  Ag  Ag12  1  0.74841081  0.00979361  0.23622176  1
  Ag  Ag13  1  -0.01616392  0.24503042  0.23926354  1
  Ag  Ag14  1  0.74084980  0.76245437  -0.00171133  1
  Ag  Ag15  1  0.50880674  0.75461089  0.23419299  1
  Sb  Sb16  1  0.50011743  0.00195921  0.50216124  1
  Sb  Sb17  1  0.25145894  0.75110625  0.50240263  1
  Sb  Sb18  1  0.74972987  0.49002847  0.24856670  1
  Sb  Sb19  1  0.50113196  0.49585018  0.50010983  1
  Sb  Sb20  1  -0.00767016  0.75618467  0.75320756  1
  Sb  Sb21  1  0.26060410  0.75832594  -0.00302357  1
  Sb  Sb22  1  0.24927299  0.24909396  0.50176028  1
  Sb  Sb23  1  0.25155022  0.49806273  0.24662805  1
  Sb  Sb24  1  0.25165223  0.49460046  0.75343380  1
  Sb  Sb25  1  -0.01095913  0.75456546  0.24557310  1
  Sb  Sb26  1  0.50733916  0.00618132  -0.00182750  1
  Sb  Sb27  1  -0.00370459  0.49259821  -0.00018715  1
  Sb  Sb28  1  0.74999168  0.49008248  0.75144629  1
  Sb  Sb29  1  0.25144690  0.00451787  0.24190466  1
  Sb  Sb30  1  -0.00325757  0.00334020  0.50147277  1
  Sb  Sb31  1  0.74864208  0.75502688  0.50119576  1
  Te  Te32  1  0.25585804  0.24949722  0.24738198  1
  Te  Te33  1  0.25499939  0.24882966  0.75220675  1
  Te  Te34  1  0.26484818  0.75087456  0.25096543  1
  Te  Te35  1  0.25873188  0.75752460  0.75058788  1
  Te  Te36  1  0.74933741  0.24820309  0.24437297  1
  Te  Te37  1  0.74895367  0.24981069  0.75512974  1
  Te  Te38  1  0.74608766  0.75917356  0.25225595  1
  Te  Te39  1  0.74676831  0.75864590  0.74853297  1
  Te  Te40  1  0.23442670  0.00520140  -0.00494935  1
  Te  Te41  1  0.24970874  -0.00185523  0.51655253  1
  Te  Te42  1  0.25662245  0.49085366  0.00021198  1
  Te  Te43  1  0.24015734  0.50120947  0.50053926  1
  Te  Te44  1  0.75078456  0.00041965  0.00059026  1
  Te  Te45  1  0.74830463  0.00609438  0.49900915  1
  Te  Te46  1  0.74493711  0.50604490  -0.00007789  1
  Te  Te47  1  0.75410325  0.49186935  0.49977728  1
  Te  Te48  1  -0.00764589  0.24901199  -0.00093363  1
  Te  Te49  1  -0.00176941  0.24958150  0.49972929  1
  Te  Te50  1  -0.00769517  0.74958583  0.00078071  1
  Te  Te51  1  0.00114628  0.73793643  0.49870503  1
  Te  Te52  1  0.50380715  0.24839025  -0.00086284  1
  Te  Te53  1  0.50387647  0.24994005  0.49942624  1
  Te  Te54  1  0.50491802  0.74913760  -0.00092743  1
  Te  Te55  1  0.49915159  0.74715498  0.50153374  1
  Te  Te56  1  -0.00004480  0.00396214  0.25075225  1
  Te  Te57  1  -0.01057510  0.00221535  0.74984522  1
  Te  Te58  1  0.00000427  0.49257012  0.24872834  1
  Te  Te59  1  -0.00011194  0.49369986  0.75081628  1
  Te  Te60  1  0.50118070  0.00466596  0.25065592  1
  Te  Te61  1  0.50584515  0.00420005  0.75078612  1
  Te  Te62  1  0.50110234  0.49496427  0.24781121  1
  Te  Te63  1  0.50118109  0.49772446  0.75187871  1
