# generated using pymatgen
data_AgSbTe2
_symmetry_space_group_name_H-M   'P 1'
_cell_length_a   12.22022883
_cell_length_b   12.23030103
_cell_length_c   12.21306829
_cell_angle_alpha   90.00641735
_cell_angle_beta   89.99778706
_cell_angle_gamma   90.00319705
_symmetry_Int_Tables_number   1
_chemical_formula_structural   AgSbTe2
_chemical_formula_sum   'Ag16 Sb16 Te32'
_cell_volume   1825.32947519
_cell_formula_units_Z   16
loop_
 _symmetry_equiv_pos_site_id
 _symmetry_equiv_pos_as_xyz
  1  'x, y, z'
loop_
 _atom_site_type_symbol
 _atom_site_label
 _atom_site_symmetry_multiplicity
 _atom_site_fract_x
 _atom_site_fract_y
 _atom_site_fract_z
 _atom_site_occupancy
  Ag  Ag0  1  0.00431534  0.74702083  0.25694712  1
  Ag  Ag1  1  0.00752017  0.50661317  0.49589837  1
  Ag  Ag2  1  0.24772739  0.50267760  0.25692208  1
  Ag  Ag3  1  0.24680420  0.74559753  0.49600875  1
  Ag  Ag4  1  0.50087031  0.74951030  0.74624869  1
  Ag  Ag5  1  0.25107134  0.25399637  0.49885450  1
  Ag  Ag6  1  0.00385137  -0.00634851  0.49806348  1
  Ag  Ag7  1  0.74546510  -0.00058595  0.74914751  1
  Ag  Ag8  1  0.49908839  0.49815413  -0.00267607  1
  Ag  Ag9  1  0.50121765  0.25025122  0.75188677  1
  Ag  Ag10  1  0.24905457  -0.00297769  0.25524630  1
  Ag  Ag11  1  0.00212486  0.50123198  0.00334272  1
  Ag  Ag12  1  0.50077262  0.00141770  -0.00405801  1
  Ag  Ag13  1  0.75164421  0.74919189  0.50190844  1
  Ag  Ag14  1  0.74525332  0.25055565  -0.00352236  1
  Ag  Ag15  1  0.49331086  0.50309221  0.50177136  1
  Sb  Sb16  1  0.25312985  0.25298711  -0.00079419  1
  Sb  Sb17  1  -0.00012041  0.25016335  0.74873891  1
  Sb  Sb18  1  -0.00017089  -0.00139934  0.00178201  1
  Sb  Sb19  1  0.49764308  0.25109591  0.24961196  1
  Sb  Sb20  1  0.75054320  -0.00298980  0.25059162  1
  Sb  Sb21  1  0.25259282  -0.00113569  0.74687367  1
  Sb  Sb22  1  0.25109881  0.74780217  0.00285589  1
  Sb  Sb23  1  0.74842898  0.74949970  -0.00279426  1
  Sb  Sb24  1  0.74902306  0.25086101  0.50294665  1
  Sb  Sb25  1  0.49755948  -0.00187201  0.50214137  1
  Sb  Sb26  1  0.00008308  0.74998415  0.74315649  1
  Sb  Sb27  1  0.00260526  0.25320005  0.25089741  1
  Sb  Sb28  1  0.49656912  0.74820869  0.25370092  1
  Sb  Sb29  1  0.75309691  0.50256061  0.25067088  1
  Sb  Sb30  1  0.74648589  0.50080148  0.74959124  1
  Sb  Sb31  1  0.25300446  0.50091223  0.74209131  1
  Te  Te32  1  0.25004868  0.25034257  0.25680299  1
  Te  Te33  1  0.25665422  0.24860713  0.74320575  1
  Te  Te34  1  0.24714052  0.74895948  0.25380344  1
  Te  Te35  1  0.25647528  0.75139773  0.74245595  1
  Te  Te36  1  0.75011653  0.24911038  0.24151086  1
  Te  Te37  1  0.74445530  0.24433420  0.75332450  1
  Te  Te38  1  0.75704217  0.75059977  0.25879041  1
  Te  Te39  1  0.74507787  0.75536122  0.74480516  1
  Te  Te40  1  0.25317993  0.00039688  0.00576251  1
  Te  Te41  1  0.24815828  -0.00050576  0.49674769  1
  Te  Te42  1  0.25079562  0.49921030  0.00720846  1
  Te  Te43  1  0.25018632  0.50113960  0.49791717  1
  Te  Te44  1  0.74703179  0.00189441  -0.00243363  1
  Te  Te45  1  0.75233859  -0.00129368  0.50247715  1
  Te  Te46  1  0.74667221  0.49747976  0.00047219  1
  Te  Te47  1  0.74911911  0.50241234  0.49926110  1
  Te  Te48  1  -0.00365299  0.25589151  -0.00154138  1
  Te  Te49  1  0.00213093  0.25180547  0.50170199  1
  Te  Te50  1  -0.00048308  0.74390082  0.00440057  1
  Te  Te51  1  0.00176086  0.74795055  0.50012222  1
  Te  Te52  1  0.50112278  0.25314767  -0.00357919  1
  Te  Te53  1  0.49863728  0.25376691  0.50378584  1
  Te  Te54  1  0.50036399  0.74692284  -0.00470287  1
  Te  Te55  1  0.50040539  0.74752476  0.50219166  1
  Te  Te56  1  0.00422486  -0.00400565  0.25342751  1
  Te  Te57  1  -0.00552890  -0.00036554  0.74669348  1
  Te  Te58  1  0.00305284  0.50273284  0.25239119  1
  Te  Te59  1  -0.00068291  0.50060270  0.75124958  1
  Te  Te60  1  0.49492049  -0.00087502  0.24381070  1
  Te  Te61  1  0.50226257  -0.00014763  0.75268327  1
  Te  Te62  1  0.49493294  0.50118220  0.24979126  1
  Te  Te63  1  0.50037611  0.50044116  0.75141098  1
