# generated using pymatgen
data_AgSbTe2
_symmetry_space_group_name_H-M   'P 1'
_cell_length_a   12.21346159
_cell_length_b   12.21777046
_cell_length_c   12.21424471
_cell_angle_alpha   90.00429943
_cell_angle_beta   90.00156736
_cell_angle_gamma   90.00398251
_symmetry_Int_Tables_number   1
_chemical_formula_structural   AgSbTe2
_chemical_formula_sum   'Ag16 Sb16 Te32'
_cell_volume   1822.62510051
_cell_formula_units_Z   16
loop_
 _symmetry_equiv_pos_site_id
 _symmetry_equiv_pos_as_xyz
  1  'x, y, z'
loop_
 _atom_site_type_symbol
 _atom_site_label
 _atom_site_symmetry_multiplicity
 _atom_site_fract_x
 _atom_site_fract_y
 _atom_site_fract_z
 _atom_site_occupancy
  Ag  Ag0  1  0.24483794  0.49211728  0.25335499  1
  Ag  Ag1  1  -0.00101396  0.74881758  0.75030557  1
  Ag  Ag2  1  0.75544063  0.75237112  -0.00155123  1
  Ag  Ag3  1  0.24616494  0.00721873  0.25211139  1
  Ag  Ag4  1  0.24189556  0.24773219  0.00406489  1
  Ag  Ag5  1  0.75787398  0.24703156  -0.00169366  1
  Ag  Ag6  1  0.00350739  0.49648875  0.50205112  1
  Ag  Ag7  1  0.75519914  0.49624594  0.75088185  1
  Ag  Ag8  1  0.49634376  0.00312822  0.49912130  1
  Ag  Ag9  1  0.24651912  0.75075111  0.49902659  1
  Ag  Ag10  1  0.49963134  0.24949083  0.74938541  1
  Ag  Ag11  1  0.24612371  0.24914217  0.49546500  1
  Ag  Ag12  1  0.75455907  0.00394788  0.24648075  1
  Ag  Ag13  1  0.00600075  0.24702965  0.24619633  1
  Ag  Ag14  1  -0.00023434  0.25170729  0.75384665  1
  Ag  Ag15  1  -0.00187069  0.00698035  0.00276338  1
  Sb  Sb16  1  0.24376065  0.75226127  0.00043738  1
  Sb  Sb17  1  0.00059561  0.75230022  0.24931033  1
  Sb  Sb18  1  0.49954488  0.49715909  -0.00157619  1
  Sb  Sb19  1  0.00008607  0.49184662  -0.00239592  1
  Sb  Sb20  1  0.24443924  0.49618297  0.74722361  1
  Sb  Sb21  1  0.49642498  0.49729892  0.50239316  1
  Sb  Sb22  1  0.75396000  0.75213760  0.50121635  1
  Sb  Sb23  1  0.49398534  0.24789222  0.25172034  1
  Sb  Sb24  1  0.75260207  0.00350668  0.75385122  1
  Sb  Sb25  1  0.75544055  0.49556601  0.24944827  1
  Sb  Sb26  1  0.50095605  0.00345259  0.00084289  1
  Sb  Sb27  1  0.24881325  0.00346518  0.74800646  1
  Sb  Sb28  1  0.49965898  0.75195975  0.25109447  1
  Sb  Sb29  1  0.75317670  0.24866167  0.50123924  1
  Sb  Sb30  1  0.50125591  0.75042460  0.74819525  1
  Sb  Sb31  1  0.00343208  0.00333480  0.49744547  1
  Te  Te32  1  0.24910526  0.24796638  0.25025325  1
  Te  Te33  1  0.24662516  0.25117852  0.75069378  1
  Te  Te34  1  0.24957932  0.75192213  0.25306886  1
  Te  Te35  1  0.24522236  0.74846998  0.74665204  1
  Te  Te36  1  0.75354169  0.24825344  0.24638538  1
  Te  Te37  1  0.75430659  0.25147459  0.75189194  1
  Te  Te38  1  0.75038684  0.75305267  0.24470378  1
  Te  Te39  1  0.75346943  0.74714652  0.75287421  1
  Te  Te40  1  0.24741176  0.00314372  0.00541639  1
  Te  Te41  1  0.25028865  0.00218060  0.49666420  1
  Te  Te42  1  0.25043088  0.49594000  0.00687377  1
  Te  Te43  1  0.24675550  0.49791480  0.49758474  1
  Te  Te44  1  0.75154879  0.00330649  0.00368546  1
  Te  Te45  1  0.74537749  -0.00126852  0.49167848  1
  Te  Te46  1  0.74960697  0.49848153  -0.00248956  1
  Te  Te47  1  0.75474532  0.50122266  0.50276353  1
  Te  Te48  1  0.00065177  0.24873980  -0.00101244  1
  Te  Te49  1  0.00358525  0.25057736  0.50130684  1
  Te  Te50  1  -0.00276130  0.75564621  -0.00448792  1
  Te  Te51  1  0.00433893  0.74805686  0.50438574  1
  Te  Te52  1  0.50021025  0.24884211  -0.00708295  1
  Te  Te53  1  0.49503680  0.24673653  0.50470836  1
  Te  Te54  1  0.50829563  0.75024591  -0.00202396  1
  Te  Te55  1  0.49251127  0.75461943  0.50155575  1
  Te  Te56  1  0.00052734  0.00324874  0.24778404  1
  Te  Te57  1  -0.00054999  0.00166151  0.75416726  1
  Te  Te58  1  0.00363176  0.49542712  0.25570297  1
  Te  Te59  1  -0.00298152  0.49719605  0.74710014  1
  Te  Te60  1  0.49876676  0.00096247  0.25496669  1
  Te  Te61  1  0.50050910  0.00562451  0.74389816  1
  Te  Te62  1  0.49247658  0.50045326  0.25097333  1
  Te  Te63  1  0.50823864  0.49392578  0.74909506  1
