# generated using pymatgen
data_AgSbTe2
_symmetry_space_group_name_H-M   'P 1'
_cell_length_a   12.21932770
_cell_length_b   12.21629653
_cell_length_c   12.21356208
_cell_angle_alpha   90.00234310
_cell_angle_beta   89.99957193
_cell_angle_gamma   90.00278055
_symmetry_Int_Tables_number   1
_chemical_formula_structural   AgSbTe2
_chemical_formula_sum   'Ag16 Sb16 Te32'
_cell_volume   1823.17862740
_cell_formula_units_Z   16
loop_
 _symmetry_equiv_pos_site_id
 _symmetry_equiv_pos_as_xyz
  1  'x, y, z'
loop_
 _atom_site_type_symbol
 _atom_site_label
 _atom_site_symmetry_multiplicity
 _atom_site_fract_x
 _atom_site_fract_y
 _atom_site_fract_z
 _atom_site_occupancy
  Ag  Ag0  1  0.75153283  0.50365128  0.74908465  1
  Ag  Ag1  1  0.00531690  0.74727963  0.74896655  1
  Ag  Ag2  1  0.49928069  0.24844444  0.25224715  1
  Ag  Ag3  1  0.00109962  0.50265921  0.50269955  1
  Ag  Ag4  1  0.74762098  0.25151546  -0.00043052  1
  Ag  Ag5  1  0.25352186  -0.00815820  0.74652968  1
  Ag  Ag6  1  0.74958232  0.50161311  0.25055483  1
  Ag  Ag7  1  0.49466421  0.75269036  0.74913838  1
  Ag  Ag8  1  0.74699600  -0.00382405  0.74910172  1
  Ag  Ag9  1  0.25080981  0.75089772  -0.00395192  1
  Ag  Ag10  1  0.25211071  0.24768216  0.50012451  1
  Ag  Ag11  1  0.49572347  -0.00131798  0.50063001  1
  Ag  Ag12  1  0.00326795  0.74853935  0.25141728  1
  Ag  Ag13  1  0.25443206  -0.00471575  0.25321117  1
  Ag  Ag14  1  0.49609508  0.75253494  0.25139221  1
  Ag  Ag15  1  0.24849806  0.50863818  0.74734532  1
  Sb  Sb16  1  0.74987026  0.74917037  0.50249583  1
  Sb  Sb17  1  0.49984580  0.24669306  0.74737055  1
  Sb  Sb18  1  0.74719752  0.25072999  0.49961683  1
  Sb  Sb19  1  0.49771969  0.50128278  0.50109249  1
  Sb  Sb20  1  0.00362537  -0.00244700  0.50127803  1
  Sb  Sb21  1  0.25198214  0.24956191  0.00088297  1
  Sb  Sb22  1  0.00077879  0.25199051  0.25284253  1
  Sb  Sb23  1  0.25040646  0.75278994  0.50586399  1
  Sb  Sb24  1  0.00038121  -0.00249735  -0.00151858  1
  Sb  Sb25  1  0.49950586  -0.00090073  -0.00159177  1
  Sb  Sb26  1  0.74858155  0.74925866  -0.00308634  1
  Sb  Sb27  1  0.00001236  0.25385218  0.74779492  1
  Sb  Sb28  1  0.74575183  -0.00124442  0.25090375  1
  Sb  Sb29  1  -0.00026403  0.50300742  -0.00276523  1
  Sb  Sb30  1  0.24952942  0.50616733  0.25323067  1
  Sb  Sb31  1  0.50010913  0.50037029  -0.00095454  1
  Te  Te32  1  0.25271271  0.24711414  0.24939613  1
  Te  Te33  1  0.25116135  0.24797292  0.74952757  1
  Te  Te34  1  0.25188001  0.75057080  0.24717134  1
  Te  Te35  1  0.25081479  0.75113201  0.74963604  1
  Te  Te36  1  0.74753621  0.25193617  0.24805107  1
  Te  Te37  1  0.74887956  0.25224402  0.75305466  1
  Te  Te38  1  0.74909094  0.74678681  0.24666183  1
  Te  Te39  1  0.74939940  0.74823094  0.75295700  1
  Te  Te40  1  0.24939054  -0.00236869  -0.00118465  1
  Te  Te41  1  0.25246013  0.00407295  0.50089978  1
  Te  Te42  1  0.25004407  0.50297321  -0.00867425  1
  Te  Te43  1  0.24764927  0.49317947  0.50475926  1
  Te  Te44  1  0.75071613  0.00507943  -0.00717770  1
  Te  Te45  1  0.74477575  0.00220978  0.50695419  1
  Te  Te46  1  0.75000152  0.49641171  -0.00150655  1
  Te  Te47  1  0.75402440  0.49865749  0.50221229  1
  Te  Te48  1  -0.00724405  0.24982575  0.00072822  1
  Te  Te49  1  0.00751650  0.25650247  0.49945436  1
  Te  Te50  1  0.00643014  0.74996230  -0.00015334  1
  Te  Te51  1  -0.00047212  0.74516465  0.49993356  1
  Te  Te52  1  0.50443589  0.25009511  0.00910843  1
  Te  Te53  1  0.49533949  0.24607157  0.49505230  1
  Te  Te54  1  0.49399847  0.74984353  0.00055786  1
  Te  Te55  1  0.50066394  0.75471474  0.49863610  1
  Te  Te56  1  0.00380996  -0.00709746  0.25271574  1
  Te  Te57  1  0.00098629  -0.00715817  0.74783953  1
  Te  Te58  1  -0.00262238  0.50431227  0.25430025  1
  Te  Te59  1  -0.00167637  0.50400257  0.74688578  1
  Te  Te60  1  0.49887159  -0.00390341  0.25420749  1
  Te  Te61  1  0.49813065  -0.00302376  0.74630440  1
  Te  Te62  1  0.50370996  0.50307999  0.25270107  1
  Te  Te63  1  0.50199933  0.50548990  0.74747362  1
