# generated using pymatgen
data_AgSbTe2
_symmetry_space_group_name_H-M   'P 1'
_cell_length_a   12.21971466
_cell_length_b   12.20991534
_cell_length_c   12.22133926
_cell_angle_alpha   89.99524729
_cell_angle_beta   90.00045917
_cell_angle_gamma   89.99341691
_symmetry_Int_Tables_number   1
_chemical_formula_structural   AgSbTe2
_chemical_formula_sum   'Ag16 Sb16 Te32'
_cell_volume   1823.44434818
_cell_formula_units_Z   16
loop_
 _symmetry_equiv_pos_site_id
 _symmetry_equiv_pos_as_xyz
  1  'x, y, z'
loop_
 _atom_site_type_symbol
 _atom_site_label
 _atom_site_symmetry_multiplicity
 _atom_site_fract_x
 _atom_site_fract_y
 _atom_site_fract_z
 _atom_site_occupancy
  Ag  Ag0  1  0.24443917  0.74558775  -0.00044194  1
  Ag  Ag1  1  0.49907478  0.49949752  0.50149060  1
  Ag  Ag2  1  0.49850855  0.50185272  -0.00123674  1
  Ag  Ag3  1  -0.00069100  0.25279248  0.75147650  1
  Ag  Ag4  1  -0.00330437  0.74636976  0.24368267  1
  Ag  Ag5  1  0.75188610  0.50582821  0.24869878  1
  Ag  Ag6  1  0.75181388  -0.00536207  0.24688824  1
  Ag  Ag7  1  -0.00410883  -0.00725890  -0.00215596  1
  Ag  Ag8  1  0.00041509  0.50211783  0.50113109  1
  Ag  Ag9  1  0.50329916  0.00051113  0.50232103  1
  Ag  Ag10  1  0.24897371  0.50175552  0.75149146  1
  Ag  Ag11  1  -0.00100050  0.74811558  0.75658841  1
  Ag  Ag12  1  0.75225062  -0.00197775  0.75222732  1
  Ag  Ag13  1  0.75669659  0.75085376  0.00183865  1
  Ag  Ag14  1  0.24860587  0.50480680  0.24828318  1
  Ag  Ag15  1  0.50061196  0.25335779  0.74915810  1
  Sb  Sb16  1  0.24840774  -0.00660515  0.24729498  1
  Sb  Sb17  1  -0.00103349  0.25394901  0.24820650  1
  Sb  Sb18  1  -0.00248937  -0.00112974  0.50193426  1
  Sb  Sb19  1  0.75128515  0.74904684  0.49790535  1
  Sb  Sb20  1  0.75122847  0.25128140  -0.00250868  1
  Sb  Sb21  1  0.75072807  0.50303862  0.75172888  1
  Sb  Sb22  1  0.50100990  0.74721694  0.75184198  1
  Sb  Sb23  1  0.24891145  -0.00320403  0.75206750  1
  Sb  Sb24  1  0.25019830  0.25318518  0.50239204  1
  Sb  Sb25  1  0.00128707  0.50785329  -0.00085314  1
  Sb  Sb26  1  0.24860109  0.25585706  -0.00298744  1
  Sb  Sb27  1  0.24831295  0.74599866  0.50021067  1
  Sb  Sb28  1  0.50425581  -0.00091736  -0.00121958  1
  Sb  Sb29  1  0.74975067  0.25105221  0.50232541  1
  Sb  Sb30  1  0.50070774  0.25315172  0.25042720  1
  Sb  Sb31  1  0.50424075  0.74745078  0.24841692  1
  Te  Te32  1  0.24910251  0.26066268  0.24885496  1
  Te  Te33  1  0.24938815  0.25638252  0.75119319  1
  Te  Te34  1  0.24370936  0.74468565  0.24465748  1
  Te  Te35  1  0.24477113  0.74537196  0.75523895  1
  Te  Te36  1  0.75114381  0.24924420  0.24885416  1
  Te  Te37  1  0.75109912  0.24398092  0.75123987  1
  Te  Te38  1  0.75338272  0.74933045  0.24622134  1
  Te  Te39  1  0.75479858  0.75416603  0.75546011  1
  Te  Te40  1  0.24601773  -0.00893532  0.00160336  1
  Te  Te41  1  0.25934204  -0.00068348  0.49831266  1
  Te  Te42  1  0.25210754  0.50467297  -0.00081869  1
  Te  Te43  1  0.25227421  0.50123488  0.50062911  1
  Te  Te44  1  0.75148822  -0.00443979  0.00052967  1
  Te  Te45  1  0.74520170  -0.00060450  0.49997572  1
  Te  Te46  1  0.74648911  0.50463831  0.00376553  1
  Te  Te47  1  0.74821625  0.50071879  0.49447053  1
  Te  Te48  1  0.00083183  0.24011560  -0.00686016  1
  Te  Te49  1  0.00033210  0.25580839  0.50774659  1
  Te  Te50  1  -0.00188702  0.75045423  -0.00028145  1
  Te  Te51  1  0.00009144  0.74545824  0.50043961  1
  Te  Te52  1  0.49926379  0.25552776  -0.00705893  1
  Te  Te53  1  0.49968252  0.25362363  0.50662327  1
  Te  Te54  1  0.49974145  0.74563341  -0.00048542  1
  Te  Te55  1  0.49961424  0.74695996  0.50019926  1
  Te  Te56  1  -0.00394876  -0.00204255  0.25055857  1
  Te  Te57  1  -0.00172734  -0.00132921  0.74869017  1
  Te  Te58  1  -0.00138963  0.50103822  0.25141220  1
  Te  Te59  1  -0.00019964  0.50062760  0.74898737  1
  Te  Te60  1  0.50530978  0.00141819  0.25326808  1
  Te  Te61  1  0.50183496  0.00267832  0.74796862  1
  Te  Te62  1  0.50046932  0.49878375  0.25241760  1
  Te  Te63  1  0.50057569  0.49874461  0.74756241  1
