# generated using pymatgen
data_AgSbTe2
_symmetry_space_group_name_H-M   'P 1'
_cell_length_a   12.26956206
_cell_length_b   12.26373490
_cell_length_c   12.27590560
_cell_angle_alpha   90.00209702
_cell_angle_beta   90.00064623
_cell_angle_gamma   90.00587972
_symmetry_Int_Tables_number   1
_chemical_formula_structural   AgSbTe2
_chemical_formula_sum   'Ag16 Sb16 Te32'
_cell_volume   1847.16356429
_cell_formula_units_Z   16
loop_
 _symmetry_equiv_pos_site_id
 _symmetry_equiv_pos_as_xyz
  1  'x, y, z'
loop_
 _atom_site_type_symbol
 _atom_site_label
 _atom_site_symmetry_multiplicity
 _atom_site_fract_x
 _atom_site_fract_y
 _atom_site_fract_z
 _atom_site_occupancy
  Ag  Ag0  1  0.00285317  0.50478690  0.51308895  1
  Ag  Ag1  1  0.76499143  0.75163184  -0.00452319  1
  Ag  Ag2  1  0.76426462  0.50157280  0.75786121  1
  Ag  Ag3  1  0.50018581  0.24700266  0.75187175  1
  Ag  Ag4  1  0.24249125  0.50512294  0.24400122  1
  Ag  Ag5  1  0.24277455  -0.00448727  0.24746704  1
  Ag  Ag6  1  0.00172814  -0.01120669  -0.00391683  1
  Ag  Ag7  1  0.75474147  0.24832044  -0.00429526  1
  Ag  Ag8  1  0.23614343  0.75114411  -0.00503362  1
  Ag  Ag9  1  0.00383044  0.74549040  0.75924223  1
  Ag  Ag10  1  0.75877768  -0.00141131  0.24453306  1
  Ag  Ag11  1  0.00247007  0.51224891  -0.01218749  1
  Ag  Ag12  1  0.23557537  0.50625129  0.75562764  1
  Ag  Ag13  1  0.00428480  -0.00409939  0.50356849  1
  Ag  Ag14  1  0.49497045  0.00240890  0.50329169  1
  Ag  Ag15  1  0.24146985  -0.00476430  0.75264020  1
  Sb  Sb16  1  0.75989588  -0.00192227  0.75628174  1
  Sb  Sb17  1  0.25028228  0.24816214  0.50206020  1
  Sb  Sb18  1  0.49692679  0.75311436  0.75086546  1
  Sb  Sb19  1  0.24518129  0.75118337  0.50606744  1
  Sb  Sb20  1  0.75963860  0.50214244  0.24200531  1
  Sb  Sb21  1  0.49860257  0.75177957  0.24947057  1
  Sb  Sb22  1  0.49574722  0.49818130  0.50399990  1
  Sb  Sb23  1  -0.00174289  0.25462176  0.75152254  1
  Sb  Sb24  1  -0.00108274  0.24757276  0.24855516  1
  Sb  Sb25  1  0.50183766  0.24714922  0.24752836  1
  Sb  Sb26  1  0.49558157  0.49907916  -0.00180021  1
  Sb  Sb27  1  0.49692973  0.00098928  -0.00434098  1
  Sb  Sb28  1  0.00116339  0.75284660  0.23820997  1
  Sb  Sb29  1  0.24372918  0.24948667  -0.00254838  1
  Sb  Sb30  1  0.75493546  0.75120169  0.50602309  1
  Sb  Sb31  1  0.74971966  0.24854997  0.50590586  1
  Te  Te32  1  0.25106702  0.24640112  0.24821147  1
  Te  Te33  1  0.25630082  0.24966485  0.75242643  1
  Te  Te34  1  0.24929387  0.75346093  0.23804939  1
  Te  Te35  1  0.24782113  0.74963759  0.75448019  1
  Te  Te36  1  0.74877769  0.24430241  0.23935473  1
  Te  Te37  1  0.74682037  0.25365507  0.75442219  1
  Te  Te38  1  0.74970239  0.75497648  0.23734837  1
  Te  Te39  1  0.75305094  0.74656280  0.75650375  1
  Te  Te40  1  0.24776154  0.00177934  -0.00001321  1
  Te  Te41  1  0.24038577  -0.00177690  0.49847887  1
  Te  Te42  1  0.24686127  0.49820952  -0.00373554  1
  Te  Te43  1  0.24378564  0.50159259  0.50302401  1
  Te  Te44  1  0.75252334  -0.00418825  0.00016080  1
  Te  Te45  1  0.76011523  -0.00034542  0.49309073  1
  Te  Te46  1  0.75435392  0.50463938  0.00118486  1
  Te  Te47  1  0.75760633  0.50040354  0.50110288  1
  Te  Te48  1  -0.00719477  0.24775106  -0.00137117  1
  Te  Te49  1  -0.00052296  0.24648131  0.50094784  1
  Te  Te50  1  0.00175007  0.75125749  -0.00627258  1
  Te  Te51  1  0.00027146  0.75225018  0.51658562  1
  Te  Te52  1  0.51378275  0.25042501  -0.00735214  1
  Te  Te53  1  0.50031483  0.24159559  0.50839189  1
  Te  Te54  1  0.50085650  0.74945737  -0.00108435  1
  Te  Te55  1  0.50267888  0.76237877  0.50084033  1
  Te  Te56  1  0.00497776  -0.00167733  0.25141540  1
  Te  Te57  1  0.00203401  0.00045865  0.75098551  1
  Te  Te58  1  0.00614506  0.50048165  0.25109680  1
  Te  Te59  1  0.00275778  0.49785286  0.75213160  1
  Te  Te60  1  0.49229096  0.00135493  0.25810904  1
  Te  Te61  1  0.49326224  0.00044087  0.74683770  1
  Te  Te62  1  0.48492648  0.49867532  0.25542158  1
  Te  Te63  1  0.49654346  0.49769100  0.74618395  1
