# generated using pymatgen
data_AgSbTe2
_symmetry_space_group_name_H-M   'P 1'
_cell_length_a   12.21510058
_cell_length_b   12.22107547
_cell_length_c   12.22127173
_cell_angle_alpha   89.99807469
_cell_angle_beta   90.01100563
_cell_angle_gamma   89.99458725
_symmetry_Int_Tables_number   1
_chemical_formula_structural   AgSbTe2
_chemical_formula_sum   'Ag16 Sb16 Te32'
_cell_volume   1824.41176096
_cell_formula_units_Z   16
loop_
 _symmetry_equiv_pos_site_id
 _symmetry_equiv_pos_as_xyz
  1  'x, y, z'
loop_
 _atom_site_type_symbol
 _atom_site_label
 _atom_site_symmetry_multiplicity
 _atom_site_fract_x
 _atom_site_fract_y
 _atom_site_fract_z
 _atom_site_occupancy
  Ag  Ag0  1  0.00502517  0.75135664  0.25554285  1
  Ag  Ag1  1  0.49471836  0.25186668  0.75939393  1
  Ag  Ag2  1  0.48530900  0.74839060  0.75382470  1
  Ag  Ag3  1  0.25872407  0.25200923  -0.00363229  1
  Ag  Ag4  1  0.25425600  0.74869662  -0.01360319  1
  Ag  Ag5  1  0.25048780  -0.01368255  0.75032391  1
  Ag  Ag6  1  0.00465961  0.50885701  0.50171523  1
  Ag  Ag7  1  0.00320534  -0.00858402  0.50045116  1
  Ag  Ag8  1  0.74052862  0.24973582  0.00103254  1
  Ag  Ag9  1  0.49948967  0.24997055  0.24071110  1
  Ag  Ag10  1  0.24466772  0.74969432  0.51276824  1
  Ag  Ag11  1  0.49514169  0.75037809  0.24617661  1
  Ag  Ag12  1  0.01473023  0.74987984  0.74447371  1
  Ag  Ag13  1  0.49559771  0.49716738  -0.00221756  1
  Ag  Ag14  1  0.74914147  -0.00049559  0.24929573  1
  Ag  Ag15  1  0.25222542  0.51341441  0.75209454  1
  Sb  Sb16  1  0.25097294  0.25054351  0.50331395  1
  Sb  Sb17  1  0.25077204  0.50328162  0.24676235  1
  Sb  Sb18  1  0.74903431  0.49992205  0.24830352  1
  Sb  Sb19  1  0.75020355  0.00049857  0.75060988  1
  Sb  Sb20  1  0.74268426  0.75053196  0.00118856  1
  Sb  Sb21  1  0.74751703  0.49967040  0.75188616  1
  Sb  Sb22  1  0.74824303  0.24793600  0.49884829  1
  Sb  Sb23  1  0.49789677  0.00452612  -0.00015987  1
  Sb  Sb24  1  0.75745143  0.75123064  0.49897477  1
  Sb  Sb25  1  0.00228853  -0.00369215  -0.00062383  1
  Sb  Sb26  1  0.00094980  0.24788225  0.24889001  1
  Sb  Sb27  1  0.49471885  0.50394967  0.50294112  1
  Sb  Sb28  1  0.49556581  -0.00373230  0.50032874  1
  Sb  Sb29  1  0.00662749  0.25016828  0.75129250  1
  Sb  Sb30  1  0.00556364  0.50390458  -0.00219114  1
  Sb  Sb31  1  0.25012317  -0.00364601  0.25021887  1
  Te  Te32  1  0.25595539  0.24890160  0.24372239  1
  Te  Te33  1  0.25358088  0.25004180  0.75321683  1
  Te  Te34  1  0.25171912  0.75084614  0.24921161  1
  Te  Te35  1  0.25055863  0.75050232  0.75135294  1
  Te  Te36  1  0.74541173  0.24618204  0.24642583  1
  Te  Te37  1  0.74137293  0.24840925  0.75567857  1
  Te  Te38  1  0.74773020  0.75476856  0.24888617  1
  Te  Te39  1  0.74848523  0.75173990  0.75113325  1
  Te  Te40  1  0.24858150  -0.00123473  -0.00616526  1
  Te  Te41  1  0.24537527  -0.00321976  0.50468906  1
  Te  Te42  1  0.25385950  0.50068696  -0.00327053  1
  Te  Te43  1  0.24544705  0.50308714  0.50598264  1
  Te  Te44  1  0.75196465  0.00642608  0.00543132  1
  Te  Te45  1  0.75901606  0.00088757  0.49445481  1
  Te  Te46  1  0.74166140  0.49264623  -0.00017807  1
  Te  Te47  1  0.76157388  0.49922119  0.50034163  1
  Te  Te48  1  0.00203782  0.25178579  0.00069948  1
  Te  Te49  1  0.00031542  0.24995750  0.49908029  1
  Te  Te50  1  0.00524231  0.74821186  0.00010670  1
  Te  Te51  1  0.00207227  0.75039556  0.50004136  1
  Te  Te52  1  0.49724503  0.25005848  0.00014707  1
  Te  Te53  1  0.49964622  0.25145125  0.49884208  1
  Te  Te54  1  0.49785410  0.74687309  0.00037212  1
  Te  Te55  1  0.49306267  0.74844088  0.49934693  1
  Te  Te56  1  -0.00203521  -0.00415889  0.25430873  1
  Te  Te57  1  0.00210439  -0.00326687  0.74592957  1
  Te  Te58  1  0.00001939  0.50680332  0.25526573  1
  Te  Te59  1  0.00386608  0.50329875  0.74743495  1
  Te  Te60  1  0.50334098  -0.00223342  0.25200405  1
  Te  Te61  1  0.49710741  -0.00179049  0.74816937  1
  Te  Te62  1  0.49989329  0.50148325  0.24670988  1
  Te  Te63  1  0.49741391  0.50116743  0.75169345  1
